MODEL 4
REMARK VINA RESULT: -6.334027441      2.637      6.621
REMARK  7 active torsions:
REMARK  status: ('A' for Active; 'I' for Inactive)
REMARK    1  A    between atoms: C2_2  and  C3_3
REMARK    2  A    between atoms: C3_3  and  O1_4
REMARK    3  A    between atoms: C3_3  and  C4_6
REMARK    4  A    between atoms: C4_6  and  C5_7
REMARK    5  A    between atoms: C11_13  and  O2_14
REMARK    6  A    between atoms: C15_19  and  O3_20
REMARK    7  A    between atoms: C20_26  and  O4_27
ROOT
HETATM    1  C5  UNL     1      12.020  32.520  11.984  1.00  0.00    -0.015 C
HETATM    2  C6  UNL     1      11.052  32.433  10.819  1.00  0.00     0.018 C
HETATM    3  C7  UNL     1      11.393  31.825  13.143  1.00  0.00     0.012 C
HETATM    4  C8  UNL     1      12.115  32.089  14.452  1.00  0.00     0.007 C
HETATM    5  C9  UNL     1      12.391  33.554  14.641  1.00  0.00     0.003 C
HETATM    6  C10 UNL     1      11.535  34.315  13.658  1.00  0.00     0.049 C
HETATM    7  C11 UNL     1      11.589  35.811  13.904  1.00  0.00     0.125 C
HETATM    8  C12 UNL     1      12.664  36.135  14.915  1.00  0.00     0.037 C
HETATM    9  C13 UNL     1      12.365  35.448  16.233  1.00  0.00    -0.001 C
HETATM   10  C14 UNL     1      13.503  35.782  17.170  1.00  0.00     0.037 C
HETATM   11  C15 UNL     1      13.190  35.130  18.498  1.00  0.00     0.118 C
HETATM   12  C16 UNL     1      13.230  33.643  18.320  1.00  0.00     0.032 C
HETATM   13  C17 UNL     1      13.203  33.198  16.892  1.00  0.00     0.012 C
HETATM   14  C18 UNL     1      12.167  33.966  16.066  1.00  0.00    -0.036 C
HETATM   15  C19 UNL     1      10.787  33.576  16.550  1.00  0.00     0.016 C
HETATM   16  C20 UNL     1      12.127  34.023  12.294  1.00  0.00     0.133 C
ENDROOT
BRANCH   1  17
HETATM   17  C4  UNL     1      13.384  32.067  11.666  1.00  0.00     0.043 C
BRANCH  17  18
HETATM   18  C3  UNL     1      13.665  30.636  11.496  1.00  0.00     0.118 C
BRANCH  18  19
HETATM   19  C2  UNL     1      14.085  30.437  10.025  1.00  0.00     0.027 C
HETATM   20  C1  UNL     1      15.602  30.519  10.019  1.00  0.00     0.007 C
ENDBRANCH  18  19
BRANCH  18  21
HETATM   21  O1  UNL     1      14.681  30.081  12.224  1.00  0.00    -0.396 OA
ATOM     22  H1  UNL     1      14.368  29.213  12.452  1.00  0.00     0.210 HD
ENDBRANCH  18  21
ENDBRANCH  17  18
ENDBRANCH   1  17
BRANCH  16  23
HETATM   23  O4  UNL     1      11.522  34.803  11.328  1.00  0.00    -0.394 OA
ATOM     24  H4  UNL     1      12.151  35.303  10.821  1.00  0.00     0.210 HD
ENDBRANCH  16  23
BRANCH   7  25
HETATM   25  O2  UNL     1      10.391  36.311  14.411  1.00  0.00    -0.395 OA
ATOM     26  H2  UNL     1      10.098  37.088  13.950  1.00  0.00     0.210 HD
ENDBRANCH   7  25
BRANCH  11  27
HETATM   27  O3  UNL     1      14.097  35.547  19.475  1.00  0.00    -0.396 OA
ATOM     28  H3  UNL     1      14.981  35.294  19.237  1.00  0.00     0.210 HD
ENDBRANCH  11  27
TORSDOF 7
ENDMDL