MODEL 5
REMARK VINA RESULT: -5.967632843      2.225      2.839
REMARK  6 active torsions:
REMARK  status: ('A' for Active; 'I' for Inactive)
REMARK    1  A    between atoms: C2_2  and  N1_4
REMARK    2  A    between atoms: N1_4  and  C4_6
REMARK    3  A    between atoms: C4_6  and  O1_7
REMARK    4  A    between atoms: C9_13  and  O2_14
REMARK    5  A    between atoms: C10_16  and  C11_17
REMARK    6  A    between atoms: C19_25  and  N2_26
ROOT
HETATM    1  C4  UNL     1      10.753  35.782  12.258  1.00  0.00     0.128 C
HETATM    2  C5  UNL     1      11.604  36.805  12.841  1.00  0.00     0.061 C
HETATM    3  C6  UNL     1      12.034  36.654  14.271  1.00  0.00     0.010 C
HETATM    4  C7  UNL     1      12.370  35.287  14.694  1.00  0.00    -0.003 C
HETATM    5  C8  UNL     1      13.389  35.112  15.757  1.00  0.00     0.024 A
HETATM    6  C9  UNL     1      13.194  35.821  17.045  1.00  0.00     0.127 A
HETATM    7  C10 UNL     1      12.820  34.532  17.692  1.00  0.00     0.022 A
HETATM    8  C14 UNL     1      12.999  33.779  16.390  1.00  0.00    -0.000 A
HETATM    9  C15 UNL     1      11.644  33.406  15.800  1.00  0.00     0.011 C
HETATM   10  C16 UNL     1      11.129  34.747  15.418  1.00  0.00     0.001 C
HETATM   11  C17 UNL     1      10.008  34.816  14.474  1.00  0.00    -0.002 A
HETATM   12  C18 UNL     1       8.845  35.648  14.808  1.00  0.00     0.045 A
HETATM   13  C19 UNL     1       8.698  34.192  14.998  1.00  0.00     0.193 A
HETATM   14  C20 UNL     1      10.397  34.570  13.058  1.00  0.00     0.072 C
ENDROOT
BRANCH   1  15
HETATM   15  N1  UNL     1       9.582  36.286  11.664  1.00  0.00    -0.388 N
ATOM     16  H1  UNL     1       9.463  37.299  11.639  1.00  0.00     0.156 HD
BRANCH  15  17
HETATM   17  C2  UNL     1       8.589  35.517  11.116  1.00  0.00     0.071 C
HETATM   18  C1  UNL     1       7.235  36.012  11.584  1.00  0.00     0.031 C
HETATM   19  C3  UNL     1       8.485  35.344   9.638  1.00  0.00     0.031 C
ENDBRANCH  15  17
ENDBRANCH   1  15
BRANCH   1  20
HETATM   20  O1  UNL     1      11.491  35.206  11.166  1.00  0.00    -0.371 OA
ATOM     21  H1  UNL     1      12.361  35.577  11.246  1.00  0.00     0.212 HD
ENDBRANCH   1  20
BRANCH  13  22
HETATM   22  N2  UNL     1       8.053  33.351  14.021  1.00  0.00    -0.074 N
ATOM     23  H23 UNL     1       8.254  33.671  13.074  1.00  0.00     0.274 HD
ATOM     24  H22 UNL     1       8.493  32.432  13.982  1.00  0.00     0.274 HD
ATOM     25  H21 UNL     1       7.048  33.270  14.175  1.00  0.00     0.274 HD
ENDBRANCH  13  22
BRANCH   6  26
HETATM   26  O2  UNL     1      14.373  36.359  17.596  1.00  0.00    -0.395 OA
ATOM     27  H2  UNL     1      15.172  36.060  17.180  1.00  0.00     0.210 HD
ENDBRANCH   6  26
BRANCH   7  28
HETATM   28  C11 UNL     1      13.732  33.997  18.757  1.00  0.00    -0.016 C
HETATM   29  C12 UNL     1      13.346  34.445  20.146  1.00  0.00     0.010 C
HETATM   30  C13 UNL     1      13.818  32.476  18.704  1.00  0.00     0.010 C
ENDBRANCH   7  28
TORSDOF 6
ENDMDL