MODEL 2
REMARK VINA RESULT: -7.857802832      1.548      3.079
REMARK  7 active torsions:
REMARK  status: ('A' for Active; 'I' for Inactive)
REMARK    1  A    between atoms: C4_4  and  O1_5
REMARK    2  A    between atoms: C8_10  and  O2_11
REMARK    3  A    between atoms: C8_10  and  C9_13
REMARK    4  A    between atoms: C9_13  and  C11_15
REMARK    5  A    between atoms: C12_16  and  C13_17
REMARK    6  A    between atoms: C13_17  and  O3_19
REMARK    7  A    between atoms: C16_22  and  O4_23
ROOT
HETATM    1  C1  UNL     1       9.567  31.930  11.870  1.00  0.00     0.043 C
HETATM    2  C2  UNL     1       9.761  33.092  12.783  1.00  0.00    -0.081 C
HETATM    3  C3  UNL     1       8.687  33.320  13.538  1.00  0.00     0.007 C
HETATM    4  C4  UNL     1       8.502  34.371  14.550  1.00  0.00     0.141 C
HETATM    5  C5  UNL     1       9.707  34.391  15.472  1.00  0.00     0.041 C
HETATM    6  C6  UNL     1      10.904  35.021  14.845  1.00  0.00     0.002 C
HETATM    7  C7  UNL     1      11.806  35.470  16.001  1.00  0.00     0.044 C
HETATM    8  C8  UNL     1      12.332  34.326  16.786  1.00  0.00     0.067 C
HETATM    9  C15 UNL     1      12.812  33.164  16.022  1.00  0.00     0.071 C
HETATM   10  C16 UNL     1      12.083  32.880  14.732  1.00  0.00     0.130 C
HETATM   11  C17 UNL     1      11.712  34.118  13.970  1.00  0.00    -0.007 C
HETATM   12  C18 UNL     1      13.019  34.825  13.623  1.00  0.00     0.019 C
HETATM   13  C19 UNL     1      11.063  33.746  12.677  1.00  0.00     0.021 C
HETATM   14  C20 UNL     1      11.009  34.963  11.742  1.00  0.00     0.015 C
ENDROOT
BRANCH   8  15
HETATM   15  O2  UNL     1      11.398  33.916  17.753  1.00  0.00    -0.389 OA
ATOM     16  H2  UNL     1      11.826  33.761  18.587  1.00  0.00     0.210 HD
ENDBRANCH   8  15
BRANCH   8  17
HETATM   17  C9  UNL     1      13.530  34.846  17.627  1.00  0.00     0.038 C
HETATM   18  C10 UNL     1      14.786  34.767  16.851  1.00  0.00     0.017 C
BRANCH  17  19
HETATM   19  C11 UNL     1      13.466  34.262  18.944  1.00  0.00    -0.021 C
HETATM   20  C12 UNL     1      13.729  34.692  20.131  1.00  0.00     0.001 C
BRANCH  20  21
HETATM   21  C13 UNL     1      14.210  35.998  20.568  1.00  0.00     0.136 C
HETATM   22  C14 UNL     1      13.199  36.613  21.553  1.00  0.00     0.043 C
BRANCH  21  23
HETATM   23  O3  UNL     1      15.359  35.802  21.363  1.00  0.00    -0.392 OA
ATOM     24  H3  UNL     1      15.442  36.542  21.952  1.00  0.00     0.210 HD
ENDBRANCH  21  23
ENDBRANCH  20  21
ENDBRANCH  17  19
ENDBRANCH   8  17
BRANCH  10  25
HETATM   25  O4  UNL     1      12.954  32.142  13.925  1.00  0.00    -0.395 OA
ATOM     26  H4  UNL     1      13.154  31.339  14.393  1.00  0.00     0.210 HD
ENDBRANCH  10  25
BRANCH   4  27
HETATM   27  O1  UNL     1       8.291  35.632  14.021  1.00  0.00    -0.392 OA
ATOM     28  H1  UNL     1       8.671  36.336  14.534  1.00  0.00     0.210 HD
ENDBRANCH   4  27
TORSDOF 7
ENDMDL