MODEL 1
REMARK VINA RESULT: -5.149296473      0.000      0.000
REMARK  1 active torsions:
REMARK  status: ('A' for Active; 'I' for Inactive)
REMARK    1  A    between atoms: N1_1  and  C1_5
ROOT
HETATM    1  C1  UNL     1      66.535  63.730-121.888  1.00  0.00     0.183 C
HETATM    2  C2  UNL     1      66.626  62.276-121.602  1.00  0.00     0.033 C
HETATM    3  C3  UNL     1      65.711  61.375-122.360  1.00  0.00     0.002 C
HETATM    4  C4  UNL     1      64.280  61.518-121.971  1.00  0.00     0.002 C
HETATM    5  C5  UNL     1      63.307  61.693-123.083  1.00  0.00     0.019 C
HETATM    6  C6  UNL     1      63.742  62.597-124.197  1.00  0.00     0.113 C
HETATM    7  N2  UNL     1      64.001  63.889-123.675  1.00  0.00    -0.421 N
ATOM      8  H2  UNL     1      63.519  64.238-122.846  1.00  0.00     0.153 HD
HETATM    9  C7  UNL     1      64.964  64.672-124.359  1.00  0.00     0.113 C
HETATM   10  C8  UNL     1      66.346  64.155-124.395  1.00  0.00     0.021 C
HETATM   11  C9  UNL     1      67.130  64.199-123.148  1.00  0.00     0.034 C
ENDROOT
BRANCH   1  12
HETATM   12  N1  UNL     1      67.393  64.315-120.819  1.00  0.00    -0.075 N
ATOM     13  H13 UNL     1      67.805  63.637-120.177  1.00  0.00     0.274 HD
ATOM     14  H12 UNL     1      68.283  64.696-121.141  1.00  0.00     0.274 HD
ATOM     15  H11 UNL     1      66.766  64.993-120.385  1.00  0.00     0.274 HD
ENDBRANCH   1  12
TORSDOF 1
ENDMDL