MODEL 4
REMARK VINA RESULT: -5.585404088      5.050      6.727
REMARK  1 active torsions:
REMARK  status: ('A' for Active; 'I' for Inactive)
REMARK    1  A    between atoms: C9_12  and  N2_13
ROOT
HETATM    1  N1  UNL     1      67.031  62.379-125.300  1.00  0.00    -0.404 N
ATOM      2  H11 UNL     1      67.307  63.166-125.887  1.00  0.00     0.155 HD
ATOM      3  H12 UNL     1      67.199  61.405-125.551  1.00  0.00     0.155 HD
HETATM    4  C1  UNL     1      66.438  62.695-124.187  1.00  0.00     0.010 C
HETATM    5  C2  UNL     1      66.034  61.544-123.329  1.00  0.00     0.054 C
HETATM    6  C3  UNL     1      65.257  60.508-124.086  1.00  0.00     0.006 C
HETATM    7  C4  UNL     1      63.872  60.302-123.580  1.00  0.00     0.000 C
HETATM    8  C5  UNL     1      63.117  61.546-123.276  1.00  0.00     0.000 C
HETATM    9  C6  UNL     1      63.283  62.629-124.323  1.00  0.00     0.000 C
HETATM   10  C7  UNL     1      63.699  63.886-123.644  1.00  0.00     0.002 C
HETATM   11  C8  UNL     1      64.839  64.602-124.258  1.00  0.00     0.039 C
HETATM   12  C9  UNL     1      66.197  64.095-123.826  1.00  0.00     0.228 C
ENDROOT
BRANCH  12  13
HETATM   13  N2  UNL     1      66.484  64.324-122.450  1.00  0.00    -0.070 N
ATOM     14  H23 UNL     1      65.639  64.302-121.880  1.00  0.00     0.275 HD
ATOM     15  H22 UNL     1      66.974  63.533-122.031  1.00  0.00     0.275 HD
ATOM     16  H21 UNL     1      67.000  65.195-122.325  1.00  0.00     0.275 HD
ENDBRANCH  12  13
TORSDOF 1
ENDMDL