MODEL 3
REMARK VINA RESULT: -5.666557757      1.816      3.032
REMARK  1 active torsions:
REMARK  status: ('A' for Active; 'I' for Inactive)
REMARK    1  A    between atoms: C9_11  and  N1_12
ROOT
HETATM    1  C1  UNL     1      66.083  63.302-122.302  1.00  0.00     0.045 C
HETATM    2  C2  UNL     1      64.878  62.966-123.192  1.00  0.00     0.186 C
HETATM    3  O1  UNL     1      64.012  62.252-122.470  1.00  0.00    -0.234 OA
HETATM    4  O2  UNL     1      62.918  61.806-122.930  1.00  0.00    -0.241 OA
HETATM    5  C3  UNL     1      62.344  60.710-122.310  1.00  0.00     0.210 C
HETATM    6  C4  UNL     1      62.544  59.387-123.115  1.00  0.00     0.029 C
HETATM    7  C5  UNL     1      63.779  59.703-123.846  1.00  0.00     0.002 C
HETATM    8  C6  UNL     1      64.564  58.945-124.768  1.00  0.00     0.000 C
HETATM    9  C7  UNL     1      65.540  59.986-125.368  1.00  0.00     0.002 C
HETATM   10  C8  UNL     1      66.027  61.038-124.436  1.00  0.00     0.035 C
HETATM   11  C9  UNL     1      65.390  62.379-124.484  1.00  0.00     0.215 C
ENDROOT
BRANCH  11  12
HETATM   12  N1  UNL     1      66.335  63.427-124.957  1.00  0.00    -0.072 N
ATOM     13  H13 UNL     1      66.379  64.262-124.373  1.00  0.00     0.274 HD
ATOM     14  H12 UNL     1      67.323  63.189-124.865  1.00  0.00     0.274 HD
ATOM     15  H11 UNL     1      66.021  63.589-125.915  1.00  0.00     0.274 HD
ENDBRANCH  11  12
TORSDOF 1
ENDMDL