MODEL 1
REMARK VINA RESULT: -6.127402491      0.000      0.000
REMARK  2 active torsions:
REMARK  status: ('A' for Active; 'I' for Inactive)
REMARK    1  A    between atoms: N1_1  and  O1_4
REMARK    2  A    between atoms: O1_4  and  C1_5
ROOT
HETATM    1  C1  UNL     1      65.014  60.407-125.045  1.00  0.00     0.156 C
HETATM    2  C2  UNL     1      64.194  61.193-124.042  1.00  0.00     0.035 C
HETATM    3  C3  UNL     1      63.213  60.245-123.435  1.00  0.00     0.007 C
HETATM    4  C4  UNL     1      63.599  58.850-123.838  1.00  0.00    -0.008 C
HETATM    5  C5  UNL     1      62.450  58.130-124.511  1.00  0.00     0.005 C
HETATM    6  C6  UNL     1      62.939  56.751-124.877  1.00  0.00     0.000 C
HETATM    7  C7  UNL     1      64.148  56.764-125.751  1.00  0.00     0.000 C
HETATM    8  C8  UNL     1      64.745  58.129-125.954  1.00  0.00     0.007 C
HETATM    9  C9  UNL     1      64.810  58.954-124.714  1.00  0.00     0.021 C
ENDROOT
BRANCH   1  10
HETATM   10  O1  UNL     1      66.358  60.749-124.891  1.00  0.00    -0.281 OA
BRANCH  10  11
HETATM   11  N1  UNL     1      66.583  62.064-125.046  1.00  0.00    -0.311 N
ATOM     12  H12 UNL     1      67.138  62.443-125.814  1.00  0.00     0.184 HD
ATOM     13  H11 UNL     1      66.142  62.629-124.320  1.00  0.00     0.184 HD
ENDBRANCH  10  11
ENDBRANCH   1  10
TORSDOF 2
ENDMDL