MODEL 5
REMARK VINA RESULT: -5.323073893      4.291      5.676
REMARK  0 active torsions:
REMARK  status: ('A' for Active; 'I' for Inactive)
ROOT
HETATM    1  N1  UNL     1      67.747  63.044-121.221  1.00  0.00    -0.404 N
ATOM      2  H11 UNL     1      67.902  62.420-120.430  1.00  0.00     0.155 HD
ATOM      3  H12 UNL     1      68.466  63.673-121.579  1.00  0.00     0.155 HD
HETATM    4  C1  UNL     1      66.622  63.070-121.820  1.00  0.00     0.005 C
HETATM    5  C2  UNL     1      66.398  63.973-122.967  1.00  0.00     0.054 C
HETATM    6  C3  UNL     1      66.657  63.353-124.298  1.00  0.00     0.006 C
HETATM    7  C4  UNL     1      66.959  61.899-124.275  1.00  0.00     0.000 C
HETATM    8  C5  UNL     1      65.870  61.022-124.811  1.00  0.00     0.000 C
HETATM    9  C6  UNL     1      64.492  61.441-124.466  1.00  0.00     0.002 C
HETATM   10  C7  UNL     1      63.837  60.484-123.465  1.00  0.00     0.027 C
HETATM   11  C8  UNL     1      63.603  61.150-122.133  1.00  0.00     0.232 C
HETATM   12  N2  UNL     1      64.319  62.376-121.964  1.00  0.00    -0.070 N
ATOM     13  H21 UNL     1      63.756  63.079-121.485  1.00  0.00     0.277 HD
ATOM     14  H22 UNL     1      64.450  62.863-122.851  1.00  0.00     0.277 HD
HETATM   15  C9  UNL     1      65.566  62.146-121.294  1.00  0.00     0.284 C
ENDROOT
TORSDOF 0
ENDMDL