MODEL 3
REMARK VINA RESULT: -5.101357366      2.383      3.657
REMARK  1 active torsions:
REMARK  status: ('A' for Active; 'I' for Inactive)
REMARK    1  A    between atoms: C6_6  and  N1_7
ROOT
HETATM    1  C1  UNL     1      66.466  63.767-121.584  1.00  0.00     0.015 C
HETATM    2  C2  UNL     1      66.339  62.301-122.033  1.00  0.00    -0.046 C
HETATM    3  C3  UNL     1      67.043  61.522-120.908  1.00  0.00     0.015 C
HETATM    4  C4  UNL     1      67.200  62.159-123.241  1.00  0.00     0.011 C
HETATM    5  C5  UNL     1      66.415  62.601-124.449  1.00  0.00     0.035 C
HETATM    6  C6  UNL     1      65.353  61.517-124.618  1.00  0.00     0.202 C
HETATM    7  C7  UNL     1      64.380  61.658-123.503  1.00  0.00     0.043 C
HETATM    8  C8  UNL     1      63.408  62.778-123.902  1.00  0.00     0.030 C
HETATM    9  S1  UNL     1      63.366  60.123-123.521  1.00  0.00    -0.085 SA
HETATM   10  C9  UNL     1      64.940  61.879-122.161  1.00  0.00     0.032 C
ENDROOT
BRANCH   6  11
HETATM   11  N1  UNL     1      65.950  60.198-124.564  1.00  0.00    -0.073 N
ATOM     12  H13 UNL     1      65.318  59.515-124.147  1.00  0.00     0.274 HD
ATOM     13  H12 UNL     1      66.034  59.784-125.493  1.00  0.00     0.274 HD
ATOM     14  H11 UNL     1      66.847  60.225-124.081  1.00  0.00     0.274 HD
ENDBRANCH   6  11
TORSDOF 1
ENDMDL