MODEL 1
REMARK VINA RESULT: -5.732837754      0.000      0.000
REMARK  2 active torsions:
REMARK  status: ('A' for Active; 'I' for Inactive)
REMARK    1  A    between atoms: C2_4  and  O1_5
REMARK    2  A    between atoms: C2_4  and  N2_7
ROOT
HETATM    1  N2  UNL     1      65.998  63.256-123.849  1.00  0.00    -0.338 N
HETATM    2  C3  UNL     1      65.817  62.719-122.524  1.00  0.00     0.090 C
HETATM    3  C4  UNL     1      64.665  61.741-122.455  1.00  0.00     0.025 C
HETATM    4  C5  UNL     1      64.318  61.192-123.825  1.00  0.00     0.004 C
HETATM    5  C6  UNL     1      65.614  60.934-124.541  1.00  0.00     0.025 C
HETATM    6  C7  UNL     1      66.625  62.016-124.232  1.00  0.00     0.090 C
HETATM    7  C8  UNL     1      67.093  61.907-122.775  1.00  0.00     0.050 C
ENDROOT
BRANCH   1   8
HETATM    8  C2  UNL     1      65.689  64.474-124.486  1.00  0.00     0.215 C
HETATM    9  N1  UNL     1      64.969  65.387-123.937  1.00  0.00    -0.361 N
HETATM   10  C1  UNL     1      64.653  66.626-124.578  1.00  0.00     0.150 C
ATOM     11  H1  UNL     1      64.605  65.219-122.999  1.00  0.00     0.162 HD
BRANCH   8  12
HETATM   12  O1  UNL     1      66.174  64.737-125.781  1.00  0.00    -0.333 OA
ATOM     13  H1  UNL     1      66.036  64.063-126.436  1.00  0.00     0.220 HD
ENDBRANCH   8  12
ENDBRANCH   1   8
TORSDOF 2
ENDMDL