MODEL 1
REMARK VINA RESULT: -5.934333920      0.000      0.000
REMARK  0 active torsions:
REMARK  status: ('A' for Active; 'I' for Inactive)
ROOT
HETATM    1  C1  UNL     1      65.338  59.746-124.921  1.00  0.00     0.010 C
HETATM    2  C2  UNL     1      65.298  61.270-124.719  1.00  0.00    -0.013 C
HETATM    3  C3  UNL     1      63.947  61.763-124.361  1.00  0.00     0.028 C
HETATM    4  C4  UNL     1      63.761  62.282-122.988  1.00  0.00     0.074 C
HETATM    5  C5  UNL     1      63.213  61.176-122.072  1.00  0.00     0.032 C
HETATM    6  N1  UNL     1      64.849  62.879-122.345  1.00  0.00    -0.398 N
ATOM      7  H1  UNL     1      64.701  63.409-121.487  1.00  0.00     0.155 HD
HETATM    8  C6  UNL     1      66.134  62.755-122.869  1.00  0.00     0.113 C
HETATM    9  C7  UNL     1      67.100  62.601-121.680  1.00  0.00     0.055 C
HETATM   10  C8  UNL     1      66.514  64.025-123.524  1.00  0.00     0.090 C
HETATM   11  N2  UNL     1      66.813  65.030-124.021  1.00  0.00    -0.195 NA
HETATM   12  C9  UNL     1      66.393  61.621-123.788  1.00  0.00     0.050 C
ENDROOT
TORSDOF 0
ENDMDL