MODEL 3
REMARK VINA RESULT: -5.769698373      0.778      1.992
REMARK  2 active torsions:
REMARK  status: ('A' for Active; 'I' for Inactive)
REMARK    1  A    between atoms: C1_4  and  O1_5
REMARK    2  A    between atoms: C1_4  and  N2_7
ROOT
HETATM    1  N2  UNL     1      65.577  63.412-124.202  1.00  0.00    -0.338 N
HETATM    2  C2  UNL     1      66.405  62.643-123.291  1.00  0.00     0.088 C
HETATM    3  C3  UNL     1      65.645  62.620-121.968  1.00  0.00     0.025 C
HETATM    4  C4  UNL     1      64.418  61.763-122.155  1.00  0.00     0.004 C
HETATM    5  C5  UNL     1      63.629  62.315-123.312  1.00  0.00     0.025 C
HETATM    6  C6  UNL     1      64.484  62.510-124.544  1.00  0.00     0.088 C
HETATM    7  C7  UNL     1      65.239  61.249-124.896  1.00  0.00     0.027 C
HETATM    8  C8  UNL     1      66.416  61.282-123.943  1.00  0.00     0.027 C
ENDROOT
BRANCH   1   9
HETATM    9  C1  UNL     1      65.811  64.734-124.637  1.00  0.00     0.213 C
HETATM   10  N1  UNL     1      65.659  65.727-123.854  1.00  0.00    -0.365 N
ATOM     11  H12 UNL     1      65.829  66.682-124.169  1.00  0.00     0.159 HD
ATOM     12  H11 UNL     1      65.360  65.561-122.893  1.00  0.00     0.159 HD
BRANCH   9  13
HETATM   13  O1  UNL     1      66.217  64.959-125.942  1.00  0.00    -0.333 OA
ATOM     14  H1  UNL     1      66.272  65.852-126.261  1.00  0.00     0.220 HD
ENDBRANCH   9  13
ENDBRANCH   1   9
TORSDOF 2
ENDMDL