MODEL 2
REMARK VINA RESULT: -6.592840467      2.308      3.935
REMARK  1 active torsions:
REMARK  status: ('A' for Active; 'I' for Inactive)
REMARK    1  A    between atoms: N1_1  and  C1_5
ROOT
HETATM    1  C1  UNL     1      62.962  59.824-122.955  1.00  0.00     0.183 C
HETATM    2  C2  UNL     1      63.798  60.890-123.412  1.00  0.00     0.033 C
HETATM    3  C3  UNL     1      64.498  61.092-124.643  1.00  0.00     0.002 C
HETATM    4  C4  UNL     1      65.750  60.258-124.995  1.00  0.00     0.000 C
HETATM    5  C5  UNL     1      65.225  58.925-125.146  1.00  0.00     0.000 C
HETATM    6  C6  UNL     1      65.706  57.688-125.701  1.00  0.00     0.000 C
HETATM    7  C7  UNL     1      64.586  56.690-125.331  1.00  0.00     0.000 C
HETATM    8  C8  UNL     1      63.200  57.193-125.251  1.00  0.00     0.000 C
HETATM    9  C9  UNL     1      62.627  57.564-123.925  1.00  0.00     0.002 C
HETATM   10  C10 UNL     1      62.062  58.993-123.796  1.00  0.00     0.033 C
ENDROOT
BRANCH   1  11
HETATM   11  N1  UNL     1      62.076  60.362-121.879  1.00  0.00    -0.075 N
ATOM     12  H13 UNL     1      62.558  60.465-120.985  1.00  0.00     0.274 HD
ATOM     13  H12 UNL     1      61.837  61.344-122.018  1.00  0.00     0.274 HD
ATOM     14  H11 UNL     1      61.255  59.761-121.818  1.00  0.00     0.274 HD
ENDBRANCH   1  11
TORSDOF 1
ENDMDL