MODEL 3
REMARK VINA RESULT: -7.538052457      1.215      1.749
REMARK  8 active torsions:
REMARK  status: ('A' for Active; 'I' for Inactive)
REMARK    1  A    between atoms: C2_2  and  C3_3
REMARK    2  A    between atoms: C3_3  and  C4_4
REMARK    3  A    between atoms: C4_4  and  N1_5
REMARK       I    between atoms: N1_5  and  C5_7
REMARK       I    between atoms: C5_7  and  N3_11
REMARK       I    between atoms: N3_11  and  C6_13
REMARK    4  A    between atoms: C6_13  and  O2_15
REMARK    5  A    between atoms: O2_15  and  C7_16
REMARK    6  A    between atoms: C7_16  and  C9_18
REMARK    7  A    between atoms: C7_16  and  C19_32
REMARK    8  A    between atoms: C12_21  and  C13_22
ROOT
HETATM    1  C7  UNL     1     -26.439  11.504 -90.989  1.00  0.00     0.193 C
HETATM    2  C8  UNL     1     -25.719  12.599 -90.176  1.00  0.00     0.062 C
ENDROOT
BRANCH   1   3
HETATM    3  O2  UNL     1     -26.553  11.851 -92.310  1.00  0.00    -0.278 OA
BRANCH   3   4
HETATM    4  C6  UNL     1     -26.092  12.889 -93.036  1.00  0.00     0.380 C
HETATM    5  N3  UNL     1     -24.772  13.415 -92.990  1.00  0.00    -0.136 N
HETATM    6  C5  UNL     1     -24.335  14.536 -93.742  1.00  0.00     0.676 C
ATOM      7  H3  UNL     1     -24.097  12.957 -92.377  1.00  0.00     0.189 HD
HETATM    8  N1  UNL     1     -25.169  15.318 -94.540  1.00  0.00    -0.226 N
HETATM    9  N2  UNL     1     -23.089  14.902 -93.649  1.00  0.00    -0.235 N
ATOM     10  H1  UNL     1     -26.012  15.689 -94.102  1.00  0.00     0.177 HD
ATOM     11  H22 UNL     1     -22.773  15.707 -94.189  1.00  0.00     0.174 HD
ATOM     12  H21 UNL     1     -22.478  14.330 -93.065  1.00  0.00     0.174 HD
HETATM   13  O1  UNL     1     -26.883  13.453 -93.825  1.00  0.00    -0.238 OA
BRANCH   8  14
HETATM   14  C4  UNL     1     -24.953  15.649 -95.924  1.00  0.00     0.138 C
BRANCH  14  15
HETATM   15  C3  UNL     1     -24.558  17.116 -96.057  1.00  0.00     0.020 C
BRANCH  15  16
HETATM   16  C2  UNL     1     -23.088  17.304 -96.223  1.00  0.00    -0.003 C
HETATM   17  C1  UNL     1     -22.677  18.642 -96.758  1.00  0.00     0.005 C
ENDBRANCH  15  16
ENDBRANCH  14  15
ENDBRANCH   8  14
ENDBRANCH   3   4
ENDBRANCH   1   3
BRANCH   1  18
HETATM   18  C9  UNL     1     -27.833  11.437 -90.436  1.00  0.00    -0.015 A
HETATM   19  C10 UNL     1     -28.655  12.523 -90.559  1.00  0.00     0.011 A
HETATM   20  C11 UNL     1     -29.946  12.456 -90.026  1.00  0.00     0.016 A
HETATM   21  C12 UNL     1     -30.401  11.334 -89.388  1.00  0.00     0.008 A
HETATM   22  C17 UNL     1     -29.577  10.222 -89.254  1.00  0.00     0.016 A
HETATM   23  C18 UNL     1     -28.315  10.311 -89.786  1.00  0.00     0.011 A
BRANCH  21  24
HETATM   24  C13 UNL     1     -31.757  11.319 -88.833  1.00  0.00     0.115 A
HETATM   25  N4  UNL     1     -32.437  12.422 -88.506  1.00  0.00    -0.352 N
HETATM   26  C14 UNL     1     -33.700  12.371 -88.003  1.00  0.00     0.091 A
ATOM     27  H4  UNL     1     -31.995  13.332 -88.637  1.00  0.00     0.166 HD
HETATM   28  C15 UNL     1     -34.345  11.178 -87.806  1.00  0.00     0.034 A
HETATM   29  C16 UNL     1     -33.635  10.026 -88.147  1.00  0.00     0.091 A
HETATM   30  N5  UNL     1     -32.396  10.131 -88.638  1.00  0.00    -0.352 N
ATOM     31  H5  UNL     1     -31.901   9.272 -88.879  1.00  0.00     0.166 HD
ENDBRANCH  21  24
ENDBRANCH   1  18
BRANCH   1  32
HETATM   32  C19 UNL     1     -25.789  10.209 -90.634  1.00  0.00     0.423 C
HETATM   33  F1  UNL     1     -26.489   9.078 -90.995  1.00  0.00    -0.167 F
HETATM   34  F2  UNL     1     -24.573  10.110 -91.333  1.00  0.00    -0.167 F
HETATM   35  F3  UNL     1     -25.412  10.102 -89.298  1.00  0.00    -0.167 F
ENDBRANCH   1  32
TORSDOF 8
ENDMDL