MODEL 5
REMARK VINA RESULT: -6.084260309      1.628      2.037
REMARK  10 active torsions:
REMARK  status: ('A' for Active; 'I' for Inactive)
REMARK    1  A    between atoms: C2_2  and  O1_3
REMARK    2  A    between atoms: O1_3  and  C3_4
REMARK    3  A    between atoms: C3_4  and  C4_6
REMARK    4  A    between atoms: C4_6  and  C5_7
REMARK    5  A    between atoms: C5_7  and  N1_8
REMARK    6  A    between atoms: C5_7  and  C14_24
REMARK    7  A    between atoms: N1_8  and  C6_10
REMARK    8  A    between atoms: C6_10  and  N2_12
REMARK    9  A    between atoms: N2_12  and  C7_14
REMARK   10  A    between atoms: C12_20  and  O3_21
ROOT
HETATM    1  C7  UNL     1     -29.730  13.279 -92.479  1.00  0.00     0.036 A
HETATM    2  C8  UNL     1     -28.434  12.932 -92.245  1.00  0.00     0.031 A
HETATM    3  C9  UNL     1     -27.418  13.242 -93.162  1.00  0.00     0.028 A
HETATM    4  C10 UNL     1     -27.727  13.912 -94.331  1.00  0.00     0.077 A
HETATM    5  C11 UNL     1     -26.714  14.255 -95.307  1.00  0.00     0.102 C
HETATM    6  N3  UNL     1     -25.898  14.544 -96.084  1.00  0.00    -0.191 NA
HETATM    7  C12 UNL     1     -29.027  14.266 -94.577  1.00  0.00     0.088 A
HETATM    8  C13 UNL     1     -30.011  13.953 -93.665  1.00  0.00     0.067 A
ENDROOT
BRANCH   7   9
HETATM    9  O3  UNL     1     -29.321  14.938 -95.753  1.00  0.00    -0.359 OA
ATOM     10  H3  UNL     1     -28.614  15.119 -96.361  1.00  0.00     0.217 HD
ENDBRANCH   7   9
BRANCH   1  11
HETATM   11  N2  UNL     1     -30.771  13.019 -91.580  1.00  0.00    -0.333 N
ATOM     12  H2  UNL     1     -31.520  12.428 -91.941  1.00  0.00     0.168 HD
BRANCH  11  13
HETATM   13  C6  UNL     1     -30.935  13.450 -90.259  1.00  0.00     0.172 C
HETATM   14  S1  UNL     1     -31.708  14.905 -90.034  1.00  0.00    -0.041 SA
BRANCH  13  15
HETATM   15  N1  UNL     1     -30.501  12.811 -89.088  1.00  0.00    -0.358 N
ATOM     16  H1  UNL     1     -29.834  13.308 -88.497  1.00  0.00     0.162 HD
BRANCH  15  17
HETATM   17  C5  UNL     1     -30.932  11.487 -88.653  1.00  0.00     0.147 C
BRANCH  17  18
HETATM   18  C4  UNL     1     -29.833  10.517 -88.424  1.00  0.00     0.140 C
BRANCH  18  19
HETATM   19  C3  UNL     1     -29.016  10.157 -89.583  1.00  0.00     0.260 C
HETATM   20  O2  UNL     1     -29.476  10.293 -90.739  1.00  0.00    -0.265 OA
BRANCH  19  21
HETATM   21  O1  UNL     1     -27.727   9.661 -89.484  1.00  0.00    -0.322 OA
BRANCH  21  22
HETATM   22  C2  UNL     1     -26.669  10.208 -90.279  1.00  0.00     0.174 C
HETATM   23  C1  UNL     1     -25.819   9.105 -90.826  1.00  0.00     0.034 C
ENDBRANCH  21  22
ENDBRANCH  19  21
ENDBRANCH  18  19
ENDBRANCH  17  18
BRANCH  17  24
HETATM   24  C14 UNL     1     -31.982  11.566 -87.588  1.00  0.00     0.208 C
HETATM   25 CL1  UNL     1     -31.333  12.414 -86.177  1.00  0.00    -0.082 Cl
HETATM   26 CL2  UNL     1     -32.224   9.859 -87.038  1.00  0.00    -0.082 Cl
HETATM   27 CL3  UNL     1     -33.547  12.142 -88.118  1.00  0.00    -0.082 Cl
ENDBRANCH  17  24
ENDBRANCH  15  17
ENDBRANCH  13  15
ENDBRANCH  11  13
ENDBRANCH   1  11
TORSDOF 10
ENDMDL