MODEL 2
REMARK VINA RESULT: -7.297998621      4.866      8.950
REMARK  10 active torsions:
REMARK  status: ('A' for Active; 'I' for Inactive)
REMARK    1  A    between atoms: C3_3  and  C6_6
REMARK    2  A    between atoms: C6_6  and  C7_7
REMARK    3  A    between atoms: C7_7  and  O1_8
REMARK    4  A    between atoms: C7_7  and  C19_29
REMARK    5  A    between atoms: O1_8  and  C8_9
REMARK    6  A    between atoms: C11_12  and  N1_13
REMARK    7  A    between atoms: N1_13  and  C12_15
REMARK    8  A    between atoms: C13_18  and  C14_19
REMARK    9  A    between atoms: C19_29  and  O2_30
REMARK   10  A    between atoms: N4_32  and  O3_34
ROOT
HETATM    1  C1  UNL     1     -22.668  18.741 -92.463  1.00  0.00     0.013 C
HETATM    2  C2  UNL     1     -21.607  19.072 -92.951  1.00  0.00    -0.108 C
HETATM    3  C3  UNL     1     -20.369  19.505 -93.552  1.00  0.00     0.018 C
HETATM    4  C4  UNL     1     -19.305  19.433 -92.483  1.00  0.00     0.029 C
HETATM    5  C5  UNL     1     -20.482  21.009 -93.887  1.00  0.00     0.029 C
ENDROOT
BRANCH   3   6
HETATM    6  C6  UNL     1     -19.982  18.822 -94.805  1.00  0.00     0.062 C
BRANCH   6   7
HETATM    7  C7  UNL     1     -20.870  18.823 -95.979  1.00  0.00     0.206 C
BRANCH   7   8
HETATM    8  O1  UNL     1     -21.334  17.496 -96.137  1.00  0.00    -0.338 OA
BRANCH   8   9
HETATM    9  C8  UNL     1     -22.454  16.885 -95.734  1.00  0.00     0.070 A
HETATM   10  C9  UNL     1     -23.738  17.110 -96.155  1.00  0.00     0.039 A
HETATM   11  C10 UNL     1     -24.811  16.376 -95.648  1.00  0.00     0.033 A
HETATM   12  C11 UNL     1     -24.648  15.388 -94.700  1.00  0.00     0.049 A
HETATM   13  C17 UNL     1     -23.319  15.144 -94.248  1.00  0.00     0.033 A
HETATM   14  C18 UNL     1     -22.288  15.882 -94.766  1.00  0.00     0.039 A
BRANCH  12  15
HETATM   15  N1  UNL     1     -25.644  14.575 -94.190  1.00  0.00    -0.192 N
ATOM     16  H1  UNL     1     -25.258  13.782 -93.677  1.00  0.00     0.184 HD
BRANCH  15  17
HETATM   17  C12 UNL     1     -26.882  14.561 -94.193  1.00  0.00     0.683 A
HETATM   18  N2  UNL     1     -27.735  15.507 -93.770  1.00  0.00    -0.186 N
HETATM   19  C13 UNL     1     -29.045  15.420 -93.787  1.00  0.00     0.133 A
ATOM     20  H2  UNL     1     -27.331  16.369 -93.404  1.00  0.00     0.184 HD
HETATM   21  C15 UNL     1     -29.628  14.261 -94.274  1.00  0.00     0.052 A
HETATM   22  C16 UNL     1     -28.798  13.259 -94.723  1.00  0.00     0.108 A
HETATM   23  N3  UNL     1     -27.474  13.421 -94.677  1.00  0.00    -0.202 N
ATOM     24  H3  UNL     1     -26.877  12.667 -95.016  1.00  0.00     0.183 HD
BRANCH  19  25
HETATM   25  C14 UNL     1     -29.945  16.486 -93.312  1.00  0.00     0.433 C
HETATM   26  F1  UNL     1     -30.851  16.873 -94.307  1.00  0.00    -0.165 F
HETATM   27  F2  UNL     1     -30.705  15.989 -92.235  1.00  0.00    -0.165 F
HETATM   28  F3  UNL     1     -29.275  17.600 -92.838  1.00  0.00    -0.165 F
ENDBRANCH  19  25
ENDBRANCH  15  17
ENDBRANCH  12  15
ENDBRANCH   8   9
ENDBRANCH   7   8
BRANCH   7  29
HETATM   29  C19 UNL     1     -20.180  19.083 -97.297  1.00  0.00     0.165 C
HETATM   30  N4  UNL     1     -20.894  19.375 -98.316  1.00  0.00    -0.249 N
ATOM     31  H4  UNL     1     -20.405  19.543 -99.195  1.00  0.00     0.196 HD
BRANCH  29  32
HETATM   32  O2  UNL     1     -18.820  19.001 -97.369  1.00  0.00    -0.346 OA
ATOM     33  H2  UNL     1     -18.420  18.248 -97.786  1.00  0.00     0.219 HD
ENDBRANCH  29  32
BRANCH  30  34
HETATM   34  O3  UNL     1     -22.244  19.479 -98.328  1.00  0.00    -0.288 OA
ATOM     35  H3  UNL     1     -22.742  20.164 -98.759  1.00  0.00     0.244 HD
ENDBRANCH  30  34
ENDBRANCH   7  29
ENDBRANCH   6   7
ENDBRANCH   3   6
TORSDOF 10
ENDMDL