MODEL 5
REMARK VINA RESULT: -8.537690210      1.234      1.534
REMARK  9 active torsions:
REMARK  status: ('A' for Active; 'I' for Inactive)
REMARK    1  A    between atoms: C4_4  and  N1_5
REMARK    2  A    between atoms: N1_5  and  C5_7
REMARK    3  A    between atoms: C6_10  and  N3_11
REMARK    4  A    between atoms: N3_11  and  C7_13
REMARK    5  A    between atoms: C7_13  and  C8_14
REMARK    6  A    between atoms: C7_13  and  C13_23
REMARK    7  A    between atoms: C8_14  and  C9_15
REMARK    8  A    between atoms: C9_15  and  C10_16
REMARK    9  A    between atoms: C10_16  and  C12_19
ROOT
HETATM    1  N3  UNL     1     -29.387  12.458 -91.299  1.00  0.00    -0.366 N
ATOM      2  H3  UNL     1     -30.070  11.701 -91.325  1.00  0.00     0.161 HD
ENDROOT
BRANCH   1   3
HETATM    3  C6  UNL     1     -29.332  13.201 -92.342  1.00  0.00     0.118 A
HETATM    4  N2  UNL     1     -28.322  13.045 -93.251  1.00  0.00    -0.177 N
HETATM    5  C5  UNL     1     -28.218  13.792 -94.356  1.00  0.00     0.685 A
ATOM      6  H2  UNL     1     -27.617  12.327 -93.078  1.00  0.00     0.186 HD
HETATM    7  N5  UNL     1     -29.120  14.748 -94.625  1.00  0.00    -0.202 N
HETATM    8  C19 UNL     1     -30.139  14.960 -93.779  1.00  0.00     0.110 A
ATOM      9  H5  UNL     1     -29.031  15.313 -95.470  1.00  0.00     0.183 HD
HETATM   10  C18 UNL     1     -30.255  14.181 -92.620  1.00  0.00     0.066 A
BRANCH   5  11
HETATM   11  N1  UNL     1     -27.149  13.580 -95.256  1.00  0.00    -0.175 N
ATOM     12  H1  UNL     1     -27.122  12.715 -95.796  1.00  0.00     0.186 HD
BRANCH  11  13
HETATM   13  C4  UNL     1     -26.198  14.454 -95.418  1.00  0.00     0.137 A
HETATM   14  C3  UNL     1     -25.691  15.368 -94.518  1.00  0.00     0.076 A
HETATM   15  C2  UNL     1     -24.682  16.100 -95.125  1.00  0.00     0.025 A
HETATM   16  C1  UNL     1     -23.855  17.190 -94.539  1.00  0.00     0.070 C
HETATM   17  N7  UNL     1     -24.611  15.598 -96.388  1.00  0.00    -0.304 N
HETATM   18  N6  UNL     1     -25.498  14.639 -96.550  1.00  0.00    -0.285 N
ATOM     19  H7  UNL     1     -23.963  15.919 -97.107  1.00  0.00     0.186 HD
ATOM     20  H6  UNL     1     -25.635  14.112 -97.413  1.00  0.00     0.188 HD
ENDBRANCH  11  13
ENDBRANCH   5  11
ENDBRANCH   1   3
BRANCH   1  21
HETATM   21  C7  UNL     1     -28.617  12.558 -90.114  1.00  0.00     0.133 C
BRANCH  21  22
HETATM   22  C8  UNL     1     -29.472  12.159 -88.917  1.00  0.00     0.035 C
BRANCH  22  23
HETATM   23  C9  UNL     1     -30.230  13.362 -88.403  1.00  0.00     0.055 C
BRANCH  23  24
HETATM   24  C10 UNL     1     -30.942  13.003 -87.099  1.00  0.00     0.196 C
HETATM   25  C11 UNL     1     -30.942  14.163 -86.141  1.00  0.00     0.061 C
HETATM   26  F1  UNL     1     -30.294  11.894 -86.591  1.00  0.00    -0.234 F
BRANCH  24  27
HETATM   27  C12 UNL     1     -32.358  12.586 -87.450  1.00  0.00     0.422 C
HETATM   28  F2  UNL     1     -32.674  12.968 -88.748  1.00  0.00    -0.168 F
HETATM   29  F3  UNL     1     -33.200  13.207 -86.552  1.00  0.00    -0.168 F
HETATM   30  F4  UNL     1     -32.450  11.212 -87.353  1.00  0.00    -0.168 F
ENDBRANCH  24  27
ENDBRANCH  23  24
ENDBRANCH  22  23
ENDBRANCH  21  22
BRANCH  21  31
HETATM   31  C13 UNL     1     -27.553  11.486 -90.210  1.00  0.00     0.032 A
HETATM   32  C14 UNL     1     -27.869  10.173 -89.909  1.00  0.00     0.027 A
HETATM   33  C15 UNL     1     -26.874   9.242 -90.011  1.00  0.00     0.003 A
HETATM   34  C16 UNL     1     -25.616   9.632 -90.401  1.00  0.00     0.017 A
HETATM   35  C17 UNL     1     -25.323  10.958 -90.699  1.00  0.00     0.088 A
HETATM   36  N4  UNL     1     -26.332  11.839 -90.584  1.00  0.00    -0.367 N
ATOM     37  H4  UNL     1     -26.150  12.821 -90.794  1.00  0.00     0.165 HD
ENDBRANCH  21  31
ENDBRANCH   1  21
TORSDOF 9
ENDMDL