MODEL 2
REMARK VINA RESULT: -7.558988673      2.632      3.654
REMARK  6 active torsions:
REMARK  status: ('A' for Active; 'I' for Inactive)
REMARK    1  A    between atoms: C2_2  and  N1_4
REMARK    2  A    between atoms: C4_6  and  C5_8
REMARK    3  A    between atoms: C7_10  and  O1_11
REMARK    4  A    between atoms: O1_11  and  C8_12
REMARK    5  A    between atoms: C11_15  and  N3_16
REMARK       I    between atoms: N3_16  and  C12_18
REMARK       I    between atoms: C12_18  and  N5_25
REMARK    6  A    between atoms: N4_19  and  C13_21
ROOT
HETATM    1  N3  UNL     1     -24.143  15.829 -95.950  1.00  0.00    -0.191 N
ATOM      2  H3  UNL     1     -23.381  15.154 -96.023  1.00  0.00     0.184 HD
HETATM    3  C12 UNL     1     -23.908  17.170 -96.345  1.00  0.00     0.694 C
HETATM    4  N4  UNL     1     -24.299  17.597 -97.496  1.00  0.00    -0.130 N
ATOM      5  H4  UNL     1     -24.782  16.946 -98.116  1.00  0.00     0.186 HD
HETATM    6  N5  UNL     1     -23.237  18.095 -95.501  1.00  0.00    -0.126 N
ATOM      7  H5  UNL     1     -22.331  18.460 -95.795  1.00  0.00     0.197 HD
HETATM    8  C14 UNL     1     -23.779  18.528 -94.266  1.00  0.00     0.196 C
HETATM    9  N6  UNL     1     -24.212  18.868 -93.249  1.00  0.00    -0.171 NA
ENDROOT
BRANCH   1  10
HETATM   10  C11 UNL     1     -25.396  15.393 -95.459  1.00  0.00     0.049 A
HETATM   11  C10 UNL     1     -25.984  14.248 -95.937  1.00  0.00     0.033 A
HETATM   12  C9  UNL     1     -27.221  13.811 -95.458  1.00  0.00     0.039 A
HETATM   13  C8  UNL     1     -27.865  14.546 -94.483  1.00  0.00     0.076 A
HETATM   14  C16 UNL     1     -27.298  15.699 -93.985  1.00  0.00     0.039 A
HETATM   15  C15 UNL     1     -26.060  16.112 -94.484  1.00  0.00     0.033 A
BRANCH  13  16
HETATM   16  O1  UNL     1     -29.092  14.106 -94.012  1.00  0.00    -0.311 OA
BRANCH  16  17
HETATM   17  C7  UNL     1     -29.298  13.726 -92.696  1.00  0.00     0.079 A
HETATM   18  C6  UNL     1     -28.687  12.593 -92.156  1.00  0.00     0.070 A
HETATM   19  C5  UNL     1     -28.901  12.226 -90.843  1.00  0.00     0.076 A
HETATM   20  N7  UNL     1     -29.719  13.009 -90.116  1.00  0.00    -0.363 N
HETATM   21  C18 UNL     1     -30.321  14.112 -90.618  1.00  0.00     0.091 A
ATOM     22  H7  UNL     1     -29.893  12.760 -89.142  1.00  0.00     0.165 HD
HETATM   23  C17 UNL     1     -30.134  14.513 -91.925  1.00  0.00     0.054 A
BRANCH  19  24
HETATM   24  C4  UNL     1     -28.273  11.044 -90.254  1.00  0.00     0.139 C
HETATM   25  N1  UNL     1     -27.047  10.781 -90.505  1.00  0.00    -0.373 N
ATOM     26  H1  UNL     1     -26.546  11.421 -91.121  1.00  0.00     0.161 HD
HETATM   27  N2  UNL     1     -29.035  10.206 -89.411  1.00  0.00    -0.081 NA
BRANCH  25  28
HETATM   28  C2  UNL     1     -26.325   9.661 -89.991  1.00  0.00     0.074 C
HETATM   29  C1  UNL     1     -25.002  10.046 -89.357  1.00  0.00     0.031 C
HETATM   30  C3  UNL     1     -26.083   8.574 -90.997  1.00  0.00     0.031 C
ENDBRANCH  25  28
ENDBRANCH  19  24
ENDBRANCH  16  17
ENDBRANCH  13  16
ENDBRANCH   1  10
BRANCH   4  31
HETATM   31  C13 UNL     1     -24.091  18.941 -97.953  1.00  0.00     0.498 C
HETATM   32  F1  UNL     1     -24.667  19.850 -97.104  1.00  0.00    -0.150 F
HETATM   33  F2  UNL     1     -24.621  19.031 -99.246  1.00  0.00    -0.150 F
HETATM   34  F3  UNL     1     -22.738  19.239 -98.076  1.00  0.00    -0.150 F
ENDBRANCH   4  31
TORSDOF 6
ENDMDL