MODEL 2
REMARK VINA RESULT: -8.283067140      0.097      1.147
REMARK  8 active torsions:
REMARK  status: ('A' for Active; 'I' for Inactive)
REMARK    1  A    between atoms: C2_2  and  C10_13
REMARK    2  A    between atoms: C3_3  and  C4_4
REMARK    3  A    between atoms: C7_7  and  N1_8
REMARK       I    between atoms: C10_13  and  N2_15
REMARK    4  A    between atoms: N2_15  and  C11_17
REMARK    5  A    between atoms: C13_21  and  N4_22
REMARK    6  A    between atoms: C14_24  and  O4_25
REMARK    7  A    between atoms: C14_24  and  C15_27
REMARK    8  A    between atoms: C15_27  and  C16_29
ROOT
HETATM    1  C11 UNL     1     -25.671  14.880 -94.657  1.00  0.00     0.054 A
HETATM    2  C12 UNL     1     -25.693  14.788 -96.039  1.00  0.00     0.119 A
HETATM    3  N3  UNL     1     -24.560  15.304 -96.543  1.00  0.00    -0.350 N
ATOM      4  H3  UNL     1     -24.340  15.350 -97.538  1.00  0.00     0.166 HD
HETATM    5  C13 UNL     1     -23.761  15.748 -95.573  1.00  0.00     0.109 A
HETATM    6  C17 UNL     1     -24.483  15.471 -94.374  1.00  0.00     0.079 A
ENDROOT
BRANCH   1   7
HETATM    7  N2  UNL     1     -26.722  14.434 -93.789  1.00  0.00    -0.322 N
HETATM    8  C10 UNL     1     -26.734  13.163 -93.231  1.00  0.00     0.251 C
HETATM    9  O3  UNL     1     -25.835  12.333 -93.452  1.00  0.00    -0.268 OA
ATOM     10  H2  UNL     1     -27.487  15.073 -93.574  1.00  0.00     0.169 HD
BRANCH   8  11
HETATM   11  C2  UNL     1     -27.834  12.735 -92.336  1.00  0.00     0.007 C
HETATM   12  C1  UNL     1     -29.222  12.656 -92.861  1.00  0.00     0.054 C
HETATM   13  C3  UNL     1     -27.558  12.429 -91.086  1.00  0.00     0.023 C
BRANCH  13  14
HETATM   14  C4  UNL     1     -28.495  11.989 -90.087  1.00  0.00    -0.035 A
HETATM   15  C5  UNL     1     -28.779  10.625 -89.958  1.00  0.00     0.014 A
HETATM   16  C6  UNL     1     -29.699  10.154 -89.021  1.00  0.00     0.037 A
HETATM   17  C7  UNL     1     -30.351  11.042 -88.193  1.00  0.00     0.102 A
HETATM   18  C8  UNL     1     -30.084  12.404 -88.301  1.00  0.00     0.037 A
HETATM   19  C9  UNL     1     -29.166  12.841 -89.243  1.00  0.00     0.014 A
BRANCH  17  20
HETATM   20  N1  UNL     1     -31.294  10.573 -87.230  1.00  0.00    -0.116 N
HETATM   21  O1  UNL     1     -31.366  11.149 -86.128  1.00  0.00    -0.532 OA
HETATM   22  O2  UNL     1     -32.119   9.514 -87.477  1.00  0.00    -0.532 OA
ENDBRANCH  17  20
ENDBRANCH  13  14
ENDBRANCH   8  11
ENDBRANCH   1   7
BRANCH   5  23
HETATM   23  N4  UNL     1     -22.484  16.354 -95.579  1.00  0.00    -0.320 N
HETATM   24  C14 UNL     1     -22.019  17.509 -96.118  1.00  0.00     0.198 C
ATOM     25  H4  UNL     1     -21.774  15.818 -95.081  1.00  0.00     0.169 HD
BRANCH  24  26
HETATM   26  O4  UNL     1     -20.702  17.672 -95.870  1.00  0.00    -0.343 OA
ATOM     27  H4  UNL     1     -20.224  17.891 -96.662  1.00  0.00     0.219 HD
ENDBRANCH  24  26
BRANCH  24  28
HETATM   28  C15 UNL     1     -22.515  18.601 -96.871  1.00  0.00     0.305 C
HETATM   29  O5  UNL     1     -22.010  19.188 -97.838  1.00  0.00    -0.279 OA
BRANCH  28  30
HETATM   30  C16 UNL     1     -23.878  19.196 -96.486  1.00  0.00     0.459 C
HETATM   31  F1  UNL     1     -23.941  20.504 -96.884  1.00  0.00    -0.163 F
HETATM   32  F2  UNL     1     -24.000  19.084 -95.128  1.00  0.00    -0.163 F
HETATM   33  F3  UNL     1     -24.849  18.503 -97.137  1.00  0.00    -0.163 F
ENDBRANCH  28  30
ENDBRANCH  24  28
ENDBRANCH   5  23
TORSDOF 8
ENDMDL