MODEL 5
REMARK VINA RESULT: -7.382768912      2.342      3.172
REMARK  9 active torsions:
REMARK  status: ('A' for Active; 'I' for Inactive)
REMARK    1  A    between atoms: C2_2  and  C3_4
REMARK    2  A    between atoms: C3_4  and  N1_5
REMARK    3  A    between atoms: N1_5  and  N2_7
REMARK       I    between atoms: N2_7  and  C4_9
REMARK       I    between atoms: C4_9  and  N4_13
REMARK       I    between atoms: N4_13  and  C5_15
REMARK    4  A    between atoms: C5_15  and  C6_17
REMARK    5  A    between atoms: C6_17  and  O2_18
REMARK    6  A    between atoms: O2_18  and  C7_19
REMARK    7  A    between atoms: C12_24  and  C13_25
REMARK    8  A    between atoms: C16_28  and  O3_29
REMARK    9  A    between atoms: O3_29  and  C17_30
ROOT
HETATM    1  C6  UNL     1     -30.710  14.606 -93.109  1.00  0.00     0.279 C
ENDROOT
BRANCH   1   2
HETATM    2  C5  UNL     1     -29.476  14.230 -93.816  1.00  0.00     0.260 C
HETATM    3  N4  UNL     1     -28.304  13.779 -93.142  1.00  0.00    -0.157 N
HETATM    4  C4  UNL     1     -27.112  13.415 -93.820  1.00  0.00     0.693 C
ATOM      5  H4  UNL     1     -28.324  13.715 -92.124  1.00  0.00     0.187 HD
HETATM    6  N2  UNL     1     -27.069  13.497 -95.218  1.00  0.00    -0.125 N
HETATM    7  N3  UNL     1     -26.104  13.020 -93.159  1.00  0.00    -0.233 N
ATOM      8  H2  UNL     1     -27.456  12.716 -95.748  1.00  0.00     0.206 HD
ATOM      9  H32 UNL     1     -25.247  12.759 -93.647  1.00  0.00     0.174 HD
ATOM     10  H31 UNL     1     -26.134  12.960 -92.141  1.00  0.00     0.174 HD
HETATM   11  O1  UNL     1     -29.409  14.295 -95.081  1.00  0.00    -0.270 OA
BRANCH   6  12
HETATM   12  N1  UNL     1     -26.535  14.573 -95.948  1.00  0.00    -0.250 N
ATOM     13  H1  UNL     1     -26.951  14.888 -96.824  1.00  0.00     0.197 HD
BRANCH  12  14
HETATM   14  C3  UNL     1     -25.486  15.144 -95.446  1.00  0.00    -0.006 C
BRANCH  14  15
HETATM   15  C2  UNL     1     -24.346  15.757 -95.292  1.00  0.00     0.071 C
HETATM   16  C1  UNL     1     -23.441  15.338 -94.227  1.00  0.00     0.073 C
HETATM   17 CL1  UNL     1     -23.915  17.052 -96.364  1.00  0.00    -0.079 Cl
ENDBRANCH  14  15
ENDBRANCH  12  14
ENDBRANCH   6  12
ENDBRANCH   1   2
BRANCH   1  18
HETATM   18  O2  UNL     1     -30.821  14.092 -91.814  1.00  0.00    -0.341 OA
BRANCH  18  19
HETATM   19  C7  UNL     1     -30.910  14.811 -90.643  1.00  0.00     0.080 A
HETATM   20  C8  UNL     1     -31.577  16.023 -90.522  1.00  0.00     0.037 A
HETATM   21  C9  UNL     1     -31.619  16.672 -89.315  1.00  0.00     0.003 A
HETATM   22  C10 UNL     1     -31.004  16.138 -88.204  1.00  0.00     0.001 A
HETATM   23  C11 UNL     1     -30.340  14.919 -88.342  1.00  0.00     0.015 A
HETATM   24  C12 UNL     1     -30.284  14.252 -89.540  1.00  0.00     0.007 A
BRANCH  24  25
HETATM   25  C13 UNL     1     -29.583  12.973 -89.639  1.00  0.00    -0.023 A
HETATM   26  C14 UNL     1     -30.226  11.777 -89.404  1.00  0.00     0.015 A
HETATM   27  C15 UNL     1     -29.566  10.543 -89.502  1.00  0.00     0.038 A
HETATM   28  C16 UNL     1     -28.239  10.466 -89.837  1.00  0.00     0.074 A
HETATM   29  C18 UNL     1     -27.602  11.698 -90.072  1.00  0.00     0.038 A
HETATM   30  C19 UNL     1     -28.249  12.907 -89.977  1.00  0.00     0.015 A
BRANCH  28  31
HETATM   31  O3  UNL     1     -27.531   9.296 -89.951  1.00  0.00    -0.290 OA
BRANCH  31  32
HETATM   32  C17 UNL     1     -26.159   9.247 -90.198  1.00  0.00     0.505 C
HETATM   33  F1  UNL     1     -25.428   9.019 -89.063  1.00  0.00    -0.184 F
HETATM   34  F2  UNL     1     -25.932   8.162 -91.062  1.00  0.00    -0.184 F
ENDBRANCH  31  32
ENDBRANCH  28  31
ENDBRANCH  24  25
ENDBRANCH  18  19
ENDBRANCH   1  18
TORSDOF 9
ENDMDL