MODEL 2
REMARK VINA RESULT: -7.951971485      3.583      5.649
REMARK  10 active torsions:
REMARK  status: ('A' for Active; 'I' for Inactive)
REMARK    1  A    between atoms: C2_2  and  O1_4
REMARK    2  A    between atoms: C2_2  and  C13_19
REMARK    3  A    between atoms: O1_4  and  C4_5
REMARK    4  A    between atoms: C4_5  and  C5_6
REMARK       I    between atoms: C5_6  and  N1_8
REMARK    5  A    between atoms: C6_10  and  C7_11
REMARK    6  A    between atoms: C12_16  and  O3_17
REMARK    7  A    between atoms: C13_19  and  O4_20
REMARK    8  A    between atoms: C13_19  and  C14_22
REMARK    9  A    between atoms: C13_19  and  C20_30
REMARK   10  A    between atoms: C19_27  and  O5_28
ROOT
HETATM    1  C1  UNL     1     -33.840  12.184 -88.067  1.00  0.00     0.049 C
HETATM    2  C2  UNL     1     -32.632  11.479 -88.717  1.00  0.00     0.098 C
HETATM    3  C3  UNL     1     -32.956  10.027 -88.629  1.00  0.00     0.049 C
ENDROOT
BRANCH   2   4
HETATM    4  O1  UNL     1     -32.660  11.842 -90.087  1.00  0.00    -0.368 OA
BRANCH   4   5
HETATM    5  C4  UNL     1     -33.672  12.699 -90.411  1.00  0.00     0.271 C
BRANCH   5   6
HETATM    6  C5  UNL     1     -33.233  13.611 -91.491  1.00  0.00     0.245 C
HETATM    7  O2  UNL     1     -34.002  14.473 -91.942  1.00  0.00    -0.271 OA
HETATM    8  N1  UNL     1     -31.921  13.499 -92.016  1.00  0.00    -0.334 N
HETATM    9  C6  UNL     1     -31.368  14.446 -92.694  1.00  0.00     0.105 C
ATOM     10  H1  UNL     1     -31.397  12.640 -91.852  1.00  0.00     0.168 HD
BRANCH   9  11
HETATM   11  C7  UNL     1     -30.029  14.338 -93.233  1.00  0.00     0.012 A
HETATM   12  C8  UNL     1     -29.236  15.467 -93.273  1.00  0.00     0.015 A
HETATM   13  C9  UNL     1     -27.971  15.406 -93.772  1.00  0.00     0.001 A
HETATM   14  C10 UNL     1     -27.423  14.243 -94.253  1.00  0.00     0.003 A
HETATM   15  C11 UNL     1     -28.203  13.112 -94.218  1.00  0.00     0.037 A
HETATM   16  C12 UNL     1     -29.496  13.165 -93.711  1.00  0.00     0.077 A
BRANCH  16  17
HETATM   17  O3  UNL     1     -30.226  11.990 -93.705  1.00  0.00    -0.360 OA
ATOM     18  H3  UNL     1     -30.060  11.302 -94.338  1.00  0.00     0.217 HD
ENDBRANCH  16  17
ENDBRANCH   9  11
ENDBRANCH   5   6
ENDBRANCH   4   5
ENDBRANCH   2   4
BRANCH   2  19
HETATM   19  C13 UNL     1     -31.365  11.926 -88.177  1.00  0.00     0.216 C
BRANCH  19  20
HETATM   20  O4  UNL     1     -31.371  13.305 -87.909  1.00  0.00    -0.374 OA
ATOM     21  H4  UNL     1     -30.565  13.586 -87.494  1.00  0.00     0.211 HD
ENDBRANCH  19  20
BRANCH  19  22
HETATM   22  C14 UNL     1     -30.096  11.696 -88.906  1.00  0.00     0.021 A
HETATM   23  C15 UNL     1     -29.544  10.411 -89.010  1.00  0.00     0.013 A
HETATM   24  C16 UNL     1     -28.427  10.160 -89.782  1.00  0.00     0.001 A
HETATM   25  C17 UNL     1     -27.785  11.143 -90.496  1.00  0.00     0.003 A
HETATM   26  C18 UNL     1     -28.314  12.404 -90.402  1.00  0.00     0.037 A
HETATM   27  C19 UNL     1     -29.441  12.671 -89.623  1.00  0.00     0.075 A
BRANCH  27  28
HETATM   28  O5  UNL     1     -29.899  14.009 -89.579  1.00  0.00    -0.360 OA
ATOM     29  H5  UNL     1     -30.749  14.232 -89.939  1.00  0.00     0.217 HD
ENDBRANCH  27  28
ENDBRANCH  19  22
BRANCH  19  30
HETATM   30  C20 UNL     1     -31.186  11.410 -86.706  1.00  0.00     0.425 C
HETATM   31  F1  UNL     1     -29.870  11.573 -86.410  1.00  0.00    -0.167 F
HETATM   32  F2  UNL     1     -31.915  12.323 -85.907  1.00  0.00    -0.167 F
HETATM   33  F3  UNL     1     -31.712  10.218 -86.462  1.00  0.00    -0.167 F
ENDBRANCH  19  30
ENDBRANCH   2  19
TORSDOF 10
ENDMDL