MODEL 3
REMARK VINA RESULT: -7.619411846      2.275      3.518
REMARK  9 active torsions:
REMARK  status: ('A' for Active; 'I' for Inactive)
REMARK    1  A    between atoms: C3_3  and  O1_4
REMARK    2  A    between atoms: C4_6  and  C5_7
REMARK    3  A    between atoms: C5_7  and  O2_8
REMARK    4  A    between atoms: C6_11  and  C7_12
REMARK    5  A    between atoms: C11_16  and  O4_17
REMARK    6  A    between atoms: O4_17  and  C12_18
REMARK    7  A    between atoms: C12_18  and  C13_19
REMARK    8  A    between atoms: C12_18  and  C19_25
REMARK    9  A    between atoms: C21_30  and  O5_31
ROOT
HETATM    1  C7  UNL     1     -29.035  14.158 -93.667  1.00  0.00    -0.024 A
HETATM    2  C8  UNL     1     -28.207  14.408 -94.729  1.00  0.00     0.010 A
HETATM    3  C9  UNL     1     -26.933  13.870 -94.761  1.00  0.00     0.003 A
HETATM    4  C10 UNL     1     -26.499  13.086 -93.726  1.00  0.00     0.037 A
HETATM    5  C11 UNL     1     -27.310  12.803 -92.618  1.00  0.00     0.070 A
HETATM    6  C20 UNL     1     -28.573  13.367 -92.642  1.00  0.00     0.046 A
ENDROOT
BRANCH   1   7
HETATM    7  C6  UNL     1     -30.388  14.766 -93.693  1.00  0.00     0.184 C
HETATM    8  O3  UNL     1     -30.278  16.092 -93.871  1.00  0.00    -0.369 OA
HETATM    9  C4  UNL     1     -30.941  16.984 -93.129  1.00  0.00     0.175 C
HETATM   10  C3  UNL     1     -31.193  16.678 -91.686  1.00  0.00     0.155 C
HETATM   11  C2  UNL     1     -30.981  15.221 -91.353  1.00  0.00     0.045 C
HETATM   12  C1  UNL     1     -32.003  14.803 -90.286  1.00  0.00     0.015 C
HETATM   13  C21 UNL     1     -31.248  14.386 -92.558  1.00  0.00     0.158 C
BRANCH   9  14
HETATM   14  C5  UNL     1     -32.221  17.402 -93.857  1.00  0.00     0.198 C
BRANCH  14  15
HETATM   15  O2  UNL     1     -32.390  18.802 -93.745  1.00  0.00    -0.398 OA
ATOM     16  H2  UNL     1     -33.139  18.986 -93.191  1.00  0.00     0.209 HD
ENDBRANCH  14  15
ENDBRANCH   9  14
BRANCH  10  17
HETATM   17  O1  UNL     1     -32.533  16.964 -91.424  1.00  0.00    -0.392 OA
ATOM     18  H1  UNL     1     -32.551  17.768 -90.919  1.00  0.00     0.210 HD
ENDBRANCH  10  17
BRANCH  13  19
HETATM   19  O5  UNL     1     -31.230  13.016 -92.275  1.00  0.00    -0.392 OA
ATOM     20  H5  UNL     1     -30.348  12.664 -92.233  1.00  0.00     0.210 HD
ENDBRANCH  13  19
ENDBRANCH   1   7
BRANCH   5  21
HETATM   21  O4  UNL     1     -26.806  12.011 -91.626  1.00  0.00    -0.332 OA
BRANCH  21  22
HETATM   22  C12 UNL     1     -27.391  10.919 -91.012  1.00  0.00     0.269 C
BRANCH  22  23
HETATM   23  C13 UNL     1     -28.422  11.360 -90.040  1.00  0.00    -0.020 A
HETATM   24  C14 UNL     1     -29.492  10.541 -89.779  1.00  0.00     0.010 A
HETATM   25  C15 UNL     1     -30.490  10.913 -88.870  1.00  0.00     0.001 A
HETATM   26  C16 UNL     1     -30.406  12.129 -88.217  1.00  0.00     0.000 A
HETATM   27  C17 UNL     1     -29.335  12.951 -88.475  1.00  0.00     0.001 A
HETATM   28  C18 UNL     1     -28.348  12.569 -89.383  1.00  0.00     0.010 A
ENDBRANCH  22  23
BRANCH  22  29
HETATM   29  C19 UNL     1     -26.396  10.092 -90.210  1.00  0.00     0.417 C
HETATM   30  F1  UNL     1     -27.052   9.219 -89.370  1.00  0.00    -0.168 F
HETATM   31  F2  UNL     1     -25.707   9.312 -91.129  1.00  0.00    -0.168 F
HETATM   32  F3  UNL     1     -25.473  10.865 -89.564  1.00  0.00    -0.168 F
ENDBRANCH  22  29
ENDBRANCH  21  22
ENDBRANCH   5  21
TORSDOF 9
ENDMDL