MODEL 2
REMARK VINA RESULT: -7.055095082      3.256      5.958
REMARK  7 active torsions:
REMARK  status: ('A' for Active; 'I' for Inactive)
REMARK    1  A    between atoms: O1_2  and  C2_3
REMARK    2  A    between atoms: C2_3  and  C3_4
REMARK    3  A    between atoms: C3_4  and  O2_6
REMARK    4  A    between atoms: C3_4  and  C21_31
REMARK    5  A    between atoms: O2_6  and  C5_7
REMARK    6  A    between atoms: C7_11  and  C8_12
REMARK    7  A    between atoms: N3_19  and  C13_20
ROOT
HETATM    1  C5  UNL     1     -31.447  14.660 -90.890  1.00  0.00     0.159 A
HETATM    2  N1  UNL     1     -32.395  15.139 -90.057  1.00  0.00    -0.345 N
ATOM      3  H1  UNL     1     -33.085  15.792 -90.429  1.00  0.00     0.167 HD
HETATM    4  C6  UNL     1     -32.471  14.795 -88.760  1.00  0.00     0.100 A
HETATM    5  C7  UNL     1     -31.580  13.919 -88.179  1.00  0.00    -0.006 A
HETATM    6  C12 UNL     1     -30.588  13.401 -88.996  1.00  0.00     0.075 A
HETATM    7  N2  UNL     1     -29.588  12.539 -88.729  1.00  0.00    -0.290 N
ATOM      8  H2  UNL     1     -29.396  12.108 -87.825  1.00  0.00     0.187 HD
HETATM    9  N3  UNL     1     -28.905  12.349 -89.831  1.00  0.00    -0.239 N
HETATM   10  C19 UNL     1     -29.453  13.092 -90.846  1.00  0.00     0.138 A
HETATM   11  N4  UNL     1     -29.021  13.129 -92.048  1.00  0.00    -0.383 N
ATOM     12  H41 UNL     1     -29.429  13.681 -92.802  1.00  0.00     0.157 HD
ATOM     13  H42 UNL     1     -28.220  12.621 -92.425  1.00  0.00     0.157 HD
HETATM   14  C20 UNL     1     -30.529  13.773 -90.340  1.00  0.00     0.089 A
ENDROOT
BRANCH   1  15
HETATM   15  O2  UNL     1     -31.332  14.977 -92.198  1.00  0.00    -0.316 OA
BRANCH  15  16
HETATM   16  C3  UNL     1     -30.816  16.132 -92.813  1.00  0.00     0.145 C
HETATM   17  C4  UNL     1     -32.131  16.902 -93.294  1.00  0.00     0.054 C
BRANCH  16  18
HETATM   18  C2  UNL     1     -30.061  15.895 -94.035  1.00  0.00     0.210 C
BRANCH  18  19
HETATM   19  O1  UNL     1     -30.052  14.671 -94.584  1.00  0.00    -0.393 OA
HETATM   20  C1  UNL     1     -29.022  14.250 -95.356  1.00  0.00     0.201 C
ENDBRANCH  18  19
ENDBRANCH  16  18
BRANCH  16  21
HETATM   21  C21 UNL     1     -30.288  17.055 -91.793  1.00  0.00     0.389 C
HETATM   22  F1  UNL     1     -29.214  17.822 -92.223  1.00  0.00    -0.211 F
HETATM   23  F2  UNL     1     -31.303  17.956 -91.394  1.00  0.00    -0.211 F
ENDBRANCH  16  21
ENDBRANCH  15  16
ENDBRANCH   1  15
BRANCH   5  24
HETATM   24  C8  UNL     1     -31.669  13.541 -86.736  1.00  0.00    -0.021 C
HETATM   25  C9  UNL     1     -30.771  14.408 -85.914  1.00  0.00     0.019 C
HETATM   26  C10 UNL     1     -33.102  13.786 -86.295  1.00  0.00     0.019 C
HETATM   27  C11 UNL     1     -31.403  12.067 -86.537  1.00  0.00     0.019 C
ENDBRANCH   5  24
BRANCH   9  28
HETATM   28  C13 UNL     1     -27.771  11.511 -89.978  1.00  0.00     0.058 A
HETATM   29  C14 UNL     1     -26.494  11.992 -90.164  1.00  0.00     0.031 A
HETATM   30  C15 UNL     1     -25.428  11.161 -90.301  1.00  0.00     0.002 A
HETATM   31  C16 UNL     1     -25.590   9.787 -90.258  1.00  0.00     0.000 A
HETATM   32  C17 UNL     1     -26.860   9.288 -90.072  1.00  0.00     0.002 A
HETATM   33  C18 UNL     1     -27.951  10.144 -89.932  1.00  0.00     0.031 A
ENDBRANCH   9  28
TORSDOF 7
ENDMDL