MODEL 5
REMARK VINA RESULT: -6.997874168      3.792      6.494
REMARK  10 active torsions:
REMARK  status: ('A' for Active; 'I' for Inactive)
REMARK    1  A    between atoms: O1_2  and  C2_3
REMARK    2  A    between atoms: C4_5  and  N1_6
REMARK    3  A    between atoms: N1_6  and  C5_8
REMARK    4  A    between atoms: C8_11  and  C9_12
REMARK    5  A    between atoms: C11_21  and  N4_22
REMARK    6  A    between atoms: N4_22  and  C12_24
REMARK    7  A    between atoms: C12_24  and  C13_25
REMARK    8  A    between atoms: C13_25  and  C14_26
REMARK    9  A    between atoms: C14_26  and  N5_27
REMARK   10  A    between atoms: N5_27  and  C15_29
ROOT
HETATM    1  C15 UNL     1      12.691 -27.023 -55.553  1.00  0.00     0.100 A
HETATM    2  C16 UNL     1      12.180 -25.747 -55.454  1.00  0.00     0.050 A
HETATM    3  C17 UNL     1      10.803 -25.526 -55.456  1.00  0.00     0.028 A
HETATM    4  C18 UNL     1       9.980 -26.608 -55.561  1.00  0.00     0.060 A
HETATM    5  C19 UNL     1       8.543 -26.465 -55.571  1.00  0.00     0.101 C
HETATM    6  N6  UNL     1       7.397 -26.354 -55.564  1.00  0.00    -0.191 NA
HETATM    7  C20 UNL     1      10.532 -27.865 -55.658  1.00  0.00     0.112 A
HETATM    8  N7  UNL     1      11.851 -28.087 -55.656  1.00  0.00    -0.351 N
ATOM      9  H7  UNL     1      12.219 -29.035 -55.731  1.00  0.00     0.166 HD
ENDROOT
BRANCH   1  10
HETATM   10  N5  UNL     1      13.969 -27.214 -55.538  1.00  0.00    -0.376 N
ATOM     11  H5  UNL     1      14.340 -28.004 -56.066  1.00  0.00     0.161 HD
BRANCH  10  12
HETATM   12  C14 UNL     1      14.889 -26.394 -54.832  1.00  0.00     0.123 C
BRANCH  12  13
HETATM   13  C13 UNL     1      16.270 -26.996 -54.740  1.00  0.00     0.040 C
BRANCH  13  14
HETATM   14  C12 UNL     1      17.162 -26.138 -55.633  1.00  0.00     0.139 C
BRANCH  14  15
HETATM   15  N4  UNL     1      17.596 -26.950 -56.741  1.00  0.00    -0.226 N
ATOM     16  H4  UNL     1      18.389 -27.583 -56.636  1.00  0.00     0.177 HD
BRANCH  15  17
HETATM   17  C11 UNL     1      16.974 -26.871 -57.864  1.00  0.00     0.681 A
HETATM   18  N3  UNL     1      16.154 -27.894 -58.252  1.00  0.00    -0.177 N
HETATM   19  C4  UNL     1      15.468 -27.914 -59.401  1.00  0.00     0.126 A
ATOM     20  H3  UNL     1      16.059 -28.694 -57.625  1.00  0.00     0.186 HD
HETATM   21  C3  UNL     1      15.604 -26.831 -60.237  1.00  0.00     0.105 A
HETATM   22  C2  UNL     1      16.429 -25.754 -59.889  1.00  0.00     0.160 A
HETATM   23  N8  UNL     1      17.069 -25.830 -58.723  1.00  0.00    -0.171 N
ATOM     24  H8  UNL     1      17.672 -25.051 -58.460  1.00  0.00     0.186 HD
BRANCH  19  25
HETATM   25  N1  UNL     1      14.636 -29.019 -59.753  1.00  0.00    -0.328 N
ATOM     26  H1  UNL     1      15.052 -29.949 -59.810  1.00  0.00     0.169 HD
BRANCH  25  27
HETATM   27  C5  UNL     1      13.391 -28.888 -59.999  1.00  0.00     0.106 A
HETATM   28  C6  UNL     1      12.760 -29.422 -61.097  1.00  0.00     0.049 A
HETATM   29  C7  UNL     1      11.412 -29.217 -61.273  1.00  0.00     0.021 A
HETATM   30  C8  UNL     1      10.730 -28.479 -60.344  1.00  0.00     0.063 A
HETATM   31  C10 UNL     1      11.389 -27.955 -59.255  1.00  0.00     0.106 A
HETATM   32  N2  UNL     1      12.695 -28.152 -59.080  1.00  0.00    -0.351 N
ATOM     33  H2  UNL     1      13.171 -27.759 -58.268  1.00  0.00     0.166 HD
BRANCH  30  34
HETATM   34  C9  UNL     1       9.259 -28.224 -60.488  1.00  0.00     0.418 C
HETATM   35  F1  UNL     1       9.011 -27.058 -61.160  1.00  0.00    -0.166 F
HETATM   36  F2  UNL     1       8.653 -29.243 -61.184  1.00  0.00    -0.166 F
HETATM   37  F3  UNL     1       8.718 -28.107 -59.217  1.00  0.00    -0.166 F
ENDBRANCH  30  34
ENDBRANCH  25  27
ENDBRANCH  19  25
BRANCH  22  38
HETATM   38  O1  UNL     1      16.514 -24.730 -60.758  1.00  0.00    -0.340 OA
HETATM   39  C1  UNL     1      17.390 -23.676 -60.895  1.00  0.00     0.211 C
ENDBRANCH  22  38
ENDBRANCH  15  17
ENDBRANCH  14  15
ENDBRANCH  13  14
ENDBRANCH  12  13
ENDBRANCH  10  12
ENDBRANCH   1  10
TORSDOF 10
ENDMDL