MODEL 4
REMARK VINA RESULT: -8.396954444      3.075      5.945
REMARK  9 active torsions:
REMARK  status: ('A' for Active; 'I' for Inactive)
REMARK    1  A    between atoms: C2_3  and  N2_4
REMARK    2  A    between atoms: N2_4  and  C3_6
REMARK    3  A    between atoms: C4_9  and  N4_10
REMARK    4  A    between atoms: N4_10  and  C5_12
REMARK    5  A    between atoms: C5_12  and  C6_13
REMARK    6  A    between atoms: C6_13  and  C7_14
REMARK    7  A    between atoms: C12_23  and  N7_24
REMARK    8  A    between atoms: N7_24  and  C13_26
REMARK    9  A    between atoms: C13_26  and  C14_27
ROOT
HETATM    1  C3  UNL     1      14.763 -27.520 -59.591  1.00  0.00     0.726 A
HETATM    2  N3  UNL     1      14.443 -27.802 -58.317  1.00  0.00    -0.021 N
ATOM      3  H3  UNL     1      15.140 -27.625 -57.593  1.00  0.00     0.203 HD
HETATM    4  C4  UNL     1      13.262 -28.301 -57.948  1.00  0.00     0.707 A
HETATM    5  N6  UNL     1      12.341 -28.536 -58.897  1.00  0.00    -0.022 N
ATOM      6  H6  UNL     1      11.432 -28.918 -58.636  1.00  0.00     0.203 HD
HETATM    7  C12 UNL     1      12.608 -28.273 -60.184  1.00  0.00     0.707 A
HETATM    8  N8  UNL     1      13.829 -27.762 -60.522  1.00  0.00    -0.021 N
ATOM      9  H8  UNL     1      14.034 -27.562 -61.501  1.00  0.00     0.203 HD
ENDROOT
BRANCH   1  10
HETATM   10  N2  UNL     1      15.996 -27.014 -59.910  1.00  0.00    -0.021 N
ATOM     11  H2  UNL     1      16.620 -27.717 -60.306  1.00  0.00     0.203 HD
BRANCH  10  12
HETATM   12  C2  UNL     1      16.528 -25.889 -59.827  1.00  0.00     0.699 A
HETATM   13  N1  UNL     1      16.969 -25.243 -58.751  1.00  0.00    -0.185 N
HETATM   14  C1  UNL     1      16.939 -25.690 -57.400  1.00  0.00     0.175 C
HETATM   15  C20 UNL     1      17.481 -24.030 -59.119  1.00  0.00     0.078 A
HETATM   16  C15 UNL     1      17.344 -23.940 -60.480  1.00  0.00     0.076 A
HETATM   17  C19 UNL     1      18.055 -22.993 -58.413  1.00  0.00     0.032 A
HETATM   18  N9  UNL     1      16.759 -25.087 -60.892  1.00  0.00    -0.189 N
HETATM   19  C16 UNL     1      17.778 -22.813 -61.145  1.00  0.00     0.032 A
ATOM     20  H9  UNL     1      16.527 -25.315 -61.858  1.00  0.00     0.184 HD
HETATM   21  C17 UNL     1      18.347 -21.786 -60.432  1.00  0.00     0.002 A
HETATM   22  C18 UNL     1      18.483 -21.877 -59.081  1.00  0.00     0.002 A
ENDBRANCH  10  12
ENDBRANCH   1  10
BRANCH   4  23
HETATM   23  N4  UNL     1      13.034 -28.543 -56.706  1.00  0.00    -0.225 N
ATOM     24  H4  UNL     1      12.938 -29.507 -56.388  1.00  0.00     0.177 HD
BRANCH  23  25
HETATM   25  C5  UNL     1      12.911 -27.459 -55.756  1.00  0.00     0.142 C
BRANCH  25  26
HETATM   26  C6  UNL     1      12.148 -26.323 -56.403  1.00  0.00     0.058 C
BRANCH  26  27
HETATM   27  C7  UNL     1      10.714 -26.333 -55.982  1.00  0.00    -0.054 A
HETATM   28  C8  UNL     1       9.897 -27.247 -56.608  1.00  0.00     0.024 A
HETATM   29  C9  UNL     1       8.557 -27.323 -56.279  1.00  0.00     0.088 A
HETATM   30  N5  UNL     1       8.103 -26.478 -55.335  1.00  0.00    -0.375 N
HETATM   31  C10 UNL     1       8.879 -25.578 -54.708  1.00  0.00     0.088 A
ATOM     32  H5  UNL     1       7.115 -26.523 -55.081  1.00  0.00     0.164 HD
HETATM   33  C11 UNL     1      10.215 -25.487 -55.023  1.00  0.00     0.024 A
ENDBRANCH  26  27
ENDBRANCH  25  26
ENDBRANCH  23  25
ENDBRANCH   4  23
BRANCH   7  34
HETATM   34  N7  UNL     1      11.707 -28.510 -61.063  1.00  0.00    -0.216 N
ATOM     35  H7  UNL     1      11.820 -28.160 -62.015  1.00  0.00     0.178 HD
BRANCH  34  36
HETATM   36  C13 UNL     1      10.538 -29.266 -60.711  1.00  0.00     0.255 C
BRANCH  36  37
HETATM   37  C14 UNL     1       9.353 -28.309 -60.774  1.00  0.00     0.403 C
HETATM   38  F1  UNL     1       8.431 -28.858 -61.650  1.00  0.00    -0.169 F
HETATM   39  F2  UNL     1       8.735 -28.186 -59.550  1.00  0.00    -0.169 F
HETATM   40  F3  UNL     1       9.740 -27.090 -61.293  1.00  0.00    -0.169 F
ENDBRANCH  36  37
ENDBRANCH  34  36
ENDBRANCH   7  34
TORSDOF 9
ENDMDL