MODEL 3
REMARK VINA RESULT: -8.195325603      1.481      2.149
REMARK  9 active torsions:
REMARK  status: ('A' for Active; 'I' for Inactive)
REMARK    1  A    between atoms: C3_3  and  C5_5
REMARK    2  A    between atoms: C5_5  and  O1_7
REMARK    3  A    between atoms: O1_7  and  C7_8
REMARK    4  A    between atoms: C7_8  and  C8_10
REMARK    5  A    between atoms: C8_10  and  C9_11
REMARK    6  A    between atoms: C8_10  and  C13_24
REMARK    7  A    between atoms: C9_11  and  C10_12
REMARK       I    between atoms: C10_12  and  N1_14
REMARK    8  A    between atoms: N1_14  and  N2_16
REMARK       I    between atoms: N2_16  and  C11_18
REMARK    9  A    between atoms: C11_18  and  C12_20
ROOT
HETATM    1  C1  UNL     1      12.584 -25.808 -55.489  1.00  0.00     0.097 C
HETATM    2  C2  UNL     1      13.395 -25.464 -56.340  1.00  0.00    -0.181 C
HETATM    3  C3  UNL     1      14.360 -25.076 -57.369  1.00  0.00     0.076 C
HETATM    4  C4  UNL     1      15.635 -24.644 -56.726  1.00  0.00     0.025 C
ENDROOT
BRANCH   3   5
HETATM    5  C5  UNL     1      14.550 -26.183 -58.373  1.00  0.00     0.142 C
HETATM    6  C6  UNL     1      16.010 -26.124 -58.853  1.00  0.00     0.041 C
BRANCH   5   7
HETATM    7  O1  UNL     1      14.397 -27.461 -57.789  1.00  0.00    -0.315 OA
BRANCH   7   8
HETATM    8  C7  UNL     1      13.679 -28.450 -58.438  1.00  0.00     0.270 C
HETATM    9  O2  UNL     1      13.439 -29.496 -57.778  1.00  0.00    -0.264 OA
BRANCH   8  10
HETATM   10  C8  UNL     1      13.225 -28.259 -59.849  1.00  0.00     0.151 C
BRANCH  10  11
HETATM   11  C9  UNL     1      11.744 -28.457 -59.953  1.00  0.00     0.126 C
BRANCH  11  12
HETATM   12  C10 UNL     1      11.031 -27.507 -59.077  1.00  0.00     0.237 C
HETATM   13  O3  UNL     1      11.174 -26.265 -59.304  1.00  0.00    -0.272 OA
HETATM   14  N1  UNL     1      10.203 -27.911 -58.007  1.00  0.00    -0.267 N
ATOM     15  H1  UNL     1      10.077 -28.904 -57.813  1.00  0.00     0.190 HD
BRANCH  14  16
HETATM   16  N2  UNL     1       9.558 -26.970 -57.217  1.00  0.00    -0.260 N
HETATM   17  C11 UNL     1       9.204 -27.228 -55.873  1.00  0.00     0.343 C
HETATM   18  O4  UNL     1       9.487 -28.355 -55.381  1.00  0.00    -0.262 OA
ATOM     19  H2  UNL     1       9.332 -26.061 -57.620  1.00  0.00     0.190 HD
BRANCH  17  20
HETATM   20  C12 UNL     1       8.515 -26.207 -55.044  1.00  0.00     0.473 C
HETATM   21  F1  UNL     1       9.060 -24.963 -55.350  1.00  0.00    -0.162 F
HETATM   22  F2  UNL     1       7.162 -26.231 -55.281  1.00  0.00    -0.162 F
HETATM   23  F3  UNL     1       8.740 -26.484 -53.691  1.00  0.00    -0.162 F
ENDBRANCH  17  20
ENDBRANCH  14  16
ENDBRANCH  11  12
ENDBRANCH  10  11
BRANCH  10  24
HETATM   24  C13 UNL     1      13.962 -29.299 -60.662  1.00  0.00     0.066 A
HETATM   25  N3  UNL     1      14.023 -30.602 -60.449  1.00  0.00    -0.352 N
HETATM   26  C14 UNL     1      14.710 -31.361 -61.256  1.00  0.00     0.050 A
ATOM     27  H3  UNL     1      13.533 -31.013 -59.654  1.00  0.00     0.166 HD
HETATM   28  C15 UNL     1      14.857 -32.756 -61.146  1.00  0.00     0.031 A
HETATM   29  C19 UNL     1      15.345 -30.756 -62.306  1.00  0.00     0.033 A
HETATM   30  C16 UNL     1      15.608 -33.448 -62.061  1.00  0.00     0.002 A
HETATM   31  C17 UNL     1      16.247 -32.844 -63.116  1.00  0.00     0.002 A
HETATM   32  C18 UNL     1      16.112 -31.482 -63.237  1.00  0.00     0.021 A
HETATM   33  S1  UNL     1      14.914 -29.116 -62.070  1.00  0.00    -0.074 SA
ENDBRANCH  10  24
ENDBRANCH   8  10
ENDBRANCH   7   8
ENDBRANCH   5   7
ENDBRANCH   3   5
TORSDOF 9
ENDMDL