MODEL 1
REMARK VINA RESULT: -8.871237854      0.000      0.000
REMARK  10 active torsions:
REMARK  status: ('A' for Active; 'I' for Inactive)
REMARK    1  A    between atoms: C6_6  and  C7_7
REMARK    2  A    between atoms: C7_7  and  N1_8
REMARK    3  A    between atoms: N1_8  and  C8_10
REMARK    4  A    between atoms: C9_13  and  N3_14
REMARK    5  A    between atoms: N3_14  and  C10_16
REMARK    6  A    between atoms: C10_16  and  C11_17
REMARK    7  A    between atoms: N6_26  and  O1_27
REMARK    8  A    between atoms: C14_30  and  C15_31
REMARK    9  A    between atoms: N7_32  and  O2_34
REMARK   10  A    between atoms: O2_34  and  C16_35
ROOT
HETATM    1  C8  UNL     1      10.965 -27.092 -57.944  1.00  0.00     0.132 A
HETATM    2  N2  UNL     1      10.284 -26.901 -56.784  1.00  0.00    -0.176 N
ATOM      3  H2  UNL     1      10.785 -26.493 -55.995  1.00  0.00     0.186 HD
HETATM    4  C9  UNL     1       8.994 -27.217 -56.614  1.00  0.00     0.685 A
HETATM    5  N4  UNL     1       8.312 -27.754 -57.631  1.00  0.00    -0.174 N
ATOM      6  H4  UNL     1       7.330 -27.997 -57.509  1.00  0.00     0.186 HD
HETATM    7  C12 UNL     1       8.917 -27.977 -58.822  1.00  0.00     0.152 A
HETATM    8  N5  UNL     1       8.174 -28.509 -59.815  1.00  0.00    -0.258 N
ATOM      9  H5  UNL     1       7.193 -28.740 -59.662  1.00  0.00     0.191 HD
HETATM   10  N6  UNL     1       8.735 -28.720 -60.975  1.00  0.00    -0.173 N
HETATM   11  C13 UNL     1      10.030 -28.427 -61.214  1.00  0.00     0.157 A
HETATM   12  C14 UNL     1      10.837 -27.884 -60.239  1.00  0.00     0.018 A
HETATM   13  C19 UNL     1      10.268 -27.644 -58.988  1.00  0.00     0.067 A
ENDROOT
BRANCH   1  14
HETATM   14  N1  UNL     1      12.176 -26.755 -58.060  1.00  0.00    -0.371 N
ATOM     15  H1  UNL     1      12.846 -27.464 -58.358  1.00  0.00     0.161 HD
BRANCH  14  16
HETATM   16  C7  UNL     1      12.671 -25.414 -57.791  1.00  0.00     0.160 C
BRANCH  16  17
HETATM   17  C6  UNL     1      13.698 -25.381 -56.726  1.00  0.00    -0.040 A
HETATM   18  C5  UNL     1      13.508 -25.955 -55.495  1.00  0.00     0.009 A
HETATM   19  C4  UNL     1      14.496 -25.896 -54.537  1.00  0.00     0.001 A
HETATM   20  C3  UNL     1      15.694 -25.260 -54.790  1.00  0.00     0.007 A
HETATM   21  C2  UNL     1      15.891 -24.687 -56.011  1.00  0.00    -0.061 A
HETATM   22  C1  UNL     1      17.187 -24.005 -56.270  1.00  0.00     0.048 C
HETATM   23  C20 UNL     1      14.894 -24.748 -56.976  1.00  0.00     0.015 A
ENDBRANCH  16  17
ENDBRANCH  14  16
ENDBRANCH   1  14
BRANCH   4  24
HETATM   24  N3  UNL     1       8.422 -27.014 -55.507  1.00  0.00    -0.197 N
ATOM     25  H3  UNL     1       7.424 -27.222 -55.507  1.00  0.00     0.183 HD
BRANCH  24  26
HETATM   26  C10 UNL     1       8.918 -26.549 -54.272  1.00  0.00     0.194 C
BRANCH  26  27
HETATM   27  C11 UNL     1       9.308 -25.089 -54.259  1.00  0.00     0.422 C
HETATM   28  F1  UNL     1       9.192 -24.651 -52.952  1.00  0.00    -0.166 F
HETATM   29  F2  UNL     1      10.629 -24.908 -54.617  1.00  0.00    -0.166 F
HETATM   30  F3  UNL     1       8.460 -24.311 -55.021  1.00  0.00    -0.166 F
ENDBRANCH  26  27
ENDBRANCH  24  26
ENDBRANCH   4  24
BRANCH  12  31
HETATM   31  C15 UNL     1      12.217 -27.646 -60.528  1.00  0.00     0.128 C
HETATM   32  N7  UNL     1      13.087 -28.553 -60.571  1.00  0.00    -0.277 N
ATOM     33  H7  UNL     1      13.988 -28.131 -60.794  1.00  0.00     0.193 HD
BRANCH  32  34
HETATM   34  O2  UNL     1      13.250 -29.814 -60.436  1.00  0.00    -0.276 OA
BRANCH  34  35
HETATM   35  C16 UNL     1      13.427 -30.586 -59.262  1.00  0.00     0.144 C
HETATM   36  C17 UNL     1      14.219 -31.828 -59.500  1.00  0.00     0.042 C
HETATM   37  C18 UNL     1      14.126 -29.754 -58.212  1.00  0.00     0.042 C
ENDBRANCH  34  35
ENDBRANCH  32  34
ENDBRANCH  12  31
BRANCH  10  38
HETATM   38  O1  UNL     1       7.989 -29.271 -62.030  1.00  0.00    -0.268 OA
ATOM     39  H1  UNL     1       8.216 -29.071 -62.931  1.00  0.00     0.247 HD
ENDBRANCH  10  38
TORSDOF 10
ENDMDL