MODEL 5
REMARK VINA RESULT: -7.020892113      4.442      6.761
REMARK  12 active torsions:
REMARK  status: ('A' for Active; 'I' for Inactive)
REMARK    1  A    between atoms: C2_2  and  N1_3
REMARK       I    between atoms: N1_3  and  C3_5
REMARK       I    between atoms: C3_5  and  N2_7
REMARK    2  A    between atoms: N2_7  and  C4_9
REMARK    3  A    between atoms: C4_9  and  C5_10
REMARK    4  A    between atoms: C4_9  and  C13_26
REMARK    5  A    between atoms: C5_10  and  C6_11
REMARK    6  A    between atoms: C6_11  and  N3_12
REMARK    7  A    between atoms: N3_12  and  C7_14
REMARK    8  A    between atoms: C7_14  and  C10_21
REMARK       I    between atoms: N4_15  and  C8_17
REMARK    9  A    between atoms: C8_17  and  O3_19
REMARK   10  A    between atoms: C10_21  and  O5_23
REMARK   11  A    between atoms: O5_23  and  C11_24
REMARK   12  A    between atoms: C16_29  and  C17_30
ROOT
HETATM    1  C4  UNL     1      15.517 -25.677 -57.677  1.00  0.00     0.121 C
ENDROOT
BRANCH   1   2
HETATM    2  N2  UNL     1      15.232 -26.266 -59.000  1.00  0.00    -0.334 N
HETATM    3  C3  UNL     1      14.909 -27.637 -59.157  1.00  0.00     0.316 C
HETATM    4  N1  UNL     1      14.594 -28.129 -60.431  1.00  0.00    -0.343 N
HETATM    5  O1  UNL     1      14.898 -28.378 -58.167  1.00  0.00    -0.247 OA
ATOM      6  H1  UNL     1      14.608 -27.522 -61.251  1.00  0.00     0.164 HD
ATOM      7  H2  UNL     1      15.268 -25.668 -59.825  1.00  0.00     0.165 HD
BRANCH   4   8
HETATM    8  C2  UNL     1      14.242 -29.558 -60.540  1.00  0.00     0.120 C
HETATM    9  C1  UNL     1      13.087 -29.800 -61.462  1.00  0.00     0.026 C
ENDBRANCH   4   8
ENDBRANCH   1   2
BRANCH   1  10
HETATM   10  C5  UNL     1      14.199 -25.065 -57.323  1.00  0.00     0.050 C
BRANCH  10  11
HETATM   11  C6  UNL     1      13.524 -25.445 -56.052  1.00  0.00     0.123 C
BRANCH  11  12
HETATM   12  N3  UNL     1      12.957 -26.773 -56.345  1.00  0.00    -0.371 N
ATOM     13  H3  UNL     1      13.575 -27.573 -56.216  1.00  0.00     0.161 HD
BRANCH  12  14
HETATM   14  C7  UNL     1      11.644 -27.047 -56.787  1.00  0.00     0.182 C
HETATM   15  N4  UNL     1      10.747 -27.008 -55.839  1.00  0.00    -0.284 N
HETATM   16  C8  UNL     1       9.391 -27.238 -56.029  1.00  0.00     0.365 C
ATOM     17  H4  UNL     1      11.064 -26.792 -54.894  1.00  0.00     0.172 HD
HETATM   18  O2  UNL     1       8.929 -28.398 -56.177  1.00  0.00    -0.238 OA
BRANCH  16  19
HETATM   19  O3  UNL     1       8.442 -26.193 -56.065  1.00  0.00    -0.309 OA
HETATM   20  C9  UNL     1       8.595 -25.080 -55.182  1.00  0.00     0.215 C
ENDBRANCH  16  19
BRANCH  14  21
HETATM   21  C10 UNL     1      11.374 -27.320 -58.164  1.00  0.00     0.327 C
HETATM   22  O4  UNL     1      11.356 -28.482 -58.606  1.00  0.00    -0.256 OA
BRANCH  21  23
HETATM   23  O5  UNL     1      11.128 -26.288 -59.044  1.00  0.00    -0.316 OA
BRANCH  23  24
HETATM   24  C11 UNL     1      11.616 -26.359 -60.368  1.00  0.00     0.175 C
HETATM   25  C12 UNL     1      10.687 -26.933 -61.368  1.00  0.00     0.034 C
ENDBRANCH  23  24
ENDBRANCH  21  23
ENDBRANCH  14  21
ENDBRANCH  12  14
ENDBRANCH  11  12
ENDBRANCH  10  11
ENDBRANCH   1  10
BRANCH   1  26
HETATM   26  C13 UNL     1      16.615 -24.724 -57.741  1.00  0.00    -0.035 A
HETATM   27  C14 UNL     1      17.284 -24.232 -56.611  1.00  0.00     0.010 A
HETATM   28  C15 UNL     1      18.321 -23.339 -56.765  1.00  0.00     0.017 A
HETATM   29  C16 UNL     1      18.738 -22.900 -58.017  1.00  0.00     0.047 A
HETATM   30  C18 UNL     1      18.065 -23.399 -59.115  1.00  0.00     0.017 A
HETATM   31  C19 UNL     1      17.030 -24.288 -58.975  1.00  0.00     0.010 A
BRANCH  29  32
HETATM   32  C17 UNL     1      19.878 -21.929 -58.178  1.00  0.00     0.417 C
HETATM   33  F1  UNL     1      20.754 -22.437 -59.128  1.00  0.00    -0.166 F
HETATM   34  F2  UNL     1      19.402 -20.666 -58.534  1.00  0.00    -0.166 F
HETATM   35  F3  UNL     1      20.524 -21.804 -56.968  1.00  0.00    -0.166 F
ENDBRANCH  29  32
ENDBRANCH   1  26
TORSDOF 12
ENDMDL