MODEL 1
REMARK VINA RESULT: -7.552703365      0.000      0.000
REMARK  10 active torsions:
REMARK  status: ('A' for Active; 'I' for Inactive)
REMARK    1  A    between atoms: C2_2  and  N1_3
REMARK    2  A    between atoms: N1_3  and  C3_5
REMARK    3  A    between atoms: C4_8  and  C5_9
REMARK    4  A    between atoms: C9_13  and  C10_14
REMARK    5  A    between atoms: C12_21  and  N4_22
REMARK    6  A    between atoms: N4_22  and  C13_24
REMARK    7  A    between atoms: C15_26  and  N5_27
REMARK    8  A    between atoms: N5_27  and  C16_29
REMARK    9  A    between atoms: C16_29  and  C17_30
REMARK   10  A    between atoms: C17_30  and  N6_31
ROOT
HETATM    1  C3  UNL     1       9.844 -27.309 -56.351  1.00  0.00     0.694 A
HETATM    2  N2  UNL     1      11.001 -27.224 -55.633  1.00  0.00    -0.175 N
ATOM      3  H2  UNL     1      10.947 -27.188 -54.615  1.00  0.00     0.186 HD
HETATM    4  C4  UNL     1      12.219 -27.186 -56.222  1.00  0.00     0.146 A
HETATM    5  N3  UNL     1      12.215 -27.238 -57.549  1.00  0.00    -0.174 N
ATOM      6  H3  UNL     1      13.117 -27.208 -58.023  1.00  0.00     0.186 HD
HETATM    7  C12 UNL     1      11.109 -27.325 -58.321  1.00  0.00     0.700 A
HETATM    8  N9  UNL     1       9.900 -27.366 -57.705  1.00  0.00    -0.022 N
ATOM      9  H9  UNL     1       9.043 -27.437 -58.254  1.00  0.00     0.203 HD
ENDROOT
BRANCH   7  10
HETATM   10  N4  UNL     1      11.212 -27.422 -59.581  1.00  0.00    -0.176 N
ATOM     11  H4  UNL     1      10.471 -26.984 -60.128  1.00  0.00     0.186 HD
BRANCH  10  12
HETATM   12  C13 UNL     1      12.218 -28.055 -60.305  1.00  0.00     0.125 A
HETATM   13  C14 UNL     1      13.471 -27.492 -60.597  1.00  0.00     0.097 A
HETATM   14  C15 UNL     1      14.428 -28.141 -61.315  1.00  0.00     0.109 A
HETATM   15  N7  UNL     1      14.072 -29.403 -61.734  1.00  0.00    -0.338 N
HETATM   16  C20 UNL     1      12.885 -29.938 -61.459  1.00  0.00     0.183 A
ATOM     17  H7  UNL     1      14.743 -29.948 -62.275  1.00  0.00     0.168 HD
HETATM   18  N8  UNL     1      11.916 -29.320 -60.749  1.00  0.00    -0.338 N
ATOM     19  H8  UNL     1      11.019 -29.764 -60.555  1.00  0.00     0.168 HD
BRANCH  14  20
HETATM   20  N5  UNL     1      15.519 -27.637 -61.676  1.00  0.00    -0.351 N
ATOM     21  H5  UNL     1      15.537 -27.354 -62.655  1.00  0.00     0.166 HD
BRANCH  20  22
HETATM   22  C16 UNL     1      16.704 -27.391 -60.999  1.00  0.00     0.106 C
BRANCH  22  23
HETATM   23  C17 UNL     1      16.712 -26.065 -60.236  1.00  0.00     0.101 C
BRANCH  23  24
HETATM   24  N6  UNL     1      16.563 -26.220 -58.843  1.00  0.00    -0.397 N
HETATM   25  C18 UNL     1      15.562 -25.470 -58.169  1.00  0.00     0.148 C
HETATM   26  C19 UNL     1      16.868 -27.503 -58.311  1.00  0.00     0.148 C
ENDBRANCH  23  24
ENDBRANCH  22  23
ENDBRANCH  20  22
ENDBRANCH  14  20
ENDBRANCH  10  12
ENDBRANCH   7  10
BRANCH   4  27
HETATM   27  C5  UNL     1      13.443 -26.998 -55.478  1.00  0.00     0.010 A
HETATM   28  C6  UNL     1      13.773 -25.813 -54.825  1.00  0.00     0.015 A
HETATM   29  C7  UNL     1      14.966 -25.599 -54.171  1.00  0.00     0.002 A
HETATM   30  C8  UNL     1      15.917 -26.633 -54.161  1.00  0.00     0.016 A
HETATM   31  C9  UNL     1      15.630 -27.811 -54.806  1.00  0.00     0.048 A
HETATM   32  C11 UNL     1      14.437 -28.001 -55.443  1.00  0.00     0.031 A
BRANCH  31  33
HETATM   33  C10 UNL     1      16.681 -28.881 -54.789  1.00  0.00     0.417 C
HETATM   34  F1  UNL     1      16.760 -29.435 -53.535  1.00  0.00    -0.166 F
HETATM   35  F2  UNL     1      16.464 -29.811 -55.745  1.00  0.00    -0.166 F
HETATM   36  F3  UNL     1      17.895 -28.191 -54.987  1.00  0.00    -0.166 F
ENDBRANCH  31  33
ENDBRANCH   4  27
BRANCH   1  37
HETATM   37  N1  UNL     1       8.686 -27.242 -55.825  1.00  0.00    -0.226 N
ATOM     38  H1  UNL     1       7.894 -27.794 -56.155  1.00  0.00     0.177 HD
BRANCH  37  39
HETATM   39  C2  UNL     1       8.588 -26.293 -54.695  1.00  0.00     0.133 C
HETATM   40  C1  UNL     1       8.609 -24.876 -55.104  1.00  0.00     0.027 C
ENDBRANCH  37  39
ENDBRANCH   1  37
TORSDOF 10
ENDMDL