MODEL 2
REMARK VINA RESULT: -7.551056318      1.018      1.335
REMARK  10 active torsions:
REMARK  status: ('A' for Active; 'I' for Inactive)
REMARK    1  A    between atoms: O1_1  and  C1_3
REMARK    2  A    between atoms: C1_3  and  C2_4
REMARK    3  A    between atoms: C1_3  and  C16_33
REMARK    4  A    between atoms: C2_4  and  N1_5
REMARK    5  A    between atoms: C6_9  and  N2_10
REMARK    6  A    between atoms: N2_10  and  C7_11
REMARK    7  A    between atoms: C7_11  and  C8_12
REMARK    8  A    between atoms: C8_12  and  N3_13
REMARK    9  A    between atoms: N3_13  and  C9_15
REMARK   10  A    between atoms: C10_18  and  C11_19
ROOT
HETATM    1  N1  UNL     1      15.773 -27.699 -58.697  1.00  0.00    -0.340 N
HETATM    2  C3  UNL     1      14.942 -26.673 -59.134  1.00  0.00     0.094 A
HETATM    3  C4  UNL     1      13.729 -27.172 -59.476  1.00  0.00     0.037 A
HETATM    4  C5  UNL     1      13.789 -28.537 -59.256  1.00  0.00     0.068 A
HETATM    5  C6  UNL     1      12.816 -29.506 -59.385  1.00  0.00     0.193 A
HETATM    6  N6  UNL     1      13.100 -30.780 -59.053  1.00  0.00    -0.327 N
ATOM      7  H6  UNL     1      12.398 -31.515 -59.143  1.00  0.00     0.169 HD
HETATM    8  C14 UNL     1      14.332 -31.052 -58.602  1.00  0.00     0.184 A
HETATM    9  N7  UNL     1      15.301 -30.089 -58.470  1.00  0.00    -0.338 N
ATOM     10  H7  UNL     1      16.227 -30.343 -58.127  1.00  0.00     0.168 HD
HETATM   11  C15 UNL     1      15.034 -28.817 -58.792  1.00  0.00     0.123 A
ENDROOT
BRANCH   5  12
HETATM   12  N2  UNL     1      11.711 -29.192 -59.779  1.00  0.00    -0.401 NA
BRANCH  12  13
HETATM   13  C7  UNL     1      10.622 -28.870 -60.497  1.00  0.00     0.177 C
BRANCH  13  14
HETATM   14  C8  UNL     1       9.808 -27.687 -59.953  1.00  0.00     0.197 C
BRANCH  14  15
HETATM   15  N3  UNL     1       9.141 -28.125 -58.757  1.00  0.00    -0.220 N
ATOM     16  H3  UNL     1       8.457 -28.881 -58.796  1.00  0.00     0.178 HD
BRANCH  15  17
HETATM   17  C9  UNL     1       9.417 -27.549 -57.623  1.00  0.00     0.678 A
HETATM   18  N4  UNL     1      10.697 -27.121 -57.442  1.00  0.00    -0.187 N
HETATM   19  C10 UNL     1      11.091 -26.542 -56.341  1.00  0.00     0.133 A
ATOM     20  H4  UNL     1      11.372 -27.258 -58.195  1.00  0.00     0.184 HD
HETATM   21  C12 UNL     1      10.192 -26.349 -55.327  1.00  0.00     0.052 A
HETATM   22  C13 UNL     1       8.889 -26.770 -55.488  1.00  0.00     0.108 A
HETATM   23  N5  UNL     1       8.526 -27.373 -56.644  1.00  0.00    -0.202 N
ATOM     24  H5  UNL     1       7.565 -27.693 -56.769  1.00  0.00     0.183 HD
BRANCH  19  25
HETATM   25  C11 UNL     1      12.476 -26.023 -56.121  1.00  0.00     0.433 C
HETATM   26  F1  UNL     1      13.377 -27.032 -56.089  1.00  0.00    -0.165 F
HETATM   27  F2  UNL     1      12.864 -25.107 -57.050  1.00  0.00    -0.165 F
HETATM   28  F3  UNL     1      12.505 -25.391 -54.854  1.00  0.00    -0.165 F
ENDBRANCH  19  25
ENDBRANCH  15  17
ENDBRANCH  14  15
ENDBRANCH  13  14
ENDBRANCH  12  13
ENDBRANCH   5  12
BRANCH   1  29
HETATM   29  C2  UNL     1      17.062 -27.377 -58.183  1.00  0.00     0.166 C
BRANCH  29  30
HETATM   30  C1  UNL     1      17.235 -27.690 -56.768  1.00  0.00     0.169 C
BRANCH  30  31
HETATM   31  O1  UNL     1      17.010 -28.997 -56.450  1.00  0.00    -0.389 OA
ATOM     32  H1  UNL     1      17.696 -29.592 -56.730  1.00  0.00     0.210 HD
ENDBRANCH  30  31
BRANCH  30  33
HETATM   33  C16 UNL     1      16.614 -26.738 -55.825  1.00  0.00    -0.028 A
HETATM   34  C17 UNL     1      16.558 -25.399 -56.056  1.00  0.00     0.010 A
HETATM   35  C18 UNL     1      16.061 -24.550 -55.060  1.00  0.00     0.001 A
HETATM   36  C19 UNL     1      15.641 -25.053 -53.864  1.00  0.00     0.000 A
HETATM   37  C20 UNL     1      15.688 -26.385 -53.616  1.00  0.00     0.001 A
HETATM   38  C21 UNL     1      16.181 -27.228 -54.613  1.00  0.00     0.010 A
ENDBRANCH  30  33
ENDBRANCH  29  30
ENDBRANCH   1  29
TORSDOF 10
ENDMDL