MODEL 3
REMARK VINA RESULT: -7.619794300      1.742      2.514
REMARK  10 active torsions:
REMARK  status: ('A' for Active; 'I' for Inactive)
REMARK    1  A    between atoms: C2_2  and  O1_3
REMARK    2  A    between atoms: C2_2  and  C3_5
REMARK    3  A    between atoms: C2_2  and  C20_32
REMARK    4  A    between atoms: N1_9  and  C7_10
REMARK    5  A    between atoms: C8_12  and  C9_13
REMARK    6  A    between atoms: C9_13  and  S1_14
REMARK    7  A    between atoms: S1_14  and  C10_15
REMARK    8  A    between atoms: C10_15  and  C11_16
REMARK    9  A    between atoms: C17_22  and  O3_23
REMARK   10  A    between atoms: C18_25  and  O4_26
ROOT
HETATM    1  C7  UNL     1      15.628 -25.811 -59.691  1.00  0.00     0.277 C
HETATM    2  O2  UNL     1      15.833 -25.001 -58.533  1.00  0.00    -0.352 OA
HETATM    3  C8  UNL     1      17.198 -24.800 -58.372  1.00  0.00     0.165 C
HETATM    4  C17 UNL     1      17.584 -23.732 -59.374  1.00  0.00     0.182 C
HETATM    5  C18 UNL     1      17.407 -24.349 -60.770  1.00  0.00     0.199 C
HETATM    6  C19 UNL     1      16.834 -25.703 -60.563  1.00  0.00     0.061 C
HETATM    7  N2  UNL     1      17.400 -26.733 -61.133  1.00  0.00    -0.400 N
ATOM      8  H21 UNL     1      18.225 -26.659 -61.729  1.00  0.00     0.155 HD
ATOM      9  H22 UNL     1      17.006 -27.663 -60.991  1.00  0.00     0.155 HD
ENDROOT
BRANCH   1  10
HETATM   10  N1  UNL     1      15.323 -27.163 -59.297  1.00  0.00    -0.325 N
HETATM   11  C3  UNL     1      14.216 -27.846 -59.670  1.00  0.00     0.057 A
HETATM   12  C4  UNL     1      14.296 -29.109 -59.065  1.00  0.00     0.030 A
HETATM   13  C5  UNL     1      15.449 -29.186 -58.328  1.00  0.00     0.019 A
HETATM   14  C6  UNL     1      16.074 -27.951 -58.492  1.00  0.00     0.094 A
BRANCH  11  15
HETATM   15  C2  UNL     1      13.066 -27.462 -60.506  1.00  0.00     0.194 C
HETATM   16  C1  UNL     1      12.590 -28.758 -61.183  1.00  0.00     0.062 C
BRANCH  15  17
HETATM   17  O1  UNL     1      13.323 -26.580 -61.522  1.00  0.00    -0.375 OA
ATOM     18  H1  UNL     1      13.321 -25.717 -61.124  1.00  0.00     0.211 HD
ENDBRANCH  15  17
BRANCH  15  19
HETATM   19  C20 UNL     1      11.937 -26.903 -59.645  1.00  0.00     0.423 C
HETATM   20  F1  UNL     1      11.387 -27.918 -58.876  1.00  0.00    -0.167 F
HETATM   21  F2  UNL     1      10.937 -26.395 -60.434  1.00  0.00    -0.167 F
HETATM   22  F3  UNL     1      12.455 -25.910 -58.824  1.00  0.00    -0.167 F
ENDBRANCH  15  19
ENDBRANCH  11  15
ENDBRANCH   1  10
BRANCH   3  23
HETATM   23  C9  UNL     1      17.486 -24.452 -56.942  1.00  0.00     0.109 C
BRANCH  23  24
HETATM   24  S1  UNL     1      16.030 -24.359 -55.894  1.00  0.00    -0.162 SA
BRANCH  24  25
HETATM   25  C10 UNL     1      15.626 -25.999 -55.270  1.00  0.00     0.112 C
BRANCH  25  26
HETATM   26  C11 UNL     1      14.223 -26.390 -55.447  1.00  0.00    -0.049 A
HETATM   27  C12 UNL     1      13.215 -25.463 -55.519  1.00  0.00     0.008 A
HETATM   28  C13 UNL     1      11.880 -25.864 -55.691  1.00  0.00     0.001 A
HETATM   29  C14 UNL     1      11.570 -27.205 -55.790  1.00  0.00     0.000 A
HETATM   30  C15 UNL     1      12.589 -28.130 -55.712  1.00  0.00     0.001 A
HETATM   31  C16 UNL     1      13.885 -27.708 -55.542  1.00  0.00     0.008 A
ENDBRANCH  25  26
ENDBRANCH  24  25
ENDBRANCH  23  24
ENDBRANCH   3  23
BRANCH   5  32
HETATM   32  O4  UNL     1      16.477 -23.621 -61.529  1.00  0.00    -0.387 OA
ATOM     33  H4  UNL     1      15.849 -24.200 -61.947  1.00  0.00     0.210 HD
ENDBRANCH   5  32
BRANCH   4  34
HETATM   34  O3  UNL     1      18.868 -23.252 -59.199  1.00  0.00    -0.390 OA
ATOM     35  H3  UNL     1      19.496 -23.617 -59.813  1.00  0.00     0.210 HD
ENDBRANCH   4  34
TORSDOF 10
ENDMDL