MODEL 5
REMARK VINA RESULT: -7.090296646      0.866      1.096
REMARK  10 active torsions:
REMARK  status: ('A' for Active; 'I' for Inactive)
REMARK    1  A    between atoms: C2_2  and  C3_3
REMARK    2  A    between atoms: C3_3  and  N1_4
REMARK    3  A    between atoms: N1_4  and  C4_6
REMARK    4  A    between atoms: C5_9  and  N3_10
REMARK    5  A    between atoms: N3_10  and  C6_12
REMARK    6  A    between atoms: C6_12  and  C7_13
REMARK    7  A    between atoms: C7_13  and  N4_14
REMARK    8  A    between atoms: C10_19  and  N6_20
REMARK    9  A    between atoms: N6_20  and  C11_22
REMARK   10  A    between atoms: C17_28  and  C18_29
ROOT
HETATM    1  C4  UNL     1      11.212 -27.009 -56.523  1.00  0.00     0.707 A
HETATM    2  N2  UNL     1      11.185 -26.988 -57.876  1.00  0.00    -0.022 N
ATOM      3  H2  UNL     1      10.458 -27.497 -58.377  1.00  0.00     0.203 HD
HETATM    4  C5  UNL     1      12.113 -26.299 -58.562  1.00  0.00     0.707 A
HETATM    5  N5  UNL     1      13.064 -25.634 -57.883  1.00  0.00    -0.021 N
ATOM      6  H5  UNL     1      13.768 -25.110 -58.403  1.00  0.00     0.203 HD
HETATM    7  C10 UNL     1      13.114 -25.639 -56.533  1.00  0.00     0.711 A
HETATM    8  N9  UNL     1      12.163 -26.344 -55.852  1.00  0.00    -0.021 N
ATOM      9  H9  UNL     1      12.177 -26.365 -54.832  1.00  0.00     0.203 HD
ENDROOT
BRANCH   7  10
HETATM   10  N6  UNL     1      14.034 -24.997 -55.900  1.00  0.00    -0.191 N
ATOM     11  H6  UNL     1      13.776 -24.191 -55.330  1.00  0.00     0.184 HD
BRANCH  10  12
HETATM   12  C11 UNL     1      15.398 -25.381 -55.974  1.00  0.00     0.050 A
HETATM   13  C12 UNL     1      16.327 -24.480 -56.459  1.00  0.00     0.032 A
HETATM   14  C13 UNL     1      17.640 -24.885 -56.517  1.00  0.00     0.034 A
HETATM   15  C14 UNL     1      18.000 -26.149 -56.103  1.00  0.00     0.063 A
HETATM   16  C15 UNL     1      17.075 -27.050 -55.619  1.00  0.00     0.027 A
HETATM   17  N8  UNL     1      19.195 -26.808 -56.047  1.00  0.00    -0.295 N
HETATM   18  C16 UNL     1      15.766 -26.651 -55.559  1.00  0.00     0.046 A
HETATM   19  C17 UNL     1      17.726 -28.240 -55.279  1.00  0.00     0.145 A
HETATM   20  N7  UNL     1      19.012 -28.022 -55.565  1.00  0.00    -0.293 N
ATOM     21  H7  UNL     1      19.756 -28.706 -55.428  1.00  0.00     0.187 HD
HETATM   22  C19 UNL     1      20.423 -26.168 -56.482  1.00  0.00     0.178 C
BRANCH  19  23
HETATM   23  C18 UNL     1      17.052 -29.441 -54.722  1.00  0.00     0.434 C
HETATM   24  F1  UNL     1      17.969 -30.428 -54.389  1.00  0.00    -0.165 F
HETATM   25  F2  UNL     1      16.216 -29.936 -55.695  1.00  0.00    -0.165 F
HETATM   26  F3  UNL     1      16.361 -29.143 -53.561  1.00  0.00    -0.165 F
ENDBRANCH  19  23
ENDBRANCH  10  12
ENDBRANCH   7  10
BRANCH   4  27
HETATM   27  N3  UNL     1      12.108 -26.265 -59.829  1.00  0.00    -0.223 N
ATOM     28  H3  UNL     1      12.285 -25.356 -60.257  1.00  0.00     0.177 HD
BRANCH  27  29
HETATM   29  C6  UNL     1      11.884 -27.360 -60.732  1.00  0.00     0.168 C
BRANCH  29  30
HETATM   30  C7  UNL     1      13.144 -28.176 -60.807  1.00  0.00     0.291 C
BRANCH  30  31
HETATM   31  N4  UNL     1      12.968 -29.516 -60.298  1.00  0.00     0.081 N
HETATM   32  C8  UNL     1      11.619 -29.981 -60.398  1.00  0.00     0.309 C
HETATM   33  C9  UNL     1      13.592 -29.734 -59.035  1.00  0.00     0.309 C
ENDBRANCH  30  31
ENDBRANCH  29  30
ENDBRANCH  27  29
ENDBRANCH   4  27
BRANCH   1  34
HETATM   34  N1  UNL     1      10.324 -27.669 -55.867  1.00  0.00    -0.225 N
ATOM     35  H1  UNL     1      10.575 -28.574 -55.470  1.00  0.00     0.177 HD
BRANCH  34  36
HETATM   36  C3  UNL     1       8.992 -27.167 -55.678  1.00  0.00     0.137 C
BRANCH  36  37
HETATM   37  C2  UNL     1       8.895 -26.250 -54.476  1.00  0.00     0.016 C
HETATM   38  C1  UNL     1       8.800 -24.822 -54.976  1.00  0.00     0.006 C
ENDBRANCH  36  37
ENDBRANCH  34  36
ENDBRANCH   1  34
TORSDOF 10
ENDMDL