MODEL 2
REMARK VINA RESULT: -9.816393921      2.892     10.707
REMARK  11 active torsions:
REMARK  status: ('A' for Active; 'I' for Inactive)
REMARK       I    between atoms: N1_1  and  C1_5
REMARK       I    between atoms: C1_5  and  N2_6
REMARK       I    between atoms: C1_5  and  N3_10
REMARK    1  A    between atoms: N3_10  and  N4_12
REMARK    2  A    between atoms: N4_12  and  C2_14
REMARK    3  A    between atoms: C2_14  and  C3_15
REMARK    4  A    between atoms: C4_18  and  N6_19
REMARK       I    between atoms: N6_19  and  C5_21
REMARK    5  A    between atoms: C5_21  and  C6_23
REMARK    6  A    between atoms: C8_29  and  O2_30
REMARK    7  A    between atoms: O2_30  and  C9_31
REMARK    8  A    between atoms: C9_31  and  C10_33
REMARK    9  A    between atoms: C12_40  and  C13_41
REMARK   10  A    between atoms: C14_44  and  O7_45
REMARK   11  A    between atoms: C17_49  and  N11_50
ROOT
HETATM    1  N6  UNL     1     -15.763 -32.791  12.877  1.00  0.00    -0.307 N
ATOM      2  H6  UNL     1     -16.416 -33.085  13.602  1.00  0.00     0.170 HD
HETATM    3  C5  UNL     1     -14.547 -32.158  13.249  1.00  0.00     0.278 C
HETATM    4  O1  UNL     1     -13.520 -32.848  13.197  1.00  0.00    -0.265 OA
ENDROOT
BRANCH   1   5
HETATM    5  C4  UNL     1     -16.058 -33.001  11.622  1.00  0.00     0.108 A
HETATM    6  N5  UNL     1     -15.722 -34.163  11.036  1.00  0.00    -0.339 N
HETATM    7  C3  UNL     1     -16.005 -34.436   9.723  1.00  0.00     0.084 A
ATOM      8  H5  UNL     1     -15.237 -34.869  11.589  1.00  0.00     0.167 HD
HETATM    9  C17 UNL     1     -16.653 -33.468   9.013  1.00  0.00     0.131 A
HETATM   10  C16 UNL     1     -17.012 -32.246   9.614  1.00  0.00     0.042 A
HETATM   11  C15 UNL     1     -16.713 -32.014  10.919  1.00  0.00     0.051 A
BRANCH   7  12
HETATM   12  C2  UNL     1     -15.638 -35.725   9.179  1.00  0.00     0.139 C
BRANCH  12  13
HETATM   13  N4  UNL     1     -16.537 -36.681   9.079  1.00  0.00    -0.311 N
ATOM     14  H4  UNL     1     -17.279 -36.735   9.776  1.00  0.00     0.185 HD
BRANCH  13  15
HETATM   15  N3  UNL     1     -16.509 -37.613   8.063  1.00  0.00    -0.284 N
HETATM   16  C1  UNL     1     -15.630 -38.765   8.044  1.00  0.00     0.494 C
HETATM   17  N1  UNL     1     -15.818 -39.653   9.151  1.00  0.00    -0.032 N
HETATM   18  N2  UNL     1     -15.785 -39.491   6.814  1.00  0.00    -0.032 N
ATOM     19  H13 UNL     1     -16.712 -40.143   9.104  1.00  0.00     0.279 HD
ATOM     20  H12 UNL     1     -15.203 -40.465   9.103  1.00  0.00     0.279 HD
ATOM     21  H11 UNL     1     -15.708 -39.138  10.025  1.00  0.00     0.279 HD
ATOM     22  H23 UNL     1     -15.170 -40.303   6.766  1.00  0.00     0.279 HD
ATOM     23  H22 UNL     1     -16.679 -39.981   6.766  1.00  0.00     0.279 HD
ATOM     24  H21 UNL     1     -15.652 -38.859   6.024  1.00  0.00     0.279 HD
ATOM     25  H3  UNL     1     -17.146 -37.484   7.276  1.00  0.00     0.184 HD
ENDBRANCH  13  15
ENDBRANCH  12  13
ENDBRANCH   7  12
BRANCH   9  26
HETATM   26  N11 UNL     1     -17.005 -33.608   7.668  1.00  0.00    -0.113 N
HETATM   27  O8  UNL     1     -16.833 -32.741   6.822  1.00  0.00    -0.532 OA
HETATM   28  O9  UNL     1     -17.621 -34.781   7.259  1.00  0.00    -0.532 OA
ENDBRANCH   9  26
ENDBRANCH   1   5
BRANCH   3  29
HETATM   29  C6  UNL     1     -14.544 -30.777  13.661  1.00  0.00     0.152 A
HETATM   30  N7  UNL     1     -15.709 -30.238  14.146  1.00  0.00    -0.293 N
HETATM   31  N8  UNL     1     -15.804 -28.997  14.545  1.00  0.00    -0.308 N
ATOM     32  H7  UNL     1     -16.537 -30.832  14.197  1.00  0.00     0.187 HD
HETATM   33  C7  UNL     1     -14.719 -28.219  14.479  1.00  0.00     0.147 A
ATOM     34  H8  UNL     1     -16.687 -28.629  14.899  1.00  0.00     0.186 HD
HETATM   35  C8  UNL     1     -13.521 -28.688  14.005  1.00  0.00     0.132 A
HETATM   36  C14 UNL     1     -13.410 -30.006  13.579  1.00  0.00     0.135 A
BRANCH  35  37
HETATM   37  O2  UNL     1     -12.448 -27.798  13.977  1.00  0.00    -0.269 OA
BRANCH  37  38
HETATM   38  C9  UNL     1     -11.619 -27.649  12.895  1.00  0.00     0.318 C
HETATM   39  O3  UNL     1     -12.150 -27.512  11.764  1.00  0.00    -0.257 OA
BRANCH  38  40
HETATM   40  C10 UNL     1     -10.164 -27.640  12.977  1.00  0.00     0.146 A
HETATM   41  N9  UNL     1      -9.337 -28.695  12.936  1.00  0.00    -0.291 N
HETATM   42  N10 UNL     1      -8.070 -28.334  13.038  1.00  0.00    -0.265 N
ATOM     43  H9  UNL     1      -9.648 -29.662  12.838  1.00  0.00     0.187 HD
HETATM   44  C11 UNL     1      -8.032 -26.997  13.152  1.00  0.00     0.279 A
ATOM     45  H10 UNL     1      -7.265 -28.959  13.032  1.00  0.00     0.190 HD
HETATM   46  O4  UNL     1      -6.989 -26.304  13.268  1.00  0.00    -0.266 OA
HETATM   47  C12 UNL     1      -9.335 -26.530  13.117  1.00  0.00     0.144 A
BRANCH  47  48
HETATM   48  C13 UNL     1      -9.815 -25.180  13.201  1.00  0.00     0.217 C
HETATM   49  O5  UNL     1     -10.032 -24.661  14.317  1.00  0.00    -0.644 OA
HETATM   50  O6  UNL     1     -10.043 -24.440  12.060  1.00  0.00    -0.644 OA
ENDBRANCH  47  48
ENDBRANCH  38  40
ENDBRANCH  37  38
ENDBRANCH  35  37
BRANCH  36  51
HETATM   51  O7  UNL     1     -12.210 -30.411  13.125  1.00  0.00    -0.356 OA
ATOM     52  H7  UNL     1     -11.364 -30.146  13.468  1.00  0.00     0.218 HD
ENDBRANCH  36  51
ENDBRANCH   3  29
TORSDOF 11
ENDMDL