MODEL 5
REMARK VINA RESULT: -8.689985424      3.456      9.123
REMARK  13 active torsions:
REMARK  status: ('A' for Active; 'I' for Inactive)
REMARK    1  A    between atoms: C4_4  and  N1_5
REMARK    2  A    between atoms: N1_5  and  C5_7
REMARK    3  A    between atoms: C5_7  and  C6_8
REMARK    4  A    between atoms: C6_8  and  N2_9
REMARK    5  A    between atoms: N2_9  and  C7_11
REMARK    6  A    between atoms: C10_18  and  C11_19
REMARK    7  A    between atoms: C11_19  and  C12_20
REMARK    8  A    between atoms: C12_20  and  C13_21
REMARK       I    between atoms: C13_21  and  N5_23
REMARK    9  A    between atoms: N5_23  and  N6_25
REMARK   10  A    between atoms: C15_30  and  C16_31
REMARK   11  A    between atoms: N8_33  and  C18_34
REMARK   12  A    between atoms: C19_39  and  N11_40
REMARK   13  A    between atoms: C20_45  and  N13_46
ROOT
HETATM    1  C7  UNL     1     -15.916 -32.260  11.276  1.00  0.00     0.131 A
HETATM    2  N3  UNL     1     -16.459 -31.780  10.123  1.00  0.00    -0.175 N
ATOM      3  H3  UNL     1     -16.629 -30.780  10.011  1.00  0.00     0.186 HD
HETATM    4  C8  UNL     1     -16.768 -32.643   9.127  1.00  0.00     0.690 A
HETATM    5  N4  UNL     1     -17.307 -32.478   7.892  1.00  0.00    -0.199 N
ATOM      6  H4  UNL     1     -17.586 -31.581   7.494  1.00  0.00     0.183 HD
HETATM    7  C9  UNL     1     -17.421 -33.664   7.266  1.00  0.00     0.132 A
HETATM    8  C10 UNL     1     -16.927 -34.594   8.170  1.00  0.00     0.050 A
HETATM    9  N7  UNL     1     -16.542 -33.943   9.285  1.00  0.00    -0.159 N
HETATM   10  C14 UNL     1     -15.999 -34.464  10.425  1.00  0.00     0.133 A
HETATM   11  C15 UNL     1     -15.677 -33.601  11.450  1.00  0.00     0.054 A
ENDROOT
BRANCH  11  12
HETATM   12  C16 UNL     1     -15.096 -34.043  12.706  1.00  0.00     0.082 A
HETATM   13  C17 UNL     1     -15.722 -34.622  13.794  1.00  0.00     0.151 A
HETATM   14  N8  UNL     1     -14.783 -34.862  14.727  1.00  0.00    -0.230 N
HETATM   15  N14 UNL     1     -13.609 -34.461  14.270  1.00  0.00    -0.234 N
HETATM   16  N15 UNL     1     -13.802 -33.972  13.064  1.00  0.00    -0.284 N
ATOM     17  H14 UNL     1     -12.718 -34.519  14.763  1.00  0.00     0.209 HD
ATOM     18  H15 UNL     1     -13.062 -33.589  12.475  1.00  0.00     0.188 HD
BRANCH  14  19
HETATM   19  C18 UNL     1     -15.048 -35.452  15.986  1.00  0.00     0.188 A
HETATM   20  N9  UNL     1     -15.670 -34.722  16.955  1.00  0.00    -0.267 N
HETATM   21  N10 UNL     1     -15.944 -35.209  18.142  1.00  0.00    -0.131 N
ATOM     22  H9  UNL     1     -15.933 -33.758  16.749  1.00  0.00     0.189 HD
HETATM   23  C19 UNL     1     -15.607 -36.476  18.435  1.00  0.00     0.692 A
ATOM     24  H10 UNL     1     -16.411 -34.629  18.839  1.00  0.00     0.205 HD
HETATM   25  N12 UNL     1     -14.992 -37.249  17.528  1.00  0.00    -0.172 N
HETATM   26  C20 UNL     1     -14.712 -36.749  16.313  1.00  0.00     0.162 A
ATOM     27  H12 UNL     1     -14.738 -38.210  17.759  1.00  0.00     0.186 HD
BRANCH  23  28
HETATM   28  N11 UNL     1     -15.892 -36.928  19.618  1.00  0.00    -0.233 N
ATOM     29 2H11 UNL     1     -15.594 -36.430  20.457  1.00  0.00     0.174 HD
ATOM     30 1H11 UNL     1     -16.422 -37.796  19.687  1.00  0.00     0.174 HD
ENDBRANCH  23  28
BRANCH  26  31
HETATM   31  N13 UNL     1     -14.128 -37.484  15.455  1.00  0.00    -0.382 N
ATOM     32 2H13 UNL     1     -14.556 -38.368  15.180  1.00  0.00     0.157 HD
ATOM     33 1H13 UNL     1     -13.240 -37.184  15.053  1.00  0.00     0.157 HD
ENDBRANCH  26  31
ENDBRANCH  14  19
ENDBRANCH  11  12
BRANCH   1  34
HETATM   34  N2  UNL     1     -15.613 -31.463  12.235  1.00  0.00    -0.373 N
ATOM     35  H2  UNL     1     -14.660 -31.121  12.355  1.00  0.00     0.161 HD
BRANCH  34  36
HETATM   36  C6  UNL     1     -16.669 -31.065  13.140  1.00  0.00     0.141 C
BRANCH  36  37
HETATM   37  C5  UNL     1     -16.143 -30.242  14.294  1.00  0.00     0.141 C
BRANCH  37  38
HETATM   38  N1  UNL     1     -16.450 -28.864  14.018  1.00  0.00    -0.373 N
ATOM     39  H1  UNL     1     -16.193 -28.442  13.125  1.00  0.00     0.161 HD
BRANCH  38  40
HETATM   40  C4  UNL     1     -17.054 -28.172  14.920  1.00  0.00     0.124 A
HETATM   41  C3  UNL     1     -16.991 -28.379  16.293  1.00  0.00     0.084 A
HETATM   42  C2  UNL     1     -17.780 -27.424  16.882  1.00  0.00     0.076 A
HETATM   43  C1  UNL     1     -18.042 -27.220  18.327  1.00  0.00     0.079 C
HETATM   44  O2  UNL     1     -18.277 -26.698  15.922  1.00  0.00    -0.241 OA
HETATM   45  N16 UNL     1     -17.872 -27.111  14.770  1.00  0.00    -0.245 N
ATOM     46  H16 UNL     1     -18.132 -26.696  13.876  1.00  0.00     0.196 HD
ENDBRANCH  38  40
ENDBRANCH  37  38
ENDBRANCH  36  37
ENDBRANCH  34  36
ENDBRANCH   1  34
BRANCH   8  47
HETATM   47  C11 UNL     1     -16.839 -36.052   7.949  1.00  0.00     0.069 C
BRANCH  47  48
HETATM   48  C12 UNL     1     -15.429 -36.553   7.905  1.00  0.00     0.110 C
BRANCH  48  49
HETATM   49  C13 UNL     1     -15.356 -37.876   8.546  1.00  0.00     0.235 C
HETATM   50  O1  UNL     1     -15.050 -38.878   7.862  1.00  0.00    -0.272 OA
HETATM   51  N5  UNL     1     -15.635 -37.991   9.932  1.00  0.00    -0.277 N
ATOM     52  H5  UNL     1     -15.880 -37.152  10.457  1.00  0.00     0.189 HD
BRANCH  51  53
HETATM   53  N6  UNL     1     -15.584 -39.222  10.606  1.00  0.00    -0.343 N
ATOM     54  H62 UNL     1     -14.827 -39.864  10.370  1.00  0.00     0.176 HD
ATOM     55  H61 UNL     1     -16.271 -39.484  11.313  1.00  0.00     0.176 HD
ENDBRANCH  51  53
ENDBRANCH  48  49
ENDBRANCH  47  48
ENDBRANCH   8  47
TORSDOF 13
ENDMDL