MODEL 4
REMARK VINA RESULT: -9.139756498      1.790      2.204
REMARK  10 active torsions:
REMARK  status: ('A' for Active; 'I' for Inactive)
REMARK    1  A    between atoms: O1_2  and  C2_3
REMARK    2  A    between atoms: C4_5  and  N1_6
REMARK    3  A    between atoms: N1_6  and  S1_8
REMARK    4  A    between atoms: S1_8  and  C5_11
REMARK    5  A    between atoms: C8_14  and  N2_15
REMARK       I    between atoms: N2_15  and  C9_17
REMARK    6  A    between atoms: C9_17  and  C10_19
REMARK    7  A    between atoms: N5_23  and  C11_24
REMARK    8  A    between atoms: C12_30  and  N8_31
REMARK    9  A    between atoms: C14_39  and  C15_40
REMARK       I    between atoms: C15_40  and  N11_42
REMARK   10  A    between atoms: N11_42  and  N12_44
ROOT
HETATM    1  C5  UNL     1     -15.398 -30.416  13.519  1.00  0.00     0.151 A
HETATM    2  C6  UNL     1     -16.091 -29.456  14.197  1.00  0.00     0.047 A
HETATM    3  C7  UNL     1     -15.182 -28.488  14.536  1.00  0.00     0.051 A
HETATM    4  C8  UNL     1     -13.949 -28.892  14.050  1.00  0.00     0.108 A
HETATM    5  N10 UNL     1     -14.102 -30.069  13.433  1.00  0.00    -0.332 N
ATOM      6  H10 UNL     1     -13.365 -30.608  12.978  1.00  0.00     0.168 HD
ENDROOT
BRANCH   1   7
HETATM    7  S1  UNL     1     -16.035 -31.913  12.831  1.00  0.00     0.278 S
HETATM    8  O2  UNL     1     -17.526 -31.840  12.898  1.00  0.00    -0.199 OA
HETATM    9  O3  UNL     1     -15.498 -33.026  13.690  1.00  0.00    -0.199 OA
BRANCH   7  10
HETATM   10  N1  UNL     1     -15.521 -32.126  11.219  1.00  0.00    -0.279 N
ATOM     11  H1  UNL     1     -15.029 -31.354  10.771  1.00  0.00     0.179 HD
BRANCH  10  12
HETATM   12  C4  UNL     1     -15.733 -33.307  10.457  1.00  0.00     0.046 A
HETATM   13  C3  UNL     1     -16.517 -33.156   9.326  1.00  0.00     0.069 A
HETATM   14  C2  UNL     1     -16.766 -34.257   8.540  1.00  0.00     0.095 A
HETATM   15  C16 UNL     1     -16.227 -35.467   8.909  1.00  0.00     0.095 A
HETATM   16  C14 UNL     1     -15.430 -35.651  10.046  1.00  0.00     0.062 A
HETATM   17  N13 UNL     1     -16.477 -36.597   8.111  1.00  0.00    -0.098 NA
HETATM   18  C13 UNL     1     -15.199 -34.532  10.810  1.00  0.00     0.049 A
BRANCH  14  19
HETATM   19  O1  UNL     1     -17.550 -34.101   7.410  1.00  0.00    -0.354 OA
HETATM   20  C1  UNL     1     -17.932 -32.800   7.028  1.00  0.00     0.210 C
ENDBRANCH  14  19
BRANCH  16  21
HETATM   21  C15 UNL     1     -14.900 -36.972  10.359  1.00  0.00     0.271 C
HETATM   22  O6  UNL     1     -13.669 -37.224  10.339  1.00  0.00    -0.266 OA
HETATM   23  N11 UNL     1     -15.781 -38.016  10.700  1.00  0.00    -0.272 N
ATOM     24  H11 UNL     1     -16.783 -37.826  10.721  1.00  0.00     0.189 HD
BRANCH  23  25
HETATM   25  N12 UNL     1     -15.333 -39.312  11.013  1.00  0.00    -0.342 N
ATOM     26 2H12 UNL     1     -14.328 -39.486  10.982  1.00  0.00     0.176 HD
ATOM     27 1H12 UNL     1     -15.971 -40.066  11.267  1.00  0.00     0.176 HD
ENDBRANCH  23  25
ENDBRANCH  16  21
ENDBRANCH  10  12
ENDBRANCH   7  10
ENDBRANCH   1   7
BRANCH   4  28
HETATM   28  N2  UNL     1     -12.757 -28.141  14.210  1.00  0.00    -0.306 N
HETATM   29  C9  UNL     1     -11.840 -27.832  13.206  1.00  0.00     0.293 C
HETATM   30  O4  UNL     1     -11.993 -28.205  12.031  1.00  0.00    -0.264 OA
ATOM     31  H2  UNL     1     -12.552 -27.794  15.147  1.00  0.00     0.170 HD
BRANCH  29  32
HETATM   32  C10 UNL     1     -10.652 -27.046  13.523  1.00  0.00     0.204 A
HETATM   33  N3  UNL     1      -9.408 -27.191  12.980  1.00  0.00    -0.262 N
HETATM   34  N4  UNL     1      -8.617 -26.289  13.534  1.00  0.00     0.004 NA
ATOM     35  H3  UNL     1      -9.137 -27.874  12.272  1.00  0.00     0.186 HD
HETATM   36  N5  UNL     1      -9.294 -25.558  14.419  1.00  0.00    -0.156 N
HETATM   37  N9  UNL     1     -10.525 -26.033  14.398  1.00  0.00    -0.258 N
ATOM     38  H9  UNL     1     -11.287 -25.675  14.975  1.00  0.00     0.190 HD
BRANCH  36  39
HETATM   39  C11 UNL     1      -8.768 -24.494  15.208  1.00  0.00     0.210 A
HETATM   40  N6  UNL     1      -8.895 -24.299  16.532  1.00  0.00    -0.219 N
HETATM   41  O5  UNL     1      -8.284 -23.220  16.911  1.00  0.00    -0.153 OA
ATOM     42  H6  UNL     1      -9.407 -24.920  17.159  1.00  0.00     0.198 HD
HETATM   43  N7  UNL     1      -7.746 -22.687  15.857  1.00  0.00    -0.222 N
HETATM   44  C12 UNL     1      -8.011 -23.432  14.764  1.00  0.00     0.170 A
ATOM     45  H7  UNL     1      -7.200 -21.825  15.854  1.00  0.00     0.198 HD
BRANCH  44  46
HETATM   46  N8  UNL     1      -7.632 -23.195  13.552  1.00  0.00    -0.381 N
ATOM     47  H82 UNL     1      -8.027 -22.508  12.909  1.00  0.00     0.157 HD
ATOM     48  H81 UNL     1      -6.880 -23.655  13.039  1.00  0.00     0.157 HD
ENDBRANCH  44  46
ENDBRANCH  36  39
ENDBRANCH  29  32
ENDBRANCH   4  28
TORSDOF 10
ENDMDL