MODEL 3
REMARK VINA RESULT: -6.716017002      8.585     14.422
REMARK  14 active torsions:
REMARK  status: ('A' for Active; 'I' for Inactive)
REMARK    1  A    between atoms: C2_2  and  N1_3
REMARK    2  A    between atoms: N1_3  and  C3_5
REMARK    3  A    between atoms: C4_8  and  N3_9
REMARK    4  A    between atoms: C6_15  and  C7_16
REMARK    5  A    between atoms: C8_19  and  O1_20
REMARK    6  A    between atoms: C9_22  and  C10_23
REMARK    7  A    between atoms: C10_23  and  C11_24
REMARK    8  A    between atoms: C13_27  and  C14_28
REMARK    9  A    between atoms: C14_28  and  N6_30
REMARK   10  A    between atoms: N6_30  and  C16_33
REMARK   11  A    between atoms: C16_33  and  C17_34
REMARK   12  A    between atoms: C17_34  and  N7_35
REMARK   13  A    between atoms: N8_39  and  N9_40
REMARK   14  A    between atoms: N10_44  and  N11_46
ROOT
HETATM    1  C7  UNL     1     -10.681 -25.817  14.378  1.00  0.00     0.097 A
HETATM    2  N5  UNL     1     -11.313 -25.418  15.583  1.00  0.00    -0.331 N
ATOM      3  H5  UNL     1     -11.908 -26.086  16.075  1.00  0.00     0.168 HD
HETATM    4  C8  UNL     1     -11.142 -24.098  16.136  1.00  0.00     0.166 A
HETATM    5  C9  UNL     1     -10.395 -23.169  15.572  1.00  0.00     0.090 A
HETATM    6  N8  UNL     1      -9.738 -23.501  14.369  1.00  0.00    -0.243 N
HETATM    7  C21 UNL     1      -9.851 -24.806  13.739  1.00  0.00     0.169 A
HETATM    8  N10 UNL     1      -9.213 -25.033  12.679  1.00  0.00    -0.289 N
ATOM      9  H10 UNL     1      -9.296 -25.964  12.272  1.00  0.00     0.188 HD
ENDROOT
BRANCH   1  10
HETATM   10  C6  UNL     1     -10.846 -27.040  13.852  1.00  0.00     0.059 A
HETATM   11  C5  UNL     1     -12.043 -27.773  13.885  1.00  0.00     0.174 A
HETATM   12  N4  UNL     1     -13.275 -27.594  14.372  1.00  0.00    -0.173 N
HETATM   13  N13 UNL     1     -11.811 -28.953  13.239  1.00  0.00    -0.068 N
HETATM   14  C4  UNL     1     -14.250 -28.494  14.253  1.00  0.00     0.692 A
ATOM     15  H4  UNL     1     -13.479 -26.723  14.861  1.00  0.00     0.186 HD
HETATM   16  N2  UNL     1     -13.981 -29.630  13.616  1.00  0.00    -0.021 N
HETATM   17  C3  UNL     1     -12.766 -29.905  13.088  1.00  0.00     0.719 A
ATOM     18  H2  UNL     1     -14.722 -30.324  13.521  1.00  0.00     0.203 HD
HETATM   19  N12 UNL     1     -10.583 -28.992  12.821  1.00  0.00    -0.288 N
HETATM   20  C22 UNL     1      -9.951 -27.832  13.178  1.00  0.00     0.126 A
ATOM     21  H12 UNL     1     -10.156 -29.764  12.309  1.00  0.00     0.187 HD
BRANCH  14  22
HETATM   22  N3  UNL     1     -15.446 -28.272  14.750  1.00  0.00    -0.234 N
ATOM     23  H32 UNL     1     -15.694 -27.366  15.146  1.00  0.00     0.174 HD
ATOM     24  H31 UNL     1     -16.153 -29.007  14.749  1.00  0.00     0.174 HD
ENDBRANCH  14  22
BRANCH  17  25
HETATM   25  N1  UNL     1     -12.576 -31.001  12.491  1.00  0.00    -0.203 N
ATOM     26  H1  UNL     1     -11.882 -30.952  11.745  1.00  0.00     0.183 HD
BRANCH  25  27
HETATM   27  C2  UNL     1     -13.142 -32.281  12.662  1.00  0.00     0.074 C
HETATM   28  C1  UNL     1     -13.892 -32.716  11.409  1.00  0.00     0.055 C
ENDBRANCH  25  27
ENDBRANCH  17  25
ENDBRANCH   1  10
BRANCH   4  29
HETATM   29  O1  UNL     1     -11.824 -23.850  17.331  1.00  0.00    -0.345 OA
ATOM     30  H1  UNL     1     -11.971 -24.607  17.885  1.00  0.00     0.219 HD
ENDBRANCH   4  29
BRANCH   6  31
HETATM   31  N9  UNL     1      -8.919 -22.582  13.694  1.00  0.00    -0.337 N
ATOM     32  H92 UNL     1      -9.001 -21.616  14.010  1.00  0.00     0.177 HD
ATOM     33  H91 UNL     1      -8.292 -22.870  12.943  1.00  0.00     0.177 HD
ENDBRANCH   6  31
BRANCH   8  34
HETATM   34  N11 UNL     1      -8.418 -24.134  12.028  1.00  0.00    -0.344 N
ATOM     35 2H11 UNL     1      -8.843 -23.233  11.808  1.00  0.00     0.176 HD
ATOM     36 1H11 UNL     1      -7.450 -24.295  11.753  1.00  0.00     0.176 HD
ENDBRANCH   8  34
BRANCH   5  37
HETATM   37  C10 UNL     1     -10.313 -21.889  16.240  1.00  0.00     0.103 C
BRANCH  37  38
HETATM   38  C11 UNL     1      -9.240 -21.849  17.320  1.00  0.00    -0.045 A
HETATM   39  C12 UNL     1      -7.909 -22.070  17.028  1.00  0.00     0.057 A
HETATM   40  S1  UNL     1      -7.134 -21.875  18.521  1.00  0.00    -0.104 SA
HETATM   41  C13 UNL     1      -8.485 -21.520  19.494  1.00  0.00     0.013 A
HETATM   42  C20 UNL     1      -9.525 -21.564  18.610  1.00  0.00     0.024 A
BRANCH  41  43
HETATM   43  C14 UNL     1      -8.541 -21.229  20.977  1.00  0.00     0.221 C
HETATM   44  C15 UNL     1      -9.971 -20.985  21.344  1.00  0.00     0.046 C
BRANCH  43  45
HETATM   45  N6  UNL     1      -7.909 -22.289  21.724  1.00  0.00    -0.065 N
ATOM     46  H62 UNL     1      -7.048 -22.600  21.273  1.00  0.00     0.278 HD
ATOM     47  H61 UNL     1      -7.513 -21.943  22.598  1.00  0.00     0.278 HD
BRANCH  45  48
HETATM   48  C16 UNL     1      -8.817 -23.398  21.956  1.00  0.00     0.263 C
BRANCH  48  49
HETATM   49  C17 UNL     1      -8.147 -24.648  21.426  1.00  0.00     0.298 C
BRANCH  49  50
HETATM   50  N7  UNL     1      -9.058 -25.448  20.636  1.00  0.00     0.081 N
HETATM   51  C18 UNL     1      -8.643 -26.832  20.753  1.00  0.00     0.309 C
HETATM   52  C19 UNL     1      -9.074 -25.095  19.244  1.00  0.00     0.309 C
ENDBRANCH  49  50
ENDBRANCH  48  49
ENDBRANCH  45  48
ENDBRANCH  43  45
ENDBRANCH  41  43
ENDBRANCH  37  38
ENDBRANCH   5  37
TORSDOF 14
ENDMDL