MODEL 3
REMARK VINA RESULT: -8.585065168      2.983      8.464
REMARK  13 active torsions:
REMARK  status: ('A' for Active; 'I' for Inactive)
REMARK    1  A    between atoms: C5_9  and  N2_10
REMARK    2  A    between atoms: N2_10  and  C6_12
REMARK    3  A    between atoms: C7_15  and  S1_16
REMARK    4  A    between atoms: S1_16  and  N4_19
REMARK    5  A    between atoms: N4_19  and  C8_21
REMARK    6  A    between atoms: C8_21  and  N5_23
REMARK    7  A    between atoms: N5_23  and  C9_24
REMARK    8  A    between atoms: N5_23  and  N8_30
REMARK    9  A    between atoms: C9_24  and  C10_25
REMARK   10  A    between atoms: N8_30  and  C11_31
REMARK   11  A    between atoms: C11_31  and  O5_32
REMARK   12  A    between atoms: C11_31  and  N9_34
REMARK   13  A    between atoms: N9_34  and  N10_36
ROOT
HETATM    1  S1  UNL     1     -16.226 -32.206  10.978  1.00  0.00     0.280 S
HETATM    2  O3  UNL     1     -17.336 -32.319  11.902  1.00  0.00    -0.199 OA
HETATM    3  O4  UNL     1     -16.608 -31.273   9.803  1.00  0.00    -0.199 OA
ENDROOT
BRANCH   1   4
HETATM    4  C7  UNL     1     -16.027 -33.807  10.230  1.00  0.00     0.151 A
HETATM    5  N3  UNL     1     -15.395 -34.817  10.816  1.00  0.00    -0.330 N
HETATM    6  C6  UNL     1     -15.248 -36.022  10.237  1.00  0.00     0.132 A
ATOM      7  H3  UNL     1     -15.003 -34.672  11.747  1.00  0.00     0.168 HD
HETATM    8  C14 UNL     1     -15.753 -36.275   8.986  1.00  0.00     0.090 A
HETATM    9  C13 UNL     1     -16.420 -35.251   8.336  1.00  0.00     0.033 A
HETATM   10  N11 UNL     1     -15.601 -37.559   8.356  1.00  0.00    -0.098 NA
HETATM   11  C12 UNL     1     -16.543 -34.023   8.982  1.00  0.00     0.046 A
BRANCH   6  12
HETATM   12  N2  UNL     1     -14.566 -37.032  10.935  1.00  0.00    -0.328 N
ATOM     13  H2  UNL     1     -14.143 -37.794  10.405  1.00  0.00     0.169 HD
BRANCH  12  14
HETATM   14  C5  UNL     1     -14.441 -37.034  12.367  1.00  0.00     0.122 A
HETATM   15  C2  UNL     1     -15.287 -37.652  13.378  1.00  0.00     0.123 A
HETATM   16  C1  UNL     1     -16.696 -37.099  13.399  1.00  0.00     0.055 C
HETATM   17  C3  UNL     1     -15.398 -39.148  13.248  1.00  0.00     0.055 C
HETATM   18  O1  UNL     1     -14.714 -37.352  14.623  1.00  0.00    -0.285 OA
HETATM   19  C4  UNL     1     -13.580 -36.589  14.372  1.00  0.00     0.367 A
HETATM   20  O2  UNL     1     -12.842 -36.158  15.301  1.00  0.00    -0.238 OA
HETATM   21  N1  UNL     1     -13.474 -36.433  12.966  1.00  0.00    -0.289 N
ATOM     22  H1  UNL     1     -12.732 -35.916  12.495  1.00  0.00     0.172 HD
ENDBRANCH  12  14
ENDBRANCH   6  12
ENDBRANCH   1   4
BRANCH   1  23
HETATM   23  N4  UNL     1     -14.784 -31.652  11.622  1.00  0.00    -0.257 N
ATOM     24  H4  UNL     1     -14.065 -31.538  10.908  1.00  0.00     0.181 HD
BRANCH  23  25
HETATM   25  C8  UNL     1     -14.327 -31.314  12.869  1.00  0.00     0.179 C
HETATM   26  S2  UNL     1     -14.391 -32.703  13.947  1.00  0.00    -0.011 SA
BRANCH  25  27
HETATM   27  N5  UNL     1     -13.826 -30.233  13.548  1.00  0.00    -0.263 N
BRANCH  27  28
HETATM   28  C9  UNL     1     -12.526 -29.651  13.623  1.00  0.00     0.219 C
BRANCH  28  29
HETATM   29  C10 UNL     1     -12.517 -28.175  13.456  1.00  0.00     0.106 C
HETATM   30  N6  UNL     1     -12.241 -27.429  14.454  1.00  0.00    -0.390 N
ATOM     31  H62 UNL     1     -12.025 -27.828  15.367  1.00  0.00     0.157 HD
ATOM     32  H61 UNL     1     -12.235 -26.415  14.340  1.00  0.00     0.157 HD
HETATM   33  N7  UNL     1     -12.815 -27.623  12.197  1.00  0.00    -0.086 NA
ENDBRANCH  28  29
ENDBRANCH  27  28
BRANCH  27  34
HETATM   34  N8  UNL     1     -14.778 -29.506  14.375  1.00  0.00    -0.082 NA
BRANCH  34  35
HETATM   35  C11 UNL     1     -16.022 -29.326  13.696  1.00  0.00     0.357 C
BRANCH  35  36
HETATM   36  O5  UNL     1     -15.934 -28.223  12.859  1.00  0.00    -0.360 OA
ATOM     37  H5  UNL     1     -16.801 -28.000  12.539  1.00  0.00     0.213 HD
ENDBRANCH  35  36
BRANCH  35  38
HETATM   38  N9  UNL     1     -17.099 -29.202  14.669  1.00  0.00    -0.232 N
ATOM     39  H9  UNL     1     -17.276 -29.984  15.300  1.00  0.00     0.190 HD
BRANCH  38  40
HETATM   40  N10 UNL     1     -17.895 -28.070  14.778  1.00  0.00    -0.040 N
HETATM   41  O6  UNL     1     -17.404 -26.930  14.705  1.00  0.00    -0.517 OA
HETATM   42  O7  UNL     1     -19.246 -28.197  14.966  1.00  0.00    -0.517 OA
ENDBRANCH  38  40
ENDBRANCH  35  38
ENDBRANCH  34  35
ENDBRANCH  27  34
ENDBRANCH  25  27
ENDBRANCH  23  25
ENDBRANCH   1  23
TORSDOF 13
ENDMDL