MODEL 5
REMARK VINA RESULT: -8.538798935      3.137      6.083
REMARK  10 active torsions:
REMARK  status: ('A' for Active; 'I' for Inactive)
REMARK    1  A    between atoms: C2_5  and  N2_6
REMARK       I    between atoms: N2_6  and  C3_8
REMARK    2  A    between atoms: C4_11  and  O2_12
REMARK    3  A    between atoms: C5_17  and  O3_18
REMARK    4  A    between atoms: O3_18  and  N5_19
REMARK    5  A    between atoms: C6_21  and  C7_22
REMARK    6  A    between atoms: C9_25  and  N6_26
REMARK    7  A    between atoms: C10_31  and  N8_32
REMARK       I    between atoms: N8_32  and  C11_34
REMARK    8  A    between atoms: C11_34  and  C12_36
REMARK    9  A    between atoms: C14_38  and  N9_39
REMARK   10  A    between atoms: C16_43  and  N10_44
ROOT
HETATM    1  N1  UNL     1     -16.081 -34.083  10.511  1.00  0.00    -0.402 N
ATOM      2  H11 UNL     1     -15.928 -33.087  10.673  1.00  0.00     0.155 HD
ATOM      3  H12 UNL     1     -16.423 -34.402   9.604  1.00  0.00     0.155 HD
HETATM    4  C1  UNL     1     -15.868 -34.987  11.391  1.00  0.00     0.035 C
HETATM    5  C2  UNL     1     -16.086 -36.415  11.159  1.00  0.00     0.189 C
HETATM    6  C4  UNL     1     -16.401 -37.214  12.383  1.00  0.00     0.350 C
HETATM    7  N4  UNL     1     -15.965 -36.627  13.615  1.00  0.00    -0.015 N
ATOM      8  H41 UNL     1     -14.969 -36.790  13.755  1.00  0.00     0.283 HD
ATOM      9  H42 UNL     1     -16.339 -37.145  14.409  1.00  0.00     0.283 HD
HETATM   10  C5  UNL     1     -16.267 -35.236  13.737  1.00  0.00     0.381 C
HETATM   11  C10 UNL     1     -15.369 -34.522  12.715  1.00  0.00     0.191 C
ENDROOT
BRANCH  11  12
HETATM   12  N8  UNL     1     -15.434 -33.115  12.900  1.00  0.00    -0.343 N
HETATM   13  C11 UNL     1     -14.324 -32.398  13.387  1.00  0.00     0.252 C
HETATM   14  O4  UNL     1     -13.262 -33.072  13.652  1.00  0.00    -0.268 OA
ATOM     15  H8  UNL     1     -16.296 -32.617  12.677  1.00  0.00     0.163 HD
BRANCH  13  16
HETATM   16  C12 UNL     1     -14.337 -30.960  13.594  1.00  0.00     0.036 A
HETATM   17  C13 UNL     1     -13.188 -30.235  13.452  1.00  0.00     0.053 A
HETATM   18  C14 UNL     1     -13.211 -28.857  13.653  1.00  0.00     0.106 A
HETATM   19  C15 UNL     1     -14.402 -28.284  13.987  1.00  0.00     0.072 A
HETATM   20  C16 UNL     1     -15.573 -28.981  14.137  1.00  0.00     0.106 A
HETATM   21  C17 UNL     1     -15.523 -30.337  13.935  1.00  0.00     0.053 A
BRANCH  18  22
HETATM   22  N9  UNL     1     -12.040 -28.087  13.512  1.00  0.00    -0.116 N
HETATM   23  O5  UNL     1     -11.270 -27.923  14.463  1.00  0.00    -0.532 OA
HETATM   24  O6  UNL     1     -11.758 -27.514  12.303  1.00  0.00    -0.532 OA
ENDBRANCH  18  22
BRANCH  20  25
HETATM   25  N10 UNL     1     -16.799 -28.336  14.490  1.00  0.00    -0.116 N
HETATM   26  O7  UNL     1     -16.825 -27.102  14.588  1.00  0.00    -0.532 OA
HETATM   27  O8  UNL     1     -17.898 -29.118  14.705  1.00  0.00    -0.532 OA
ENDBRANCH  20  25
ENDBRANCH  13  16
ENDBRANCH  11  12
BRANCH  10  28
HETATM   28  O3  UNL     1     -15.949 -34.730  14.990  1.00  0.00    -0.244 OA
BRANCH  28  29
HETATM   29  N5  UNL     1     -16.808 -34.357  15.958  1.00  0.00    -0.273 N
HETATM   30  C6  UNL     1     -16.859 -34.941  17.081  1.00  0.00     0.144 C
ATOM     31  H5  UNL     1     -17.440 -33.576  15.780  1.00  0.00     0.193 HD
BRANCH  30  32
HETATM   32  C7  UNL     1     -17.833 -34.484  18.117  1.00  0.00     0.058 A
HETATM   33  C8  UNL     1     -19.078 -35.050  18.186  1.00  0.00     0.084 A
HETATM   34  S1  UNL     1     -19.790 -34.215  19.491  1.00  0.00    -0.064 SA
HETATM   35  C9  UNL     1     -18.478 -33.199  19.879  1.00  0.00     0.142 A
HETATM   36  N7  UNL     1     -17.550 -33.543  18.992  1.00  0.00    -0.335 N
ATOM     37  H7  UNL     1     -16.638 -33.086  18.988  1.00  0.00     0.168 HD
BRANCH  35  38
HETATM   38  N6  UNL     1     -18.389 -32.287  20.827  1.00  0.00    -0.380 N
ATOM     39  H62 UNL     1     -17.554 -31.990  21.330  1.00  0.00     0.158 HD
ATOM     40  H61 UNL     1     -19.126 -31.711  21.234  1.00  0.00     0.158 HD
ENDBRANCH  35  38
ENDBRANCH  30  32
ENDBRANCH  28  29
ENDBRANCH  10  28
BRANCH   5  41
HETATM   41  N2  UNL     1     -14.914 -36.954  10.487  1.00  0.00    -0.331 N
HETATM   42  C3  UNL     1     -14.781 -36.961   9.078  1.00  0.00     0.329 C
HETATM   43  N3  UNL     1     -13.636 -37.490   8.448  1.00  0.00    -0.040 NA
HETATM   44  O1  UNL     1     -15.701 -36.486   8.329  1.00  0.00    -0.251 OA
ATOM     45  H2  UNL     1     -14.158 -37.341  11.053  1.00  0.00     0.164 HD
ENDBRANCH   5  41
BRANCH   6  46
HETATM   46  O2  UNL     1     -17.757 -37.516  12.504  1.00  0.00    -0.368 OA
ATOM     47  H2  UNL     1     -18.317 -36.752  12.438  1.00  0.00     0.212 HD
ENDBRANCH   6  46
TORSDOF 10
ENDMDL