MODEL 5
REMARK VINA RESULT: -7.528333464      1.595      2.189
REMARK  18 active torsions:
REMARK  status: ('A' for Active; 'I' for Inactive)
REMARK    1  A    between atoms: C2_2  and  N1_3
REMARK    2  A    between atoms: N1_3  and  C3_5
REMARK    3  A    between atoms: C4_6  and  C5_7
REMARK    4  A    between atoms: C5_7  and  O1_8
REMARK    5  A    between atoms: C5_7  and  N2_10
REMARK    6  A    between atoms: N2_10  and  N3_12
REMARK       I    between atoms: N3_12  and  C6_13
REMARK    7  A    between atoms: C6_13  and  C7_15
REMARK    8  A    between atoms: C7_15  and  O3_16
REMARK    9  A    between atoms: C8_18  and  C9_19
REMARK   10  A    between atoms: C9_19  and  O5_21
REMARK   11  A    between atoms: C11_23  and  C12_24
REMARK   12  A    between atoms: C12_24  and  O6_25
REMARK   13  A    between atoms: C12_24  and  O7_27
REMARK   14  A    between atoms: O7_27  and  C13_28
REMARK   15  A    between atoms: C14_29  and  O8_30
REMARK   16  A    between atoms: C15_32  and  O9_33
REMARK   17  A    between atoms: C16_35  and  C17_36
REMARK   18  A    between atoms: N4_39  and  O12_40
ROOT
HETATM    1  C3  UNL     1     -16.542 -34.181   9.492  1.00  0.00     0.098 A
HETATM    2  C4  UNL     1     -15.618 -34.869  10.166  1.00  0.00     0.065 A
HETATM    3  C8  UNL     1     -14.787 -34.247  11.234  1.00  0.00     0.075 A
HETATM    4  C11 UNL     1     -14.912 -32.936  11.533  1.00  0.00     0.094 A
HETATM    5  C18 UNL     1     -15.956 -32.147  10.756  1.00  0.00     0.240 A
HETATM    6  O13 UNL     1     -16.127 -30.906  10.995  1.00  0.00    -0.283 OA
HETATM    7  C19 UNL     1     -16.744 -32.773   9.771  1.00  0.00     0.249 A
HETATM    8  O14 UNL     1     -17.632 -32.117   9.116  1.00  0.00    -0.282 OA
ENDROOT
BRANCH   4   9
HETATM    9  C12 UNL     1     -14.209 -32.165  12.494  1.00  0.00     0.201 C
BRANCH   9  10
HETATM   10  O6  UNL     1     -13.153 -31.511  12.002  1.00  0.00    -0.340 OA
ATOM     11  H6  UNL     1     -13.348 -30.633  11.695  1.00  0.00     0.220 HD
ENDBRANCH   9  10
BRANCH   9  12
HETATM   12  O7  UNL     1     -14.295 -31.883  13.845  1.00  0.00    -0.265 OA
BRANCH  12  13
HETATM   13  C13 UNL     1     -14.693 -30.547  14.143  1.00  0.00     0.213 A
HETATM   14  C14 UNL     1     -13.942 -29.460  14.435  1.00  0.00     0.156 A
HETATM   15  C15 UNL     1     -14.832 -28.397  14.669  1.00  0.00     0.140 A
HETATM   16  C16 UNL     1     -16.128 -28.885  14.504  1.00  0.00     0.177 A
HETATM   17  N4  UNL     1     -15.975 -30.191  14.181  1.00  0.00    -0.189 N
BRANCH  14  18
HETATM   18  O8  UNL     1     -12.576 -29.380  14.501  1.00  0.00    -0.354 OA
ATOM     19  H8  UNL     1     -11.947 -29.620  13.829  1.00  0.00     0.218 HD
ENDBRANCH  14  18
BRANCH  15  20
HETATM   20  O9  UNL     1     -14.398 -27.128  15.001  1.00  0.00    -0.356 OA
ATOM     21  H9  UNL     1     -14.048 -26.524  14.356  1.00  0.00     0.218 HD
ENDBRANCH  15  20
BRANCH  16  22
HETATM   22  C17 UNL     1     -17.378 -28.184  14.704  1.00  0.00     0.232 C
HETATM   23  O10 UNL     1     -18.419 -28.750  15.016  1.00  0.00    -0.643 OA
HETATM   24  O11 UNL     1     -17.427 -26.778  14.535  1.00  0.00    -0.643 OA
ENDBRANCH  16  22
BRANCH  17  25
HETATM   25  O12 UNL     1     -17.077 -30.982  13.902  1.00  0.00    -0.280 OA
ATOM     26  H12 UNL     1     -17.085 -31.836  13.485  1.00  0.00     0.245 HD
ENDBRANCH  17  25
ENDBRANCH  12  13
ENDBRANCH   9  12
ENDBRANCH   4   9
BRANCH   3  27
HETATM   27  C9  UNL     1     -14.225 -35.042  12.353  1.00  0.00     0.295 C
HETATM   28  O4  UNL     1     -13.275 -35.762  12.206  1.00  0.00    -0.259 OA
BRANCH  27  29
HETATM   29  O5  UNL     1     -14.729 -34.991  13.687  1.00  0.00    -0.322 OA
HETATM   30  C10 UNL     1     -13.854 -35.396  14.751  1.00  0.00     0.213 C
ENDBRANCH  27  29
ENDBRANCH   3  27
BRANCH   2  31
HETATM   31  C5  UNL     1     -15.346 -36.236   9.818  1.00  0.00     0.179 C
BRANCH  31  32
HETATM   32  O1  UNL     1     -14.767 -36.413   8.616  1.00  0.00    -0.344 OA
ATOM     33  H1  UNL     1     -14.023 -37.004   8.612  1.00  0.00     0.219 HD
ENDBRANCH  31  32
BRANCH  31  34
HETATM   34  N2  UNL     1     -15.538 -37.446  10.446  1.00  0.00    -0.209 N
ATOM     35  H2  UNL     1     -15.097 -38.270  10.039  1.00  0.00     0.204 HD
BRANCH  34  36
HETATM   36  N3  UNL     1     -16.281 -37.613  11.580  1.00  0.00    -0.282 NA
HETATM   37  C6  UNL     1     -17.015 -37.770  12.681  1.00  0.00     0.335 C
HETATM   38  O2  UNL     1     -18.214 -37.427  12.898  1.00  0.00    -0.253 OA
BRANCH  37  39
HETATM   39  C7  UNL     1     -16.331 -38.443  13.871  1.00  0.00     0.285 C
BRANCH  39  40
HETATM   40  O3  UNL     1     -16.232 -37.577  14.932  1.00  0.00    -0.390 OA
ATOM     41  H3  UNL     1     -15.851 -38.009  15.687  1.00  0.00     0.210 HD
ENDBRANCH  39  40
ENDBRANCH  37  39
ENDBRANCH  34  36
ENDBRANCH  31  34
ENDBRANCH   2  31
BRANCH   1  42
HETATM   42  N1  UNL     1     -17.343 -34.686   8.425  1.00  0.00    -0.386 N
ATOM     43  H1  UNL     1     -18.146 -35.284   8.619  1.00  0.00     0.159 HD
BRANCH  42  44
HETATM   44  C2  UNL     1     -16.995 -34.331   7.044  1.00  0.00     0.115 C
HETATM   45  C1  UNL     1     -18.115 -33.519   6.480  1.00  0.00     0.026 C
ENDBRANCH  42  44
ENDBRANCH   1  42
TORSDOF 18
ENDMDL