MODEL 3
REMARK VINA RESULT: -7.352854217      0.807      1.614
REMARK  13 active torsions:
REMARK  status: ('A' for Active; 'I' for Inactive)
REMARK    1  A    between atoms: O1_2  and  C2_3
REMARK    2  A    between atoms: C2_3  and  C3_5
REMARK    3  A    between atoms: C3_5  and  N1_6
REMARK    4  A    between atoms: C5_13  and  N4_14
REMARK    5  A    between atoms: C6_18  and  C7_19
REMARK       I    between atoms: C7_19  and  N6_21
REMARK    6  A    between atoms: N6_21  and  C8_23
REMARK    7  A    between atoms: C8_23  and  C9_24
REMARK    8  A    between atoms: C9_24  and  N7_25
REMARK    9  A    between atoms: C14_33  and  C15_34
REMARK   10  A    between atoms: C15_34  and  O4_35
REMARK   11  A    between atoms: C16_37  and  C17_38
REMARK   12  A    between atoms: C20_42  and  O6_43
REMARK   13  A    between atoms: C21_45  and  O7_46
ROOT
HETATM    1  N1  UNL     1     -15.636 -34.577  11.159  1.00  0.00    -0.157 N
HETATM    2  C4  UNL     1     -15.727 -35.594  10.250  1.00  0.00     0.694 A
HETATM    3  N2  UNL     1     -15.571 -35.416   8.982  1.00  0.00    -0.234 N
ATOM      4  H21 UNL     1     -15.639 -36.174   8.304  1.00  0.00     0.174 HD
ATOM      5  H22 UNL     1     -15.338 -34.490   8.623  1.00  0.00     0.174 HD
HETATM    6  N3  UNL     1     -16.033 -36.810  10.721  1.00  0.00    -0.022 N
ATOM      7  H3  UNL     1     -16.109 -37.596  10.075  1.00  0.00     0.203 HD
HETATM    8  C5  UNL     1     -16.240 -37.008  12.028  1.00  0.00     0.699 A
HETATM    9  N5  UNL     1     -16.148 -36.006  12.919  1.00  0.00    -0.124 N
HETATM   10  C6  UNL     1     -16.321 -35.990  14.233  1.00  0.00     0.135 A
HETATM   11  C14 UNL     1     -16.141 -34.732  14.712  1.00  0.00     0.015 A
HETATM   12  C16 UNL     1     -15.835 -33.945  13.607  1.00  0.00     0.055 A
HETATM   13  C22 UNL     1     -15.832 -34.728  12.462  1.00  0.00     0.161 A
ENDROOT
BRANCH  10  14
HETATM   14  C7  UNL     1     -16.564 -37.126  15.144  1.00  0.00     0.270 C
HETATM   15  O3  UNL     1     -15.526 -37.834  15.361  1.00  0.00    -0.266 OA
HETATM   16  N6  UNL     1     -17.782 -37.436  15.725  1.00  0.00    -0.354 N
ATOM     17  H6  UNL     1     -18.526 -36.791  15.458  1.00  0.00     0.162 HD
BRANCH  16  18
HETATM   18  C8  UNL     1     -18.222 -38.449  16.605  1.00  0.00     0.153 C
BRANCH  18  19
HETATM   19  C9  UNL     1     -19.567 -39.036  16.393  1.00  0.00     0.292 C
BRANCH  19  20
HETATM   20  N7  UNL     1     -19.683 -40.214  15.598  1.00  0.00     0.093 N
HETATM   21  C10 UNL     1     -20.696 -40.014  14.565  1.00  0.00     0.300 C
HETATM   22  C11 UNL     1     -20.067 -39.364  13.344  1.00  0.00     0.262 C
HETATM   23  N8  UNL     1     -19.171 -40.271  12.690  1.00  0.00    -0.072 N
HETATM   24  C12 UNL     1     -18.744 -41.278  13.629  1.00  0.00     0.262 C
ATOM     25  H82 UNL     1     -19.579 -40.676  11.847  1.00  0.00     0.277 HD
ATOM     26  H81 UNL     1     -18.385 -39.790  12.254  1.00  0.00     0.277 HD
HETATM   27  C13 UNL     1     -18.464 -40.648  14.999  1.00  0.00     0.300 C
ENDBRANCH  19  20
ENDBRANCH  18  19
ENDBRANCH  16  18
ENDBRANCH  10  14
BRANCH  11  28
HETATM   28  C15 UNL     1     -16.240 -34.288  16.087  1.00  0.00     0.206 C
BRANCH  28  29
HETATM   29  O4  UNL     1     -17.538 -34.264  16.577  1.00  0.00    -0.396 OA
ATOM     30  H4  UNL     1     -17.852 -35.110  16.874  1.00  0.00     0.209 HD
ENDBRANCH  28  29
ENDBRANCH  11  28
BRANCH   8  31
HETATM   31  N4  UNL     1     -16.583 -38.227  12.364  1.00  0.00    -0.233 N
ATOM     32  H42 UNL     1     -16.302 -38.656  13.245  1.00  0.00     0.174 HD
ATOM     33  H41 UNL     1     -17.185 -38.711  11.699  1.00  0.00     0.174 HD
ENDBRANCH   8  31
BRANCH  12  34
HETATM   34  C17 UNL     1     -15.566 -32.531  13.712  1.00  0.00     0.097 A
HETATM   35  C18 UNL     1     -14.290 -32.063  13.520  1.00  0.00     0.096 A
HETATM   36  C19 UNL     1     -13.991 -30.719  13.605  1.00  0.00     0.212 A
HETATM   37  O5  UNL     1     -12.818 -30.285  13.430  1.00  0.00    -0.285 OA
HETATM   38  C20 UNL     1     -15.023 -29.841  13.892  1.00  0.00     0.175 A
HETATM   39  C21 UNL     1     -16.289 -30.359  14.075  1.00  0.00     0.222 A
HETATM   40  O8  UNL     1     -16.510 -31.662  13.981  1.00  0.00    -0.285 OA
BRANCH  38  41
HETATM   41  O6  UNL     1     -14.810 -28.466  13.996  1.00  0.00    -0.353 OA
ATOM     42  H6  UNL     1     -15.467 -27.885  14.360  1.00  0.00     0.218 HD
ENDBRANCH  38  41
BRANCH  39  43
HETATM   43  O7  UNL     1     -17.313 -29.471  14.362  1.00  0.00    -0.339 OA
ATOM     44  H7  UNL     1     -18.123 -29.827  14.709  1.00  0.00     0.220 HD
ENDBRANCH  39  43
ENDBRANCH  12  34
BRANCH   1  45
HETATM   45  C3  UNL     1     -15.241 -33.312  10.602  1.00  0.00     0.260 C
BRANCH  45  46
HETATM   46  C2  UNL     1     -16.379 -32.478  10.142  1.00  0.00     0.277 C
HETATM   47  O2  UNL     1     -16.557 -31.343  10.648  1.00  0.00    -0.263 OA
BRANCH  46  48
HETATM   48  O1  UNL     1     -17.269 -32.894   9.167  1.00  0.00    -0.325 OA
HETATM   49  C1  UNL     1     -17.178 -32.582   7.801  1.00  0.00     0.213 C
ENDBRANCH  46  48
ENDBRANCH  45  46
ENDBRANCH   1  45
TORSDOF 13
ENDMDL