MODEL 4
REMARK VINA RESULT: -8.650850451      3.149      6.282
REMARK  12 active torsions:
REMARK  status: ('A' for Active; 'I' for Inactive)
REMARK    1  A    between atoms: O1_2  and  N1_3
REMARK    2  A    between atoms: N1_3  and  C2_5
REMARK    3  A    between atoms: C2_5  and  C16_41
REMARK    4  A    between atoms: C3_6  and  O2_7
REMARK    5  A    between atoms: C3_6  and  N2_9
REMARK       I    between atoms: N2_9  and  C4_11
REMARK    6  A    between atoms: C4_11  and  C5_13
REMARK    7  A    between atoms: C7_15  and  C8_16
REMARK    8  A    between atoms: C8_16  and  O4_17
REMARK    9  A    between atoms: C8_16  and  C9_19
REMARK   10  A    between atoms: C10_22  and  C11_23
REMARK   11  A    between atoms: C12_32  and  N9_33
REMARK   12  A    between atoms: C18_44  and  N12_45
ROOT
HETATM    1  C5  UNL     1     -14.481 -35.158  13.662  1.00  0.00     0.103 A
HETATM    2  C6  UNL     1     -14.401 -34.524  12.415  1.00  0.00     0.047 A
HETATM    3  C7  UNL     1     -15.475 -33.682  12.270  1.00  0.00    -0.006 A
HETATM    4  C14 UNL     1     -16.207 -33.802  13.427  1.00  0.00     0.101 A
HETATM    5  N11 UNL     1     -15.597 -34.694  14.255  1.00  0.00    -0.356 N
HETATM    6  C15 UNL     1     -16.101 -35.055  15.581  1.00  0.00     0.156 C
ENDROOT
BRANCH   3   7
HETATM    7  C8  UNL     1     -15.766 -32.827  11.105  1.00  0.00     0.204 C
BRANCH   7   8
HETATM    8  O4  UNL     1     -14.656 -32.008  10.788  1.00  0.00    -0.385 OA
ATOM      9  H4  UNL     1     -14.939 -31.156  10.479  1.00  0.00     0.211 HD
ENDBRANCH   7   8
BRANCH   7  10
HETATM   10  C9  UNL     1     -16.100 -33.630   9.893  1.00  0.00     0.072 A
HETATM   11  N3  UNL     1     -15.661 -34.887   9.710  1.00  0.00    -0.339 N
HETATM   12  C10 UNL     1     -15.947 -35.623   8.633  1.00  0.00     0.154 A
ATOM     13  H3  UNL     1     -15.076 -35.302  10.435  1.00  0.00     0.167 HD
HETATM   14  N8  UNL     1     -16.721 -35.049   7.693  1.00  0.00    -0.324 N
HETATM   15  C12 UNL     1     -17.206 -33.799   7.789  1.00  0.00     0.127 A
ATOM     16  H8  UNL     1     -16.952 -35.593   6.861  1.00  0.00     0.169 HD
HETATM   17  C13 UNL     1     -16.892 -33.057   8.920  1.00  0.00     0.115 A
HETATM   18  N10 UNL     1     -17.391 -31.726   9.051  1.00  0.00    -0.096 NA
BRANCH  12  19
HETATM   19  C11 UNL     1     -15.456 -36.988   8.460  1.00  0.00     0.176 A
HETATM   20  N4  UNL     1     -14.226 -37.446   8.742  1.00  0.00    -0.267 N
HETATM   21  N5  UNL     1     -14.164 -38.748   8.447  1.00  0.00    -0.007 NA
ATOM     22  H4  UNL     1     -13.460 -36.888   9.121  1.00  0.00     0.185 HD
HETATM   23  N6  UNL     1     -15.356 -39.122   7.978  1.00  0.00    -0.007 NA
HETATM   24  N7  UNL     1     -16.142 -38.040   7.988  1.00  0.00    -0.267 N
ATOM     25  H7  UNL     1     -17.115 -38.018   7.684  1.00  0.00     0.185 HD
ENDBRANCH  12  19
BRANCH  15  26
HETATM   26  N9  UNL     1     -17.944 -33.288   6.863  1.00  0.00    -0.384 N
ATOM     27  H92 UNL     1     -18.810 -33.750   6.584  1.00  0.00     0.157 HD
ATOM     28  H91 UNL     1     -17.686 -32.421   6.393  1.00  0.00     0.157 HD
ENDBRANCH  15  26
ENDBRANCH   7  10
ENDBRANCH   3   7
BRANCH   1  29
HETATM   29  C4  UNL     1     -13.517 -36.102  14.187  1.00  0.00     0.274 C
HETATM   30  N2  UNL     1     -13.352 -37.456  13.701  1.00  0.00    -0.300 N
ATOM     31  H2  UNL     1     -12.662 -38.056  14.153  1.00  0.00     0.171 HD
HETATM   32  O3  UNL     1     -12.748 -35.758  15.135  1.00  0.00    -0.266 OA
BRANCH  30  33
HETATM   33  C3  UNL     1     -14.092 -37.973  12.647  1.00  0.00     0.174 C
HETATM   34  C2  UNL     1     -15.456 -38.417  12.564  1.00  0.00     0.132 C
BRANCH  34  35
HETATM   35  N1  UNL     1     -15.792 -38.930  11.408  1.00  0.00    -0.261 N
ATOM     36  H1  UNL     1     -16.268 -38.327  10.737  1.00  0.00     0.194 HD
BRANCH  35  37
HETATM   37  O1  UNL     1     -15.550 -40.188  11.053  1.00  0.00    -0.285 OA
HETATM   38  C1  UNL     1     -16.531 -41.180  11.339  1.00  0.00     0.237 C
ENDBRANCH  35  37
ENDBRANCH  34  35
BRANCH  34  39
HETATM   39  C16 UNL     1     -16.423 -38.398  13.696  1.00  0.00     0.074 A
HETATM   40  C17 UNL     1     -16.214 -39.143  14.827  1.00  0.00     0.085 A
HETATM   41  S1  UNL     1     -17.644 -38.872  15.723  1.00  0.00    -0.064 SA
HETATM   42  C18 UNL     1     -18.426 -37.837  14.630  1.00  0.00     0.142 A
HETATM   43  N13 UNL     1     -17.560 -37.742  13.623  1.00  0.00    -0.335 N
ATOM     44  H13 UNL     1     -17.776 -37.170  12.807  1.00  0.00     0.168 HD
BRANCH  42  45
HETATM   45  N12 UNL     1     -19.608 -37.258  14.739  1.00  0.00    -0.380 N
ATOM     46 2H12 UNL     1     -19.874 -36.490  15.356  1.00  0.00     0.158 HD
ATOM     47 1H12 UNL     1     -20.470 -37.463  14.234  1.00  0.00     0.158 HD
ENDBRANCH  42  45
ENDBRANCH  34  39
BRANCH  33  48
HETATM   48  O2  UNL     1     -13.439 -38.086  11.523  1.00  0.00    -0.344 OA
ATOM     49  H2  UNL     1     -13.416 -37.283  11.016  1.00  0.00     0.219 HD
ENDBRANCH  33  48
ENDBRANCH  30  33
ENDBRANCH   1  29
TORSDOF 12
ENDMDL