MODEL 2
REMARK VINA RESULT: -7.689397997      3.269      6.068
REMARK  16 active torsions:
REMARK  status: ('A' for Active; 'I' for Inactive)
REMARK    1  A    between atoms: C2_2  and  O1_3
REMARK    2  A    between atoms: C3_5  and  C4_6
REMARK    3  A    between atoms: C4_6  and  O3_8
REMARK    4  A    between atoms: O3_8  and  C5_9
REMARK    5  A    between atoms: C6_11  and  O5_13
REMARK    6  A    between atoms: C9_16  and  O6_17
REMARK    7  A    between atoms: C9_16  and  C10_19
REMARK    8  A    between atoms: C11_20  and  C12_21
REMARK    9  A    between atoms: C12_21  and  O8_23
REMARK   10  A    between atoms: O8_23  and  C13_24
REMARK   11  A    between atoms: C16_30  and  O9_31
REMARK   12  A    between atoms: C18_34  and  O10_35
REMARK   13  A    between atoms: C18_34  and  C19_37
REMARK   14  A    between atoms: C20_40  and  C21_41
REMARK   15  A    between atoms: C21_41  and  C22_42
REMARK   16  A    between atoms: C22_42  and  O13_43
ROOT
HETATM    1  C12 UNL     1     -14.549 -35.477  14.730  1.00  0.00     0.284 C
HETATM    2  O7  UNL     1     -13.615 -36.146  14.274  1.00  0.00    -0.260 OA
ENDROOT
BRANCH   1   3
HETATM    3  C11 UNL     1     -14.705 -34.090  14.300  1.00  0.00     0.081 C
HETATM    4  C10 UNL     1     -15.830 -33.668  13.749  1.00  0.00     0.022 C
BRANCH   4   5
HETATM    5  C9  UNL     1     -15.979 -32.268  13.320  1.00  0.00     0.131 C
HETATM    6  C5  UNL     1     -15.198 -32.060  12.043  1.00  0.00     0.311 C
HETATM    7  O4  UNL     1     -14.241 -31.087  12.294  1.00  0.00    -0.322 OA
HETATM    8  C6  UNL     1     -14.728 -30.284  13.318  1.00  0.00     0.164 C
HETATM    9  C7  UNL     1     -13.596 -29.624  14.039  1.00  0.00     0.079 C
HETATM   10  C8  UNL     1     -15.357 -31.296  14.270  1.00  0.00     0.115 C
BRANCH   6  11
HETATM   11  O3  UNL     1     -16.055 -31.698  10.987  1.00  0.00    -0.283 OA
BRANCH  11  12
HETATM   12  C4  UNL     1     -16.325 -32.606   9.941  1.00  0.00     0.287 C
HETATM   13  O2  UNL     1     -15.789 -33.730  10.080  1.00  0.00    -0.260 OA
BRANCH  12  14
HETATM   14  C3  UNL     1     -17.163 -32.212   8.823  1.00  0.00     0.113 C
HETATM   15  C2  UNL     1     -17.394 -33.019   7.832  1.00  0.00     0.045 C
HETATM   16  C1  UNL     1     -16.838 -34.371   7.762  1.00  0.00     0.076 C
BRANCH  15  17
HETATM   17  O1  UNL     1     -18.217 -32.568   6.781  1.00  0.00    -0.365 OA
ATOM     18  H1  UNL     1     -17.965 -31.784   6.308  1.00  0.00     0.217 HD
ENDBRANCH  15  17
ENDBRANCH  12  14
ENDBRANCH  11  12
ENDBRANCH   6  11
BRANCH   8  19
HETATM   19  O5  UNL     1     -15.712 -29.407  12.903  1.00  0.00    -0.365 OA
ATOM     20  H5  UNL     1     -15.366 -28.613  12.511  1.00  0.00     0.213 HD
ENDBRANCH   8  19
BRANCH   5  21
HETATM   21  O6  UNL     1     -17.312 -31.932  13.078  1.00  0.00    -0.381 OA
ATOM     22  H6  UNL     1     -17.479 -31.080  13.463  1.00  0.00     0.211 HD
ENDBRANCH   5  21
ENDBRANCH   4   5
ENDBRANCH   1   3
BRANCH   1  23
HETATM   23  O8  UNL     1     -15.422 -36.042  15.631  1.00  0.00    -0.283 OA
BRANCH  23  24
HETATM   24  C13 UNL     1     -16.417 -36.971  15.233  1.00  0.00     0.340 C
HETATM   25  N1  UNL     1     -16.504 -37.962  16.295  1.00  0.00    -0.043 N
HETATM   26  C14 UNL     1     -17.532 -37.636  17.230  1.00  0.00     0.199 C
ATOM     27  H12 UNL     1     -16.626 -38.903  15.919  1.00  0.00     0.280 HD
ATOM     28  H11 UNL     1     -15.605 -38.094  16.759  1.00  0.00     0.280 HD
HETATM   29  C15 UNL     1     -17.409 -36.179  17.613  1.00  0.00     0.066 C
HETATM   30  C20 UNL     1     -18.931 -37.814  16.614  1.00  0.00     0.064 C
HETATM   31  C16 UNL     1     -17.820 -35.354  16.408  1.00  0.00     0.132 C
HETATM   32  C17 UNL     1     -17.734 -36.258  15.201  1.00  0.00     0.117 C
HETATM   33  C18 UNL     1     -18.916 -37.250  15.253  1.00  0.00     0.161 C
BRANCH  31  34
HETATM   34  O9  UNL     1     -19.093 -34.876  16.643  1.00  0.00    -0.395 OA
ATOM     35  H9  UNL     1     -19.146 -34.003  16.270  1.00  0.00     0.210 HD
ENDBRANCH  31  34
BRANCH  33  36
HETATM   36  O10 UNL     1     -20.038 -36.407  15.049  1.00  0.00    -0.378 OA
ATOM     37  H10 UNL     1     -19.681 -35.716  14.503  1.00  0.00     0.211 HD
ENDBRANCH  33  36
BRANCH  33  38
HETATM   38  C19 UNL     1     -18.860 -38.166  14.123  1.00  0.00     0.210 C
HETATM   39  O11 UNL     1     -18.253 -39.280  14.112  1.00  0.00    -0.646 OA
HETATM   40  O12 UNL     1     -19.497 -37.887  12.892  1.00  0.00    -0.646 OA
ENDBRANCH  33  38
BRANCH  30  41
HETATM   41  C21 UNL     1     -19.286 -39.239  16.792  1.00  0.00     0.036 C
BRANCH  41  42
HETATM   42  C22 UNL     1     -20.629 -39.538  17.363  1.00  0.00     0.164 C
BRANCH  42  43
HETATM   43  O13 UNL     1     -21.040 -38.587  18.300  1.00  0.00    -0.401 OA
ATOM     44  H13 UNL     1     -21.595 -38.955  18.977  1.00  0.00     0.209 HD
ENDBRANCH  42  43
ENDBRANCH  41  42
ENDBRANCH  30  41
ENDBRANCH  23  24
ENDBRANCH   1  23
TORSDOF 16
ENDMDL