MODEL 2
REMARK VINA RESULT: -5.738573546      0.417      1.239
REMARK  1 active torsions:
REMARK  status: ('A' for Active; 'I' for Inactive)
REMARK    1  A    between atoms: N1_3  and  C3_4
ROOT
HETATM    1  C3  UNL     1     -28.899   2.994  47.204  1.00  0.00     0.029 C
HETATM    2  C4  UNL     1     -27.396   3.034  47.469  1.00  0.00     0.035 C
HETATM    3  C5  UNL     1     -26.612   3.028  46.187  1.00  0.00    -0.012 C
HETATM    4  C6  UNL     1     -26.932   4.315  45.464  1.00  0.00     0.009 C
HETATM    5  C7  UNL     1     -28.406   4.357  45.201  1.00  0.00    -0.012 C
HETATM    6  C8  UNL     1     -28.746   3.195  44.284  1.00  0.00     0.009 C
HETATM    7  C9  UNL     1     -28.424   1.911  45.000  1.00  0.00    -0.012 C
HETATM    8  C10 UNL     1     -26.948   1.869  45.288  1.00  0.00     0.009 C
HETATM    9  C11 UNL     1     -29.150   1.799  46.335  1.00  0.00     0.035 C
HETATM   10  C12 UNL     1     -29.252   4.224  46.433  1.00  0.00     0.035 C
ENDROOT
BRANCH   1  11
HETATM   11  N1  UNL     1     -29.524   2.850  48.462  1.00  0.00    -0.400 N
HETATM   12  C2  UNL     1     -30.349   1.709  48.664  1.00  0.00     0.144 C
HETATM   13  C1  UNL     1     -30.636   1.639  50.161  1.00  0.00     0.187 C
HETATM   14  O1  UNL     1     -31.339   2.741  50.609  1.00  0.00    -0.388 OA
HETATM   15  C14 UNL     1     -31.407   3.770  49.670  1.00  0.00     0.187 C
HETATM   16  C13 UNL     1     -30.021   4.018  49.088  1.00  0.00     0.144 C
ENDBRANCH   1  11
TORSDOF 1
ENDMDL