MODEL 4
REMARK VINA RESULT: -4.599117896      1.530      2.593
REMARK  1 active torsions:
REMARK  status: ('A' for Active; 'I' for Inactive)
REMARK       I    between atoms: N2_6  and  C5_7
REMARK    1  A    between atoms: C5_7  and  C6_9
ROOT
HETATM    1  N1  UNL     1     -29.592   5.525  45.210  1.00  0.00    -0.197 NA
HETATM    2  C1  UNL     1     -28.696   4.814  45.002  1.00  0.00     0.064 C
HETATM    3  C2  UNL     1     -27.564   3.924  44.715  1.00  0.00     0.096 C
HETATM    4  C3  UNL     1     -26.857   3.685  46.032  1.00  0.00     0.039 C
HETATM    5  C4  UNL     1     -27.874   3.265  47.108  1.00  0.00     0.127 C
HETATM    6  N2  UNL     1     -28.780   2.334  46.472  1.00  0.00    -0.352 N
HETATM    7  C5  UNL     1     -30.107   2.082  46.895  1.00  0.00     0.224 C
HETATM    8  O1  UNL     1     -30.823   1.248  46.270  1.00  0.00    -0.273 OA
HETATM    9  C12 UNL     1     -28.243   1.635  45.325  1.00  0.00     0.127 C
HETATM   10  C13 UNL     1     -28.026   2.607  44.188  1.00  0.00     0.039 C
ENDROOT
BRANCH   7  11
HETATM   11  C6  UNL     1     -30.754   2.737  48.055  1.00  0.00     0.078 C
HETATM   12  C7  UNL     1     -29.895   3.731  48.753  1.00  0.00     0.014 C
HETATM   13  C8  UNL     1     -30.645   4.122  50.037  1.00  0.00     0.001 C
HETATM   14  C9  UNL     1     -30.393   2.957  50.997  1.00  0.00     0.000 C
HETATM   15  C10 UNL     1     -30.624   1.635  50.311  1.00  0.00     0.001 C
HETATM   16  C11 UNL     1     -31.365   1.770  49.010  1.00  0.00     0.014 C
ENDBRANCH   7  11
TORSDOF 1
ENDMDL