MODEL 4
REMARK VINA RESULT: -4.542902712      9.773     11.252
REMARK  0 active torsions:
REMARK  status: ('A' for Active; 'I' for Inactive)
ROOT
HETATM    1  C1  UNL     1     -31.120   4.341  51.215  1.00  0.00     0.001 C
HETATM    2  C2  UNL     1     -31.162   2.891  51.662  1.00  0.00     0.002 C
HETATM    3  C3  UNL     1     -31.407   2.028  50.451  1.00  0.00     0.036 C
HETATM    4  C4  UNL     1     -30.127   1.929  49.652  1.00  0.00     0.229 C
HETATM    5  C5  UNL     1     -29.371   3.261  49.771  1.00  0.00     0.052 C
HETATM    6  C6  UNL     1     -30.351   4.405  49.914  1.00  0.00     0.009 C
HETATM    7  C7  UNL     1     -29.019   2.973  48.358  1.00  0.00     0.232 C
HETATM    8  C8  UNL     1     -29.123   4.051  47.344  1.00  0.00     0.068 C
HETATM    9  C9  UNL     1     -28.790   3.517  45.995  1.00  0.00     0.127 C
HETATM   10  O1  UNL     1     -28.538   4.617  45.169  1.00  0.00    -0.385 OA
HETATM   11  C10 UNL     1     -29.620   4.827  44.369  1.00  0.00     0.168 C
HETATM   12  C11 UNL     1     -30.737   3.899  44.804  1.00  0.00     0.033 C
HETATM   13  C12 UNL     1     -29.842   2.755  45.311  1.00  0.00     0.018 C
HETATM   14  C13 UNL     1     -30.581   1.722  45.985  1.00  0.00     0.037 C
HETATM   15  C14 UNL     1     -30.068   1.217  47.298  1.00  0.00     0.274 C
HETATM   16  N1  UNL     1     -30.290   2.226  48.278  1.00  0.00     0.098 N
ENDROOT
TORSDOF 0
ENDMDL