MODEL 4
REMARK VINA RESULT: -5.640651875      0.946      2.075
REMARK  1 active torsions:
REMARK  status: ('A' for Active; 'I' for Inactive)
REMARK    1  A    between atoms: C3_4  and  C4_5
ROOT
HETATM    1  C4  UNL     1     -28.675   2.942  47.408  1.00  0.00    -0.012 C
HETATM    2  C5  UNL     1     -27.150   2.921  47.297  1.00  0.00     0.017 C
HETATM    3  C6  UNL     1     -26.739   3.024  45.855  1.00  0.00    -0.013 C
HETATM    4  C7  UNL     1     -27.254   4.317  45.293  1.00  0.00     0.009 C
HETATM    5  C8  UNL     1     -28.755   4.315  45.402  1.00  0.00    -0.013 C
HETATM    6  C9  UNL     1     -29.385   3.179  44.661  1.00  0.00     0.009 C
HETATM    7  C10 UNL     1     -28.834   1.870  45.184  1.00  0.00    -0.013 C
HETATM    8  C11 UNL     1     -27.326   1.827  45.131  1.00  0.00     0.009 C
HETATM    9  C12 UNL     1     -29.253   1.767  46.638  1.00  0.00     0.017 C
HETATM   10  C13 UNL     1     -29.157   4.241  46.862  1.00  0.00     0.017 C
ENDROOT
BRANCH   1  11
HETATM   11  C3  UNL     1     -29.006   2.730  48.859  1.00  0.00     0.145 C
HETATM   12  C2  UNL     1     -30.015   3.651  49.449  1.00  0.00     0.110 C
HETATM   13  C1  UNL     1     -30.476   2.398  50.096  1.00  0.00     0.115 C
HETATM   14  S1  UNL     1     -31.406   2.013  51.371  1.00  0.00    -0.058 SA
HETATM   15  O1  UNL     1     -29.791   1.625  49.170  1.00  0.00    -0.337 OA
ENDBRANCH   1  11
TORSDOF 1
ENDMDL