MODEL 4
REMARK VINA RESULT: -4.150969666      1.680      6.011
REMARK  1 active torsions:
REMARK  status: ('A' for Active; 'I' for Inactive)
REMARK    1  A    between atoms: N1_6  and  C6_7
ROOT
HETATM    1  C6  UNL     1     -29.804   3.703  46.756  1.00  0.00     0.359 C
HETATM    2  C7  UNL     1     -29.895   2.819  45.553  1.00  0.00     0.065 C
HETATM    3  C8  UNL     1     -28.978   3.330  44.484  1.00  0.00     0.016 C
HETATM    4  C9  UNL     1     -29.194   4.801  44.187  1.00  0.00    -0.019 C
HETATM    5  C10 UNL     1     -28.096   5.328  43.318  1.00  0.00     0.011 C
HETATM    6  C11 UNL     1     -28.668   5.512  41.929  1.00  0.00     0.001 C
HETATM    7  C12 UNL     1     -29.970   4.760  41.957  1.00  0.00     0.001 C
HETATM    8  C13 UNL     1     -30.443   4.980  43.369  1.00  0.00     0.011 C
HETATM    9  C14 UNL     1     -29.242   5.525  45.498  1.00  0.00     0.180 C
HETATM   10  O1  UNL     1     -30.187   4.995  46.346  1.00  0.00    -0.356 OA
ENDROOT
BRANCH   1  11
HETATM   11  N1  UNL     1     -30.678   3.333  47.830  1.00  0.00     0.121 N
HETATM   12  C2  UNL     1     -30.189   3.960  49.038  1.00  0.00     0.222 C
HETATM   13  C1  UNL     1     -31.407   4.574  49.721  1.00  0.00     0.043 C
HETATM   14  C3  UNL     1     -29.640   2.898  49.925  1.00  0.00     0.037 C
HETATM   15  C4  UNL     1     -30.386   1.667  49.494  1.00  0.00     0.032 C
HETATM   16  C5  UNL     1     -30.810   1.940  48.060  1.00  0.00     0.276 C
ENDBRANCH   1  11
TORSDOF 1
ENDMDL