MODEL 5
REMARK VINA RESULT: -5.849935060      1.038      2.407
REMARK  1 active torsions:
REMARK  status: ('A' for Active; 'I' for Inactive)
REMARK    1  A    between atoms: N1_4  and  C4_5
ROOT
HETATM    1  C4  UNL     1     -24.287  -6.127  43.310  1.00  0.00     0.087 C
HETATM    2  C5  UNL     1     -23.044  -6.447  44.019  1.00  0.00     0.044 C
HETATM    3  C6  UNL     1     -22.692  -5.262  44.930  1.00  0.00     0.119 C
HETATM    4  N2  UNL     1     -23.842  -4.460  45.218  1.00  0.00    -0.408 N
HETATM    5  C7  UNL     1     -23.741  -3.695  46.410  1.00  0.00     0.117 C
HETATM    6  C8  UNL     1     -23.248  -2.287  46.205  1.00  0.00     0.019 C
HETATM    7  C9  UNL     1     -23.915  -1.590  45.049  1.00  0.00     0.004 C
HETATM    8  C10 UNL     1     -23.707  -2.454  43.820  1.00  0.00     0.025 C
HETATM    9  C11 UNL     1     -24.394  -3.775  44.095  1.00  0.00     0.081 C
HETATM   10  C12 UNL     1     -24.225  -4.657  42.872  1.00  0.00     0.050 C
ENDROOT
BRANCH   1  11
HETATM   11  N1  UNL     1     -24.621  -6.904  42.193  1.00  0.00    -0.389 N
HETATM   12  C3  UNL     1     -25.379  -8.058  42.406  1.00  0.00     0.058 C
HETATM   13  C2  UNL     1     -24.989  -9.123  41.387  1.00  0.00     0.044 C
HETATM   14  C1  UNL     1     -25.310  -8.620  40.012  1.00  0.00     0.007 C
HETATM   15  C14 UNL     1     -25.239  -7.132  39.905  1.00  0.00     0.020 C
HETATM   16  C13 UNL     1     -24.241  -6.539  40.915  1.00  0.00     0.122 C
ENDBRANCH   1  11
TORSDOF 1
ENDMDL