MODEL 4
REMARK VINA RESULT: -5.131017794      1.844      3.519
REMARK  1 active torsions:
REMARK  status: ('A' for Active; 'I' for Inactive)
REMARK    1  A    between atoms: C2_2  and  C3_3
ROOT
HETATM    1  C3  UNL     1     -29.145   3.689  43.894  1.00  0.00     0.054 C
HETATM    2  C4  UNL     1     -27.660   3.560  44.159  1.00  0.00     0.015 C
HETATM    3  C5  UNL     1     -27.306   2.641  45.288  1.00  0.00    -0.014 C
HETATM    4  C6  UNL     1     -26.953   3.285  46.576  1.00  0.00     0.005 C
HETATM    5  C7  UNL     1     -27.843   3.011  47.737  1.00  0.00     0.008 C
HETATM    6  C8  UNL     1     -29.297   3.177  47.600  1.00  0.00     0.024 C
HETATM    7  C9  UNL     1     -29.909   1.780  47.415  1.00  0.00     0.015 C
HETATM    8  C10 UNL     1     -29.667   2.117  45.936  1.00  0.00     0.024 C
HETATM    9  C11 UNL     1     -28.410   1.605  45.425  1.00  0.00     0.012 C
HETATM   10  C12 UNL     1     -29.820   3.529  46.282  1.00  0.00     0.095 A
HETATM   11  O1  UNL     1     -29.070   4.664  46.038  1.00  0.00    -0.368 OA
HETATM   12  C13 UNL     1     -29.904   4.212  45.135  1.00  0.00     0.165 A
ENDROOT
BRANCH   1  13
HETATM   13  C2  UNL     1     -29.271   4.776  42.842  1.00  0.00     0.085 A
HETATM   14  C1  UNL     1     -28.063   5.525  42.391  1.00  0.00     0.049 C
HETATM   15  C14 UNL     1     -30.568   5.510  42.721  1.00  0.00     0.207 A
HETATM   16  O2  UNL     1     -30.212   4.549  41.808  1.00  0.00    -0.375 OA
ENDBRANCH   1  13
TORSDOF 1
ENDMDL