MODEL 4
REMARK VINA RESULT: -5.531864697      0.558      2.218
REMARK  1 active torsions:
REMARK  status: ('A' for Active; 'I' for Inactive)
REMARK    1  A    between atoms: N1_3  and  C3_4
ROOT
HETATM    1  C3  UNL     1     -28.958   2.945  47.115  1.00  0.00     0.037 C
HETATM    2  C4  UNL     1     -29.171   1.755  46.210  1.00  0.00     0.036 C
HETATM    3  C5  UNL     1     -28.296   1.842  44.995  1.00  0.00    -0.012 C
HETATM    4  C6  UNL     1     -26.832   1.921  45.339  1.00  0.00     0.009 C
HETATM    5  C7  UNL     1     -26.613   3.128  46.207  1.00  0.00    -0.012 C
HETATM    6  C8  UNL     1     -27.006   4.382  45.507  1.00  0.00     0.009 C
HETATM    7  C9  UNL     1     -28.434   4.270  45.049  1.00  0.00    -0.012 C
HETATM    8  C10 UNL     1     -28.640   3.053  44.168  1.00  0.00     0.009 C
HETATM    9  C11 UNL     1     -29.297   4.174  46.295  1.00  0.00     0.036 C
HETATM   10  C12 UNL     1     -27.469   2.979  47.445  1.00  0.00     0.036 C
ENDROOT
BRANCH   1  11
HETATM   11  N1  UNL     1     -29.682   2.940  48.303  1.00  0.00    -0.354 N
HETATM   12  C2  UNL     1     -30.027   4.096  48.953  1.00  0.00     0.075 C
HETATM   13  C1  UNL     1     -30.975   3.937  50.052  1.00  0.00     0.124 C
HETATM   14  S1  UNL     1     -31.407   2.173  49.967  1.00  0.00    -0.119 SA
HETATM   15  C13 UNL     1     -29.900   1.747  49.000  1.00  0.00     0.136 C
ENDBRANCH   1  11
TORSDOF 1
ENDMDL