MODEL 2
REMARK VINA RESULT: -6.025865271      0.535      1.353
REMARK  2 active torsions:
REMARK  status: ('A' for Active; 'I' for Inactive)
REMARK    1  A    between atoms: C1_2  and  O2_3
REMARK       I    between atoms: C1_2  and  N1_10
REMARK    2  A    between atoms: O2_3  and  C2_4
ROOT
HETATM    1  O1  UNL     1     -25.194  -4.538  42.798  1.00  0.00    -0.238 OA
HETATM    2  C1  UNL     1     -24.307  -5.315  43.235  1.00  0.00     0.363 C
HETATM    3  N1  UNL     1     -23.587  -4.908  44.386  1.00  0.00    -0.328 N
HETATM    4  C8  UNL     1     -23.926  -3.627  44.974  1.00  0.00     0.128 C
HETATM    5  C9  UNL     1     -22.641  -2.850  45.120  1.00  0.00     0.020 C
HETATM    6  C10 UNL     1     -21.979  -3.064  46.452  1.00  0.00     0.002 C
HETATM    7  C11 UNL     1     -21.329  -4.419  46.570  1.00  0.00     0.002 C
HETATM    8  C12 UNL     1     -22.310  -5.548  46.373  1.00  0.00     0.020 C
HETATM    9  C13 UNL     1     -22.556  -5.802  44.900  1.00  0.00     0.128 C
ENDROOT
BRANCH   2  10
HETATM   10  O2  UNL     1     -24.103  -6.490  42.571  1.00  0.00    -0.298 OA
BRANCH  10  11
HETATM   11  C2  UNL     1     -24.464  -6.633  41.217  1.00  0.00     0.142 C
HETATM   12  C3  UNL     1     -24.141  -8.003  40.644  1.00  0.00     0.016 C
HETATM   13  C4  UNL     1     -24.735  -8.920  41.658  1.00  0.00     0.007 C
HETATM   14  C7  UNL     1     -25.339  -7.748  39.719  1.00  0.00     0.014 C
HETATM   15  C5  UNL     1     -26.080  -8.203  41.896  1.00  0.00     0.007 C
HETATM   16  C6  UNL     1     -25.891  -7.040  40.966  1.00  0.00     0.016 C
ENDBRANCH  10  11
ENDBRANCH   2  10
TORSDOF 2
ENDMDL