MODEL 1
REMARK VINA RESULT: -6.704152941      0.000      0.000
REMARK  7 active torsions:
REMARK  status: ('A' for Active; 'I' for Inactive)
REMARK    1  A    between atoms: C4_4  and  C5_5
REMARK    2  A    between atoms: C5_5  and  O1_6
REMARK    3  A    between atoms: C5_5  and  C6_8
REMARK    4  A    between atoms: C6_8  and  N1_9
REMARK    5  A    between atoms: N2_16  and  S1_17
REMARK    6  A    between atoms: S1_17  and  C13_20
REMARK    7  A    between atoms: C13_20  and  C14_21
ROOT
HETATM    1  C1  UNL     1     -16.462  -6.667 -13.305  1.00  0.00     0.027 C
HETATM    2  C2  UNL     1     -17.316  -6.196 -14.007  1.00  0.00    -0.026 C
HETATM    3  C3  UNL     1     -18.327  -5.662 -14.836  1.00  0.00    -0.013 C
HETATM    4  C4  UNL     1     -19.200  -5.208 -15.571  1.00  0.00    -0.055 C
ENDROOT
BRANCH   4   5
HETATM    5  C5  UNL     1     -20.223  -4.675 -16.498  1.00  0.00     0.236 C
BRANCH   5   6
HETATM    6  O1  UNL     1     -20.395  -3.291 -16.118  1.00  0.00    -0.378 OA
ATOM      7  H1  UNL     1     -20.850  -2.886 -16.848  1.00  0.00     0.211 HD
ENDBRANCH   5   6
BRANCH   5   8
HETATM    8  C6  UNL     1     -21.557  -5.298 -16.267  1.00  0.00     0.107 C
BRANCH   8   9
HETATM    9  N1  UNL     1     -21.637  -6.662 -15.951  1.00  0.00    -0.368 N
HETATM   10  C7  UNL     1     -22.220  -7.106 -14.754  1.00  0.00     0.063 C
HETATM   11  C8  UNL     1     -23.689  -6.735 -14.735  1.00  0.00     0.047 C
HETATM   12  C9  UNL     1     -24.336  -6.903 -16.070  1.00  0.00     0.040 C
HETATM   13  C10 UNL     1     -23.556  -7.720 -17.054  1.00  0.00     0.068 C
HETATM   14  C11 UNL     1     -22.086  -7.498 -17.051  1.00  0.00     0.159 C
HETATM   15  C12 UNL     1     -23.945  -9.168 -16.876  1.00  0.00     0.179 C
HETATM   16  N3  UNL     1     -24.061  -7.454 -18.391  1.00  0.00    -0.330 N
HETATM   17  N2  UNL     1     -23.881  -9.768 -18.199  1.00  0.00    -0.225 N
HETATM   18  C16 UNL     1     -24.101  -8.702 -19.091  1.00  0.00     0.332 C
HETATM   19  O4  UNL     1     -24.299  -8.869 -20.344  1.00  0.00    -0.246 OA
ATOM     20  H3  UNL     1     -24.336  -6.545 -18.762  1.00  0.00     0.165 HD
BRANCH  17  21
HETATM   21  S1  UNL     1     -23.593 -11.434 -18.484  1.00  0.00     0.236 S
HETATM   22  O2  UNL     1     -22.729 -11.661 -19.683  1.00  0.00    -0.205 OA
HETATM   23  O3  UNL     1     -24.944 -12.128 -18.639  1.00  0.00    -0.205 OA
BRANCH  21  24
HETATM   24  C13 UNL     1     -22.785 -12.190 -17.102  1.00  0.00     0.163 C
BRANCH  24  25
HETATM   25  C14 UNL     1     -23.846 -12.814 -16.208  1.00  0.00     0.012 C
HETATM   26  C15 UNL     1     -23.347 -12.719 -14.783  1.00  0.00     0.006 C
ENDBRANCH  24  25
ENDBRANCH  21  24
ENDBRANCH  17  21
ENDBRANCH   8   9
ENDBRANCH   5   8
ENDBRANCH   4   5
TORSDOF 7
ENDMDL