MODEL 4
REMARK VINA RESULT: -6.122017459      3.990      7.002
REMARK  6 active torsions:
REMARK  status: ('A' for Active; 'I' for Inactive)
REMARK    1  A    between atoms: N1_2  and  N2_3
REMARK       I    between atoms: N1_2  and  C2_6
REMARK    2  A    between atoms: C2_6  and  C3_8
REMARK       I    between atoms: N3_12  and  C7_13
REMARK    3  A    between atoms: C7_13  and  C8_15
REMARK    4  A    between atoms: C12_19  and  C13_20
REMARK    5  A    between atoms: C13_20  and  N4_21
REMARK    6  A    between atoms: N4_21  and  S1_23
ROOT
HETATM    1  C3  UNL     1     -22.275  -6.590 -16.247  1.00  0.00     0.181 C
HETATM    2  C4  UNL     1     -22.506  -6.815 -14.782  1.00  0.00     0.037 C
HETATM    3  C5  UNL     1     -24.006  -6.951 -14.686  1.00  0.00     0.022 C
HETATM    4  C6  UNL     1     -24.504  -7.138 -16.093  1.00  0.00     0.127 C
HETATM    5  N3  UNL     1     -23.311  -7.399 -16.852  1.00  0.00    -0.338 N
HETATM    6  C7  UNL     1     -23.154  -8.235 -17.971  1.00  0.00     0.225 C
HETATM    7  O2  UNL     1     -21.996  -8.259 -18.519  1.00  0.00    -0.273 OA
ENDROOT
BRANCH   6   8
HETATM    8  C8  UNL     1     -24.224  -9.088 -18.555  1.00  0.00     0.083 C
HETATM    9  C9  UNL     1     -23.885  -9.395 -20.028  1.00  0.00     0.014 C
HETATM   10  C10 UNL     1     -24.218 -10.835 -20.272  1.00  0.00     0.001 C
HETATM   11  C11 UNL     1     -25.079 -11.170 -19.037  1.00  0.00     0.007 C
HETATM   12  C12 UNL     1     -24.210 -10.480 -18.000  1.00  0.00     0.013 C
BRANCH  12  13
HETATM   13  C13 UNL     1     -24.582 -10.684 -16.604  1.00  0.00     0.115 C
BRANCH  13  14
HETATM   14  N4  UNL     1     -23.614 -11.134 -15.670  1.00  0.00    -0.196 NA
HETATM   15  C14 UNL     1     -22.371 -11.378 -16.428  1.00  0.00     0.132 C
BRANCH  14  16
HETATM   16  S1  UNL     1     -24.060 -12.664 -15.023  1.00  0.00     0.184 S
HETATM   17  O3  UNL     1     -24.214 -13.696 -16.131  1.00  0.00    -0.582 OA
HETATM   18  O4  UNL     1     -25.412 -12.598 -14.351  1.00  0.00    -0.582 OA
HETATM   19  O5  UNL     1     -22.934 -13.290 -13.960  1.00  0.00    -0.582 OA
ENDBRANCH  14  16
ENDBRANCH  13  14
ENDBRANCH  12  13
ENDBRANCH   6   8
BRANCH   1  20
HETATM   20  C2  UNL     1     -22.342  -5.187 -16.660  1.00  0.00     0.260 C
HETATM   21  N1  UNL     1     -21.293  -4.278 -16.363  1.00  0.00    -0.271 N
HETATM   22  C1  UNL     1     -20.114  -4.679 -15.653  1.00  0.00     0.180 C
HETATM   23  O1  UNL     1     -23.340  -4.767 -17.289  1.00  0.00    -0.269 OA
BRANCH  21  24
HETATM   24  N2  UNL     1     -21.381  -2.922 -16.768  1.00  0.00    -0.341 N
ATOM     25  H22 UNL     1     -20.537  -2.362 -16.886  1.00  0.00     0.177 HD
ATOM     26  H21 UNL     1     -22.312  -2.541 -16.931  1.00  0.00     0.177 HD
ENDBRANCH  21  24
ENDBRANCH   1  20
TORSDOF 6
ENDMDL