MODEL 4
REMARK VINA RESULT: -7.079880476      1.691      2.535
REMARK  5 active torsions:
REMARK  status: ('A' for Active; 'I' for Inactive)
REMARK    1  A    between atoms: S1_2  and  N1_5
REMARK    2  A    between atoms: N1_5  and  S2_7
REMARK    3  A    between atoms: S2_7  and  N2_10
REMARK    4  A    between atoms: N2_10  and  C2_12
REMARK    5  A    between atoms: C5_15  and  C6_16
REMARK       I    between atoms: C6_16  and  N3_18
ROOT
HETATM    1  C2  UNL     1     -19.761  -4.984 -15.429  1.00  0.00     0.095 C
HETATM    2  C3  UNL     1     -20.221  -4.093 -16.574  1.00  0.00     0.027 C
HETATM    3  C4  UNL     1     -21.405  -4.849 -17.217  1.00  0.00     0.016 C
HETATM    4  C5  UNL     1     -21.970  -5.480 -15.960  1.00  0.00     0.080 C
HETATM    5  C12 UNL     1     -20.786  -6.131 -15.353  1.00  0.00     0.040 C
ENDROOT
BRANCH   1   6
HETATM    6  N2  UNL     1     -18.450  -5.534 -15.676  1.00  0.00    -0.297 N
ATOM      7  H2  UNL     1     -18.039  -5.648 -16.602  1.00  0.00     0.174 HD
BRANCH   6   8
HETATM    8  S2  UNL     1     -17.677  -5.970 -14.221  1.00  0.00     0.328 S
HETATM    9  O3  UNL     1     -16.180  -5.788 -14.300  1.00  0.00    -0.182 OA
HETATM   10  O4  UNL     1     -18.156  -5.046 -13.127  1.00  0.00    -0.182 OA
BRANCH   8  11
HETATM   11  N1  UNL     1     -18.091  -7.575 -13.742  1.00  0.00    -0.195 N
ATOM     12  H1  UNL     1     -19.012  -7.847 -13.398  1.00  0.00     0.193 HD
BRANCH  11  13
HETATM   13  S1  UNL     1     -16.768  -8.660 -13.915  1.00  0.00     0.236 S
HETATM   14  C1  UNL     1     -17.378 -10.338 -13.761  1.00  0.00     0.186 C
HETATM   15  O1  UNL     1     -15.746  -8.425 -12.841  1.00  0.00    -0.205 OA
HETATM   16  O2  UNL     1     -16.097  -8.553 -15.232  1.00  0.00    -0.205 OA
ENDBRANCH  11  13
ENDBRANCH   8  11
ENDBRANCH   6   8
ENDBRANCH   1   6
BRANCH   4  17
HETATM   17  C6  UNL     1     -23.195  -6.217 -16.100  1.00  0.00     0.224 C
HETATM   18  O5  UNL     1     -23.072  -7.501 -16.233  1.00  0.00    -0.273 OA
HETATM   19  N3  UNL     1     -24.539  -5.780 -16.120  1.00  0.00    -0.352 N
HETATM   20  C7  UNL     1     -25.589  -6.756 -16.286  1.00  0.00     0.125 C
HETATM   21  C11 UNL     1     -24.828  -4.383 -15.958  1.00  0.00     0.125 C
HETATM   22  C8  UNL     1     -26.787  -6.493 -15.422  1.00  0.00     0.020 C
HETATM   23  C9  UNL     1     -27.064  -5.022 -15.254  1.00  0.00     0.003 C
HETATM   24  C10 UNL     1     -26.319  -4.204 -16.285  1.00  0.00     0.020 C
ENDBRANCH   4  17
TORSDOF 5
ENDMDL