MODEL 3
REMARK VINA RESULT: -6.045502497      0.566      1.488
REMARK  7 active torsions:
REMARK  status: ('A' for Active; 'I' for Inactive)
REMARK    1  A    between atoms: C1_2  and  N1_3
REMARK    2  A    between atoms: C4_7  and  O3_8
REMARK    3  A    between atoms: C5_10  and  O4_11
REMARK    4  A    between atoms: C6_13  and  C7_14
REMARK    5  A    between atoms: C7_14  and  S1_15
REMARK    6  A    between atoms: S1_15  and  C8_17
REMARK    7  A    between atoms: C8_17  and  C9_18
ROOT
HETATM    1  C7  UNL     1     -22.898 -11.923 -16.938  1.00  0.00     0.137 C
ENDROOT
BRANCH   1   2
HETATM    2  C6  UNL     1     -24.012 -11.843 -15.916  1.00  0.00     0.140 C
HETATM    3  N1  UNL     1     -25.119 -12.747 -16.255  1.00  0.00    -0.307 N
HETATM    4  C2  UNL     1     -25.330 -14.157 -16.297  1.00  0.00     0.237 C
HETATM    5  O2  UNL     1     -25.556 -14.901 -15.174  1.00  0.00    -0.315 OA
HETATM    6  C3  UNL     1     -24.565 -14.796 -14.150  1.00  0.00     0.177 C
HETATM    7  C4  UNL     1     -23.980 -13.511 -14.195  1.00  0.00     0.096 C
HETATM    8  C5  UNL     1     -23.406 -12.270 -14.522  1.00  0.00     0.200 C
BRANCH   3   9
HETATM    9  C1  UNL     1     -26.252 -11.971 -16.619  1.00  0.00     0.357 C
HETATM   10  O1  UNL     1     -26.865 -11.176 -15.874  1.00  0.00    -0.283 OA
ENDBRANCH   3   9
BRANCH   7  11
HETATM   11  O3  UNL     1     -25.226 -12.911 -13.928  1.00  0.00    -0.360 OA
ATOM     12  H3  UNL     1     -24.890 -12.540 -13.120  1.00  0.00     0.217 HD
ENDBRANCH   7  11
BRANCH   8  13
HETATM   13  O4  UNL     1     -21.982 -12.220 -14.660  1.00  0.00    -0.387 OA
ATOM     14  H4  UNL     1     -21.625 -11.591 -15.276  1.00  0.00     0.210 HD
ENDBRANCH   8  13
ENDBRANCH   1   2
BRANCH   1  15
HETATM   15  S1  UNL     1     -22.846 -10.560 -18.018  1.00  0.00     0.017 S
HETATM   16  O5  UNL     1     -22.564 -10.940 -19.596  1.00  0.00    -0.258 OA
BRANCH  15  17
HETATM   17  C8  UNL     1     -24.078  -9.397 -17.716  1.00  0.00     0.118 C
BRANCH  17  18
HETATM   18  C9  UNL     1     -23.661  -8.097 -17.097  1.00  0.00    -0.025 C
HETATM   19  C10 UNL     1     -22.193  -7.853 -17.385  1.00  0.00     0.015 C
HETATM   20  C11 UNL     1     -21.682  -6.690 -16.569  1.00  0.00    -0.009 C
HETATM   21  C12 UNL     1     -22.481  -5.461 -16.928  1.00  0.00     0.036 C
HETATM   22  C16 UNL     1     -21.898  -6.943 -15.091  1.00  0.00     0.036 C
HETATM   23  C13 UNL     1     -23.953  -5.730 -16.647  1.00  0.00     0.123 C
HETATM   24  C14 UNL     1     -24.439  -6.903 -17.513  1.00  0.00     0.042 C
HETATM   25  O6  UNL     1     -24.097  -5.960 -15.304  1.00  0.00    -0.381 OA
HETATM   26  C15 UNL     1     -23.371  -7.051 -14.847  1.00  0.00     0.123 C
HETATM   27  C17 UNL     1     -23.882  -8.259 -15.584  1.00  0.00     0.042 C
ENDBRANCH  17  18
ENDBRANCH  15  17
ENDBRANCH   1  15
TORSDOF 7
ENDMDL