MODEL 5
REMARK VINA RESULT: -5.799731468      2.138      3.312
REMARK  7 active torsions:
REMARK  status: ('A' for Active; 'I' for Inactive)
REMARK    1  A    between atoms: N1_2  and  C2_3
REMARK    2  A    between atoms: N1_2  and  S1_18
REMARK    3  A    between atoms: C2_3  and  C3_4
REMARK    4  A    between atoms: C6_7  and  N2_8
REMARK    5  A    between atoms: C9_11  and  O1_12
REMARK    6  A    between atoms: C11_15  and  O2_16
REMARK    7  A    between atoms: S1_18  and  N3_21
ROOT
HETATM    1  C3  UNL     1     -20.307  -5.473 -15.672  1.00  0.00     0.056 C
HETATM    2  C4  UNL     1     -19.138  -4.578 -15.963  1.00  0.00     0.015 C
HETATM    3  C5  UNL     1     -17.936  -5.329 -15.351  1.00  0.00     0.039 C
HETATM    4  C6  UNL     1     -18.549  -5.769 -14.041  1.00  0.00     0.252 C
HETATM    5  C11 UNL     1     -20.026  -5.909 -14.231  1.00  0.00     0.160 C
ENDROOT
BRANCH   1   6
HETATM    6  C2  UNL     1     -21.636  -4.831 -15.716  1.00  0.00     0.084 C
BRANCH   6   7
HETATM    7  N1  UNL     1     -22.603  -5.286 -16.611  1.00  0.00    -0.282 N
HETATM    8  C1  UNL     1     -23.216  -4.360 -17.487  1.00  0.00     0.169 C
BRANCH   7   9
HETATM    9  S1  UNL     1     -23.364  -6.761 -16.384  1.00  0.00     0.304 S
HETATM   10  O3  UNL     1     -24.873  -6.603 -16.492  1.00  0.00    -0.188 OA
HETATM   11  O4  UNL     1     -23.084  -7.498 -15.137  1.00  0.00    -0.188 OA
BRANCH   9  12
HETATM   12  N3  UNL     1     -22.849  -7.804 -17.716  1.00  0.00    -0.189 NA
HETATM   13  C12 UNL     1     -22.300  -8.997 -17.173  1.00  0.00     0.135 C
HETATM   14  C13 UNL     1     -22.482 -10.148 -18.113  1.00  0.00     0.183 C
HETATM   15  O5  UNL     1     -22.532  -9.710 -19.404  1.00  0.00    -0.389 OA
HETATM   16  C14 UNL     1     -23.682  -8.977 -19.691  1.00  0.00     0.183 C
HETATM   17  C15 UNL     1     -23.965  -7.960 -18.608  1.00  0.00     0.135 C
ENDBRANCH   9  12
ENDBRANCH   7   9
ENDBRANCH   6   7
ENDBRANCH   1   6
BRANCH   5  18
HETATM   18  O2  UNL     1     -20.473  -7.197 -13.997  1.00  0.00    -0.393 OA
ATOM     19  H2  UNL     1     -20.369  -7.746 -14.766  1.00  0.00     0.210 HD
ENDBRANCH   5  18
BRANCH   4  20
HETATM   20  N2  UNL     1     -17.908  -6.968 -13.604  1.00  0.00     0.098 N
HETATM   21  C7  UNL     1     -16.707  -6.743 -12.849  1.00  0.00     0.275 C
HETATM   22  C8  UNL     1     -15.568  -7.377 -13.614  1.00  0.00     0.064 C
HETATM   23  C9  UNL     1     -16.250  -8.497 -14.345  1.00  0.00     0.148 C
HETATM   24  C10 UNL     1     -17.612  -7.893 -14.651  1.00  0.00     0.304 C
BRANCH  23  25
HETATM   25  O1  UNL     1     -16.414  -9.570 -13.466  1.00  0.00    -0.394 OA
ATOM     26  H1  UNL     1     -15.611 -10.079 -13.454  1.00  0.00     0.210 HD
ENDBRANCH  23  25
ENDBRANCH   4  20
TORSDOF 7
ENDMDL