MODEL 5
REMARK VINA RESULT: -6.802549258      3.465      6.536
REMARK  8 active torsions:
REMARK  status: ('A' for Active; 'I' for Inactive)
REMARK    1  A    between atoms: N1_1  and  N2_4
REMARK    2  A    between atoms: N2_4  and  C1_5
REMARK    3  A    between atoms: C1_5  and  N3_6
REMARK    4  A    between atoms: N4_9  and  C4_10
REMARK    5  A    between atoms: C5_13  and  N6_14
REMARK    6  A    between atoms: N6_14  and  C6_16
REMARK    7  A    between atoms: C6_16  and  C7_17
REMARK    8  A    between atoms: C7_17  and  N7_18
ROOT
HETATM    1  C4  UNL     1     -22.722  -5.179 -16.273  1.00  0.00     0.127 A
HETATM    2  N5  UNL     1     -23.011  -3.898 -16.621  1.00  0.00    -0.176 N
ATOM      3  H5  UNL     1     -23.965  -3.662 -16.891  1.00  0.00     0.186 HD
HETATM    4  C5  UNL     1     -22.076  -2.931 -16.619  1.00  0.00     0.679 A
HETATM    5  N10 UNL     1     -20.822  -3.262 -16.260  1.00  0.00    -0.195 N
ATOM      6  H10 UNL     1     -20.107  -2.535 -16.257  1.00  0.00     0.184 HD
HETATM    7  C9  UNL     1     -20.473  -4.519 -15.903  1.00  0.00     0.036 A
HETATM    8  C10 UNL     1     -21.440  -5.499 -15.908  1.00  0.00     0.009 A
HETATM    9  C11 UNL     1     -21.087  -6.861 -15.509  1.00  0.00     0.044 C
HETATM   10  C12 UNL     1     -20.153  -6.747 -14.300  1.00  0.00     0.005 C
HETATM   11  C13 UNL     1     -18.926  -5.953 -14.563  1.00  0.00     0.006 C
HETATM   12  C14 UNL     1     -19.077  -4.835 -15.524  1.00  0.00     0.058 C
ENDROOT
BRANCH   1  13
HETATM   13  N4  UNL     1     -23.703  -6.202 -16.291  1.00  0.00    -0.363 N
HETATM   14  C3  UNL     1     -24.489  -6.558 -15.121  1.00  0.00     0.144 C
HETATM   15  C2  UNL     1     -24.341  -8.050 -14.834  1.00  0.00     0.144 C
HETATM   16  N3  UNL     1     -24.199  -8.784 -16.068  1.00  0.00    -0.362 N
HETATM   17  C16 UNL     1     -24.692  -8.178 -17.271  1.00  0.00     0.144 C
HETATM   18  C15 UNL     1     -23.911  -6.917 -17.536  1.00  0.00     0.144 C
BRANCH  16  19
HETATM   19  C1  UNL     1     -23.596 -10.051 -16.083  1.00  0.00     0.299 C
BRANCH  19  20
HETATM   20  N2  UNL     1     -22.372 -10.247 -16.193  1.00  0.00    -0.329 NA
BRANCH  20  21
HETATM   21  N1  UNL     1     -21.154 -10.468 -16.020  1.00  0.00    -0.279 N
ATOM     22  H12 UNL     1     -21.321 -10.808 -15.073  1.00  0.00     0.191 HD
ATOM     23  H11 UNL     1     -20.142 -10.568 -16.096  1.00  0.00     0.191 HD
ENDBRANCH  20  21
ENDBRANCH  19  20
ENDBRANCH  16  19
ENDBRANCH   1  13
BRANCH   4  24
HETATM   24  N6  UNL     1     -22.376  -1.716 -16.956  1.00  0.00    -0.224 N
ATOM     25  H6  UNL     1     -21.651  -1.152 -17.398  1.00  0.00     0.177 HD
BRANCH  24  26
HETATM   26  C6  UNL     1     -23.652  -1.114 -16.750  1.00  0.00     0.157 C
BRANCH  26  27
HETATM   27  C7  UNL     1     -23.757  -0.506 -15.370  1.00  0.00     0.142 C
BRANCH  27  28
HETATM   28  N7  UNL     1     -22.608   0.323 -15.063  1.00  0.00    -0.365 N
HETATM   29  C8  UNL     1     -22.689   1.605 -15.042  1.00  0.00     0.197 C
HETATM   30  N8  UNL     1     -21.537   2.366 -14.736  1.00  0.00    -0.067 NA
HETATM   31  N9  UNL     1     -23.919   2.230 -15.324  1.00  0.00    -0.067 NA
ATOM     32  H7  UNL     1     -21.713  -0.123 -14.858  1.00  0.00     0.161 HD
ENDBRANCH  27  28
ENDBRANCH  26  27
ENDBRANCH  24  26
ENDBRANCH   4  24
TORSDOF 8
ENDMDL