MODEL 2
REMARK VINA RESULT: -6.280319470      5.519      7.141
REMARK  5 active torsions:
REMARK  status: ('A' for Active; 'I' for Inactive)
REMARK    1  A    between atoms: N1_1  and  S1_4
REMARK    2  A    between atoms: S1_4  and  C1_7
REMARK    3  A    between atoms: C1_7  and  C2_8
REMARK       I    between atoms: C2_8  and  N2_10
REMARK    4  A    between atoms: N2_10  and  C3_12
REMARK       I    between atoms: N3_15  and  C6_16
REMARK    5  A    between atoms: C6_16  and  C7_18
ROOT
HETATM    1  C2  UNL     1     -23.216  -3.445 -16.805  1.00  0.00     0.243 C
HETATM    2  O3  UNL     1     -22.666  -2.427 -16.315  1.00  0.00    -0.272 OA
HETATM    3  N2  UNL     1     -22.752  -4.770 -16.473  1.00  0.00    -0.353 N
ATOM      4  H2  UNL     1     -23.199  -5.596 -16.869  1.00  0.00     0.163 HD
ENDROOT
BRANCH   3   5
HETATM    5  C3  UNL     1     -21.651  -4.892 -15.574  1.00  0.00     0.104 C
HETATM    6  C4  UNL     1     -21.722  -6.246 -14.910  1.00  0.00     0.046 C
HETATM    7  C5  UNL     1     -20.353  -6.882 -15.062  1.00  0.00     0.128 C
HETATM    8  N3  UNL     1     -19.522  -5.711 -15.336  1.00  0.00    -0.348 N
HETATM    9  C6  UNL     1     -18.242  -5.410 -14.804  1.00  0.00     0.248 C
HETATM   10  C11 UNL     1     -20.314  -4.936 -16.278  1.00  0.00     0.151 C
HETATM   11  O4  UNL     1     -17.698  -4.341 -15.172  1.00  0.00    -0.270 OA
BRANCH   9  12
HETATM   12  C7  UNL     1     -17.528  -6.265 -13.861  1.00  0.00     0.213 C
HETATM   13  C8  UNL     1     -17.493  -7.719 -14.284  1.00  0.00     0.043 C
HETATM   14  C9  UNL     1     -16.410  -8.244 -13.331  1.00  0.00     0.029 C
HETATM   15  C10 UNL     1     -15.641  -6.983 -13.015  1.00  0.00     0.168 C
HETATM   16  O5  UNL     1     -16.150  -5.985 -13.824  1.00  0.00    -0.376 OA
ENDBRANCH   9  12
ENDBRANCH   3   5
BRANCH   1  17
HETATM   17  C1  UNL     1     -24.354  -3.240 -17.731  1.00  0.00     0.162 C
HETATM   18  C12 UNL     1     -23.964  -2.404 -18.930  1.00  0.00     0.037 C
HETATM   19  C13 UNL     1     -24.726  -2.948 -20.098  1.00  0.00     0.002 C
HETATM   20  C14 UNL     1     -25.423  -4.198 -19.656  1.00  0.00     0.002 C
HETATM   21  C15 UNL     1     -24.837  -4.560 -18.308  1.00  0.00     0.037 C
BRANCH  17  22
HETATM   22  S1  UNL     1     -25.692  -2.508 -16.863  1.00  0.00     0.242 S
HETATM   23  O1  UNL     1     -26.840  -3.456 -16.771  1.00  0.00    -0.205 OA
HETATM   24  O2  UNL     1     -26.180  -1.274 -17.577  1.00  0.00    -0.205 OA
BRANCH  22  25
HETATM   25  N1  UNL     1     -25.250  -2.041 -15.266  1.00  0.00    -0.327 N
ATOM     26  H12 UNL     1     -25.489  -2.555 -14.418  1.00  0.00     0.168 HD
ATOM     27  H11 UNL     1     -24.716  -1.174 -15.324  1.00  0.00     0.168 HD
ENDBRANCH  22  25
ENDBRANCH  17  22
ENDBRANCH   1  17
TORSDOF 5
ENDMDL