MODEL 3
REMARK VINA RESULT: -6.425076274      2.996      5.863
REMARK  5 active torsions:
REMARK  status: ('A' for Active; 'I' for Inactive)
REMARK    1  A    between atoms: C2_2  and  N1_3
REMARK       I    between atoms: N1_3  and  C3_5
REMARK       I    between atoms: C3_5  and  N4_10
REMARK    2  A    between atoms: N4_10  and  C5_12
REMARK    3  A    between atoms: C5_12  and  C6_13
REMARK    4  A    between atoms: C5_12  and  C12_22
REMARK    5  A    between atoms: C6_13  and  C7_14
REMARK       I    between atoms: C7_14  and  N5_16
REMARK       I    between atoms: C12_22  and  N6_24
ROOT
HETATM    1  N1  UNL     1     -21.854 -10.908 -16.528  1.00  0.00    -0.226 N
ATOM      2  H1  UNL     1     -20.851 -10.830 -16.697  1.00  0.00     0.177 HD
HETATM    3  C3  UNL     1     -22.667  -9.756 -16.610  1.00  0.00     0.683 C
HETATM    4  N2  UNL     1     -23.257  -9.501 -17.739  1.00  0.00    -0.126 N
ATOM      5  H2  UNL     1     -23.848  -8.673 -17.816  1.00  0.00     0.197 HD
HETATM    6  C4  UNL     1     -23.101 -10.333 -18.853  1.00  0.00     0.196 C
HETATM    7  N3  UNL     1     -22.966 -11.042 -19.781  1.00  0.00    -0.171 NA
HETATM    8  N4  UNL     1     -22.850  -8.894 -15.514  1.00  0.00    -0.212 N
ATOM      9  H4  UNL     1     -22.917  -9.301 -14.581  1.00  0.00     0.178 HD
ENDROOT
BRANCH   1  10
HETATM   10  C2  UNL     1     -22.429 -12.201 -16.207  1.00  0.00     0.133 C
HETATM   11  C1  UNL     1     -22.837 -12.306 -14.774  1.00  0.00     0.027 C
ENDBRANCH   1  10
BRANCH   8  12
HETATM   12  C5  UNL     1     -22.949  -7.425 -15.648  1.00  0.00     0.200 C
BRANCH  12  13
HETATM   13  C6  UNL     1     -24.123  -6.927 -14.860  1.00  0.00     0.138 C
BRANCH  13  14
HETATM   14  C7  UNL     1     -25.420  -7.219 -15.460  1.00  0.00     0.222 C
HETATM   15  O1  UNL     1     -25.738  -8.362 -15.919  1.00  0.00    -0.273 OA
HETATM   16  N5  UNL     1     -26.401  -6.206 -15.558  1.00  0.00    -0.351 N
HETATM   17  C8  UNL     1     -27.678  -6.521 -16.159  1.00  0.00     0.136 C
HETATM   18  C11 UNL     1     -26.054  -4.915 -15.046  1.00  0.00     0.136 C
HETATM   19  C9  UNL     1     -28.845  -6.286 -15.188  1.00  0.00     0.093 C
HETATM   20  S1  UNL     1     -28.781  -4.512 -14.819  1.00  0.00    -0.166 SA
HETATM   21  C10 UNL     1     -27.117  -3.878 -15.104  1.00  0.00     0.093 C
ENDBRANCH  13  14
ENDBRANCH  12  13
BRANCH  12  22
HETATM   22  C12 UNL     1     -21.661  -6.800 -15.343  1.00  0.00     0.243 C
HETATM   23  O2  UNL     1     -20.814  -7.519 -14.701  1.00  0.00    -0.271 OA
HETATM   24  N6  UNL     1     -21.244  -5.498 -15.675  1.00  0.00    -0.350 N
HETATM   25  C13 UNL     1     -19.923  -4.897 -15.359  1.00  0.00     0.126 C
HETATM   26  C16 UNL     1     -22.014  -4.515 -16.390  1.00  0.00     0.126 C
HETATM   27  C14 UNL     1     -19.687  -4.129 -16.656  1.00  0.00     0.021 C
HETATM   28  C15 UNL     1     -21.030  -3.485 -16.857  1.00  0.00     0.021 C
ENDBRANCH  12  22
ENDBRANCH   8  12
TORSDOF 5
ENDMDL