MODEL 1
REMARK VINA RESULT: -7.130412388      0.000      0.000
REMARK  7 active torsions:
REMARK  status: ('A' for Active; 'I' for Inactive)
REMARK    1  A    between atoms: C1_2  and  C2_3
REMARK       I    between atoms: C1_2  and  N1_6
REMARK    2  A    between atoms: C2_3  and  O2_4
REMARK    3  A    between atoms: C5_9  and  C6_10
REMARK       I    between atoms: C6_10  and  N2_12
REMARK    4  A    between atoms: C9_15  and  C10_16
REMARK    5  A    between atoms: C10_16  and  N3_17
REMARK    6  A    between atoms: C15_22  and  C16_23
REMARK    7  A    between atoms: C16_23  and  O4_24
ROOT
HETATM    1  C6  UNL     1     -19.854  -4.973 -15.427  1.00  0.00     0.225 C
HETATM    2  O3  UNL     1     -19.519  -3.967 -16.146  1.00  0.00    -0.273 OA
HETATM    3  N2  UNL     1     -21.147  -5.517 -15.622  1.00  0.00    -0.351 N
HETATM    4  C7  UNL     1     -21.562  -6.654 -14.865  1.00  0.00     0.126 C
HETATM    5  C8  UNL     1     -22.311  -7.708 -15.616  1.00  0.00     0.027 C
HETATM    6  C9  UNL     1     -22.992  -7.098 -16.873  1.00  0.00     0.023 C
HETATM    7  C15 UNL     1     -23.351  -5.723 -16.472  1.00  0.00     0.033 C
HETATM    8  C17 UNL     1     -22.044  -4.910 -16.578  1.00  0.00     0.132 C
ENDROOT
BRANCH   1   9
HETATM    9  C5  UNL     1     -18.853  -5.451 -14.470  1.00  0.00     0.097 C
HETATM   10  C4  UNL     1     -17.542  -4.748 -14.496  1.00  0.00     0.035 C
HETATM   11  C3  UNL     1     -16.557  -5.755 -13.964  1.00  0.00     0.127 C
HETATM   12  N1  UNL     1     -17.150  -7.047 -14.149  1.00  0.00    -0.349 N
HETATM   13  C1  UNL     1     -16.589  -8.329 -13.836  1.00  0.00     0.243 C
HETATM   14  C18 UNL     1     -18.473  -6.886 -14.724  1.00  0.00     0.139 C
HETATM   15  O1  UNL     1     -17.275  -9.386 -14.082  1.00  0.00    -0.271 OA
BRANCH  13  16
HETATM   16  C2  UNL     1     -15.259  -8.465 -13.243  1.00  0.00     0.267 C
BRANCH  16  17
HETATM   17  O2  UNL     1     -14.224  -8.353 -14.124  1.00  0.00    -0.392 OA
ATOM     18  H2  UNL     1     -13.383  -8.158 -13.728  1.00  0.00     0.210 HD
ENDBRANCH  16  17
ENDBRANCH  13  16
ENDBRANCH   1   9
BRANCH   7  19
HETATM   19  C16 UNL     1     -24.478  -5.019 -17.104  1.00  0.00     0.170 C
BRANCH  19  20
HETATM   20  O4  UNL     1     -24.053  -4.084 -18.019  1.00  0.00    -0.400 OA
ATOM     21  H4  UNL     1     -24.679  -3.966 -18.723  1.00  0.00     0.209 HD
ENDBRANCH  19  20
ENDBRANCH   7  19
BRANCH   6  22
HETATM   22  C10 UNL     1     -24.023  -8.055 -17.287  1.00  0.00     0.277 C
BRANCH  22  23
HETATM   23  N3  UNL     1     -23.634  -9.292 -17.861  1.00  0.00     0.088 N
HETATM   24  C11 UNL     1     -22.680  -9.025 -18.922  1.00  0.00     0.272 C
HETATM   25  C12 UNL     1     -23.435  -8.984 -20.209  1.00  0.00     0.032 C
HETATM   26  C13 UNL     1     -24.872  -9.369 -19.853  1.00  0.00     0.032 C
HETATM   27  C14 UNL     1     -24.662 -10.030 -18.508  1.00  0.00     0.272 C
ENDBRANCH  22  23
ENDBRANCH   6  22
TORSDOF 7
ENDMDL