MODEL 3
REMARK VINA RESULT: -9.631135634      4.247      9.354
REMARK  9 active torsions:
REMARK  status: ('A' for Active; 'I' for Inactive)
REMARK    1  A    between atoms: C2_3  and  C3_4
REMARK    2  A    between atoms: C3_4  and  C4_5
REMARK    3  A    between atoms: C3_4  and  N3_8
REMARK    4  A    between atoms: C5_13  and  C6_14
REMARK    5  A    between atoms: C6_14  and  C7_16
REMARK    6  A    between atoms: C8_19  and  N7_20
REMARK    7  A    between atoms: C9_27  and  N11_28
REMARK    8  A    between atoms: C10_35  and  O3_36
REMARK    9  A    between atoms: C11_38  and  O4_39
ROOT
HETATM    1  N3  UNL     1      19.837  -2.452  73.985  1.00  0.00    -0.235 N
HETATM    2  N4  UNL     1      19.706  -1.229  73.529  1.00  0.00    -0.237 N
ATOM      3  H4  UNL     1      20.396  -0.765  72.938  1.00  0.00     0.208 HD
HETATM    4  N5  UNL     1      18.592  -0.678  73.920  1.00  0.00    -0.278 N
ATOM      5  H5  UNL     1      18.286   0.267  73.684  1.00  0.00     0.189 HD
HETATM    6  C5  UNL     1      17.905  -1.555  74.688  1.00  0.00     0.156 A
HETATM    7  C10 UNL     1      18.731  -2.680  74.710  1.00  0.00     0.192 A
ENDROOT
BRANCH   6   8
HETATM    8  C6  UNL     1      16.620  -1.390  75.347  1.00  0.00     0.249 C
HETATM    9  O2  UNL     1      16.104  -0.218  75.290  1.00  0.00    -0.282 OA
BRANCH   8  10
HETATM   10  C7  UNL     1      15.946  -2.470  76.031  1.00  0.00     0.189 A
HETATM   11  N6  UNL     1      16.373  -3.042  77.175  1.00  0.00    -0.168 N
HETATM   12  C8  UNL     1      15.518  -4.024  77.535  1.00  0.00     0.736 A
ATOM     13  H6  UNL     1      17.213  -2.774  77.689  1.00  0.00     0.186 HD
HETATM   14  N12 UNL     1      14.578  -4.031  76.597  1.00  0.00    -0.128 N
HETATM   15  N13 UNL     1      14.819  -3.093  75.670  1.00  0.00    -0.267 N
ATOM     16  H12 UNL     1      13.780  -4.665  76.583  1.00  0.00     0.205 HD
ATOM     17  H13 UNL     1      14.251  -2.892  74.847  1.00  0.00     0.189 HD
BRANCH  12  18
HETATM   18  N7  UNL     1      15.667  -4.837  78.698  1.00  0.00     0.108 N
HETATM   19  N8  UNL     1      16.182  -6.077  78.736  1.00  0.00    -0.191 N
HETATM   20  N9  UNL     1      16.183  -6.556  79.946  1.00  0.00    -0.212 N
ATOM     21  H8  UNL     1      16.528  -6.580  77.919  1.00  0.00     0.211 HD
HETATM   22  N10 UNL     1      15.667  -5.632  80.731  1.00  0.00    -0.114 N
ATOM     23  H9  UNL     1      16.521  -7.474  80.234  1.00  0.00     0.210 HD
HETATM   24  C9  UNL     1      15.342  -4.557  79.963  1.00  0.00     0.729 A
ATOM     25  H10 UNL     1      15.533  -5.709  81.739  1.00  0.00     0.207 HD
BRANCH  24  26
HETATM   26  N11 UNL     1      14.817  -3.487  80.416  1.00  0.00    -0.231 N
ATOM     27 2H11 UNL     1      15.020  -2.554  80.058  1.00  0.00     0.174 HD
ATOM     28 1H11 UNL     1      14.142  -3.395  81.176  1.00  0.00     0.174 HD
ENDBRANCH  24  26
ENDBRANCH  12  18
ENDBRANCH   8  10
ENDBRANCH   6   8
BRANCH   7  29
HETATM   29  O3  UNL     1      18.417  -3.853  75.397  1.00  0.00    -0.343 OA
ATOM     30  H3  UNL     1      18.496  -4.740  75.065  1.00  0.00     0.219 HD
ENDBRANCH   7  29
BRANCH   1  31
HETATM   31  C3  UNL     1      20.965  -3.336  73.726  1.00  0.00     0.255 C
BRANCH  31  32
HETATM   32  C2  UNL     1      20.719  -4.190  72.536  1.00  0.00     0.113 A
HETATM   33  N1  UNL     1      21.294  -5.383  72.263  1.00  0.00    -0.185 N
HETATM   34  C1  UNL     1      22.253  -6.065  73.079  1.00  0.00     0.175 C
HETATM   35  C12 UNL     1      20.817  -5.844  71.067  1.00  0.00     0.680 A
HETATM   36  N14 UNL     1      19.951  -4.957  70.585  1.00  0.00    -0.169 N
HETATM   37  N15 UNL     1      21.184  -6.970  70.532  1.00  0.00    -0.234 N
HETATM   38  C11 UNL     1      19.884  -3.948  71.472  1.00  0.00     0.181 A
ATOM     39  H14 UNL     1      19.435  -5.028  69.708  1.00  0.00     0.186 HD
ATOM     40 2H15 UNL     1      21.848  -7.651  70.902  1.00  0.00     0.174 HD
ATOM     41 1H15 UNL     1      20.828  -7.314  69.640  1.00  0.00     0.174 HD
BRANCH  38  42
HETATM   42  O4  UNL     1      19.075  -2.823  71.316  1.00  0.00    -0.344 OA
ATOM     43  H4  UNL     1      18.419  -2.705  70.639  1.00  0.00     0.219 HD
ENDBRANCH  38  42
ENDBRANCH  31  32
BRANCH  31  44
HETATM   44  C4  UNL     1      22.260  -2.646  73.677  1.00  0.00     0.262 C
HETATM   45  N2  UNL     1      23.377  -2.958  74.464  1.00  0.00    -0.060 NA
HETATM   46  O1  UNL     1      22.379  -1.677  72.840  1.00  0.00    -0.274 OA
ENDBRANCH  31  44
ENDBRANCH   1  31
TORSDOF 9
ENDMDL