MODEL 1
REMARK VINA RESULT: -11.289593871      0.000      0.000
REMARK  9 active torsions:
REMARK  status: ('A' for Active; 'I' for Inactive)
REMARK    1  A    between atoms: N1_1  and  C1_4
REMARK    2  A    between atoms: C2_7  and  O1_8
REMARK    3  A    between atoms: C3_10  and  N3_11
REMARK    4  A    between atoms: N3_11  and  C4_13
REMARK    5  A    between atoms: C4_13  and  C5_14
REMARK    6  A    between atoms: N6_19  and  C6_20
REMARK    7  A    between atoms: N8_23  and  C7_24
REMARK    8  A    between atoms: C9_34  and  O4_35
REMARK    9  A    between atoms: C10_37  and  C11_38
ROOT
HETATM    1  C5  UNL     1      20.185  -4.108  72.116  1.00  0.00     0.099 A
HETATM    2  N4  UNL     1      19.321  -3.590  71.237  1.00  0.00    -0.282 N
ATOM      3  H4  UNL     1      18.724  -2.783  71.423  1.00  0.00     0.188 HD
HETATM    4  N5  UNL     1      19.339  -4.243  70.115  1.00  0.00    -0.233 N
ATOM      5  H5  UNL     1      18.773  -4.045  69.291  1.00  0.00     0.209 HD
HETATM    6  N6  UNL     1      20.231  -5.218  70.241  1.00  0.00    -0.213 N
HETATM    7  C10 UNL     1      20.779  -5.183  71.444  1.00  0.00     0.154 A
ENDROOT
BRANCH   1   8
HETATM    8  C4  UNL     1      20.496  -3.688  73.463  1.00  0.00     0.122 C
BRANCH   8   9
HETATM    9  N3  UNL     1      21.744  -4.083  74.037  1.00  0.00    -0.356 N
ATOM     10  H3  UNL     1      21.832  -5.068  74.289  1.00  0.00     0.165 HD
BRANCH   9  11
HETATM   11  C3  UNL     1      22.860  -3.279  74.293  1.00  0.00     0.153 A
HETATM   12  C2  UNL     1      22.933  -1.915  74.239  1.00  0.00     0.188 A
HETATM   13  N2  UNL     1      24.082  -1.221  74.464  1.00  0.00    -0.168 N
HETATM   14  C1  UNL     1      25.212  -1.889  74.756  1.00  0.00     0.680 A
ATOM     15  H2  UNL     1      24.086  -0.202  74.412  1.00  0.00     0.186 HD
HETATM   16  N13 UNL     1      25.191  -3.230  74.821  1.00  0.00    -0.154 N
HETATM   17  C12 UNL     1      24.063  -3.931  74.600  1.00  0.00     0.290 A
ATOM     18  H13 UNL     1      26.052  -3.731  75.043  1.00  0.00     0.187 HD
HETATM   19  O6  UNL     1      24.131  -5.183  74.681  1.00  0.00    -0.265 OA
BRANCH  12  20
HETATM   20  O1  UNL     1      21.818  -1.143  73.952  1.00  0.00    -0.344 OA
ATOM     21  H1  UNL     1      21.891  -0.590  73.183  1.00  0.00     0.219 HD
ENDBRANCH  12  20
BRANCH  14  22
HETATM   22  N1  UNL     1      26.321  -1.248  74.975  1.00  0.00    -0.234 N
ATOM     23  H12 UNL     1      26.296  -0.255  75.209  1.00  0.00     0.174 HD
ATOM     24  H11 UNL     1      27.218  -1.729  74.914  1.00  0.00     0.174 HD
ENDBRANCH  14  22
ENDBRANCH   9  11
ENDBRANCH   8   9
ENDBRANCH   1   8
BRANCH   7  25
HETATM   25  C11 UNL     1      21.780  -6.054  71.998  1.00  0.00     0.285 C
HETATM   26  N12 UNL     1      23.157  -6.063  71.645  1.00  0.00    -0.056 NA
HETATM   27  O5  UNL     1      21.481  -6.923  72.893  1.00  0.00    -0.269 OA
ENDBRANCH   7  25
BRANCH   6  28
HETATM   28  C6  UNL     1      20.568  -6.182  69.232  1.00  0.00     0.198 A
HETATM   29  N7  UNL     1      20.943  -7.466  69.368  1.00  0.00    -0.257 N
HETATM   30  N8  UNL     1      21.170  -8.035  68.209  1.00  0.00    -0.168 N
ATOM     31  H7  UNL     1      21.039  -7.940  70.267  1.00  0.00     0.191 HD
HETATM   32  N11 UNL     1      20.939  -7.109  67.286  1.00  0.00    -0.253 N
HETATM   33  C9  UNL     1      20.565  -5.949  67.872  1.00  0.00     0.205 A
ATOM     34  H11 UNL     1      21.031  -7.251  66.280  1.00  0.00     0.191 HD
BRANCH  30  35
HETATM   35  C7  UNL     1      21.581  -9.386  68.010  1.00  0.00     0.237 A
HETATM   36  N9  UNL     1      21.181 -10.483  68.681  1.00  0.00    -0.217 N
HETATM   37  O2  UNL     1      21.797 -11.541  68.192  1.00  0.00    -0.152 OA
ATOM     38  H9  UNL     1      20.508 -10.494  69.447  1.00  0.00     0.199 HD
HETATM   39  N10 UNL     1      22.593 -11.191  67.221  1.00  0.00    -0.203 N
HETATM   40  C8  UNL     1      22.482  -9.859  67.081  1.00  0.00     0.316 A
ATOM     41  H10 UNL     1      23.187 -11.811  66.671  1.00  0.00     0.200 HD
HETATM   42  O3  UNL     1      23.103  -9.179  66.240  1.00  0.00    -0.262 OA
ENDBRANCH  30  35
BRANCH  33  43
HETATM   43  O4  UNL     1      20.259  -4.802  67.174  1.00  0.00    -0.342 OA
ATOM     44  H4  UNL     1      20.640  -4.455  66.376  1.00  0.00     0.219 HD
ENDBRANCH  33  43
ENDBRANCH   6  28
TORSDOF 9
ENDMDL