MODEL 4
REMARK VINA RESULT: -10.115183791      3.269      4.722
REMARK  14 active torsions:
REMARK  status: ('A' for Active; 'I' for Inactive)
REMARK    1  A    between atoms: O1_1  and  N1_3
REMARK    2  A    between atoms: N1_3  and  N2_4
REMARK       I    between atoms: N2_4  and  C1_6
REMARK    3  A    between atoms: C1_6  and  C2_8
REMARK       I    between atoms: C2_8  and  N3_10
REMARK    4  A    between atoms: N3_10  and  C3_12
REMARK    5  A    between atoms: C4_14  and  C5_15
REMARK    6  A    between atoms: C5_15  and  O4_16
REMARK    7  A    between atoms: C5_15  and  O5_18
REMARK    8  A    between atoms: C7_21  and  N4_22
REMARK    9  A    between atoms: N4_22  and  N5_24
REMARK   10  A    between atoms: N5_24  and  C8_26
REMARK   11  A    between atoms: C11_32  and  C12_33
REMARK   12  A    between atoms: C12_33  and  O7_34
REMARK   13  A    between atoms: C12_33  and  O8_36
REMARK   14  A    between atoms: C13_39  and  O10_40
ROOT
HETATM    1  C3  UNL     1      20.499  -5.264  70.613  1.00  0.00     0.113 A
HETATM    2  S1  UNL     1      21.778  -6.221  71.192  1.00  0.00    -0.069 SA
HETATM    3  C4  UNL     1      22.223  -5.861  72.790  1.00  0.00     0.041 A
HETATM    4  C6  UNL     1      21.488  -4.861  73.362  1.00  0.00     0.053 A
HETATM    5  C7  UNL     1      20.465  -4.149  72.789  1.00  0.00     0.085 A
HETATM    6  C13 UNL     1      19.988  -4.320  71.509  1.00  0.00     0.128 A
ENDROOT
BRANCH   5   7
HETATM    7  N4  UNL     1      19.863  -3.111  73.600  1.00  0.00    -0.295 N
ATOM      8  H4  UNL     1      20.002  -2.132  73.349  1.00  0.00     0.187 HD
BRANCH   7   9
HETATM    9  N5  UNL     1      19.099  -3.432  74.717  1.00  0.00    -0.264 N
ATOM     10  H5  UNL     1      19.373  -4.238  75.278  1.00  0.00     0.190 HD
BRANCH   9  11
HETATM   11  C8  UNL     1      17.950  -2.688  75.113  1.00  0.00     0.246 A
HETATM   12  N6  UNL     1      17.191  -3.155  76.156  1.00  0.00    -0.288 N
HETATM   13  C9  UNL     1      16.101  -2.520  76.597  1.00  0.00     0.250 A
ATOM     14  H6  UNL     1      17.469  -4.023  76.615  1.00  0.00     0.172 HD
HETATM   15  O6  UNL     1      15.422  -2.986  77.568  1.00  0.00    -0.268 OA
HETATM   16  C10 UNL     1      15.738  -1.369  75.982  1.00  0.00     0.112 A
HETATM   17  C11 UNL     1      16.513  -0.892  74.918  1.00  0.00     0.116 A
HETATM   18  O9  UNL     1      17.558  -1.573  74.552  1.00  0.00    -0.277 OA
BRANCH  17  19
HETATM   19  C12 UNL     1      16.062   0.372  74.292  1.00  0.00     0.312 C
BRANCH  19  20
HETATM   20  O7  UNL     1      17.134   1.253  74.272  1.00  0.00    -0.365 OA
ATOM     21  H7  UNL     1      17.388   1.391  73.367  1.00  0.00     0.213 HD
ENDBRANCH  19  20
BRANCH  19  22
HETATM   22  O8  UNL     1      15.744   0.139  72.935  1.00  0.00    -0.365 OA
ATOM     23  H8  UNL     1      15.846   0.945  72.442  1.00  0.00     0.213 HD
ENDBRANCH  19  22
ENDBRANCH  17  19
ENDBRANCH   9  11
ENDBRANCH   7   9
ENDBRANCH   5   7
BRANCH   6  24
HETATM   24  O10 UNL     1      18.949  -3.573  70.980  1.00  0.00    -0.356 OA
ATOM     25  H10 UNL     1      18.992  -2.654  71.215  1.00  0.00     0.218 HD
ENDBRANCH   6  24
BRANCH   3  26
HETATM   26  C5  UNL     1      23.317  -6.578  73.495  1.00  0.00     0.295 C
BRANCH  26  27
HETATM   27  O4  UNL     1      22.698  -7.345  74.494  1.00  0.00    -0.367 OA
ATOM     28  H4  UNL     1      23.135  -7.121  75.307  1.00  0.00     0.213 HD
ENDBRANCH  26  27
BRANCH  26  29
HETATM   29  O5  UNL     1      24.229  -5.712  74.067  1.00  0.00    -0.367 OA
ATOM     30  H5  UNL     1      23.854  -4.856  74.241  1.00  0.00     0.213 HD
ENDBRANCH  26  29
ENDBRANCH   3  26
BRANCH   1  31
HETATM   31  N3  UNL     1      20.044  -5.402  69.406  1.00  0.00    -0.311 N
HETATM   32  C2  UNL     1      20.939  -5.944  68.432  1.00  0.00     0.315 C
HETATM   33  O3  UNL     1      21.795  -5.186  67.860  1.00  0.00    -0.262 OA
ATOM     34  H3  UNL     1      19.090  -5.137  69.163  1.00  0.00     0.170 HD
BRANCH  32  35
HETATM   35  C1  UNL     1      20.934  -7.346  68.043  1.00  0.00     0.327 C
HETATM   36  N2  UNL     1      19.946  -8.232  68.559  1.00  0.00    -0.240 N
ATOM     37  H2  UNL     1      19.238  -7.884  69.207  1.00  0.00     0.188 HD
HETATM   38  O2  UNL     1      21.796  -7.785  67.254  1.00  0.00    -0.261 OA
BRANCH  36  39
HETATM   39  N1  UNL     1      19.946  -9.587  68.177  1.00  0.00     0.021 NA
BRANCH  39  40
HETATM   40  O1  UNL     1      20.942 -10.249  68.578  1.00  0.00    -0.277 OA
ATOM     41  H1  UNL     1      20.853 -11.190  68.494  1.00  0.00     0.240 HD
ENDBRANCH  39  40
ENDBRANCH  36  39
ENDBRANCH  32  35
ENDBRANCH   1  31
TORSDOF 14
ENDMDL