MODEL 3
REMARK VINA RESULT: -9.382547665      4.568      8.027
REMARK  9 active torsions:
REMARK  status: ('A' for Active; 'I' for Inactive)
REMARK    1  A    between atoms: C2_2  and  O1_3
REMARK    2  A    between atoms: C2_2  and  C3_5
REMARK    3  A    between atoms: C2_2  and  S1_18
REMARK    4  A    between atoms: C3_5  and  N1_6
REMARK    5  A    between atoms: C6_14  and  N4_15
REMARK    6  A    between atoms: S1_18  and  C7_19
REMARK    7  A    between atoms: N8_26  and  C8_27
REMARK    8  A    between atoms: C10_29  and  C11_30
REMARK    9  A    between atoms: C14_37  and  O3_38
ROOT
HETATM    1  C7  UNL     1      19.177  -1.785  73.934  1.00  0.00     0.186 A
HETATM    2  N5  UNL     1      19.259  -0.453  73.993  1.00  0.00    -0.262 N
ATOM      3  H5  UNL     1      18.548   0.187  74.346  1.00  0.00     0.190 HD
HETATM    4  N6  UNL     1      20.434  -0.129  73.509  1.00  0.00    -0.226 N
ATOM      5  H6  UNL     1      20.781   0.827  73.426  1.00  0.00     0.210 HD
HETATM    6  N7  UNL     1      21.106  -1.202  73.143  1.00  0.00    -0.219 N
ATOM      7  H7  UNL     1      22.042  -1.233  72.738  1.00  0.00     0.210 HD
HETATM    8  N8  UNL     1      20.316  -2.234  73.409  1.00  0.00    -0.214 N
ENDROOT
BRANCH   1   9
HETATM    9  S1  UNL     1      17.808  -2.806  74.453  1.00  0.00    -0.051 SA
BRANCH   9  10
HETATM   10  C2  UNL     1      16.421  -1.757  75.035  1.00  0.00     0.128 C
HETATM   11  C1  UNL     1      15.838  -0.984  73.888  1.00  0.00     0.060 C
BRANCH  10  12
HETATM   12  O1  UNL     1      16.884  -0.856  76.004  1.00  0.00    -0.378 OA
ATOM     13  H1  UNL     1      17.586  -0.335  75.631  1.00  0.00     0.211 HD
ENDBRANCH  10  12
BRANCH  10  14
HETATM   14  C3  UNL     1      15.397  -2.693  75.617  1.00  0.00     0.217 C
BRANCH  14  15
HETATM   15  N1  UNL     1      15.186  -2.552  77.038  1.00  0.00    -0.121 N
HETATM   16  N2  UNL     1      14.589  -1.426  77.470  1.00  0.00    -0.290 N
HETATM   17  C4  UNL     1      14.307  -1.226  78.767  1.00  0.00     0.182 A
ATOM     18  H2  UNL     1      14.343  -0.704  76.792  1.00  0.00     0.187 HD
HETATM   19  C5  UNL     1      14.622  -2.173  79.719  1.00  0.00     0.276 A
HETATM   20  O2  UNL     1      14.373  -2.023  80.945  1.00  0.00    -0.266 OA
HETATM   21  N3  UNL     1      15.216  -3.286  79.274  1.00  0.00    -0.154 N
HETATM   22  C6  UNL     1      15.503  -3.484  77.943  1.00  0.00     0.695 A
ATOM     23  H3  UNL     1      15.465  -4.013  79.945  1.00  0.00     0.187 HD
BRANCH  22  24
HETATM   24  N4  UNL     1      16.111  -4.555  77.630  1.00  0.00    -0.233 N
ATOM     25  H42 UNL     1      17.031  -4.463  77.200  1.00  0.00     0.174 HD
ATOM     26  H41 UNL     1      15.695  -5.477  77.764  1.00  0.00     0.174 HD
ENDBRANCH  22  24
ENDBRANCH  14  15
ENDBRANCH  10  14
ENDBRANCH   9  10
ENDBRANCH   1   9
BRANCH   8  27
HETATM   27  C8  UNL     1      20.737  -3.571  73.131  1.00  0.00     0.094 A
HETATM   28  C9  UNL     1      20.461  -4.123  71.899  1.00  0.00     0.045 A
HETATM   29  C10 UNL     1      20.846  -5.422  71.557  1.00  0.00    -0.018 A
HETATM   30  C12 UNL     1      21.522  -6.125  72.527  1.00  0.00     0.013 A
HETATM   31  C13 UNL     1      21.803  -5.567  73.775  1.00  0.00     0.039 A
HETATM   32  C14 UNL     1      21.416  -4.284  74.095  1.00  0.00     0.094 A
BRANCH  29  33
HETATM   33  C11 UNL     1      20.509  -5.936  70.216  1.00  0.00     0.240 C
HETATM   34  N9  UNL     1      20.587  -7.399  70.174  1.00  0.00    -0.101 NA
HETATM   35  N10 UNL     1      21.265  -7.656  68.979  1.00  0.00    -0.019 NA
HETATM   36  N11 UNL     1      22.146  -6.561  68.779  1.00  0.00    -0.019 NA
HETATM   37  N12 UNL     1      21.339  -5.511  69.153  1.00  0.00    -0.101 NA
ENDBRANCH  29  33
BRANCH  32  38
HETATM   38  O3  UNL     1      21.703  -3.734  75.349  1.00  0.00    -0.358 OA
ATOM     39  H3  UNL     1      21.764  -4.274  76.128  1.00  0.00     0.217 HD
ENDBRANCH  32  38
ENDBRANCH   8  27
TORSDOF 9
ENDMDL