MODEL 1
REMARK VINA RESULT: -10.145658196      0.000      0.000
REMARK  6 active torsions:
REMARK  status: ('A' for Active; 'I' for Inactive)
REMARK    1  A    between atoms: N1_1  and  C1_4
REMARK    2  A    between atoms: C2_10  and  N4_11
REMARK    3  A    between atoms: C4_13  and  C5_14
REMARK    4  A    between atoms: N7_18  and  C6_19
REMARK    5  A    between atoms: C9_26  and  N11_27
REMARK       I    between atoms: N11_27  and  C10_29
REMARK    6  A    between atoms: C12_38  and  C13_39
ROOT
HETATM    1  C5  UNL     1      19.296  -2.504  73.557  1.00  0.00     0.163 A
HETATM    2  N5  UNL     1      18.698  -2.496  74.757  1.00  0.00    -0.265 N
ATOM      3  H5  UNL     1      18.719  -3.262  75.430  1.00  0.00     0.186 HD
HETATM    4  N6  UNL     1      18.064  -1.324  74.939  1.00  0.00     0.003 NA
HETATM    5  N7  UNL     1      18.266  -0.600  73.852  1.00  0.00    -0.171 N
HETATM    6  N12 UNL     1      19.020  -1.314  73.000  1.00  0.00    -0.262 N
ATOM      7  H12 UNL     1      19.332  -1.002  72.080  1.00  0.00     0.190 HD
ENDROOT
BRANCH   1   8
HETATM    8  C4  UNL     1      20.093  -3.575  72.952  1.00  0.00     0.097 A
HETATM    9  C3  UNL     1      19.793  -4.326  71.835  1.00  0.00     0.134 A
HETATM   10  N4  UNL     1      20.784  -5.230  71.581  1.00  0.00    -0.283 N
HETATM   11  C12 UNL     1      21.702  -5.047  72.533  1.00  0.00     0.180 A
HETATM   12  N13 UNL     1      21.284  -4.044  73.363  1.00  0.00    -0.334 N
ATOM     13  H13 UNL     1      21.800  -3.703  74.174  1.00  0.00     0.168 HD
BRANCH  10  14
HETATM   14  C2  UNL     1      20.797  -6.170  70.497  1.00  0.00     0.181 A
HETATM   15  C1  UNL     1      20.658  -5.846  69.164  1.00  0.00     0.168 A
HETATM   16  N2  UNL     1      20.729  -6.993  68.472  1.00  0.00    -0.222 N
HETATM   17  O1  UNL     1      20.901  -7.986  69.310  1.00  0.00    -0.153 OA
ATOM     18  H2  UNL     1      20.659  -7.078  67.458  1.00  0.00     0.198 HD
HETATM   19  N3  UNL     1      20.941  -7.502  70.514  1.00  0.00    -0.221 N
ATOM     20  H3  UNL     1      21.066  -8.060  71.359  1.00  0.00     0.198 HD
BRANCH  15  21
HETATM   21  N1  UNL     1      20.494  -4.665  68.687  1.00  0.00    -0.381 N
ATOM     22  H12 UNL     1      19.760  -4.376  68.041  1.00  0.00     0.157 HD
ATOM     23  H11 UNL     1      21.065  -3.841  68.878  1.00  0.00     0.157 HD
ENDBRANCH  15  21
ENDBRANCH  10  14
BRANCH  11  24
HETATM   24  C13 UNL     1      22.953  -5.770  72.697  1.00  0.00     0.299 C
HETATM   25  N14 UNL     1      23.401  -6.075  74.005  1.00  0.00    -0.054 NA
HETATM   26  O5  UNL     1      23.612  -6.108  71.669  1.00  0.00    -0.268 OA
ENDBRANCH  11  24
ENDBRANCH   1   8
BRANCH   5  27
HETATM   27  C6  UNL     1      17.756   0.712  73.655  1.00  0.00     0.166 A
HETATM   28  C7  UNL     1      16.482   0.928  73.164  1.00  0.00     0.152 A
HETATM   29  N8  UNL     1      15.669  -0.194  72.851  1.00  0.00    -0.080 NA
HETATM   30  N9  UNL     1      15.987   2.165  72.973  1.00  0.00    -0.329 N
HETATM   31  C8  UNL     1      16.741   3.265  73.263  1.00  0.00     0.148 A
ATOM     32  H9  UNL     1      15.042   2.281  72.608  1.00  0.00     0.168 HD
HETATM   33  N10 UNL     1      16.229   4.575  73.064  1.00  0.00    -0.080 NA
HETATM   34  C9  UNL     1      18.018   3.118  73.755  1.00  0.00     0.132 A
HETATM   35  C11 UNL     1      18.504   1.853  73.943  1.00  0.00     0.235 A
HETATM   36  O4  UNL     1      19.674   1.731  74.393  1.00  0.00    -0.283 OA
BRANCH  34  37
HETATM   37  N11 UNL     1      18.764   4.295  74.041  1.00  0.00    -0.294 N
HETATM   38  C10 UNL     1      19.510   4.946  73.030  1.00  0.00     0.288 C
HETATM   39  O2  UNL     1      19.523   4.496  71.871  1.00  0.00    -0.629 OA
HETATM   40  O3  UNL     1      20.228   6.087  73.325  1.00  0.00    -0.629 OA
ATOM     41  H11 UNL     1      18.760   4.675  74.988  1.00  0.00     0.172 HD
ENDBRANCH  34  37
ENDBRANCH   5  27
TORSDOF 6
ENDMDL