MODEL 4
REMARK VINA RESULT: -8.191111899      2.938      4.109
REMARK  11 active torsions:
REMARK  status: ('A' for Active; 'I' for Inactive)
REMARK    1  A    between atoms: O1_2  and  O2_3
REMARK    2  A    between atoms: O2_3  and  C2_4
REMARK    3  A    between atoms: C2_4  and  C5_7
REMARK    4  A    between atoms: C5_7  and  O3_8
REMARK    5  A    between atoms: C5_7  and  C6_10
REMARK    6  A    between atoms: C6_10  and  N1_11
REMARK    7  A    between atoms: C7_12  and  C8_13
REMARK    8  A    between atoms: C9_15  and  N2_16
REMARK    9  A    between atoms: C10_21  and  N4_22
REMARK   10  A    between atoms: C12_30  and  N10_31
REMARK   11  A    between atoms: C13_36  and  N12_37
ROOT
HETATM    1  N1  UNL     1      22.993  -3.457  73.954  1.00  0.00    -0.159 N
HETATM    2  C7  UNL     1      22.007  -2.747  73.384  1.00  0.00     0.177 A
HETATM    3  N8  UNL     1      22.150  -1.441  73.756  1.00  0.00    -0.246 N
ATOM      4  H8  UNL     1      21.537  -0.677  73.468  1.00  0.00     0.190 HD
HETATM    5  N9  UNL     1      23.207  -1.315  74.547  1.00  0.00     0.092 N
HETATM    6  C12 UNL     1      23.760  -0.257  75.164  1.00  0.00     0.727 A
HETATM    7  N11 UNL     1      24.848  -0.450  75.913  1.00  0.00    -0.020 N
ATOM      8  H11 UNL     1      25.287   0.337  76.391  1.00  0.00     0.203 HD
HETATM    9  C13 UNL     1      25.367  -1.691  76.035  1.00  0.00     0.705 A
HETATM   10  N13 UNL     1      24.806  -2.739  75.414  1.00  0.00    -0.019 N
ATOM     11  H13 UNL     1      25.208  -3.671  75.513  1.00  0.00     0.203 HD
HETATM   12  C14 UNL     1      23.720  -2.551  74.666  1.00  0.00     0.737 A
ENDROOT
BRANCH   2  13
HETATM   13  C8  UNL     1      20.952  -3.201  72.504  1.00  0.00     0.170 A
HETATM   14  O4  UNL     1      21.097  -3.944  71.447  1.00  0.00    -0.272 OA
HETATM   15  C9  UNL     1      19.942  -4.172  70.874  1.00  0.00     0.224 A
HETATM   16  N3  UNL     1      18.972  -3.558  71.567  1.00  0.00    -0.305 N
HETATM   17  C10 UNL     1      19.604  -2.935  72.609  1.00  0.00     0.163 A
ATOM     18  H3  UNL     1      17.973  -3.556  71.361  1.00  0.00     0.171 HD
BRANCH  15  19
HETATM   19  N2  UNL     1      19.766  -4.875  69.809  1.00  0.00    -0.365 N
ATOM     20  H22 UNL     1      20.502  -5.354  69.291  1.00  0.00     0.159 HD
ATOM     21  H21 UNL     1      18.868  -5.040  69.354  1.00  0.00     0.159 HD
ENDBRANCH  15  19
BRANCH  17  22
HETATM   22  N4  UNL     1      18.919  -2.171  73.582  1.00  0.00    -0.244 N
HETATM   23  C11 UNL     1      18.263  -2.712  74.742  1.00  0.00     0.279 C
HETATM   24  N5  UNL     1      17.448  -1.616  75.191  1.00  0.00    -0.107 NA
HETATM   25  N6  UNL     1      18.024  -0.461  74.703  1.00  0.00    -0.016 NA
HETATM   26  N7  UNL     1      18.775  -0.800  73.572  1.00  0.00    -0.007 NA
ENDBRANCH  17  22
ENDBRANCH   2  13
BRANCH   1  27
HETATM   27  C6  UNL     1      23.246  -4.869  73.893  1.00  0.00     0.184 C
BRANCH  27  28
HETATM   28  C5  UNL     1      22.783  -5.592  75.111  1.00  0.00     0.174 C
BRANCH  28  29
HETATM   29  C2  UNL     1      21.883  -6.757  74.672  1.00  0.00     0.116 C
HETATM   30  C3  UNL     1      20.618  -6.737  75.502  1.00  0.00     0.052 C
HETATM   31  C4  UNL     1      21.568  -6.651  73.211  1.00  0.00     0.052 C
BRANCH  29  32
HETATM   32  O2  UNL     1      22.525  -7.974  74.958  1.00  0.00    -0.228 OA
BRANCH  32  33
HETATM   33  O1  UNL     1      21.743  -8.705  75.711  1.00  0.00    -0.245 OA
HETATM   34  C1  UNL     1      21.179  -9.762  75.003  1.00  0.00     0.247 C
ENDBRANCH  32  33
ENDBRANCH  29  32
ENDBRANCH  28  29
BRANCH  28  35
HETATM   35  O3  UNL     1      22.044  -4.831  75.997  1.00  0.00    -0.391 OA
ATOM     36  H3  UNL     1      21.145  -4.850  75.690  1.00  0.00     0.210 HD
ENDBRANCH  28  35
ENDBRANCH  27  28
ENDBRANCH   1  27
BRANCH   6  37
HETATM   37  N10 UNL     1      23.274   0.922  75.053  1.00  0.00    -0.232 N
ATOM     38 2H10 UNL     1      22.508   1.207  75.663  1.00  0.00     0.174 HD
ATOM     39 1H10 UNL     1      23.630   1.590  74.369  1.00  0.00     0.174 HD
ENDBRANCH   6  37
BRANCH   9  40
HETATM   40  N12 UNL     1      26.428  -1.904  76.759  1.00  0.00    -0.234 N
ATOM     41 2H12 UNL     1      27.182  -2.458  76.353  1.00  0.00     0.174 HD
ATOM     42 1H12 UNL     1      26.502  -1.527  77.703  1.00  0.00     0.174 HD
ENDBRANCH   9  40
TORSDOF 11
ENDMDL