MODEL 3
REMARK VINA RESULT: -9.889975187      2.289      3.907
REMARK  11 active torsions:
REMARK  status: ('A' for Active; 'I' for Inactive)
REMARK    1  A    between atoms: N2_5  and  C3_6
REMARK    2  A    between atoms: N5_11  and  N6_12
REMARK    3  A    between atoms: N6_12  and  N7_14
REMARK    4  A    between atoms: N7_14  and  N8_15
REMARK       I    between atoms: N8_15  and  C4_17
REMARK    5  A    between atoms: N10_19  and  N11_21
REMARK    6  A    between atoms: C5_24  and  C6_25
REMARK    7  A    between atoms: N13_27  and  N14_29
REMARK    8  A    between atoms: C7_34  and  C8_35
REMARK    9  A    between atoms: C8_35  and  S1_36
REMARK   10  A    between atoms: S1_36  and  C9_37
REMARK   11  A    between atoms: C10_40  and  N17_41
ROOT
HETATM    1  C3  UNL     1      20.099  -4.832  71.009  1.00  0.00     0.195 A
HETATM    2  N3  UNL     1      19.208  -3.776  70.870  1.00  0.00    -0.264 N
ATOM      3  H3  UNL     1      18.718  -3.513  70.015  1.00  0.00     0.190 HD
HETATM    4  N4  UNL     1      19.111  -3.178  72.030  1.00  0.00    -0.217 N
ATOM      5  H4  UNL     1      18.528  -2.365  72.230  1.00  0.00     0.210 HD
HETATM    6  N5  UNL     1      19.906  -3.811  72.920  1.00  0.00    -0.148 N
HETATM    7  C5  UNL     1      20.507  -4.814  72.323  1.00  0.00     0.169 A
ENDROOT
BRANCH   1   8
HETATM    8  N2  UNL     1      20.493  -5.638  69.922  1.00  0.00    -0.175 N
HETATM    9  N1  UNL     1      21.096  -5.206  68.788  1.00  0.00    -0.280 N
HETATM   10  C2  UNL     1      21.224  -6.178  67.923  1.00  0.00     0.049 A
ATOM     11  H1  UNL     1      21.408  -4.249  68.630  1.00  0.00     0.189 HD
HETATM   12  C1  UNL     1      21.823  -6.082  66.583  1.00  0.00     0.072 C
HETATM   13  C7  UNL     1      20.668  -7.319  68.531  1.00  0.00     0.061 A
HETATM   14  N15 UNL     1      20.255  -6.915  69.728  1.00  0.00    -0.279 N
ATOM     15  H15 UNL     1      19.808  -7.524  70.413  1.00  0.00     0.189 HD
BRANCH  13  16
HETATM   16  C8  UNL     1      20.503  -8.542  67.723  1.00  0.00     0.143 C
BRANCH  16  17
HETATM   17  S1  UNL     1      21.660  -9.862  67.907  1.00  0.00    -0.078 SA
BRANCH  17  18
HETATM   18  C9  UNL     1      22.453 -10.232  66.369  1.00  0.00     0.223 A
HETATM   19  N16 UNL     1      22.192 -11.132  65.459  1.00  0.00    -0.161 N
HETATM   20  C10 UNL     1      23.097 -11.007  64.475  1.00  0.00     0.698 A
ATOM     21  H16 UNL     1      21.433 -11.813  65.491  1.00  0.00     0.187 HD
HETATM   22  N18 UNL     1      23.928  -9.993  64.812  1.00  0.00    -0.089 N
HETATM   23  O1  UNL     1      23.527  -9.547  65.941  1.00  0.00    -0.197 OA
ATOM     24  H18 UNL     1      24.722  -9.651  64.270  1.00  0.00     0.213 HD
BRANCH  20  25
HETATM   25  N17 UNL     1      23.190 -11.703  63.412  1.00  0.00    -0.233 N
ATOM     26 2H17 UNL     1      22.467 -11.775  62.696  1.00  0.00     0.174 HD
ATOM     27 1H17 UNL     1      23.979 -12.275  63.111  1.00  0.00     0.174 HD
ENDBRANCH  20  25
ENDBRANCH  17  18
ENDBRANCH  16  17
ENDBRANCH  13  16
ENDBRANCH   1   8
BRANCH   7  28
HETATM   28  C6  UNL     1      21.433  -5.776  72.909  1.00  0.00     0.165 C
HETATM   29  N12 UNL     1      22.512  -6.285  72.061  1.00  0.00    -0.079 NA
HETATM   30  N13 UNL     1      21.464  -6.257  74.035  1.00  0.00    -0.292 N
ATOM     31  H13 UNL     1      22.275  -6.876  74.026  1.00  0.00     0.187 HD
BRANCH  30  32
HETATM   32  N14 UNL     1      20.976  -6.374  75.247  1.00  0.00    -0.344 N
ATOM     33 2H14 UNL     1      21.166  -5.455  75.648  1.00  0.00     0.176 HD
ATOM     34 1H14 UNL     1      20.510  -6.919  75.973  1.00  0.00     0.176 HD
ENDBRANCH  30  32
ENDBRANCH   7  28
BRANCH   6  35
HETATM   35  N6  UNL     1      20.001  -3.279  74.228  1.00  0.00    -0.132 N
ATOM     36  H6  UNL     1      20.910  -3.102  74.656  1.00  0.00     0.228 HD
BRANCH  35  37
HETATM   37  N7  UNL     1      18.995  -3.046  74.812  1.00  0.00    -0.216 NA
BRANCH  37  38
HETATM   38  N8  UNL     1      17.893  -2.792  75.423  1.00  0.00    -0.184 N
HETATM   39  C4  UNL     1      16.746  -2.132  74.854  1.00  0.00     0.233 C
HETATM   40  N9  UNL     1      17.010  -1.242  73.757  1.00  0.00    -0.060 NA
HETATM   41  N10 UNL     1      15.565  -2.286  75.266  1.00  0.00    -0.278 N
ATOM     42  H10 UNL     1      14.823  -1.770  74.794  1.00  0.00     0.189 HD
ATOM     43  H8  UNL     1      17.825  -3.084  76.398  1.00  0.00     0.207 HD
BRANCH  41  44
HETATM   44  N11 UNL     1      15.217  -3.100  76.308  1.00  0.00    -0.343 N
ATOM     45 2H11 UNL     1      15.115  -4.094  76.103  1.00  0.00     0.176 HD
ATOM     46 1H11 UNL     1      15.057  -2.773  77.261  1.00  0.00     0.176 HD
ENDBRANCH  41  44
ENDBRANCH  37  38
ENDBRANCH  35  37
ENDBRANCH   6  35
TORSDOF 11
ENDMDL