MODEL 1
REMARK VINA RESULT: -10.565516919      0.000      0.000
REMARK  13 active torsions:
REMARK  status: ('A' for Active; 'I' for Inactive)
REMARK       I    between atoms: C2_2  and  N1_4
REMARK    1  A    between atoms: N1_4  and  C3_6
REMARK    2  A    between atoms: C5_8  and  C6_9
REMARK    3  A    between atoms: C6_9  and  O2_10
REMARK    4  A    between atoms: C6_9  and  N2_12
REMARK    5  A    between atoms: N3_14  and  N4_16
REMARK    6  A    between atoms: C8_20  and  N6_21
REMARK    7  A    between atoms: N6_21  and  C9_23
REMARK    8  A    between atoms: C9_23  and  O3_24
REMARK    9  A    between atoms: C9_23  and  C10_26
REMARK   10  A    between atoms: C10_26  and  O4_27
REMARK   11  A    between atoms: C10_26  and  O5_29
REMARK   12  A    between atoms: O5_29  and  C11_30
REMARK   13  A    between atoms: C13_36  and  N9_37
ROOT
HETATM    1  C11 UNL     1      21.413 -11.097  65.396  1.00  0.00     0.367 C
HETATM    2  O6  UNL     1      20.595 -11.502  64.533  1.00  0.00    -0.247 OA
HETATM    3  C12 UNL     1      22.699 -10.651  64.962  1.00  0.00     0.170 C
HETATM    4  N7  UNL     1      23.744 -10.305  64.609  1.00  0.00    -0.186 NA
ENDROOT
BRANCH   1   5
HETATM    5  O5  UNL     1      21.012 -11.111  66.719  1.00  0.00    -0.274 OA
BRANCH   5   6
HETATM    6  C10 UNL     1      21.473 -10.129  67.623  1.00  0.00     0.316 C
BRANCH   6   7
HETATM    7  C9  UNL     1      20.650  -8.862  67.542  1.00  0.00     0.276 C
BRANCH   7   8
HETATM    8  N6  UNL     1      21.489  -7.750  67.915  1.00  0.00    -0.331 N
ATOM      9  H6  UNL     1      22.482  -7.748  67.681  1.00  0.00     0.165 HD
BRANCH   8  10
HETATM   10  C8  UNL     1      20.911  -6.658  68.614  1.00  0.00     0.195 A
HETATM   11  N5  UNL     1      20.154  -5.715  68.131  1.00  0.00    -0.342 N
HETATM   12  C7  UNL     1      19.764  -4.785  69.163  1.00  0.00     0.295 A
ATOM     13  H5  UNL     1      19.873  -5.643  67.153  1.00  0.00     0.164 HD
HETATM   14  N4  UNL     1      20.386  -5.307  70.340  1.00  0.00    -0.199 N
HETATM   15  N8  UNL     1      21.097  -6.460  70.008  1.00  0.00    -0.252 N
ATOM     16  H8  UNL     1      21.643  -7.045  70.642  1.00  0.00     0.192 HD
BRANCH  14  17
HETATM   17  N3  UNL     1      20.324  -4.787  71.642  1.00  0.00    -0.226 N
HETATM   18  N2  UNL     1      21.208  -5.032  72.485  1.00  0.00    -0.288 N
ATOM     19  H2  UNL     1      21.981  -5.628  72.189  1.00  0.00     0.185 HD
ATOM     20  H3  UNL     1      19.537  -4.193  71.904  1.00  0.00     0.210 HD
BRANCH  18  21
HETATM   21  C6  UNL     1      21.232  -4.549  73.834  1.00  0.00     0.272 C
BRANCH  21  22
HETATM   22  C5  UNL     1      22.581  -4.078  74.238  1.00  0.00     0.037 A
HETATM   23  C4  UNL     1      22.794  -2.739  74.609  1.00  0.00     0.048 A
HETATM   24  C3  UNL     1      24.003  -2.260  74.987  1.00  0.00     0.077 A
HETATM   25  C14 UNL     1      25.064  -3.172  74.994  1.00  0.00     0.144 A
HETATM   26  N10 UNL     1      24.854  -4.444  74.639  1.00  0.00    -0.329 N
HETATM   27  N11 UNL     1      26.341  -2.695  75.386  1.00  0.00    -0.080 NA
HETATM   28  C13 UNL     1      23.658  -4.923  74.265  1.00  0.00     0.110 A
ATOM     29  H10 UNL     1      25.647  -5.085  74.654  1.00  0.00     0.168 HD
BRANCH  24  30
HETATM   30  N1  UNL     1      24.219  -0.912  75.361  1.00  0.00    -0.325 N
HETATM   31  C2  UNL     1      23.523   0.232  74.991  1.00  0.00     0.218 C
HETATM   32  C1  UNL     1      23.942   1.577  75.523  1.00  0.00     0.117 C
HETATM   33  O1  UNL     1      22.552   0.239  74.231  1.00  0.00    -0.274 OA
ATOM     34  H1  UNL     1      25.001  -0.758  75.997  1.00  0.00     0.169 HD
ENDBRANCH  24  30
BRANCH  28  35
HETATM   35  N9  UNL     1      23.553  -6.177  73.937  1.00  0.00    -0.385 N
ATOM     36  H92 UNL     1      22.888  -6.768  74.438  1.00  0.00     0.157 HD
ATOM     37  H91 UNL     1      24.117  -6.588  73.193  1.00  0.00     0.157 HD
ENDBRANCH  28  35
ENDBRANCH  21  22
BRANCH  21  38
HETATM   38  O2  UNL     1      20.766  -5.507  74.746  1.00  0.00    -0.371 OA
ATOM     39  H2  UNL     1      21.304  -6.289  74.699  1.00  0.00     0.212 HD
ENDBRANCH  21  38
ENDBRANCH  18  21
ENDBRANCH  14  17
ENDBRANCH   8  10
ENDBRANCH   7   8
BRANCH   7  40
HETATM   40  O3  UNL     1      19.571  -8.913  68.419  1.00  0.00    -0.372 OA
ATOM     41  H3  UNL     1      19.870  -9.280  69.243  1.00  0.00     0.212 HD
ENDBRANCH   7  40
ENDBRANCH   6   7
BRANCH   6  42
HETATM   42  O4  UNL     1      21.324 -10.665  68.897  1.00  0.00    -0.367 OA
ATOM     43  H4  UNL     1      21.666 -11.551  68.890  1.00  0.00     0.212 HD
ENDBRANCH   6  42
ENDBRANCH   5   6
ENDBRANCH   1   5
TORSDOF 13
ENDMDL