MODEL 4
REMARK VINA RESULT: -8.779477493      1.618      2.185
REMARK  15 active torsions:
REMARK  status: ('A' for Active; 'I' for Inactive)
REMARK    1  A    between atoms: O1_2  and  C2_3
REMARK    2  A    between atoms: C2_3  and  O2_4
REMARK    3  A    between atoms: C2_3  and  C3_6
REMARK    4  A    between atoms: C3_6  and  N1_7
REMARK    5  A    between atoms: C3_6  and  C4_11
REMARK    6  A    between atoms: C4_11  and  C5_12
REMARK    7  A    between atoms: C7_14  and  N2_15
REMARK    8  A    between atoms: N3_17  and  C8_19
REMARK    9  A    between atoms: C9_20  and  O3_21
REMARK   10  A    between atoms: N5_27  and  N6_28
REMARK   11  A    between atoms: N7_33  and  C12_34
REMARK   12  A    between atoms: C12_34  and  O6_35
REMARK   13  A    between atoms: C12_34  and  C13_37
REMARK   14  A    between atoms: C13_37  and  N8_39
REMARK   15  A    between atoms: C13_37  and  O7_43
ROOT
HETATM    1  C5  UNL     1      20.629  -5.022  71.178  1.00  0.00    -0.012 A
HETATM    2  C6  UNL     1      19.553  -4.173  71.472  1.00  0.00     0.047 A
HETATM    3  C7  UNL     1      19.628  -3.481  72.651  1.00  0.00     0.117 A
HETATM    4  C11 UNL     1      20.711  -3.617  73.506  1.00  0.00     0.283 A
HETATM    5  O5  UNL     1      20.651  -2.932  74.541  1.00  0.00    -0.265 OA
HETATM    6  N7  UNL     1      21.753  -4.429  73.240  1.00  0.00    -0.243 N
HETATM    7  C15 UNL     1      21.676  -5.121  72.056  1.00  0.00     0.134 A
HETATM    8  N9  UNL     1      22.729  -5.987  71.668  1.00  0.00    -0.081 NA
ENDROOT
BRANCH   3   9
HETATM    9  N2  UNL     1      18.569  -2.601  73.002  1.00  0.00    -0.294 N
HETATM   10  N3  UNL     1      18.773  -1.344  73.150  1.00  0.00    -0.280 N
ATOM     11  H3  UNL     1      19.715  -0.977  73.010  1.00  0.00     0.188 HD
ATOM     12  H2  UNL     1      17.630  -2.975  73.140  1.00  0.00     0.187 HD
BRANCH  10  13
HETATM   13  C8  UNL     1      17.733  -0.443  73.501  1.00  0.00     0.197 A
HETATM   14  C9  UNL     1      16.991  -0.556  74.665  1.00  0.00     0.192 A
HETATM   15  N4  UNL     1      16.123   0.457  74.644  1.00  0.00    -0.284 N
HETATM   16  C10 UNL     1      16.311   1.169  73.520  1.00  0.00     0.349 A
ATOM     17  H4  UNL     1      15.428   0.658  75.364  1.00  0.00     0.172 HD
HETATM   18  O4  UNL     1      15.675   2.202  73.150  1.00  0.00    -0.245 OA
HETATM   19  N5  UNL     1      17.317   0.620  72.790  1.00  0.00    -0.190 N
BRANCH  14  20
HETATM   20  O3  UNL     1      17.114  -1.523  75.665  1.00  0.00    -0.343 OA
ATOM     21  H3  UNL     1      16.420  -1.916  76.182  1.00  0.00     0.219 HD
ENDBRANCH  14  20
BRANCH  19  22
HETATM   22  N6  UNL     1      17.811   1.072  71.559  1.00  0.00    -0.333 N
ATOM     23  H62 UNL     1      18.200   0.503  70.808  1.00  0.00     0.177 HD
ATOM     24  H61 UNL     1      17.859   2.033  71.222  1.00  0.00     0.177 HD
ENDBRANCH  19  22
ENDBRANCH  10  13
ENDBRANCH   3   9
BRANCH   1  25
HETATM   25  C4  UNL     1      20.551  -5.797  69.929  1.00  0.00     0.080 C
BRANCH  25  26
HETATM   26  C3  UNL     1      20.553  -5.052  68.657  1.00  0.00     0.242 C
BRANCH  26  27
HETATM   27  C2  UNL     1      21.398  -5.897  67.679  1.00  0.00     0.286 C
BRANCH  27  28
HETATM   28  O1  UNL     1      20.892  -5.856  66.409  1.00  0.00    -0.364 OA
HETATM   29  C1  UNL     1      21.606  -5.065  65.522  1.00  0.00     0.204 C
ENDBRANCH  27  28
BRANCH  27  30
HETATM   30  O2  UNL     1      21.536  -7.195  68.174  1.00  0.00    -0.369 OA
ATOM     31  H2  UNL     1      21.617  -7.228  69.120  1.00  0.00     0.212 HD
ENDBRANCH  27  30
ENDBRANCH  26  27
BRANCH  26  32
HETATM   32  N1  UNL     1      19.323  -4.819  68.002  1.00  0.00    -0.070 N
ATOM     33  H13 UNL     1      19.275  -5.226  67.068  1.00  0.00     0.274 HD
ATOM     34  H12 UNL     1      18.542  -5.338  68.403  1.00  0.00     0.274 HD
ATOM     35  H11 UNL     1      19.189  -3.808  68.013  1.00  0.00     0.274 HD
ENDBRANCH  26  32
ENDBRANCH  25  26
ENDBRANCH   1  25
BRANCH   6  36
HETATM   36  C12 UNL     1      22.875  -4.626  74.053  1.00  0.00     0.191 C
BRANCH  36  37
HETATM   37  O6  UNL     1      23.029  -5.863  74.482  1.00  0.00    -0.345 OA
ATOM     38  H6  UNL     1      23.832  -6.282  74.194  1.00  0.00     0.219 HD
ENDBRANCH  36  37
BRANCH  36  39
HETATM   39  C13 UNL     1      23.933  -3.780  74.551  1.00  0.00     0.284 C
HETATM   40  C14 UNL     1      23.586  -3.533  76.049  1.00  0.00     0.088 C
BRANCH  39  41
HETATM   41  N8  UNL     1      23.699  -2.440  73.919  1.00  0.00    -0.039 N
ATOM     42  H83 UNL     1      22.986  -1.882  74.390  1.00  0.00     0.278 HD
ATOM     43  H82 UNL     1      24.469  -1.784  74.048  1.00  0.00     0.278 HD
ATOM     44  H81 UNL     1      23.487  -2.637  72.941  1.00  0.00     0.278 HD
ENDBRANCH  39  41
BRANCH  39  45
HETATM   45  O7  UNL     1      25.231  -4.099  74.414  1.00  0.00    -0.359 OA
ATOM     46  H7  UNL     1      25.523  -4.790  73.832  1.00  0.00     0.213 HD
ENDBRANCH  39  45
ENDBRANCH  36  39
ENDBRANCH   6  36
TORSDOF 15
ENDMDL