MODEL 2
REMARK VINA RESULT: -9.755289787      2.139      4.393
REMARK  10 active torsions:
REMARK  status: ('A' for Active; 'I' for Inactive)
REMARK    1  A    between atoms: O1_2  and  N1_3
REMARK       I    between atoms: C2_5  and  N2_6
REMARK       I    between atoms: C2_5  and  N9_27
REMARK    2  A    between atoms: N2_6  and  N3_8
REMARK    3  A    between atoms: N4_10  and  C3_12
REMARK    4  A    between atoms: C4_17  and  N7_18
REMARK    5  A    between atoms: N7_18  and  O2_20
REMARK    6  A    between atoms: O2_20  and  S1_21
REMARK    7  A    between atoms: C5_28  and  O6_29
REMARK    8  A    between atoms: C6_31  and  N10_32
REMARK    9  A    between atoms: N11_34  and  N12_36
REMARK   10  A    between atoms: N14_42  and  N15_44
ROOT
HETATM    1  N1  UNL     1      21.317  -4.102  74.948  1.00  0.00    -0.094 N
ATOM      2  H1  UNL     1      21.150  -3.511  75.762  1.00  0.00     0.213 HD
HETATM    3  C2  UNL     1      20.921  -3.665  73.811  1.00  0.00     0.741 C
HETATM    4  N2  UNL     1      21.127  -4.447  72.652  1.00  0.00    -0.114 N
ATOM      5  H2  UNL     1      20.404  -4.412  71.933  1.00  0.00     0.207 HD
HETATM    6  N9  UNL     1      20.276  -2.403  73.741  1.00  0.00     0.052 N
HETATM    7  C5  UNL     1      18.923  -2.189  73.773  1.00  0.00     0.228 A
HETATM    8  C6  UNL     1      18.650  -0.856  73.685  1.00  0.00     0.189 A
HETATM    9  N13 UNL     1      19.812  -0.230  73.598  1.00  0.00    -0.168 N
ATOM     10  H13 UNL     1      19.943   0.779  73.520  1.00  0.00     0.186 HD
HETATM   11  C7  UNL     1      20.804  -1.163  73.631  1.00  0.00     0.721 A
HETATM   12  N14 UNL     1      22.049  -0.875  73.567  1.00  0.00    -0.137 N
ATOM     13  H14 UNL     1      22.323   0.105  73.486  1.00  0.00     0.205 HD
ENDROOT
BRANCH   1  14
HETATM   14  O1  UNL     1      21.939  -5.287  75.155  1.00  0.00    -0.271 OA
HETATM   15  C1  UNL     1      21.238  -6.490  75.503  1.00  0.00     0.238 C
ENDBRANCH   1  14
BRANCH   4  16
HETATM   16  N3  UNL     1      22.216  -5.251  72.409  1.00  0.00    -0.214 N
HETATM   17  N4  UNL     1      22.389  -6.006  71.430  1.00  0.00    -0.115 N
ATOM     18  H4  UNL     1      23.262  -6.534  71.411  1.00  0.00     0.207 HD
ATOM     19  H3  UNL     1      22.963  -5.228  73.103  1.00  0.00     0.209 HD
BRANCH  17  20
HETATM   20  C3  UNL     1      21.513  -6.206  70.355  1.00  0.00     0.727 A
HETATM   21  N5  UNL     1      21.012  -5.217  69.562  1.00  0.00    -0.116 N
HETATM   22  N6  UNL     1      20.224  -5.722  68.647  1.00  0.00    -0.115 N
ATOM     23  H5  UNL     1      21.222  -4.224  69.667  1.00  0.00     0.206 HD
HETATM   24  C4  UNL     1      20.215  -7.051  68.852  1.00  0.00     0.732 A
ATOM     25  H6  UNL     1      19.719  -5.211  67.924  1.00  0.00     0.206 HD
HETATM   26  N8  UNL     1      20.994  -7.360  69.886  1.00  0.00    -0.017 N
ATOM     27  H8  UNL     1      21.166  -8.296  70.255  1.00  0.00     0.203 HD
BRANCH  24  28
HETATM   28  N7  UNL     1      19.552  -7.911  68.153  1.00  0.00    -0.075 N
ATOM     29  H7  UNL     1      18.852  -7.587  67.487  1.00  0.00     0.214 HD
BRANCH  28  30
HETATM   30  O2  UNL     1      19.781  -9.269  68.299  1.00  0.00    -0.117 OA
BRANCH  30  31
HETATM   31  S1  UNL     1      21.212  -9.975  67.674  1.00  0.00     0.274 S
HETATM   32  O3  UNL     1      21.817 -10.798  68.768  1.00  0.00    -0.571 OA
HETATM   33  O4  UNL     1      22.160  -8.879  67.223  1.00  0.00    -0.571 OA
HETATM   34  O5  UNL     1      20.808 -10.927  66.355  1.00  0.00    -0.571 OA
ENDBRANCH  30  31
ENDBRANCH  28  30
ENDBRANCH  24  28
ENDBRANCH  17  20
ENDBRANCH   4  16
BRANCH   7  35
HETATM   35  O6  UNL     1      18.015  -3.243  73.883  1.00  0.00    -0.342 OA
ATOM     36  H6  UNL     1      17.156  -3.208  73.479  1.00  0.00     0.219 HD
ENDBRANCH   7  35
BRANCH   8  37
HETATM   37  N10 UNL     1      17.337  -0.315  73.691  1.00  0.00    -0.267 N
HETATM   38  N11 UNL     1      16.831   0.236  72.672  1.00  0.00    -0.248 N
ATOM     39  H11 UNL     1      15.885   0.615  72.710  1.00  0.00     0.207 HD
ATOM     40  H10 UNL     1      16.783  -0.374  74.546  1.00  0.00     0.190 HD
BRANCH  38  41
HETATM   41  N12 UNL     1      17.574   0.323  71.499  1.00  0.00    -0.331 N
ATOM     42 2H12 UNL     1      17.251   0.937  70.750  1.00  0.00     0.178 HD
ATOM     43 1H12 UNL     1      18.428  -0.226  71.401  1.00  0.00     0.178 HD
ENDBRANCH  38  41
ENDBRANCH   8  37
BRANCH  12  44
HETATM   44  N15 UNL     1      23.039  -1.844  73.603  1.00  0.00    -0.331 N
ATOM     45 2H15 UNL     1      24.008  -1.532  73.673  1.00  0.00     0.177 HD
ATOM     46 1H15 UNL     1      22.829  -2.841  73.562  1.00  0.00     0.177 HD
ENDBRANCH  12  44
TORSDOF 10
ENDMDL