MODEL 5
REMARK VINA RESULT: -3.811331380      3.566      5.482
REMARK  2 active torsions:
REMARK  status: ('A' for Active; 'I' for Inactive)
REMARK    1  A    between atoms: N1_2  and  N2_4
REMARK    2  A    between atoms: C3_6  and  C4_7
ROOT
HETATM    1  C4  UNL     1      18.556   2.949   9.033  1.00  0.00     0.251 C
HETATM    2  C5  UNL     1      18.412   1.446   9.026  1.00  0.00     0.270 C
HETATM    3  N3  UNL     1      18.588   1.032  10.426  1.00  0.00    -0.071 N
ATOM      4  H31 UNL     1      19.574   1.031  10.683  1.00  0.00     0.277 HD
ATOM      5  H32 UNL     1      18.384   0.038  10.539  1.00  0.00     0.277 HD
HETATM    6  C6  UNL     1      17.830   1.807  11.336  1.00  0.00     0.260 C
HETATM    7  C7  UNL     1      16.893   2.794  10.751  1.00  0.00     0.260 C
HETATM    8  N4  UNL     1      17.339   3.484   9.593  1.00  0.00    -0.063 N
ATOM      9  H41 UNL     1      16.602   3.517   8.887  1.00  0.00     0.278 HD
ATOM     10  H42 UNL     1      17.437   4.481   9.784  1.00  0.00     0.278 HD
ENDROOT
BRANCH   1  11
HETATM   11  C3  UNL     1      18.849   3.519   7.727  1.00  0.00     0.114 C
HETATM   12  N2  UNL     1      19.637   4.517   7.510  1.00  0.00    -0.317 N
ATOM     13  H2  UNL     1      20.100   4.953   8.308  1.00  0.00     0.185 HD
BRANCH  12  14
HETATM   14  N1  UNL     1      19.886   5.029   6.242  1.00  0.00    -0.337 N
HETATM   15  C1  UNL     1      20.051   6.479   6.110  1.00  0.00     0.170 C
HETATM   16  C2  UNL     1      19.974   4.139   5.106  1.00  0.00     0.170 C
ENDBRANCH  12  14
ENDBRANCH   1  11
TORSDOF 2
ENDMDL