MODEL 2
REMARK VINA RESULT: -4.027396074      0.865      1.843
REMARK  2 active torsions:
REMARK  status: ('A' for Active; 'I' for Inactive)
REMARK    1  A    between atoms: N1_4  and  C4_5
REMARK    2  A    between atoms: C4_5  and  C5_6
ROOT
HETATM    1  C5  UNL     1      18.967   2.017   8.108  1.00  0.00     0.410 C
HETATM    2  N2  UNL     1      19.146   1.225   9.317  1.00  0.00    -0.043 N
ATOM      3  H21 UNL     1      19.815   1.605   9.985  1.00  0.00     0.279 HD
ATOM      4  H22 UNL     1      19.633   0.339   9.183  1.00  0.00     0.279 HD
HETATM    5  C6  UNL     1      17.792   1.108   9.808  1.00  0.00     0.262 C
HETATM    6  C7  UNL     1      16.987   0.902   8.565  1.00  0.00     0.262 C
HETATM    7  N3  UNL     1      17.795   1.425   7.508  1.00  0.00    -0.043 N
ATOM      8  H31 UNL     1      18.020   0.728   6.799  1.00  0.00     0.279 HD
ATOM      9  H32 UNL     1      17.288   2.072   6.904  1.00  0.00     0.279 HD
ENDROOT
BRANCH   1  10
HETATM   10  C4  UNL     1      20.135   1.792   7.193  1.00  0.00     0.334 C
BRANCH  10  11
HETATM   11  N1  UNL     1      20.615   3.030   6.596  1.00  0.00     0.092 N
HETATM   12  C3  UNL     1      20.092   3.102   5.239  1.00  0.00     0.272 C
HETATM   13  C2  UNL     1      20.041   4.600   5.020  1.00  0.00     0.032 C
HETATM   14  C1  UNL     1      19.261   4.979   6.287  1.00  0.00     0.032 C
HETATM   15  C8  UNL     1      20.049   4.179   7.299  1.00  0.00     0.272 C
ENDBRANCH  10  11
ENDBRANCH   1  10
TORSDOF 2
ENDMDL