MODEL 5
REMARK VINA RESULT: -3.755037078      1.489      2.553
REMARK  2 active torsions:
REMARK  status: ('A' for Active; 'I' for Inactive)
REMARK    1  A    between atoms: N1_2  and  C3_4
REMARK    2  A    between atoms: C3_4  and  C4_5
ROOT
HETATM    1  C4  UNL     1      19.002   4.489   5.405  1.00  0.00     0.075 C
HETATM    2  C5  UNL     1      18.657   4.159   6.836  1.00  0.00     0.243 C
HETATM    3  N2  UNL     1      19.773   3.788   7.646  1.00  0.00    -0.073 N
ATOM      4  H21 UNL     1      19.699   4.210   8.572  1.00  0.00     0.277 HD
ATOM      5  H22 UNL     1      20.623   4.245   7.316  1.00  0.00     0.277 HD
HETATM    6  C6  UNL     1      19.972   2.360   7.753  1.00  0.00     0.259 C
HETATM    7  C7  UNL     1      20.480   1.765   6.459  1.00  0.00     0.259 C
HETATM    8  N3  UNL     1      19.738   2.235   5.314  1.00  0.00    -0.073 N
ATOM      9  H31 UNL     1      18.733   2.149   5.468  1.00  0.00     0.277 HD
ATOM     10  H32 UNL     1      19.838   1.597   4.524  1.00  0.00     0.277 HD
HETATM   11  C8  UNL     1      20.097   3.594   4.939  1.00  0.00     0.243 C
ENDROOT
BRANCH   1  12
HETATM   12  C3  UNL     1      19.247   5.957   5.255  1.00  0.00     0.065 C
BRANCH  12  13
HETATM   13  N1  UNL     1      18.189   6.744   4.778  1.00  0.00    -0.401 N
HETATM   14  C1  UNL     1      17.349   7.436   5.661  1.00  0.00     0.148 C
HETATM   15  C2  UNL     1      17.750   6.533   3.441  1.00  0.00     0.148 C
ENDBRANCH  12  13
ENDBRANCH   1  12
TORSDOF 2
ENDMDL