MODEL 2
REMARK VINA RESULT: -4.237566973      3.031      4.587
REMARK  1 active torsions:
REMARK  status: ('A' for Active; 'I' for Inactive)
REMARK    1  A    between atoms: O1_2  and  C2_3
REMARK       I    between atoms: N1_6  and  C5_7
REMARK       I    between atoms: C5_7  and  N2_8
REMARK       I    between atoms: C5_7  and  N3_12
ROOT
HETATM    1  C2  UNL     1      19.389   3.319   5.792  1.00  0.00     0.151 C
HETATM    2  C3  UNL     1      20.455   3.623   6.831  1.00  0.00     0.064 C
HETATM    3  C4  UNL     1      19.921   3.084   8.123  1.00  0.00     0.280 C
HETATM    4  N1  UNL     1      18.770   2.307   7.852  1.00  0.00     0.149 N
HETATM    5  C5  UNL     1      18.744   1.009   8.448  1.00  0.00     0.612 C
HETATM    6  N2  UNL     1      17.494   0.382   8.052  1.00  0.00    -0.024 N
ATOM      7  H21 UNL     1      17.475  -0.544   8.478  1.00  0.00     0.279 HD
ATOM      8  H22 UNL     1      17.360   0.361   7.041  1.00  0.00     0.279 HD
ATOM      9  H23 UNL     1      16.674   0.945   8.281  1.00  0.00     0.279 HD
HETATM   10  N3  UNL     1      18.840   1.136   9.888  1.00  0.00    -0.024 N
ATOM     11  H31 UNL     1      18.821   0.209  10.314  1.00  0.00     0.279 HD
ATOM     12  H32 UNL     1      18.121   1.750  10.270  1.00  0.00     0.279 HD
ATOM     13  H33 UNL     1      19.658   1.674  10.173  1.00  0.00     0.279 HD
HETATM   14  C6  UNL     1      18.436   2.367   6.480  1.00  0.00     0.309 C
ENDROOT
BRANCH   1  15
HETATM   15  O1  UNL     1      18.737   4.479   5.402  1.00  0.00    -0.389 OA
HETATM   16  C1  UNL     1      19.692   5.464   5.174  1.00  0.00     0.202 C
ENDBRANCH   1  15
TORSDOF 1
ENDMDL