MODEL 2
REMARK VINA RESULT: -4.179080830      3.080      4.602
REMARK  4 active torsions:
REMARK  status: ('A' for Active; 'I' for Inactive)
REMARK    1  A    between atoms: C2_2  and  C3_3
REMARK    2  A    between atoms: C3_3  and  N1_4
REMARK    3  A    between atoms: C5_6  and  N2_7
REMARK    4  A    between atoms: C7_12  and  O1_13
ROOT
HETATM    1  N1  UNL     1      19.961   2.691   8.286  1.00  0.00     0.092 N
HETATM    2  C4  UNL     1      19.180   3.853   8.546  1.00  0.00     0.305 C
HETATM    3  C5  UNL     1      17.732   3.450   8.658  1.00  0.00     0.214 C
HETATM    4  C6  UNL     1      17.654   2.562   9.878  1.00  0.00     0.068 C
HETATM    5  C7  UNL     1      18.438   1.324   9.564  1.00  0.00     0.148 C
HETATM    6  C8  UNL     1      19.278   1.439   8.337  1.00  0.00     0.303 C
ENDROOT
BRANCH   3   7
HETATM    7  N2  UNL     1      16.814   4.523   8.793  1.00  0.00    -0.073 N
ATOM      8  H23 UNL     1      15.985   4.348   8.225  1.00  0.00     0.274 HD
ATOM      9  H22 UNL     1      16.398   4.515   9.724  1.00  0.00     0.274 HD
ATOM     10  H21 UNL     1      17.191   5.447   8.586  1.00  0.00     0.274 HD
ENDBRANCH   3   7
BRANCH   1  11
HETATM   11  C3  UNL     1      20.791   2.883   7.142  1.00  0.00     0.272 C
BRANCH  11  12
HETATM   12  C2  UNL     1      20.145   2.484   5.846  1.00  0.00     0.026 C
HETATM   13  C1  UNL     1      20.141   3.720   4.945  1.00  0.00     0.007 C
ENDBRANCH  11  12
ENDBRANCH   1  11
BRANCH   5  14
HETATM   14  O1  UNL     1      17.609   0.196   9.415  1.00  0.00    -0.394 OA
ATOM     15  H1  UNL     1      17.491  -0.041   8.502  1.00  0.00     0.210 HD
ENDBRANCH   5  14
TORSDOF 4
ENDMDL