MODEL 2
REMARK VINA RESULT: -4.669671842      3.253      4.139
REMARK  4 active torsions:
REMARK  status: ('A' for Active; 'I' for Inactive)
REMARK    1  A    between atoms: O1_1  and  C1_3
REMARK    2  A    between atoms: C1_3  and  C2_4
REMARK    3  A    between atoms: C2_4  and  O2_5
REMARK    4  A    between atoms: C2_4  and  C3_7
ROOT
HETATM    1  C3  UNL     1      19.557   4.535   7.132  1.00  0.00     0.257 C
HETATM    2  C4  UNL     1      20.108   3.850   5.930  1.00  0.00     0.025 C
HETATM    3  C5  UNL     1      20.978   2.807   6.653  1.00  0.00     0.037 C
HETATM    4  C6  UNL     1      20.190   2.587   7.931  1.00  0.00     0.273 C
HETATM    5  N1  UNL     1      18.951   3.388   7.778  1.00  0.00     0.096 N
HETATM    6  C7  UNL     1      18.218   2.721   6.690  1.00  0.00     0.273 C
HETATM    7  C8  UNL     1      18.942   3.039   5.414  1.00  0.00     0.037 C
ENDROOT
BRANCH   1   8
HETATM    8  C2  UNL     1      18.818   5.758   7.013  1.00  0.00     0.175 C
BRANCH   8   9
HETATM    9  C1  UNL     1      19.083   6.743   5.948  1.00  0.00     0.198 C
BRANCH   9  10
HETATM   10  O1  UNL     1      20.226   7.476   6.385  1.00  0.00    -0.398 OA
ATOM     11  H1  UNL     1      20.671   7.746   5.591  1.00  0.00     0.209 HD
ENDBRANCH   9  10
ENDBRANCH   8   9
BRANCH   8  12
HETATM   12  O2  UNL     1      18.934   6.467   8.240  1.00  0.00    -0.391 OA
ATOM     13  H2  UNL     1      18.844   5.818   8.927  1.00  0.00     0.210 HD
ENDBRANCH   8  12
ENDBRANCH   1   8
TORSDOF 4
ENDMDL