MODEL 5
REMARK VINA RESULT: -4.257069507      1.819      4.165
REMARK  3 active torsions:
REMARK  status: ('A' for Active; 'I' for Inactive)
REMARK    1  A    between atoms: N1_1  and  C1_5
REMARK    2  A    between atoms: C1_5  and  C2_6
REMARK    3  A    between atoms: C2_6  and  N2_7
ROOT
HETATM    1  N2  UNL     1      18.518   3.695   8.146  1.00  0.00     0.090 N
HETATM    2  C3  UNL     1      17.771   2.828   7.273  1.00  0.00     0.274 C
HETATM    3  C4  UNL     1      17.464   3.416   5.936  1.00  0.00     0.057 C
HETATM    4  C5  UNL     1      18.014   2.600   4.794  1.00  0.00     0.234 C
HETATM    5  N3  UNL     1      19.338   2.084   5.059  1.00  0.00    -0.075 N
ATOM      6  H31 UNL     1      19.669   1.526   4.272  1.00  0.00     0.277 HD
ATOM      7  H32 UNL     1      19.304   1.363   5.779  1.00  0.00     0.277 HD
HETATM    8  C6  UNL     1      20.295   3.089   5.399  1.00  0.00     0.234 C
HETATM    9  C7  UNL     1      20.530   3.043   6.904  1.00  0.00     0.057 C
HETATM   10  C8  UNL     1      19.749   4.139   7.584  1.00  0.00     0.274 C
ENDROOT
BRANCH   1  11
HETATM   11  C2  UNL     1      18.598   3.093   9.433  1.00  0.00     0.299 C
BRANCH  11  12
HETATM   12  C1  UNL     1      18.197   1.660   9.503  1.00  0.00     0.259 C
BRANCH  12  13
HETATM   13  N1  UNL     1      18.519   1.197  10.864  1.00  0.00    -0.078 N
ATOM     14  H13 UNL     1      17.957   1.647  11.587  1.00  0.00     0.274 HD
ATOM     15  H12 UNL     1      18.218   0.239  11.046  1.00  0.00     0.274 HD
ATOM     16  H11 UNL     1      19.522   1.334  10.990  1.00  0.00     0.274 HD
ENDBRANCH  12  13
ENDBRANCH  11  12
ENDBRANCH   1  11
TORSDOF 3
ENDMDL