MODEL 5
REMARK VINA RESULT: -3.959683829      3.378      5.080
REMARK  4 active torsions:
REMARK  status: ('A' for Active; 'I' for Inactive)
REMARK    1  A    between atoms: C3_3  and  C4_4
REMARK    2  A    between atoms: C5_5  and  O1_6
REMARK    3  A    between atoms: C6_8  and  O2_9
REMARK    4  A    between atoms: C7_11  and  O3_12
ROOT
HETATM    1  C4  UNL     1      19.298   2.808   8.343  1.00  0.00     0.071 C
HETATM    2  C5  UNL     1      19.368   1.294   8.125  1.00  0.00     0.159 C
HETATM    3  C6  UNL     1      17.866   1.266   8.259  1.00  0.00     0.177 C
HETATM    4  C7  UNL     1      17.971   2.608   8.949  1.00  0.00     0.162 C
ENDROOT
BRANCH   1   5
HETATM    5  C3  UNL     1      19.491   3.493   7.081  1.00  0.00    -0.021 C
HETATM    6  C2  UNL     1      20.109   3.133   5.990  1.00  0.00    -0.034 C
HETATM    7  C1  UNL     1      20.192   4.001   4.785  1.00  0.00     0.036 C
ENDBRANCH   1   5
BRANCH   2   8
HETATM    8  O1  UNL     1      19.945   0.665   9.228  1.00  0.00    -0.392 OA
ATOM      9  H1  UNL     1      20.814   0.345   9.014  1.00  0.00     0.210 HD
ENDBRANCH   2   8
BRANCH   4  10
HETATM   10  O3  UNL     1      16.932   3.448   8.696  1.00  0.00    -0.387 OA
HETATM   11  C8  UNL     1      16.395   3.891   9.900  1.00  0.00     0.202 C
ENDBRANCH   4  10
BRANCH   3  12
HETATM   12  O2  UNL     1      17.201   1.267   7.034  1.00  0.00    -0.390 OA
ATOM     13  H2  UNL     1      17.444   0.539   6.473  1.00  0.00     0.210 HD
ENDBRANCH   3  12
TORSDOF 4
ENDMDL