MODEL 2
REMARK VINA RESULT: -4.338908804      2.120      4.416
REMARK  2 active torsions:
REMARK  status: ('A' for Active; 'I' for Inactive)
REMARK    1  A    between atoms: N1_3  and  C3_4
REMARK    2  A    between atoms: C3_4  and  C4_5
ROOT
HETATM    1  C1  UNL     1      18.111   2.534   5.513  1.00  0.00     0.252 C
HETATM    2  C2  UNL     1      18.212   3.687   6.536  1.00  0.00     0.149 C
HETATM    3  N1  UNL     1      19.010   3.255   7.588  1.00  0.00    -0.390 N
HETATM    4  C7  UNL     1      20.365   2.873   7.253  1.00  0.00     0.149 C
HETATM    5  C8  UNL     1      20.482   2.925   5.744  1.00  0.00     0.252 C
HETATM    6  N3  UNL     1      19.433   2.151   5.124  1.00  0.00    -0.072 N
ATOM      7  H31 UNL     1      19.526   2.172   4.109  1.00  0.00     0.277 HD
ATOM      8  H32 UNL     1      19.579   1.155   5.291  1.00  0.00     0.277 HD
ENDROOT
BRANCH   3   9
HETATM    9  C3  UNL     1      18.746   3.428   8.933  1.00  0.00     0.066 C
BRANCH   9  10
HETATM   10  C4  UNL     1      17.605   2.606   9.448  1.00  0.00     0.075 C
HETATM   11  C5  UNL     1      17.882   1.087   9.300  1.00  0.00     0.243 C
HETATM   12  N2  UNL     1      18.501   1.144  10.586  1.00  0.00    -0.074 N
HETATM   13  C6  UNL     1      17.594   2.226  10.899  1.00  0.00     0.243 C
ATOM     14  H22 UNL     1      18.561   0.317  11.180  1.00  0.00     0.277 HD
ATOM     15  H21 UNL     1      19.510   1.256  10.682  1.00  0.00     0.277 HD
ENDBRANCH   9  10
ENDBRANCH   3   9
TORSDOF 2
ENDMDL