MODEL 2
REMARK VINA RESULT: -5.766069885      2.578      5.600
REMARK  3 active torsions:
REMARK  status: ('A' for Active; 'I' for Inactive)
REMARK    1  A    between atoms: C2_3  and  O1_4
REMARK    2  A    between atoms: C9_12  and  N2_13
REMARK    3  A    between atoms: C9_12  and  O2_17
ROOT
HETATM    1  N1  UNL     1      13.531  29.240 -22.001  1.00  0.00    -0.189 NA
HETATM    2  C1  UNL     1      12.496  29.142 -21.444  1.00  0.00     0.125 C
HETATM    3  C2  UNL     1      11.238  29.007 -20.800  1.00  0.00     0.155 C
HETATM    4  C3  UNL     1      11.056  29.350 -19.567  1.00  0.00     0.009 C
HETATM    5  C4  UNL     1       9.737  29.214 -18.869  1.00  0.00     0.044 C
HETATM    6  C5  UNL     1       9.871  28.426 -17.591  1.00  0.00     0.006 C
HETATM    7  C6  UNL     1      11.213  28.454 -16.961  1.00  0.00     0.011 C
HETATM    8  C7  UNL     1      12.022  29.665 -17.278  1.00  0.00     0.040 C
HETATM    9  C8  UNL     1      13.439  29.557 -16.792  1.00  0.00     0.080 C
HETATM   10  C9  UNL     1      14.033  30.954 -17.024  1.00  0.00     0.238 C
HETATM   11  C10 UNL     1      14.181  31.133 -18.498  1.00  0.00     0.188 C
HETATM   12  N3  UNL     1      13.101  30.566 -19.265  1.00  0.00    -0.388 N
ATOM     13  H3  UNL     1      13.114  30.698 -20.276  1.00  0.00     0.159 HD
HETATM   14  C11 UNL     1      12.122  29.904 -18.759  1.00  0.00     0.019 C
ENDROOT
BRANCH   3  15
HETATM   15  O1  UNL     1      10.182  28.475 -21.568  1.00  0.00    -0.351 OA
ATOM     16  H1  UNL     1       9.977  27.556 -21.440  1.00  0.00     0.218 HD
ENDBRANCH   3  15
BRANCH  10  17
HETATM   17  N2  UNL     1      15.245  31.024 -16.289  1.00  0.00    -0.045 N
ATOM     18  H23 UNL     1      15.125  30.807 -15.300  1.00  0.00     0.278 HD
ATOM     19  H22 UNL     1      15.891  30.267 -16.513  1.00  0.00     0.278 HD
ATOM     20  H21 UNL     1      15.643  31.949 -16.449  1.00  0.00     0.278 HD
ENDBRANCH  10  17
BRANCH  10  21
HETATM   21  O2  UNL     1      13.125  31.927 -16.559  1.00  0.00    -0.364 OA
ATOM     22  H2  UNL     1      12.594  32.230 -17.286  1.00  0.00     0.212 HD
ENDBRANCH  10  21
TORSDOF 3
ENDMDL