MODEL 2
REMARK VINA RESULT: -5.293990471      3.494      5.408
REMARK  3 active torsions:
REMARK  status: ('A' for Active; 'I' for Inactive)
REMARK    1  A    between atoms: C3_4  and  N2_5
REMARK    2  A    between atoms: N3_7  and  C4_9
REMARK    3  A    between atoms: C5_16  and  N6_17
ROOT
HETATM    1  N1  UNL     1      12.681  28.362 -23.082  1.00  0.00    -0.191 NA
HETATM    2  C1  UNL     1      11.862  28.866 -22.438  1.00  0.00     0.107 C
HETATM    3  C2  UNL     1      10.861  29.500 -21.620  1.00  0.00     0.136 A
HETATM    4  C3  UNL     1      11.024  29.943 -20.322  1.00  0.00     0.159 A
HETATM    5  N4  UNL     1       9.821  30.459 -19.983  1.00  0.00    -0.281 N
ATOM      6  H4  UNL     1       9.608  30.875 -19.076  1.00  0.00     0.188 HD
HETATM    7  N5  UNL     1       8.960  30.357 -20.974  1.00  0.00    -0.283 N
ATOM      8  H5  UNL     1       7.991  30.675 -20.955  1.00  0.00     0.188 HD
HETATM    9  C5  UNL     1       9.568  29.764 -22.018  1.00  0.00     0.138 A
ENDROOT
BRANCH   4  10
HETATM   10  N2  UNL     1      12.207  29.860 -19.540  1.00  0.00    -0.282 N
HETATM   11  N3  UNL     1      12.406  30.596 -18.522  1.00  0.00    -0.282 N
ATOM     12  H3  UNL     1      11.686  31.269 -18.259  1.00  0.00     0.188 HD
ATOM     13  H2  UNL     1      12.924  29.186 -19.806  1.00  0.00     0.188 HD
BRANCH  11  14
HETATM   14  C4  UNL     1      13.580  30.522 -17.737  1.00  0.00     0.164 C
HETATM   15  S1  UNL     1      13.464  29.723 -16.303  1.00  0.00    -0.050 SA
HETATM   16  S2  UNL     1      15.134  31.245 -18.238  1.00  0.00    -0.019 SA
ENDBRANCH  11  14
ENDBRANCH   4  10
BRANCH   9  17
HETATM   17  N6  UNL     1       9.014  29.506 -23.161  1.00  0.00    -0.383 N
ATOM     18  H62 UNL     1       8.980  30.142 -23.957  1.00  0.00     0.157 HD
ATOM     19  H61 UNL     1       8.535  28.653 -23.450  1.00  0.00     0.157 HD
ENDBRANCH   9  17
TORSDOF 3
ENDMDL