MODEL 4
REMARK VINA RESULT: -4.653538345      1.912      3.507
REMARK  1 active torsions:
REMARK  status: ('A' for Active; 'I' for Inactive)
REMARK    1  A    between atoms: C2_2  and  C3_3
ROOT
HETATM    1  C3  UNL     1       6.288  24.141 -28.757  1.00  0.00     0.086 C
HETATM    2  C4  UNL     1       6.059  23.686 -27.318  1.00  0.00     0.046 C
HETATM    3  N1  UNL     1       6.677  23.010 -29.515  1.00  0.00    -0.355 N
ATOM      4  H1  UNL     1       6.217  22.130 -29.283  1.00  0.00     0.162 HD
HETATM    5  C5  UNL     1       7.629  22.963 -30.554  1.00  0.00     0.140 C
HETATM    6  N2  UNL     1       8.105  21.847 -30.960  1.00  0.00    -0.380 N
ATOM      7  H21 UNL     1       8.794  21.813 -31.712  1.00  0.00     0.158 HD
ATOM      8  H22 UNL     1       7.817  20.956 -30.553  1.00  0.00     0.158 HD
HETATM    9  S1  UNL     1       8.134  24.530 -31.271  1.00  0.00    -0.039 SA
HETATM   10  C6  UNL     1       7.695  25.759 -30.027  1.00  0.00     0.088 C
HETATM   11  N3  UNL     1       7.797  27.002 -30.344  1.00  0.00    -0.394 N
ATOM     12  H31 UNL     1       7.549  27.697 -29.640  1.00  0.00     0.156 HD
ATOM     13  H32 UNL     1       8.112  27.336 -31.254  1.00  0.00     0.156 HD
HETATM   14  C7  UNL     1       7.244  25.280 -28.722  1.00  0.00     0.213 C
HETATM   15  C8  UNL     1       6.559  26.413 -28.065  1.00  0.00     0.094 C
HETATM   16  N4  UNL     1       6.033  27.314 -27.557  1.00  0.00    -0.195 NA
HETATM   17  C9  UNL     1       8.402  24.871 -27.909  1.00  0.00     0.094 C
HETATM   18  N5  UNL     1       9.309  24.559 -27.255  1.00  0.00    -0.195 NA
ENDROOT
BRANCH   1  19
HETATM   19  C2  UNL     1       4.986  24.639 -29.280  1.00  0.00    -0.004 C
HETATM   20  C1  UNL     1       3.830  24.222 -28.811  1.00  0.00     0.009 C
ENDBRANCH   1  19
TORSDOF 1
ENDMDL