MODEL 3
REMARK VINA RESULT: -5.084595550      5.324      7.850
REMARK  3 active torsions:
REMARK  status: ('A' for Active; 'I' for Inactive)
REMARK    1  A    between atoms: C2_2  and  N1_5
REMARK    2  A    between atoms: N1_5  and  C5_7
REMARK    3  A    between atoms: C6_11  and  N3_12
ROOT
HETATM    1  C5  UNL     1       9.875  26.411 -23.382  1.00  0.00     0.134 A
HETATM    2  N2  UNL     1       8.543  26.575 -23.497  1.00  0.00    -0.309 N
ATOM      3  H2  UNL     1       8.111  27.488 -23.362  1.00  0.00     0.176 HD
HETATM    4  S1  UNL     1       7.617  25.221 -23.869  1.00  0.00     0.006 SA
HETATM    5  C6  UNL     1       8.552  23.815 -24.045  1.00  0.00     0.107 A
HETATM    6  C7  UNL     1       9.913  24.005 -23.856  1.00  0.00     0.107 A
HETATM    7  C8  UNL     1      10.739  22.799 -24.003  1.00  0.00     0.104 C
HETATM    8  N4  UNL     1      11.372  21.835 -24.124  1.00  0.00    -0.191 NA
HETATM    9  C9  UNL     1      10.511  25.191 -23.553  1.00  0.00     0.114 A
HETATM   10  N5  UNL     1      11.954  25.138 -23.403  1.00  0.00    -0.097 NA
ENDROOT
BRANCH   5  11
HETATM   11  N3  UNL     1       8.030  22.669 -24.330  1.00  0.00    -0.391 N
ATOM     12  H32 UNL     1       8.044  22.265 -25.267  1.00  0.00     0.157 HD
ATOM     13  H31 UNL     1       7.567  22.091 -23.629  1.00  0.00     0.157 HD
ENDBRANCH   5  11
BRANCH   1  14
HETATM   14  N1  UNL     1      10.658  27.387 -23.100  1.00  0.00    -0.366 N
ATOM     15  H1  UNL     1      11.536  27.381 -23.618  1.00  0.00     0.162 HD
BRANCH  14  16
HETATM   16  C2  UNL     1      10.525  28.461 -22.208  1.00  0.00     0.021 C
HETATM   17  C1  UNL     1      10.073  28.106 -20.818  1.00  0.00     0.037 C
HETATM   18  C3  UNL     1      11.945  29.044 -22.041  1.00  0.00     0.037 C
HETATM   19  C4  UNL     1       9.695  29.624 -22.725  1.00  0.00     0.037 C
ENDBRANCH  14  16
ENDBRANCH   1  14
TORSDOF 3
ENDMDL