MODEL 2
REMARK VINA RESULT: -5.292179892     11.989     13.252
REMARK  2 active torsions:
REMARK  status: ('A' for Active; 'I' for Inactive)
REMARK    1  A    between atoms: C9_16  and  N4_17
REMARK    2  A    between atoms: N4_17  and  O1_19
ROOT
HETATM    1  N1  UNL     1       7.620  19.529 -20.874  1.00  0.00    -0.386 N
ATOM      2  H11 UNL     1       7.806  20.410 -21.354  1.00  0.00     0.157 HD
ATOM      3  H12 UNL     1       6.769  19.532 -20.314  1.00  0.00     0.157 HD
HETATM    4  C1  UNL     1       8.387  18.518 -20.969  1.00  0.00     0.111 C
HETATM    5  N2  UNL     1       8.129  17.293 -20.303  1.00  0.00    -0.372 N
ATOM      6  H2  UNL     1       7.198  17.151 -19.908  1.00  0.00     0.161 HD
HETATM    7  C2  UNL     1       9.101  16.235 -20.147  1.00  0.00     0.087 C
HETATM    8  C3  UNL     1       8.998  15.770 -18.704  1.00  0.00     0.025 C
HETATM    9  C4  UNL     1      10.007  16.691 -18.031  1.00  0.00     0.002 C
HETATM   10  C5  UNL     1      11.190  16.528 -18.971  1.00  0.00     0.007 C
HETATM   11  C6  UNL     1      10.513  16.679 -20.325  1.00  0.00     0.012 C
HETATM   12  C7  UNL     1      10.718  18.057 -20.802  1.00  0.00     0.058 C
HETATM   13  C8  UNL     1       9.659  18.514 -21.806  1.00  0.00     0.146 A
HETATM   14  N3  UNL     1       9.513  17.782 -22.946  1.00  0.00    -0.344 N
ATOM     15  H3  UNL     1       9.295  16.792 -23.061  1.00  0.00     0.163 HD
HETATM   16  C9  UNL     1       9.717  18.647 -23.800  1.00  0.00     0.164 A
HETATM   17  S1  UNL     1       9.994  19.969 -22.690  1.00  0.00    -0.053 SA
ENDROOT
BRANCH  16  18
HETATM   18  N4  UNL     1       9.711  18.524 -25.272  1.00  0.00    -0.247 N
ATOM     19  H4  UNL     1       9.036  19.041 -25.835  1.00  0.00     0.196 HD
BRANCH  18  20
HETATM   20  O1  UNL     1      10.606  17.720 -25.849  1.00  0.00    -0.288 OA
ATOM     21  H1  UNL     1      11.177  18.080 -26.516  1.00  0.00     0.244 HD
ENDBRANCH  18  20
ENDBRANCH  16  18
TORSDOF 2
ENDMDL