MODEL 4
REMARK VINA RESULT: -4.067795742     11.274     12.196
REMARK  1 active torsions:
REMARK  status: ('A' for Active; 'I' for Inactive)
REMARK    1  A    between atoms: C7_16  and  O1_17
ROOT
HETATM    1  C1  UNL     1       6.784  19.834 -18.113  1.00  0.00     0.043 C
HETATM    2  C2  UNL     1       7.363  19.231 -19.355  1.00  0.00     0.136 C
HETATM    3  N1  UNL     1       8.326  18.230 -19.071  1.00  0.00    -0.388 N
ATOM      4  H1  UNL     1       8.498  17.936 -18.110  1.00  0.00     0.156 HD
HETATM    5  C3  UNL     1       9.032  17.656 -20.117  1.00  0.00     0.128 C
HETATM    6  C4  UNL     1       8.418  17.213 -21.347  1.00  0.00     0.057 C
HETATM    7  C5  UNL     1       7.077  17.714 -21.741  1.00  0.00     0.079 C
HETATM    8  S1  UNL     1       6.095  18.321 -20.320  1.00  0.00    -0.144 SA
HETATM    9  S2  UNL     1      10.020  16.252 -19.420  1.00  0.00    -0.059 SA
HETATM   10  C6  UNL     1      11.516  16.580 -20.396  1.00  0.00     0.138 C
HETATM   11  N2  UNL     1      12.614  15.929 -20.406  1.00  0.00    -0.380 N
ATOM     12  H21 UNL     1      13.454  16.113 -20.954  1.00  0.00     0.158 HD
ATOM     13  H22 UNL     1      12.857  15.100 -19.864  1.00  0.00     0.158 HD
HETATM   14  N3  UNL     1      11.176  17.736 -21.152  1.00  0.00    -0.342 N
ATOM     15  H3  UNL     1      11.546  17.952 -22.078  1.00  0.00     0.164 HD
HETATM   16  C7  UNL     1      10.234  18.567 -20.430  1.00  0.00     0.258 C
ENDROOT
BRANCH  16  17
HETATM   17  O1  UNL     1       9.883  19.644 -21.198  1.00  0.00    -0.373 OA
ATOM     18  H1  UNL     1      10.176  19.555 -22.097  1.00  0.00     0.212 HD
ENDBRANCH  16  17
TORSDOF 1
ENDMDL