MODEL 2
REMARK VINA RESULT: -4.746794974     10.703     11.778
REMARK  0 active torsions:
REMARK  status: ('A' for Active; 'I' for Inactive)
ROOT
HETATM    1  C1  UNL     1      10.415  16.910 -18.017  1.00  0.00     0.041 C
HETATM    2  C2  UNL     1       9.617  16.690 -19.252  1.00  0.00     0.079 C
HETATM    3  C3  UNL     1       8.613  15.602 -19.002  1.00  0.00     0.041 C
HETATM    4  N1  UNL     1      10.536  16.221 -20.306  1.00  0.00    -0.113 NA
HETATM    5  N2  UNL     1      11.667  17.008 -20.385  1.00  0.00    -0.238 N
ATOM      6  H2  UNL     1      12.539  16.762 -19.915  1.00  0.00     0.200 HD
HETATM    7  N3  UNL     1      11.535  18.148 -21.145  1.00  0.00    -0.049 NA
HETATM    8  S1  UNL     1       9.815  18.570 -21.278  1.00  0.00    -0.002 SA
HETATM    9  C4  UNL     1       9.019  17.918 -19.813  1.00  0.00     0.026 C
HETATM   10  C5  UNL     1       7.967  18.565 -19.337  1.00  0.00    -0.054 C
HETATM   11  C6  UNL     1       7.409  19.763 -19.912  1.00  0.00     0.046 C
HETATM   12  C7  UNL     1       6.727  20.608 -18.918  1.00  0.00     0.078 C
HETATM   13  S2  UNL     1       6.647  19.645 -17.405  1.00  0.00    -0.164 SA
HETATM   14  C8  UNL     1       7.264  18.073 -18.126  1.00  0.00     0.109 C
ENDROOT
TORSDOF 0
ENDMDL