MODEL 1
REMARK VINA RESULT: -5.055367638      0.000      0.000
REMARK  2 active torsions:
REMARK  status: ('A' for Active; 'I' for Inactive)
REMARK    1  A    between atoms: C2_2  and  C4_4
REMARK    2  A    between atoms: C7_10  and  O1_12
ROOT
HETATM    1  C4  UNL     1       9.951  27.153 -23.138  1.00  0.00     0.211 C
HETATM    2  N1  UNL     1       8.655  26.778 -23.568  1.00  0.00    -0.386 N
ATOM      3  H1  UNL     1       8.021  27.451 -23.998  1.00  0.00     0.156 HD
HETATM    4  C5  UNL     1       8.278  25.432 -23.373  1.00  0.00     0.158 C
HETATM    5  S1  UNL     1       8.245  24.811 -21.686  1.00  0.00    -0.104 SA
HETATM    6  C6  UNL     1       8.534  23.457 -22.821  1.00  0.00     0.039 C
HETATM    7  C7  UNL     1       8.176  22.194 -22.910  1.00  0.00     0.163 C
HETATM    8  N2  UNL     1       7.345  21.648 -21.909  1.00  0.00    -0.074 NA
HETATM    9  C8  UNL     1       9.372  24.423 -23.619  1.00  0.00     0.110 C
HETATM   10  C9  UNL     1      10.579  24.843 -22.847  1.00  0.00     0.260 A
HETATM   11  O2  UNL     1      11.633  25.477 -23.488  1.00  0.00    -0.275 OA
HETATM   12  N3  UNL     1      10.748  26.148 -22.549  1.00  0.00    -0.136 NA
ENDROOT
BRANCH   7  13
HETATM   13  O1  UNL     1       8.589  21.404 -23.948  1.00  0.00    -0.348 OA
ATOM     14  H1  UNL     1       8.968  20.546 -23.800  1.00  0.00     0.219 HD
ENDBRANCH   7  13
BRANCH   1  15
HETATM   15  C2  UNL     1       9.913  28.327 -22.194  1.00  0.00    -0.055 C
HETATM   16  C1  UNL     1      10.125  28.125 -20.904  1.00  0.00     0.017 C
HETATM   17  C3  UNL     1       9.646  29.700 -22.679  1.00  0.00     0.046 C
ENDBRANCH   1  15
TORSDOF 2
ENDMDL