MODEL 1
REMARK VINA RESULT: -5.575407455      0.000      0.000
REMARK  2 active torsions:
REMARK  status: ('A' for Active; 'I' for Inactive)
REMARK    1  A    between atoms: C6_12  and  N4_13
REMARK    2  A    between atoms: C7_16  and  C8_17
ROOT
HETATM    1  C8  UNL     1      11.638  20.951 -26.777  1.00  0.00     0.160 C
HETATM    2  C9  UNL     1      11.898  22.336 -26.941  1.00  0.00     0.114 C
HETATM    3  N5  UNL     1      12.089  23.476 -27.043  1.00  0.00    -0.191 NA
HETATM    4  C10 UNL     1      10.788  20.665 -25.604  1.00  0.00     0.114 C
HETATM    5  N6  UNL     1      10.128  20.420 -24.692  1.00  0.00    -0.191 NA
ENDROOT
BRANCH   1   6
HETATM    6  C7  UNL     1      12.025  19.934 -27.482  1.00  0.00     0.133 C
HETATM    7  C5  UNL     1      11.211  19.136 -28.373  1.00  0.00     0.114 A
HETATM    8  C4  UNL     1      11.711  18.046 -29.102  1.00  0.00     0.107 A
HETATM    9  N2  UNL     1       9.922  19.186 -28.723  1.00  0.00    -0.294 N
HETATM   10  N1  UNL     1      13.098  17.745 -28.925  1.00  0.00    -0.354 N
HETATM   11  C6  UNL     1      10.709  17.480 -29.862  1.00  0.00     0.143 A
HETATM   12  C2  UNL     1      13.819  18.245 -27.771  1.00  0.00     0.133 C
ATOM     13  H1  UNL     1      13.584  17.173 -29.616  1.00  0.00     0.163 HD
HETATM   14  C1  UNL     1      13.577  17.334 -26.564  1.00  0.00     0.071 C
HETATM   15  C3  UNL     1      15.294  18.289 -28.016  1.00  0.00     0.071 C
HETATM   16  O1  UNL     1      13.381  19.527 -27.401  1.00  0.00    -0.316 OA
HETATM   17  N3  UNL     1       9.623  18.213 -29.600  1.00  0.00    -0.283 N
ATOM     18  H3  UNL     1       8.702  18.057 -30.008  1.00  0.00     0.188 HD
ATOM     19  H2  UNL     1       9.253  19.871 -28.371  1.00  0.00     0.187 HD
BRANCH  11  20
HETATM   20  N4  UNL     1      10.824  16.464 -30.649  1.00  0.00    -0.383 N
ATOM     21  H42 UNL     1      10.548  16.383 -31.628  1.00  0.00     0.157 HD
ATOM     22  H41 UNL     1      11.222  15.556 -30.412  1.00  0.00     0.157 HD
ENDBRANCH  11  20
ENDBRANCH   1   6
TORSDOF 2
ENDMDL