MODEL 5
REMARK VINA RESULT: -4.093755477     10.723     12.228
REMARK  1 active torsions:
REMARK  status: ('A' for Active; 'I' for Inactive)
REMARK    1  A    between atoms: N3_16  and  O2_17
ROOT
HETATM    1  C1  UNL     1      11.271  27.577 -23.177  1.00  0.00     0.043 C
HETATM    2  C2  UNL     1      10.198  28.210 -22.345  1.00  0.00     0.092 C
HETATM    3  C3  UNL     1       8.860  27.602 -22.730  1.00  0.00     0.043 C
HETATM    4  C4  UNL     1      10.088  29.667 -22.529  1.00  0.00     0.098 C
HETATM    5  N1  UNL     1      10.210  30.362 -23.634  1.00  0.00    -0.387 N
ATOM      6  H11 UNL     1      10.135  31.372 -23.762  1.00  0.00     0.157 HD
ATOM      7  H12 UNL     1      10.405  29.974 -24.556  1.00  0.00     0.157 HD
HETATM    8  N2  UNL     1       9.816  30.209 -21.241  1.00  0.00    -0.344 N
ATOM      9  H2  UNL     1       9.331  31.082 -21.032  1.00  0.00     0.163 HD
HETATM   10  C5  UNL     1      10.368  29.270 -20.287  1.00  0.00     0.183 C
HETATM   11  C6  UNL     1       9.477  29.159 -19.042  1.00  0.00     0.229 C
HETATM   12  O1  UNL     1      10.049  28.202 -18.243  1.00  0.00    -0.386 OA
HETATM   13  C7  UNL     1      10.996  28.650 -17.372  1.00  0.00     0.178 C
HETATM   14  C8  UNL     1      11.778  29.834 -17.819  1.00  0.00     0.104 C
HETATM   15  S1  UNL     1      11.978  29.864 -19.642  1.00  0.00    -0.116 SA
HETATM   16  N3  UNL     1      10.502  28.016 -20.959  1.00  0.00    -0.142 NA
ENDROOT
BRANCH  16  17
HETATM   17  O2  UNL     1       9.845  27.007 -20.379  1.00  0.00    -0.309 OA
ATOM     18  H2  UNL     1       9.641  27.142 -19.461  1.00  0.00     0.237 HD
ENDBRANCH  16  17
TORSDOF 1
ENDMDL