MODEL 2
REMARK VINA RESULT: -7.242694426      4.891      7.999
REMARK  7 active torsions:
REMARK  status: ('A' for Active; 'I' for Inactive)
REMARK    1  A    between atoms: N1_1  and  S1_4
REMARK    2  A    between atoms: S1_4  and  N2_7
REMARK    3  A    between atoms: N2_7  and  C1_9
REMARK    4  A    between atoms: C4_12  and  N3_13
REMARK    5  A    between atoms: C6_18  and  C7_19
REMARK    6  A    between atoms: N7_32  and  C16_33
REMARK    7  A    between atoms: C16_33  and  C17_34
ROOT
HETATM    1  N3  UNL     1      10.104  51.905  85.874  1.00  0.00    -0.370 N
ATOM      2  H3  UNL     1       9.271  51.642  85.347  1.00  0.00     0.161 HD
HETATM    3  C5  UNL     1       9.964  52.656  86.907  1.00  0.00     0.134 A
HETATM    4  N4  UNL     1      10.994  53.053  87.662  1.00  0.00    -0.326 N
ATOM      5  H4  UNL     1      11.934  52.747  87.406  1.00  0.00     0.169 HD
HETATM    6  C6  UNL     1      10.843  53.850  88.758  1.00  0.00     0.114 A
HETATM    7  N5  UNL     1       9.603  54.249  89.087  1.00  0.00    -0.326 N
ATOM      8  H5  UNL     1       9.485  54.845  89.906  1.00  0.00     0.169 HD
HETATM    9  C13 UNL     1       8.502  53.894  88.378  1.00  0.00     0.141 A
HETATM   10  C14 UNL     1       8.701  53.077  87.262  1.00  0.00     0.122 A
HETATM   11  N6  UNL     1       7.468  52.882  86.753  1.00  0.00    -0.346 N
ATOM     12  H6  UNL     1       7.266  52.322  85.924  1.00  0.00     0.167 HD
HETATM   13  C15 UNL     1       6.542  53.524  87.485  1.00  0.00     0.185 A
HETATM   14  N7  UNL     1       7.194  54.151  88.493  1.00  0.00    -0.327 N
ENDROOT
BRANCH   1  15
HETATM   15  C4  UNL     1      11.390  51.413  85.423  1.00  0.00     0.083 C
HETATM   16  C3  UNL     1      11.144  50.120  84.673  1.00  0.00     0.027 C
HETATM   17  C2  UNL     1      10.908  50.485  83.218  1.00  0.00     0.028 C
HETATM   18  C1  UNL     1      12.221  50.899  82.587  1.00  0.00     0.094 C
HETATM   19  C21 UNL     1      13.045  51.695  83.561  1.00  0.00     0.028 C
HETATM   20  C20 UNL     1      12.084  52.376  84.517  1.00  0.00     0.027 C
BRANCH  18  21
HETATM   21  N2  UNL     1      12.918  49.809  81.984  1.00  0.00    -0.298 N
ATOM     22  H2  UNL     1      13.088  48.928  82.469  1.00  0.00     0.174 HD
BRANCH  21  23
HETATM   23  S1  UNL     1      13.441  50.099  80.387  1.00  0.00     0.313 S
HETATM   24  O1  UNL     1      12.778  51.309  79.799  1.00  0.00    -0.183 OA
HETATM   25  O2  UNL     1      13.274  48.931  79.489  1.00  0.00    -0.183 OA
BRANCH  23  26
HETATM   26  N1  UNL     1      15.148  50.468  80.461  1.00  0.00    -0.312 N
ATOM     27  H12 UNL     1      15.562  51.340  80.790  1.00  0.00     0.170 HD
ATOM     28  H11 UNL     1      15.632  49.641  80.112  1.00  0.00     0.170 HD
ENDBRANCH  23  26
ENDBRANCH  21  23
ENDBRANCH  18  21
ENDBRANCH   1  15
BRANCH   6  29
HETATM   29  C7  UNL     1      12.017  54.237  89.525  1.00  0.00    -0.018 C
HETATM   30  C8  UNL     1      12.012  54.180  90.843  1.00  0.00    -0.016 C
HETATM   31  C9  UNL     1      13.143  54.548  91.711  1.00  0.00     0.028 C
HETATM   32  C10 UNL     1      14.431  54.695  90.945  1.00  0.00     0.004 C
HETATM   33  C11 UNL     1      14.128  55.548  89.725  1.00  0.00     0.005 C
HETATM   34  C12 UNL     1      13.239  54.702  88.827  1.00  0.00     0.042 C
ENDBRANCH   6  29
BRANCH  14  35
HETATM   35  C16 UNL     1       6.610  54.959  89.524  1.00  0.00     0.136 C
BRANCH  35  36
HETATM   36  C17 UNL     1       5.944  56.200  88.980  1.00  0.00     0.004 A
HETATM   37  C18 UNL     1       5.439  57.141  90.071  1.00  0.00     0.007 A
HETATM   38  C19 UNL     1       6.622  57.507  89.176  1.00  0.00     0.007 A
ENDBRANCH  35  36
ENDBRANCH  14  35
TORSDOF 7
ENDMDL