MODEL 3
REMARK VINA RESULT: -6.382027428      1.259      1.353
REMARK  8 active torsions:
REMARK  status: ('A' for Active; 'I' for Inactive)
REMARK    1  A    between atoms: N1_2  and  C2_4
REMARK    2  A    between atoms: C3_7  and  N3_8
REMARK    3  A    between atoms: C6_11  and  C7_12
REMARK    4  A    between atoms: C12_18  and  N4_19
REMARK    5  A    between atoms: N4_19  and  C13_20
REMARK    6  A    between atoms: C13_20  and  C14_21
REMARK    7  A    between atoms: N6_32  and  C23_34
REMARK    8  A    between atoms: C23_34  and  C24_35
ROOT
HETATM    1  C2  UNL     1      12.456  53.642  87.132  1.00  0.00     0.681 A
HETATM    2  N2  UNL     1      11.191  53.241  87.164  1.00  0.00    -0.176 N
ATOM      3  H2  UNL     1      10.677  53.136  86.289  1.00  0.00     0.186 HD
HETATM    4  C3  UNL     1      10.575  52.970  88.328  1.00  0.00     0.134 A
HETATM    5  C6  UNL     1      11.206  53.093  89.530  1.00  0.00     0.079 A
HETATM    6  C12 UNL     1      12.575  53.527  89.494  1.00  0.00     0.207 A
HETATM    7  N7  UNL     1      13.124  53.777  88.294  1.00  0.00    -0.163 N
ATOM      8  H7  UNL     1      14.095  54.085  88.260  1.00  0.00     0.187 HD
ENDROOT
BRANCH   6   9
HETATM    9  N4  UNL     1      13.141  53.632  90.543  1.00  0.00    -0.397 NA
BRANCH   9  10
HETATM   10  C13 UNL     1      13.764  53.749  91.679  1.00  0.00     0.200 C
BRANCH  10  11
HETATM   11  C14 UNL     1      13.076  53.966  92.968  1.00  0.00     0.037 A
HETATM   12  C15 UNL     1      12.571  55.163  93.391  1.00  0.00     0.031 A
HETATM   13  C16 UNL     1      11.935  55.257  94.632  1.00  0.00    -0.008 A
HETATM   14  C17 UNL     1      11.435  56.489  95.040  1.00  0.00     0.014 A
HETATM   15  C21 UNL     1      11.838  54.124  95.395  1.00  0.00     0.044 A
HETATM   16  C18 UNL     1      10.808  56.607  96.262  1.00  0.00     0.001 A
HETATM   17  C19 UNL     1      10.703  55.471  97.040  1.00  0.00     0.002 A
HETATM   18  C20 UNL     1      11.207  54.257  96.618  1.00  0.00     0.030 A
HETATM   19  N5  UNL     1      12.345  52.948  94.959  1.00  0.00    -0.341 N
HETATM   20  C22 UNL     1      12.962  52.813  93.778  1.00  0.00     0.114 A
ATOM     21  H5  UNL     1      12.252  52.127  95.557  1.00  0.00     0.167 HD
HETATM   22  N6  UNL     1      13.463  51.724  93.322  1.00  0.00    -0.369 N
ATOM     23  H6  UNL     1      13.916  51.745  92.408  1.00  0.00     0.161 HD
BRANCH  22  24
HETATM   24  C23 UNL     1      13.422  50.471  94.034  1.00  0.00     0.190 C
BRANCH  24  25
HETATM   25  C24 UNL     1      14.605  50.318  94.931  1.00  0.00     0.250 C
HETATM   26  O2  UNL     1      14.703  50.913  95.992  1.00  0.00    -0.305 OA
ENDBRANCH  24  25
ENDBRANCH  22  24
ENDBRANCH  10  11
ENDBRANCH   9  10
ENDBRANCH   6   9
BRANCH   5  27
HETATM   27  C7  UNL     1      10.570  52.806  90.800  1.00  0.00     0.007 A
HETATM   28  C8  UNL     1      10.574  51.552  91.416  1.00  0.00     0.154 A
HETATM   29  O1  UNL     1       9.903  51.616  92.542  1.00  0.00    -0.327 OA
HETATM   30  C9  UNL     1       9.434  52.829  92.750  1.00  0.00     0.049 A
HETATM   31  C10 UNL     1       8.618  53.300  93.925  1.00  0.00     0.076 C
HETATM   32  C11 UNL     1       9.845  53.590  91.664  1.00  0.00     0.046 A
ENDBRANCH   5  27
BRANCH   4  33
HETATM   33  N3  UNL     1       9.235  52.539  88.245  1.00  0.00    -0.375 N
HETATM   34  C4  UNL     1       8.156  53.472  88.340  1.00  0.00     0.150 C
HETATM   35  C5  UNL     1       8.975  51.137  88.052  1.00  0.00     0.150 C
ENDBRANCH   4  33
BRANCH   1  36
HETATM   36  N1  UNL     1      13.121  53.924  86.070  1.00  0.00    -0.230 N
HETATM   37  C1  UNL     1      13.109  53.234  84.825  1.00  0.00     0.165 C
ATOM     38  H1  UNL     1      13.729  54.740  86.125  1.00  0.00     0.177 HD
ENDBRANCH   1  36
TORSDOF 8
ENDMDL