MODEL 2
REMARK VINA RESULT: -6.976210354      2.711      9.876
REMARK  8 active torsions:
REMARK  status: ('A' for Active; 'I' for Inactive)
REMARK    1  A    between atoms: N2_5  and  C3_6
REMARK    2  A    between atoms: C5_8  and  C6_9
REMARK    3  A    between atoms: C9_12  and  O1_13
REMARK    4  A    between atoms: C11_15  and  O2_16
REMARK    5  A    between atoms: C15_21  and  C16_22
REMARK    6  A    between atoms: C16_22  and  C17_23
REMARK    7  A    between atoms: C18_24  and  O4_25
REMARK    8  A    between atoms: C22_32  and  O5_33
ROOT
HETATM    1  C6  UNL     1      13.569  51.805  83.277  1.00  0.00    -0.064 C
HETATM    2  C7  UNL     1      14.627  51.925  82.714  1.00  0.00    -0.105 C
HETATM    3  C8  UNL     1      15.908  52.063  82.003  1.00  0.00     0.112 C
ENDROOT
BRANCH   1   4
HETATM    4  C5  UNL     1      12.298  51.637  83.951  1.00  0.00     0.056 A
HETATM    5  C4  UNL     1      12.060  52.202  85.190  1.00  0.00     0.055 A
HETATM    6  C3  UNL     1      10.861  52.058  85.854  1.00  0.00     0.064 A
HETATM    7  C13 UNL     1       9.862  51.316  85.243  1.00  0.00     0.071 A
HETATM    8  C11 UNL     1      10.052  50.741  84.025  1.00  0.00     0.105 A
HETATM    9  C9  UNL     1      11.268  50.910  83.396  1.00  0.00     0.120 A
BRANCH   6  10
HETATM   10  N2  UNL     1      10.582  52.622  87.128  1.00  0.00    -0.219 N
HETATM   11  N1  UNL     1       9.759  53.604  87.426  1.00  0.00    -0.291 N
HETATM   12  C2  UNL     1       9.766  53.857  88.759  1.00  0.00     0.055 A
ATOM     13  H1  UNL     1       9.192  54.110  86.745  1.00  0.00     0.187 HD
HETATM   14  C1  UNL     1       9.015  54.805  89.283  1.00  0.00     0.045 C
HETATM   15  C15 UNL     1      10.638  52.992  89.352  1.00  0.00     0.062 A
HETATM   16  C14 UNL     1      11.135  52.226  88.279  1.00  0.00     0.279 A
HETATM   17  O3  UNL     1      11.977  51.295  88.359  1.00  0.00    -0.265 OA
BRANCH  15  18
HETATM   18  C16 UNL     1      10.966  52.854  90.586  1.00  0.00     0.036 C
BRANCH  18  19
HETATM   19  C17 UNL     1      11.785  53.623  91.468  1.00  0.00     0.028 A
HETATM   20  C18 UNL     1      13.063  54.112  91.209  1.00  0.00     0.151 A
HETATM   21  N3  UNL     1      13.455  54.805  92.279  1.00  0.00    -0.336 N
HETATM   22  C19 UNL     1      12.489  54.783  93.207  1.00  0.00     0.045 A
ATOM     23  H3  UNL     1      14.353  55.279  92.375  1.00  0.00     0.168 HD
HETATM   24  C20 UNL     1      12.388  55.333  94.471  1.00  0.00     0.033 A
HETATM   25  C25 UNL     1      11.417  54.055  92.750  1.00  0.00     0.008 A
HETATM   26  C21 UNL     1      11.250  55.148  95.226  1.00  0.00     0.039 A
HETATM   27  C22 UNL     1      10.182  54.416  94.758  1.00  0.00     0.069 A
HETATM   28  C24 UNL     1      10.267  53.859  93.497  1.00  0.00     0.051 A
BRANCH  20  29
HETATM   29  O4  UNL     1      13.775  53.888  90.016  1.00  0.00    -0.345 OA
ATOM     30  H4  UNL     1      14.605  54.295  89.801  1.00  0.00     0.219 HD
ENDBRANCH  20  29
BRANCH  27  31
HETATM   31  O5  UNL     1       9.022  54.222  95.519  1.00  0.00    -0.356 OA
HETATM   32  C23 UNL     1       8.135  55.297  95.660  1.00  0.00     0.210 C
ENDBRANCH  27  31
ENDBRANCH  18  19
ENDBRANCH  15  18
ENDBRANCH   6  10
BRANCH   8  33
HETATM   33  O2  UNL     1       9.060  49.999  83.413  1.00  0.00    -0.353 OA
HETATM   34  C12 UNL     1       7.813  50.596  83.123  1.00  0.00     0.210 C
ENDBRANCH   8  33
BRANCH   9  35
HETATM   35  O1  UNL     1      11.466  50.326  82.152  1.00  0.00    -0.352 OA
HETATM   36  C10 UNL     1      11.004  51.055  81.025  1.00  0.00     0.210 C
ENDBRANCH   9  35
ENDBRANCH   1   4
TORSDOF 8
ENDMDL