MODEL 1
REMARK VINA RESULT: -6.259426697      0.000      0.000
REMARK  8 active torsions:
REMARK  status: ('A' for Active; 'I' for Inactive)
REMARK    1  A    between atoms: C1_2  and  C2_3
REMARK       I    between atoms: C1_2  and  N3_29
REMARK    2  A    between atoms: C2_3  and  C3_4
REMARK    3  A    between atoms: C3_4  and  C4_5
REMARK    4  A    between atoms: C4_5  and  C5_6
REMARK    5  A    between atoms: C5_6  and  N1_7
REMARK    6  A    between atoms: C5_6  and  N2_15
REMARK    7  A    between atoms: C8_10  and  O2_11
REMARK    8  A    between atoms: C17_24  and  O5_25
ROOT
HETATM    1  C3  UNL     1      11.167  54.555  95.848  1.00  0.00    -0.019 C
HETATM    2  C11 UNL     1       9.737  54.197  95.845  1.00  0.00    -0.004 C
HETATM    3  C12 UNL     1       8.895  55.209  95.036  1.00  0.00     0.010 C
HETATM    4  C13 UNL     1       9.057  56.569  95.613  1.00  0.00    -0.013 C
HETATM    5  C14 UNL     1       8.432  56.568  97.009  1.00  0.00     0.012 C
HETATM    6  C15 UNL     1       9.231  55.568  97.859  1.00  0.00     0.015 C
HETATM    7  C16 UNL     1       9.050  54.229  97.199  1.00  0.00     0.012 C
HETATM    8  C17 UNL     1      10.636  56.052  97.840  1.00  0.00     0.127 C
HETATM    9  C18 UNL     1      11.273  55.958  96.472  1.00  0.00     0.024 C
HETATM   10  C19 UNL     1      10.495  56.957  95.638  1.00  0.00     0.012 C
ENDROOT
BRANCH   1  11
HETATM   11  C2  UNL     1      11.677  54.663  94.430  1.00  0.00     0.113 C
BRANCH  11  12
HETATM   12  C1  UNL     1      11.389  53.598  93.510  1.00  0.00     0.223 C
HETATM   13  O1  UNL     1      11.210  52.386  93.730  1.00  0.00    -0.273 OA
HETATM   14  N3  UNL     1      11.270  53.909  92.112  1.00  0.00    -0.317 N
HETATM   15  C20 UNL     1      12.208  54.113  91.303  1.00  0.00     0.079 C
ATOM     16  H3  UNL     1      10.323  53.969  91.737  1.00  0.00     0.170 HD
HETATM   17  C21 UNL     1      13.657  54.081  91.591  1.00  0.00     0.078 C
HETATM   18  N4  UNL     1      12.062  54.423  89.927  1.00  0.00    -0.380 N
HETATM   19  C22 UNL     1      14.284  54.898  90.490  1.00  0.00     0.027 C
HETATM   20  C23 UNL     1      13.314  54.826  89.363  1.00  0.00     0.121 C
ATOM     21  H4  UNL     1      11.185  54.366  89.410  1.00  0.00     0.160 HD
ENDBRANCH  11  12
ENDBRANCH   1  11
BRANCH   1  22
HETATM   22  C4  UNL     1      12.037  53.670  96.662  1.00  0.00     0.074 C
BRANCH  22  23
HETATM   23  C5  UNL     1      11.546  52.355  97.109  1.00  0.00     0.391 C
BRANCH  23  24
HETATM   24  N1  UNL     1      12.611  51.383  96.749  1.00  0.00     0.117 N
HETATM   25  C6  UNL     1      13.707  52.137  96.251  1.00  0.00     0.278 C
HETATM   26  C7  UNL     1      14.882  51.160  96.100  1.00  0.00     0.062 C
HETATM   27  C8  UNL     1      14.453  50.282  94.916  1.00  0.00     0.121 C
HETATM   28  C9  UNL     1      13.277  49.500  95.389  1.00  0.00     0.062 C
HETATM   29  C10 UNL     1      12.167  50.277  96.006  1.00  0.00     0.278 C
BRANCH  27  30
HETATM   30  O2  UNL     1      15.468  49.382  94.597  1.00  0.00    -0.395 OA
ATOM     31  H2  UNL     1      15.122  48.498  94.567  1.00  0.00     0.210 HD
ENDBRANCH  27  30
ENDBRANCH  23  24
BRANCH  23  32
HETATM   32  N2  UNL     1      11.152  52.159  98.468  1.00  0.00    -0.120 N
HETATM   33  O3  UNL     1      11.668  52.842  99.417  1.00  0.00    -0.535 OA
HETATM   34  O4  UNL     1      10.206  51.278  98.929  1.00  0.00    -0.535 OA
ENDBRANCH  23  32
ENDBRANCH  22  23
ENDBRANCH   1  22
BRANCH   8  35
HETATM   35  O5  UNL     1      11.441  55.642  98.881  1.00  0.00    -0.395 OA
ATOM     36  H5  UNL     1      12.375  55.626  98.713  1.00  0.00     0.210 HD
ENDBRANCH   8  35
TORSDOF 8
ENDMDL