MODEL 1
REMARK VINA RESULT: -6.264023056      0.000      0.000
REMARK  8 active torsions:
REMARK  status: ('A' for Active; 'I' for Inactive)
REMARK    1  A    between atoms: N1_1  and  C1_5
REMARK    2  A    between atoms: C4_8  and  N2_9
REMARK    3  A    between atoms: C6_14  and  N4_15
REMARK    4  A    between atoms: N4_15  and  C7_17
REMARK    5  A    between atoms: C7_17  and  C8_18
REMARK    6  A    between atoms: C8_18  and  N5_19
REMARK    7  A    between atoms: N6_29  and  C17_30
REMARK    8  A    between atoms: C17_30  and  C18_31
ROOT
HETATM    1  N2  UNL     1      11.301  52.224  86.450  1.00  0.00    -0.221 N
ATOM      2  H2  UNL     1      10.795  51.342  86.363  1.00  0.00     0.178 HD
HETATM    3  C5  UNL     1      11.670  52.577  87.612  1.00  0.00     0.680 A
HETATM    4  N3  UNL     1      11.391  51.791  88.700  1.00  0.00    -0.175 N
ATOM      5  H3  UNL     1      10.885  50.916  88.560  1.00  0.00     0.186 HD
HETATM    6  C6  UNL     1      11.765  52.137  89.947  1.00  0.00     0.146 A
HETATM    7  C13 UNL     1      12.446  53.318  90.122  1.00  0.00     0.106 A
HETATM    8  C14 UNL     1      12.742  54.138  89.019  1.00  0.00     0.081 A
HETATM    9  C15 UNL     1      13.446  55.246  89.449  1.00  0.00     0.050 A
HETATM   10  C16 UNL     1      13.565  55.088  90.800  1.00  0.00     0.094 A
HETATM   11  N6  UNL     1      12.952  53.917  91.193  1.00  0.00    -0.351 N
HETATM   12  N7  UNL     1      12.334  53.722  87.805  1.00  0.00    -0.190 N
ATOM     13  H7  UNL     1      12.541  54.306  86.995  1.00  0.00     0.184 HD
ENDROOT
BRANCH   1  14
HETATM   14  C4  UNL     1      11.536  52.957  85.273  1.00  0.00     0.099 C
HETATM   15  C3  UNL     1      12.681  52.443  84.435  1.00  0.00     0.027 C
HETATM   16  C2  UNL     1      12.471  51.025  83.987  1.00  0.00     0.035 C
HETATM   17  C1  UNL     1      11.089  50.604  83.724  1.00  0.00     0.183 C
HETATM   18  C24 UNL     1       9.976  51.554  83.911  1.00  0.00     0.035 C
HETATM   19  C23 UNL     1      10.359  52.946  84.312  1.00  0.00     0.027 C
BRANCH  17  20
HETATM   20  N1  UNL     1      10.817  49.385  84.507  1.00  0.00    -0.075 N
ATOM     21  H13 UNL     1      10.771  48.548  83.926  1.00  0.00     0.274 HD
ATOM     22  H12 UNL     1      11.607  49.108  85.089  1.00  0.00     0.274 HD
ATOM     23  H11 UNL     1       9.965  49.533  85.048  1.00  0.00     0.274 HD
ENDBRANCH  17  20
ENDBRANCH   1  14
BRANCH   6  24
HETATM   24  N4  UNL     1      11.527  51.349  90.942  1.00  0.00    -0.372 N
ATOM     25  H4  UNL     1      10.685  51.515  91.493  1.00  0.00     0.161 HD
BRANCH  24  26
HETATM   26  C7  UNL     1      12.373  50.261  91.319  1.00  0.00     0.151 C
BRANCH  26  27
HETATM   27  C8  UNL     1      11.817  48.950  90.814  1.00  0.00     0.292 C
BRANCH  27  28
HETATM   28  N5  UNL     1      12.781  48.178  90.087  1.00  0.00     0.094 N
HETATM   29  C9  UNL     1      12.665  48.350  88.651  1.00  0.00     0.298 C
HETATM   30  C10 UNL     1      13.880  47.718  88.008  1.00  0.00     0.198 C
HETATM   31  O1  UNL     1      14.550  46.868  88.854  1.00  0.00    -0.388 OA
HETATM   32  C11 UNL     1      13.739  46.012  89.580  1.00  0.00     0.198 C
HETATM   33  C12 UNL     1      12.663  46.755  90.341  1.00  0.00     0.298 C
ENDBRANCH  27  28
ENDBRANCH  26  27
ENDBRANCH  24  26
ENDBRANCH   6  24
BRANCH  11  34
HETATM   34  C17 UNL     1      12.858  53.565  92.589  1.00  0.00     0.133 C
BRANCH  34  35
HETATM   35  C18 UNL     1      11.773  54.404  93.219  1.00  0.00     0.004 C
HETATM   36  C19 UNL     1      10.638  53.641  93.814  1.00  0.00     0.006 C
HETATM   37  C20 UNL     1       9.900  54.742  94.568  1.00  0.00     0.000 C
HETATM   38  C21 UNL     1      10.987  55.707  95.017  1.00  0.00     0.000 C
HETATM   39  C22 UNL     1      12.287  55.165  94.429  1.00  0.00     0.006 C
ENDBRANCH  34  35
ENDBRANCH  11  34
TORSDOF 8
ENDMDL