MODEL 1
REMARK VINA RESULT: -7.326481782      0.000      0.000
REMARK  8 active torsions:
REMARK  status: ('A' for Active; 'I' for Inactive)
REMARK    1  A    between atoms: C2_2  and  C3_3
REMARK    2  A    between atoms: C3_3  and  C4_4
REMARK    3  A    between atoms: C6_6  and  C7_7
REMARK    4  A    between atoms: C7_7  and  C8_8
REMARK    5  A    between atoms: C8_8  and  N1_9
REMARK    6  A    between atoms: C19_22  and  C20_23
REMARK       I    between atoms: C20_23  and  N2_25
REMARK    7  A    between atoms: C23_28  and  N3_29
REMARK    8  A    between atoms: C25_34  and  N4_35
ROOT
HETATM    1  C4  UNL     1      14.452  52.072  83.020  1.00  0.00     0.011 A
HETATM    2  C5  UNL     1      13.350  51.273  82.820  1.00  0.00     0.033 A
HETATM    3  C6  UNL     1      12.146  51.421  83.525  1.00  0.00    -0.035 A
HETATM    4  C19 UNL     1      12.053  52.409  84.463  1.00  0.00     0.082 A
HETATM    5  C25 UNL     1      13.190  53.211  84.650  1.00  0.00     0.115 A
HETATM    6  N5  UNL     1      14.324  53.033  83.951  1.00  0.00    -0.345 N
ATOM      7  H5  UNL     1      15.116  53.649  84.133  1.00  0.00     0.167 HD
ENDROOT
BRANCH   3   8
HETATM    8  C7  UNL     1      11.028  50.484  83.243  1.00  0.00     0.070 C
BRANCH   8   9
HETATM    9  C8  UNL     1      10.568  50.596  81.838  1.00  0.00     0.277 C
BRANCH   9  10
HETATM   10  N1  UNL     1      10.662  49.309  81.126  1.00  0.00     0.093 N
HETATM   11  C9  UNL     1      11.031  48.326  82.137  1.00  0.00     0.277 C
HETATM   12  C10 UNL     1      10.961  46.961  81.527  1.00  0.00     0.069 C
HETATM   13  C11 UNL     1      11.825  46.913  80.343  1.00  0.00    -0.046 A
HETATM   14  C12 UNL     1      12.322  45.719  79.847  1.00  0.00     0.047 A
HETATM   15  C16 UNL     1      12.164  48.067  79.686  1.00  0.00    -0.021 A
HETATM   16  C13 UNL     1      13.132  45.653  78.735  1.00  0.00     0.105 A
HETATM   17  C14 UNL     1      13.464  46.830  78.083  1.00  0.00     0.105 A
HETATM   18  O2  UNL     1      13.765  44.628  78.022  1.00  0.00    -0.323 OA
HETATM   19  C15 UNL     1      12.966  48.016  78.581  1.00  0.00     0.049 A
HETATM   20  O1  UNL     1      14.289  46.480  76.996  1.00  0.00    -0.323 OA
HETATM   21  C18 UNL     1      14.030  45.101  76.691  1.00  0.00     0.352 C
HETATM   22  C17 UNL     1      11.697  49.413  80.113  1.00  0.00     0.311 C
ENDBRANCH   9  10
ENDBRANCH   8   9
ENDBRANCH   3   8
BRANCH   4  23
HETATM   23  C20 UNL     1      10.853  52.667  85.238  1.00  0.00     0.258 C
HETATM   24  O3  UNL     1      10.021  53.540  84.918  1.00  0.00    -0.267 OA
HETATM   25  N2  UNL     1      10.592  51.906  86.417  1.00  0.00    -0.346 N
HETATM   26  C21 UNL     1       9.457  52.016  87.316  1.00  0.00     0.128 C
HETATM   27  C24 UNL     1      11.435  50.859  86.945  1.00  0.00     0.159 C
HETATM   28  C22 UNL     1      10.165  51.888  88.670  1.00  0.00     0.054 C
HETATM   29  C23 UNL     1      11.056  50.689  88.395  1.00  0.00     0.203 C
BRANCH  29  30
HETATM   30  N3  UNL     1      12.204  50.638  89.273  1.00  0.00    -0.073 N
ATOM     31  H33 UNL     1      13.031  51.023  88.817  1.00  0.00     0.274 HD
ATOM     32  H32 UNL     1      12.111  51.308  90.037  1.00  0.00     0.274 HD
ATOM     33  H31 UNL     1      12.384  49.699  89.628  1.00  0.00     0.274 HD
ENDBRANCH  29  30
ENDBRANCH   4  23
BRANCH   1  34
HETATM   34  C3  UNL     1      15.659  51.852  82.228  1.00  0.00     0.057 C
BRANCH  34  35
HETATM   35  C2  UNL     1      15.580  52.160  80.779  1.00  0.00     0.002 C
HETATM   36  C1  UNL     1      15.224  51.019  79.884  1.00  0.00     0.005 C
ENDBRANCH  34  35
ENDBRANCH   1  34
BRANCH   5  37
HETATM   37  N4  UNL     1      13.081  54.143  85.546  1.00  0.00    -0.385 N
ATOM     38  H42 UNL     1      12.709  53.951  86.477  1.00  0.00     0.157 HD
ATOM     39  H41 UNL     1      13.389  55.072  85.259  1.00  0.00     0.157 HD
ENDBRANCH   5  37
TORSDOF 8
ENDMDL