MODEL 2
REMARK VINA RESULT: -5.603419883      2.650      6.015
REMARK  7 active torsions:
REMARK  status: ('A' for Active; 'I' for Inactive)
REMARK    1  A    between atoms: C2_2  and  O1_3
REMARK    2  A    between atoms: O1_3  and  C3_4
REMARK    3  A    between atoms: C12_16  and  C13_17
REMARK    4  A    between atoms: C17_22  and  O4_23
REMARK    5  A    between atoms: C21_27  and  C22_28
REMARK    6  A    between atoms: C22_28  and  O5_29
REMARK    7  A    between atoms: C24_32  and  O6_33
ROOT
HETATM    1  C3  UNL     1      11.760  54.689  94.850  1.00  0.00     0.070 C
HETATM    2  C4  UNL     1      13.141  54.299  94.382  1.00  0.00     0.070 C
HETATM    3  C5  UNL     1      12.545  54.044  93.017  1.00  0.00     0.043 C
HETATM    4  C6  UNL     1      13.058  52.825  92.329  1.00  0.00     0.041 C
HETATM    5  C7  UNL     1      13.943  53.327  91.194  1.00  0.00     0.105 C
HETATM    6  C8  UNL     1      13.804  54.808  91.261  1.00  0.00     0.218 C
HETATM    7  O2  UNL     1      14.600  55.594  90.672  1.00  0.00    -0.274 OA
HETATM    8  N1  UNL     1      12.672  55.106  92.069  1.00  0.00    -0.351 N
ATOM      9  H1  UNL     1      12.065  55.923  91.988  1.00  0.00     0.163 HD
HETATM   10  C9  UNL     1      11.214  53.925  93.719  1.00  0.00     0.056 C
HETATM   11  C10 UNL     1      10.645  52.593  93.915  1.00  0.00     0.021 C
HETATM   12  C11 UNL     1      11.383  51.605  94.681  1.00  0.00    -0.011 C
HETATM   13  C12 UNL     1      11.340  51.423  95.967  1.00  0.00    -0.023 C
HETATM   14  C14 UNL     1      10.557  52.168  96.969  1.00  0.00     0.057 C
HETATM   15  C15 UNL     1      10.212  53.595  96.588  1.00  0.00     0.027 C
HETATM   16  C16 UNL     1      11.437  54.286  96.223  1.00  0.00     0.054 C
HETATM   17  C17 UNL     1       9.708  54.178  97.881  1.00  0.00     0.133 C
HETATM   18  C19 UNL     1       9.481  55.648  97.900  1.00  0.00     0.037 C
HETATM   19  C20 UNL     1       8.000  55.827  97.541  1.00  0.00     0.038 C
HETATM   20  C21 UNL     1       7.968  55.810  96.055  1.00  0.00    -0.057 C
HETATM   21  C23 UNL     1       8.427  54.832  95.280  1.00  0.00     0.016 C
HETATM   22  C24 UNL     1       9.070  53.538  95.641  1.00  0.00     0.087 C
HETATM   23  C25 UNL     1       9.220  52.769  94.392  1.00  0.00     0.052 C
ENDROOT
BRANCH   1  24
HETATM   24  O1  UNL     1      11.552  56.032  94.621  1.00  0.00    -0.380 OA
BRANCH  24  25
HETATM   25  C2  UNL     1      11.769  56.912  95.621  1.00  0.00     0.164 C
HETATM   26  C1  UNL     1      10.887  58.156  95.508  1.00  0.00     0.033 C
ENDBRANCH  24  25
ENDBRANCH   1  24
BRANCH  13  27
HETATM   27  C13 UNL     1      12.163  50.372  96.530  1.00  0.00     0.265 C
HETATM   28  O3  UNL     1      13.237  50.042  95.982  1.00  0.00    -0.302 OA
ENDBRANCH  13  27
BRANCH  22  29
HETATM   29  O6  UNL     1       8.064  52.863  96.398  1.00  0.00    -0.385 OA
ATOM     30  H6  UNL     1       7.335  52.820  95.790  1.00  0.00     0.211 HD
ENDBRANCH  22  29
BRANCH  17  31
HETATM   31  O4  UNL     1      10.596  53.882  98.899  1.00  0.00    -0.390 OA
HETATM   32  C18 UNL     1      10.908  54.990  99.696  1.00  0.00     0.202 C
ENDBRANCH  17  31
BRANCH  20  33
HETATM   33  C22 UNL     1       7.358  57.022  95.451  1.00  0.00     0.198 C
BRANCH  33  34
HETATM   34  O5  UNL     1       6.280  56.695  94.622  1.00  0.00    -0.397 OA
ATOM     35  H5  UNL     1       5.525  57.245  94.799  1.00  0.00     0.209 HD
ENDBRANCH  33  34
ENDBRANCH  20  33
TORSDOF 7
ENDMDL