MODEL 4
REMARK VINA RESULT: -7.304801388      3.246      8.817
REMARK  9 active torsions:
REMARK  status: ('A' for Active; 'I' for Inactive)
REMARK    1  A    between atoms: C4_5  and  C5_6
REMARK    2  A    between atoms: C6_7  and  C7_8
REMARK    3  A    between atoms: C10_11  and  N2_12
REMARK    4  A    between atoms: N2_12  and  C11_14
REMARK    5  A    between atoms: C11_14  and  C12_15
REMARK    6  A    between atoms: C12_15  and  O1_16
REMARK    7  A    between atoms: O1_16  and  C13_17
REMARK    8  A    between atoms: C13_17  and  C14_18
REMARK    9  A    between atoms: C14_18  and  O2_19
ROOT
HETATM    1  N1  UNL     1       7.388  52.308  89.962  1.00  0.00    -0.190 NA
HETATM    2  C1  UNL     1       8.482  52.651  89.715  1.00  0.00     0.117 C
HETATM    3  C2  UNL     1       9.822  53.054  89.393  1.00  0.00     0.115 A
HETATM    4  C3  UNL     1      10.391  52.829  88.146  1.00  0.00     0.062 A
HETATM    5  C4  UNL     1      11.676  53.217  87.838  1.00  0.00     0.033 A
HETATM    6  C21 UNL     1      12.413  53.852  88.818  1.00  0.00     0.009 A
HETATM    7  C22 UNL     1      13.706  54.271  88.588  1.00  0.00     0.015 A
HETATM    8  C23 UNL     1      14.474  54.908  89.542  1.00  0.00     0.001 A
HETATM    9  C24 UNL     1      13.904  55.129  90.776  1.00  0.00     0.002 A
HETATM   10  C25 UNL     1      12.597  54.708  91.014  1.00  0.00     0.030 A
HETATM   11  C26 UNL     1      11.839  54.075  90.064  1.00  0.00     0.044 A
HETATM   12  N5  UNL     1      10.579  53.676  90.312  1.00  0.00    -0.347 N
ATOM     13  H5  UNL     1      10.183  53.852  91.235  1.00  0.00     0.167 HD
ENDROOT
BRANCH   5  14
HETATM   14  C5  UNL     1      12.276  52.990  86.552  1.00  0.00    -0.060 C
HETATM   15  C6  UNL     1      12.795  52.776  85.460  1.00  0.00    -0.059 C
BRANCH  15  16
HETATM   16  C7  UNL     1      13.459  52.489  84.196  1.00  0.00     0.046 A
HETATM   17  C8  UNL     1      14.687  53.179  83.996  1.00  0.00     0.027 A
HETATM   18  C9  UNL     1      15.447  52.878  82.908  1.00  0.00     0.050 A
HETATM   19  C10 UNL     1      14.974  51.906  82.048  1.00  0.00     0.101 A
HETATM   20  N3  UNL     1      13.819  51.285  82.269  1.00  0.00    -0.341 N
HETATM   21  C15 UNL     1      13.001  51.551  83.358  1.00  0.00     0.068 A
ATOM     22  H3  UNL     1      13.518  50.575  81.601  1.00  0.00     0.167 HD
HETATM   23  C16 UNL     1      11.816  50.768  83.533  1.00  0.00     0.060 A
HETATM   24  C17 UNL     1      11.993  49.389  83.271  1.00  0.00     0.021 A
HETATM   25  C20 UNL     1      10.543  51.133  83.800  1.00  0.00     0.257 A
HETATM   26  C18 UNL     1      10.986  48.471  83.282  1.00  0.00     0.018 A
HETATM   27  C19 UNL     1       9.705  48.932  83.570  1.00  0.00     0.091 A
HETATM   28  N4  UNL     1       9.501  50.230  83.821  1.00  0.00    -0.333 N
ATOM     29  H4  UNL     1       8.559  50.557  84.032  1.00  0.00     0.168 HD
HETATM   30  O3  UNL     1      10.230  52.313  84.035  1.00  0.00    -0.267 OA
BRANCH  19  31
HETATM   31  N2  UNL     1      15.704  51.620  81.014  1.00  0.00    -0.374 N
ATOM     32  H2  UNL     1      16.703  51.441  81.122  1.00  0.00     0.161 HD
BRANCH  31  33
HETATM   33  C11 UNL     1      15.074  51.557  79.674  1.00  0.00     0.147 C
BRANCH  33  34
HETATM   34  C12 UNL     1      14.978  50.113  79.286  1.00  0.00     0.187 C
BRANCH  34  35
HETATM   35  O1  UNL     1      13.994  49.405  79.816  1.00  0.00    -0.387 OA
BRANCH  35  36
HETATM   36  C13 UNL     1      12.753  49.229  79.416  1.00  0.00     0.193 C
BRANCH  36  37
HETATM   37  C14 UNL     1      12.305  47.910  78.845  1.00  0.00     0.190 C
BRANCH  37  38
HETATM   38  O2  UNL     1      12.906  47.719  77.608  1.00  0.00    -0.399 OA
ATOM     39  H2  UNL     1      13.602  47.077  77.694  1.00  0.00     0.209 HD
ENDBRANCH  37  38
ENDBRANCH  36  37
ENDBRANCH  35  36
ENDBRANCH  34  35
ENDBRANCH  33  34
ENDBRANCH  31  33
ENDBRANCH  19  31
ENDBRANCH  15  16
ENDBRANCH   5  14
TORSDOF 9
ENDMDL