MODEL 3
REMARK VINA RESULT: -5.276796499      4.249      7.648
REMARK  9 active torsions:
REMARK  status: ('A' for Active; 'I' for Inactive)
REMARK    1  A    between atoms: O1_2  and  C2_3
REMARK    2  A    between atoms: C15_17  and  O3_18
REMARK    3  A    between atoms: O3_18  and  C16_19
REMARK    4  A    between atoms: C16_19  and  C17_20
REMARK    5  A    between atoms: C17_20  and  O4_21
REMARK    6  A    between atoms: C18_23  and  O5_24
REMARK    7  A    between atoms: C18_23  and  C19_26
REMARK    8  A    between atoms: C19_26  and  N1_27
REMARK    9  A    between atoms: N1_27  and  C20_29
ROOT
HETATM    1  C2  UNL     1      11.637  51.520  90.429  1.00  0.00     0.198 A
HETATM    2  C3  UNL     1      12.530  51.015  91.513  1.00  0.00     0.156 A
HETATM    3  O2  UNL     1      12.694  49.864  91.791  1.00  0.00    -0.295 OA
HETATM    4  C4  UNL     1      13.186  52.180  92.196  1.00  0.00     0.087 A
HETATM    5  C5  UNL     1      12.611  53.415  91.595  1.00  0.00     0.008 A
HETATM    6  C6  UNL     1      11.886  54.293  92.603  1.00  0.00    -0.001 C
HETATM    7  C7  UNL     1      12.766  54.705  93.728  1.00  0.00     0.033 C
HETATM    8  C8  UNL     1      11.977  55.575  94.630  1.00  0.00    -0.020 C
HETATM    9  C9  UNL     1      10.726  55.252  94.983  1.00  0.00    -0.037 C
HETATM   10  C10 UNL     1      10.166  54.017  94.448  1.00  0.00    -0.014 C
HETATM   11  C11 UNL     1      10.512  52.922  95.475  1.00  0.00     0.020 C
HETATM   12  C12 UNL     1       8.678  54.162  94.300  1.00  0.00     0.014 C
HETATM   13  C13 UNL     1       7.884  54.119  95.554  1.00  0.00     0.004 C
HETATM   14  C14 UNL     1       8.318  54.989  96.667  1.00  0.00     0.035 C
HETATM   15  C15 UNL     1       8.842  56.347  96.262  1.00  0.00     0.162 C
HETATM   16  C18 UNL     1      10.292  56.348  95.912  1.00  0.00     0.123 C
HETATM   17  C21 UNL     1      10.698  53.565  93.128  1.00  0.00     0.003 C
HETATM   18  C22 UNL     1       9.683  53.537  92.006  1.00  0.00     0.007 C
HETATM   19  C23 UNL     1      10.311  53.636  90.634  1.00  0.00     0.013 C
HETATM   20  C24 UNL     1      11.655  53.019  90.516  1.00  0.00    -0.006 A
HETATM   21  C25 UNL     1      12.257  53.521  89.193  1.00  0.00     0.018 C
ENDROOT
BRANCH  16  22
HETATM   22  O5  UNL     1      10.580  57.512  95.225  1.00  0.00    -0.381 OA
ATOM     23  H5  UNL     1      10.086  58.182  95.682  1.00  0.00     0.211 HD
ENDBRANCH  16  22
BRANCH  16  24
HETATM   24  C19 UNL     1      11.130  56.278  97.170  1.00  0.00     0.167 C
BRANCH  24  25
HETATM   25  N1  UNL     1      10.466  56.005  98.390  1.00  0.00    -0.365 N
ATOM     26  H1  UNL     1       9.590  56.510  98.523  1.00  0.00     0.161 HD
BRANCH  25  27
HETATM   27  C20 UNL     1      10.821  55.154  99.445  1.00  0.00     0.348 C
HETATM   28  O6  UNL     1      11.520  55.500 100.402  1.00  0.00    -0.284 OA
ENDBRANCH  25  27
ENDBRANCH  24  25
ENDBRANCH  16  24
BRANCH  15  29
HETATM   29  O3  UNL     1       7.991  56.886  95.330  1.00  0.00    -0.380 OA
BRANCH  29  30
HETATM   30  C16 UNL     1       7.040  57.753  95.739  1.00  0.00     0.194 C
BRANCH  30  31
HETATM   31  C17 UNL     1       5.726  57.748  95.039  1.00  0.00     0.190 C
BRANCH  31  32
HETATM   32  O4  UNL     1       5.790  56.673  94.113  1.00  0.00    -0.399 OA
ATOM     33  H4  UNL     1       5.138  56.045  94.404  1.00  0.00     0.209 HD
ENDBRANCH  31  32
ENDBRANCH  30  31
ENDBRANCH  29  30
ENDBRANCH  15  29
BRANCH   1  34
HETATM   34  O1  UNL     1      10.353  50.993  90.537  1.00  0.00    -0.382 OA
HETATM   35  C1  UNL     1      10.041  50.160  89.442  1.00  0.00     0.202 C
ENDBRANCH   1  34
TORSDOF 9
ENDMDL