MODEL 1
REMARK VINA RESULT: -8.328043658      0.000      0.000
REMARK  7 active torsions:
REMARK  status: ('A' for Active; 'I' for Inactive)
REMARK    1  A    between atoms: N1_1  and  C1_4
REMARK    2  A    between atoms: C2_7  and  N3_8
REMARK    3  A    between atoms: N4_11  and  C5_12
REMARK    4  A    between atoms: C5_12  and  C6_13
REMARK    5  A    between atoms: N7_29  and  C17_30
REMARK    6  A    between atoms: C17_30  and  C18_31
REMARK    7  A    between atoms: C18_31  and  C19_32
ROOT
HETATM    1  C1  UNL     1      11.605  50.549  87.962  1.00  0.00     0.123 A
HETATM    2  N2  UNL     1      11.746  51.360  89.038  1.00  0.00    -0.176 N
ATOM      3  H2  UNL     1      11.758  50.924  89.960  1.00  0.00     0.186 HD
HETATM    4  C2  UNL     1      11.870  52.692  88.979  1.00  0.00     0.690 A
HETATM    5  N6  UNL     1      11.853  53.257  87.774  1.00  0.00    -0.194 N
ATOM      6  H6  UNL     1      11.946  54.270  87.686  1.00  0.00     0.184 HD
HETATM    7  C13 UNL     1      11.715  52.499  86.675  1.00  0.00     0.038 A
HETATM    8  C14 UNL     1      11.584  51.116  86.722  1.00  0.00     0.011 A
HETATM    9  C15 UNL     1      11.408  50.178  85.584  1.00  0.00     0.074 C
HETATM   10  C16 UNL     1      10.901  50.898  84.363  1.00  0.00     0.277 C
HETATM   11  N7  UNL     1      11.871  51.623  83.611  1.00  0.00     0.089 N
HETATM   12  C23 UNL     1      12.631  52.546  84.435  1.00  0.00     0.278 C
HETATM   13  C24 UNL     1      11.737  53.295  85.406  1.00  0.00     0.088 C
ENDROOT
BRANCH   4  14
HETATM   14  N3  UNL     1      12.011  53.484  90.159  1.00  0.00    -0.126 N
HETATM   15  C3  UNL     1      10.995  53.642  91.161  1.00  0.00     0.199 C
HETATM   16  C4  UNL     1      11.600  53.510  92.535  1.00  0.00     0.109 C
HETATM   17  N4  UNL     1      12.760  54.264  92.786  1.00  0.00    -0.280 N
HETATM   18  N5  UNL     1      13.501  54.709  91.735  1.00  0.00    -0.245 N
HETATM   19  C12 UNL     1      13.239  54.194  90.413  1.00  0.00     0.356 C
ATOM     20  H5  UNL     1      14.237  55.402  91.881  1.00  0.00     0.192 HD
HETATM   21  O1  UNL     1      14.054  54.348  89.473  1.00  0.00    -0.244 OA
BRANCH  17  22
HETATM   22  C5  UNL     1      12.818  54.972  94.004  1.00  0.00     0.093 C
BRANCH  22  23
HETATM   23  C6  UNL     1      11.521  55.243  94.691  1.00  0.00     0.026 C
HETATM   24  C7  UNL     1      11.587  54.492  96.030  1.00  0.00     0.010 C
HETATM   25  C8  UNL     1      10.317  54.618  96.805  1.00  0.00     0.001 C
HETATM   26  C9  UNL     1       9.925  56.057  96.982  1.00  0.00     0.000 C
HETATM   27  C10 UNL     1      11.028  56.953  96.465  1.00  0.00     0.001 C
HETATM   28  C11 UNL     1      11.285  56.683  94.998  1.00  0.00     0.010 C
ENDBRANCH  22  23
ENDBRANCH  17  22
ENDBRANCH   4  14
BRANCH   1  29
HETATM   29  N1  UNL     1      11.503  49.278  88.105  1.00  0.00    -0.385 N
ATOM     30  H12 UNL     1      12.281  48.662  87.867  1.00  0.00     0.157 HD
ATOM     31  H11 UNL     1      10.647  48.858  88.467  1.00  0.00     0.157 HD
ENDBRANCH   1  29
BRANCH  11  32
HETATM   32  C17 UNL     1      12.795  50.682  83.020  1.00  0.00     0.277 C
BRANCH  32  33
HETATM   33  C18 UNL     1      14.063  51.276  82.502  1.00  0.00     0.070 C
BRANCH  33  34
HETATM   34  C19 UNL     1      14.394  50.862  81.138  1.00  0.00    -0.032 A
HETATM   35  C20 UNL     1      15.463  51.259  80.385  1.00  0.00     0.033 A
HETATM   36  C21 UNL     1      15.341  50.597  79.171  1.00  0.00     0.142 A
HETATM   37  O2  UNL     1      14.252  49.848  79.211  1.00  0.00    -0.334 OA
HETATM   38  C22 UNL     1      13.673  49.990  80.369  1.00  0.00     0.148 A
ENDBRANCH  33  34
ENDBRANCH  32  33
ENDBRANCH  11  32
TORSDOF 7
ENDMDL