MODEL 2
REMARK VINA RESULT: -3.191834312      5.726      7.121
REMARK  3 active torsions:
REMARK  status: ('A' for Active; 'I' for Inactive)
REMARK    1  A    between atoms: O1_2  and  C2_3
REMARK    2  A    between atoms: C2_3  and  C3_5
REMARK    3  A    between atoms: C3_5  and  C4_6
ROOT
HETATM    1  C3  UNL     1      34.051  11.633  -1.559  1.00  0.00     0.170 C
HETATM    2  C5  UNL     1      34.003  13.122  -1.378  1.00  0.00     0.111 C
HETATM    3  S1  UNL     1      32.333  13.558  -1.968  1.00  0.00    -0.157 SA
HETATM    4  C6  UNL     1      32.010  12.345  -3.305  1.00  0.00     0.149 C
HETATM    5  S2  UNL     1      33.616  11.463  -3.327  1.00  0.00    -0.132 SA
ENDROOT
BRANCH   1   6
HETATM    6  C2  UNL     1      32.990  10.929  -0.801  1.00  0.00     0.284 C
HETATM    7  O2  UNL     1      32.313   9.968  -1.240  1.00  0.00    -0.263 OA
BRANCH   6   8
HETATM    8  O1  UNL     1      32.723  11.358   0.489  1.00  0.00    -0.325 OA
HETATM    9  C1  UNL     1      33.168  10.590   1.593  1.00  0.00     0.213 C
ENDBRANCH   6   8
ENDBRANCH   1   6
BRANCH   1  10
HETATM   10  C4  UNL     1      35.391  11.039  -1.259  1.00  0.00     0.282 C
HETATM   11  F1  UNL     1      35.212   9.786  -0.758  1.00  0.00    -0.205 F
HETATM   12 CL1  UNL     1      36.278  10.920  -2.817  1.00  0.00    -0.064 Cl
HETATM   13 CL2  UNL     1      36.336  12.040  -0.172  1.00  0.00    -0.064 Cl
ENDBRANCH   1  10
TORSDOF 3
ENDMDL