MODEL 3
REMARK VINA RESULT: -3.791498595     10.374     11.891
REMARK  1 active torsions:
REMARK  status: ('A' for Active; 'I' for Inactive)
REMARK    1  A    between atoms: C5_12  and  N4_13
ROOT
HETATM    1  N1  UNL     1      28.465  14.108  -0.063  1.00  0.00    -0.191 NA
HETATM    2  C1  UNL     1      27.641  14.891   0.229  1.00  0.00     0.106 C
HETATM    3  C2  UNL     1      26.644  15.849   0.612  1.00  0.00     0.127 A
HETATM    4  C3  UNL     1      26.780  16.562   1.816  1.00  0.00     0.130 A
HETATM    5 CL1  UNL     1      28.210  16.233   2.804  1.00  0.00    -0.063 Cl
HETATM    6  N2  UNL     1      25.850  17.446   2.173  1.00  0.00    -0.322 N
ATOM      7  H2  UNL     1      25.939  17.968   3.044  1.00  0.00     0.169 HD
HETATM    8  C4  UNL     1      24.796  17.636   1.368  1.00  0.00     0.181 A
HETATM    9 CL2  UNL     1      23.596  18.811   1.879  1.00  0.00    -0.045 Cl
HETATM   10  N3  UNL     1      24.658  16.958   0.215  1.00  0.00    -0.317 N
ATOM     11  H3  UNL     1      23.839  17.139  -0.364  1.00  0.00     0.170 HD
HETATM   12  C5  UNL     1      25.561  16.049  -0.207  1.00  0.00     0.129 A
ENDROOT
BRANCH  12  13
HETATM   13  N4  UNL     1      25.435  15.330  -1.420  1.00  0.00    -0.366 N
HETATM   14  C6  UNL     1      25.975  15.712  -2.677  1.00  0.00     0.127 C
HETATM   15  C7  UNL     1      26.328  14.462  -3.440  1.00  0.00     0.057 C
HETATM   16  C8  UNL     1      25.036  13.772  -3.838  1.00  0.00     0.173 C
HETATM   17  F1  UNL     1      24.495  14.493  -4.883  1.00  0.00    -0.249 F
HETATM   18  C9  UNL     1      24.057  13.723  -2.699  1.00  0.00     0.057 C
HETATM   19  C10 UNL     1      24.674  14.083  -1.376  1.00  0.00     0.127 C
ENDBRANCH  12  13
TORSDOF 1
ENDMDL