MODEL 5
REMARK VINA RESULT: -3.457337845      9.326     10.733
REMARK  2 active torsions:
REMARK  status: ('A' for Active; 'I' for Inactive)
REMARK    1  A    between atoms: C1_2  and  C2_5
REMARK    2  A    between atoms: C3_9  and  N2_10
ROOT
HETATM    1  C2  UNL     1      39.281   9.163  -4.544  1.00  0.00     0.145 A
HETATM    2  N1  UNL     1      40.554   8.880  -4.910  1.00  0.00    -0.309 N
ATOM      3  H1  UNL     1      41.409   9.402  -4.720  1.00  0.00     0.176 HD
HETATM    4  S1  UNL     1      40.355   7.429  -5.767  1.00  0.00     0.024 SA
HETATM    5  C3  UNL     1      38.648   7.272  -5.634  1.00  0.00     0.164 A
HETATM    6  N3  UNL     1      38.372   8.351  -4.926  1.00  0.00    -0.321 N
ATOM      7  H3  UNL     1      37.401   8.543  -4.675  1.00  0.00     0.169 HD
ENDROOT
BRANCH   5   8
HETATM    8  N2  UNL     1      37.855   6.234  -6.147  1.00  0.00    -0.360 N
HETATM    9  C4  UNL     1      37.023   6.106  -7.311  1.00  0.00     0.125 C
HETATM   10  C5  UNL     1      37.421   4.680  -7.811  1.00  0.00     0.021 C
HETATM   11  C6  UNL     1      37.242   3.950  -6.485  1.00  0.00     0.021 C
HETATM   12  C7  UNL     1      37.844   4.884  -5.496  1.00  0.00     0.125 C
ENDBRANCH   5   8
BRANCH   1  13
HETATM   13  C1  UNL     1      39.056  10.397  -3.685  1.00  0.00     0.247 C
HETATM   14 CL1  UNL     1      39.281  11.901  -4.583  1.00  0.00    -0.075 Cl
HETATM   15 CL2  UNL     1      40.126  10.338  -2.272  1.00  0.00    -0.075 Cl
HETATM   16 CL3  UNL     1      37.379  10.381  -3.056  1.00  0.00    -0.075 Cl
ENDBRANCH   1  13
TORSDOF 2
ENDMDL