MODEL 1
REMARK VINA RESULT: -3.515358945      0.000      0.000
REMARK  2 active torsions:
REMARK  status: ('A' for Active; 'I' for Inactive)
REMARK    1  A    between atoms: C3_3  and  N1_4
REMARK    2  A    between atoms: N4_12  and  C8_13
ROOT
HETATM    1  C1  UNL     1      36.592  12.111   1.841  1.00  0.00     0.072 C
HETATM    2  C2  UNL     1      35.349  11.583   1.288  1.00  0.00     0.059 A
HETATM    3  C3  UNL     1      34.939  11.541  -0.032  1.00  0.00     0.093 A
HETATM    4  C6  UNL     1      33.678  10.944  -0.025  1.00  0.00     0.157 A
HETATM    5  C7  UNL     1      32.817  10.663  -1.130  1.00  0.00     0.121 C
HETATM    6  N2  UNL     1      32.093  10.421  -2.005  1.00  0.00    -0.190 NA
HETATM    7  N3  UNL     1      33.387  10.657   1.280  1.00  0.00    -0.283 N
ATOM      8  H3  UNL     1      32.528  10.214   1.604  1.00  0.00     0.188 HD
HETATM    9  N4  UNL     1      34.378  11.037   2.053  1.00  0.00    -0.241 N
ENDROOT
BRANCH   3  10
HETATM   10  N1  UNL     1      35.618  11.983  -1.169  1.00  0.00    -0.386 N
HETATM   11  C4  UNL     1      36.431  11.061  -1.979  1.00  0.00     0.149 C
HETATM   12  C5  UNL     1      35.573  13.348  -1.621  1.00  0.00     0.149 C
ENDBRANCH   3  10
BRANCH   9  13
HETATM   13  C8  UNL     1      34.383  10.873   3.466  1.00  0.00     0.286 C
HETATM   14 CL1  UNL     1      35.751   9.944   4.104  1.00  0.00    -0.059 Cl
HETATM   15 CL2  UNL     1      32.921   9.968   4.020  1.00  0.00    -0.059 Cl
HETATM   16 CL3  UNL     1      34.270  12.465   4.243  1.00  0.00    -0.059 Cl
ENDBRANCH   9  13
TORSDOF 2
ENDMDL