MODEL 5
REMARK VINA RESULT: -3.239774502      1.159      2.375
REMARK  1 active torsions:
REMARK  status: ('A' for Active; 'I' for Inactive)
REMARK    1  A    between atoms: C4_7  and  C5_8
ROOT
HETATM    1  C1  UNL     1      37.471   3.949  -6.063  1.00  0.00     0.023 C
HETATM    2  C2  UNL     1      38.387   4.805  -6.903  1.00  0.00     0.063 C
HETATM    3  C3  UNL     1      39.177   5.770  -6.088  1.00  0.00     0.165 C
HETATM    4  N1  UNL     1      38.543   7.006  -5.801  1.00  0.00    -0.277 N
HETATM    5  N2  UNL     1      39.033   7.916  -4.914  1.00  0.00    -0.282 N
ATOM      6  H2  UNL     1      39.890   7.800  -4.372  1.00  0.00     0.188 HD
HETATM    7  C4  UNL     1      38.250   8.954  -4.860  1.00  0.00     0.153 A
HETATM    8  N3  UNL     1      37.229   8.781  -5.693  1.00  0.00    -0.329 N
ATOM      9  H3  UNL     1      36.457   9.426  -5.864  1.00  0.00     0.168 HD
HETATM   10  C6  UNL     1      37.428   7.552  -6.274  1.00  0.00     0.109 A
HETATM   11  C7  UNL     1      36.520   6.914  -7.287  1.00  0.00     0.152 C
HETATM   12  S1  UNL     1      37.459   5.675  -8.196  1.00  0.00    -0.155 SA
ENDROOT
BRANCH   7  13
HETATM   13  C5  UNL     1      38.483  10.148  -3.961  1.00  0.00     0.248 C
HETATM   14 CL1  UNL     1      40.002   9.916  -3.020  1.00  0.00    -0.075 Cl
HETATM   15 CL2  UNL     1      37.073  10.307  -2.888  1.00  0.00    -0.075 Cl
HETATM   16 CL3  UNL     1      38.599  11.560  -5.028  1.00  0.00    -0.075 Cl
ENDBRANCH   7  13
TORSDOF 1
ENDMDL