MODEL 5
REMARK VINA RESULT: -3.576768445      4.118      6.415
REMARK  2 active torsions:
REMARK  status: ('A' for Active; 'I' for Inactive)
REMARK    1  A    between atoms: N1_2  and  C3_5
REMARK    2  A    between atoms: C3_5  and  O1_6
ROOT
HETATM    1  C1  UNL     1      35.315  11.789   1.867  1.00  0.00     0.171 C
HETATM    2  N1  UNL     1      34.128  11.107   1.511  1.00  0.00    -0.268 N
HETATM    3  C2  UNL     1      33.560  10.276   2.596  1.00  0.00     0.185 C
HETATM    4  N2  UNL     1      33.111   9.636   3.415  1.00  0.00    -0.172 NA
ENDROOT
BRANCH   2   5
HETATM    5  C3  UNL     1      33.433  11.097   0.326  1.00  0.00     0.170 C
HETATM    6  C4  UNL     1      33.654  11.199  -1.088  1.00  0.00     0.081 A
HETATM    7  S1  UNL     1      32.305  11.120  -2.238  1.00  0.00    -0.070 SA
HETATM    8  C7  UNL     1      34.682  11.354  -1.949  1.00  0.00     0.079 A
HETATM    9  C5  UNL     1      33.155  11.289  -3.686  1.00  0.00     0.099 A
HETATM   10 CL1  UNL     1      32.434  11.301  -5.287  1.00  0.00    -0.074 Cl
HETATM   11  C6  UNL     1      34.442  11.401  -3.272  1.00  0.00     0.086 A
HETATM   12 CL2  UNL     1      35.687  11.602  -4.541  1.00  0.00    -0.080 Cl
HETATM   13 CL3  UNL     1      36.364  11.498  -1.378  1.00  0.00    -0.081 Cl
BRANCH   5  14
HETATM   14  O1  UNL     1      32.118  10.942   0.570  1.00  0.00    -0.344 OA
ATOM     15  H1  UNL     1      31.613  11.288  -0.158  1.00  0.00     0.219 HD
ENDBRANCH   5  14
ENDBRANCH   2   5
TORSDOF 2
ENDMDL