MODEL 2
REMARK VINA RESULT: -3.584019764     11.984     13.508
REMARK  2 active torsions:
REMARK  status: ('A' for Active; 'I' for Inactive)
REMARK    1  A    between atoms: C1_2  and  C2_5
REMARK    2  A    between atoms: N3_11  and  N4_12
ROOT
HETATM    1  C2  UNL     1      37.102   5.652  -7.396  1.00  0.00     0.178 A
HETATM    2  N1  UNL     1      37.240   4.348  -7.316  1.00  0.00    -0.335 N
ATOM      3  H1  UNL     1      37.181   3.716  -8.115  1.00  0.00     0.168 HD
HETATM    4  C3  UNL     1      37.466   3.949  -6.058  1.00  0.00     0.201 A
HETATM    5  N2  UNL     1      37.467   5.084  -5.316  1.00  0.00    -0.274 N
ATOM      6  H2  UNL     1      37.616   5.130  -4.308  1.00  0.00     0.190 HD
HETATM    7  N3  UNL     1      37.244   6.132  -6.114  1.00  0.00    -0.177 N
ENDROOT
BRANCH   7   8
HETATM    8  N4  UNL     1      37.190   7.440  -5.741  1.00  0.00    -0.261 N
HETATM    9  C4  UNL     1      38.033   8.173  -5.183  1.00  0.00     0.134 C
HETATM   10  C5  UNL     1      37.600   9.606  -4.926  1.00  0.00     0.086 C
HETATM   11  O1  UNL     1      39.293   7.774  -4.786  1.00  0.00    -0.338 OA
HETATM   12  C6  UNL     1      38.663  10.598  -5.337  1.00  0.00     0.010 C
HETATM   13  C7  UNL     1      39.978   9.895  -5.596  1.00  0.00     0.027 C
HETATM   14  C8  UNL     1      40.266   8.817  -4.621  1.00  0.00     0.177 C
ATOM     15  H4  UNL     1      36.306   7.903  -5.955  1.00  0.00     0.191 HD
ENDBRANCH   7   8
BRANCH   1  16
HETATM   16  C1  UNL     1      36.821   6.517  -8.575  1.00  0.00     0.250 C
HETATM   17 CL1  UNL     1      36.657   5.448 -10.034  1.00  0.00    -0.075 Cl
HETATM   18 CL2  UNL     1      35.284   7.336  -8.355  1.00  0.00    -0.075 Cl
HETATM   19 CL3  UNL     1      38.141   7.681  -8.832  1.00  0.00    -0.075 Cl
ENDBRANCH   1  16
TORSDOF 2
ENDMDL