MODEL 5
REMARK VINA RESULT: -3.420381977      3.041      4.432
REMARK  1 active torsions:
REMARK  status: ('A' for Active; 'I' for Inactive)
REMARK    1  A    between atoms: C3_9  and  N3_10
ROOT
HETATM    1  F1  UNL     1      35.208   8.465   7.429  1.00  0.00    -0.184 F
HETATM    2  C1  UNL     1      34.307   9.254   6.786  1.00  0.00     0.216 A
HETATM    3  N1  UNL     1      33.004   9.286   7.190  1.00  0.00    -0.308 N
ATOM      4  H1  UNL     1      32.692   8.719   7.978  1.00  0.00     0.170 HD
HETATM    5  C2  UNL     1      32.151  10.066   6.543  1.00  0.00     0.182 A
HETATM    6 CL1  UNL     1      30.446  10.174   6.993  1.00  0.00    -0.045 Cl
HETATM    7  N2  UNL     1      32.566  10.795   5.526  1.00  0.00    -0.317 N
ATOM      8  H2  UNL     1      31.884  11.385   5.049  1.00  0.00     0.170 HD
HETATM    9  C3  UNL     1      33.856  10.810   5.070  1.00  0.00     0.132 A
HETATM   10  C8  UNL     1      34.765  10.009   5.726  1.00  0.00     0.134 A
HETATM   11 CL2  UNL     1      36.450   9.911   5.259  1.00  0.00    -0.075 Cl
ENDROOT
BRANCH   9  12
HETATM   12  N3  UNL     1      34.239  11.620   3.979  1.00  0.00    -0.364 N
HETATM   13  C4  UNL     1      34.811  12.938   4.120  1.00  0.00     0.134 C
HETATM   14  C5  UNL     1      35.418  13.415   2.805  1.00  0.00     0.093 C
HETATM   15  S1  UNL     1      36.481  12.093   2.153  1.00  0.00    -0.166 SA
HETATM   16  C6  UNL     1      35.389  10.616   2.093  1.00  0.00     0.093 C
HETATM   17  C7  UNL     1      34.053  11.116   2.634  1.00  0.00     0.134 C
ENDBRANCH   9  12
TORSDOF 1
ENDMDL