MODEL 1
REMARK VINA RESULT: -4.142338135      0.000      0.000
REMARK  1 active torsions:
REMARK  status: ('A' for Active; 'I' for Inactive)
REMARK    1  A    between atoms: C4_10  and  C5_11
ROOT
HETATM    1  C1  UNL     1      29.971   9.837   6.430  1.00  0.00     0.064 C
HETATM    2  C2  UNL     1      31.430   9.934   6.038  1.00  0.00     0.004 A
HETATM    3  N1  UNL     1      31.749   9.997   4.818  1.00  0.00    -0.198 N
ATOM      4  H1  UNL     1      31.007   9.980   4.117  1.00  0.00     0.183 HD
HETATM    5  C3  UNL     1      33.084  10.090   4.385  1.00  0.00     0.702 A
HETATM    6  N2  UNL     1      33.665  10.156   3.144  1.00  0.00    -0.130 N
ATOM      7  H2  UNL     1      33.161  10.155   2.257  1.00  0.00     0.205 HD
HETATM    8  N3  UNL     1      34.976  10.219   3.275  1.00  0.00    -0.272 N
ATOM      9  H3  UNL     1      35.654  10.277   2.515  1.00  0.00     0.189 HD
HETATM   10  C4  UNL     1      35.258  10.195   4.589  1.00  0.00     0.150 A
HETATM   11  N4  UNL     1      34.080  10.114   5.274  1.00  0.00    -0.143 N
HETATM   12  C6  UNL     1      33.867  10.070   6.693  1.00  0.00     0.134 A
HETATM   13  C7  UNL     1      34.436  11.339   7.348  1.00  0.00     0.058 C
HETATM   14 CL3  UNL     1      34.748   8.706   7.438  1.00  0.00    -0.094 Cl
HETATM   15  C8  UNL     1      32.440   9.942   7.106  1.00  0.00     0.101 A
ENDROOT
BRANCH  10  16
HETATM   16  C5  UNL     1      36.627  10.244   5.189  1.00  0.00     0.247 C
HETATM   17 CL1  UNL     1      37.784   9.452   4.057  1.00  0.00    -0.100 Cl
HETATM   18 CL2  UNL     1      37.143  11.952   5.285  1.00  0.00    -0.100 Cl
ENDBRANCH  10  16
TORSDOF 1
ENDMDL