MODEL 4
REMARK VINA RESULT: -3.444519418      3.052      4.445
REMARK  2 active torsions:
REMARK  status: ('A' for Active; 'I' for Inactive)
REMARK    1  A    between atoms: C2_2  and  O1_3
REMARK    2  A    between atoms: O1_3  and  C3_4
REMARK       I    between atoms: C3_4  and  N1_6
ROOT
HETATM    1  C3  UNL     1      32.646   9.734   6.219  1.00  0.00     0.375 C
HETATM    2  O2  UNL     1      32.889   9.543   7.435  1.00  0.00    -0.237 OA
HETATM    3  N1  UNL     1      33.722   9.862   5.295  1.00  0.00    -0.209 N
HETATM    4  C4  UNL     1      35.030   9.797   5.595  1.00  0.00     0.168 A
HETATM    5 BR1  UNL     1      35.707   9.513   7.366  1.00  0.00    -0.010 Br
HETATM    6  N2  UNL     1      35.771   9.958   4.488  1.00  0.00    -0.323 N
ATOM      7  H2  UNL     1      36.790   9.951   4.449  1.00  0.00     0.169 HD
HETATM    8  C5  UNL     1      34.940  10.133   3.424  1.00  0.00     0.162 A
HETATM    9 CL1  UNL     1      35.415  10.385   1.756  1.00  0.00    -0.059 Cl
HETATM   10  C6  UNL     1      33.674  10.067   3.969  1.00  0.00     0.240 A
HETATM   11  F1  UNL     1      32.516  10.192   3.266  1.00  0.00    -0.182 F
ENDROOT
BRANCH   1  12
HETATM   12  O1  UNL     1      31.316   9.811   5.842  1.00  0.00    -0.304 OA
BRANCH  12  13
HETATM   13  C2  UNL     1      30.284  10.216   6.722  1.00  0.00     0.176 C
HETATM   14  C1  UNL     1      30.381  11.720   6.868  1.00  0.00     0.034 C
ENDBRANCH  12  13
ENDBRANCH   1  12
TORSDOF 2
ENDMDL