MODEL 3
REMARK VINA RESULT: -7.520910982      5.732      6.673
REMARK  6 active torsions:
REMARK  status: ('A' for Active; 'I' for Inactive)
REMARK    1  A    between atoms: O1_2  and  C2_3
REMARK    2  A    between atoms: C4_5  and  C5_6
REMARK    3  A    between atoms: N2_13  and  C8_14
REMARK    4  A    between atoms: C11_18  and  O2_19
REMARK    5  A    between atoms: C16_28  and  O4_29
REMARK    6  A    between atoms: C18_31  and  O5_32
ROOT
HETATM    1  C5  UNL     1     -77.174 -20.573  88.358  1.00  0.00     0.036 C
HETATM    2  C6  UNL     1     -76.116 -19.884  88.690  1.00  0.00     0.077 C
HETATM    3  S1  UNL     1     -75.128 -20.351  90.149  1.00  0.00    -0.048 SA
HETATM    4  C7  UNL     1     -73.695 -19.412  89.646  1.00  0.00     0.153 C
HETATM    5  N1  UNL     1     -72.519 -19.589  90.144  1.00  0.00    -0.379 N
ATOM      6  H11 UNL     1     -71.700 -19.053  89.857  1.00  0.00     0.158 HD
ATOM      7  H12 UNL     1     -72.195 -20.238  90.862  1.00  0.00     0.158 HD
HETATM    8  N2  UNL     1     -74.138 -18.523  88.662  1.00  0.00    -0.256 N
HETATM    9  C14 UNL     1     -75.422 -18.765  88.148  1.00  0.00     0.271 C
HETATM   10  O3  UNL     1     -75.929 -18.016  87.240  1.00  0.00    -0.266 OA
ENDROOT
BRANCH   1  11
HETATM   11  C4  UNL     1     -78.078 -20.342  87.235  1.00  0.00    -0.029 A
HETATM   12  C3  UNL     1     -77.701 -19.885  85.996  1.00  0.00     0.051 A
HETATM   13  C2  UNL     1     -78.621 -19.724  84.974  1.00  0.00     0.105 A
HETATM   14  C18 UNL     1     -79.950 -20.021  85.181  1.00  0.00     0.135 A
HETATM   15  C16 UNL     1     -80.383 -20.486  86.422  1.00  0.00     0.105 A
HETATM   16  C15 UNL     1     -79.429 -20.627  87.398  1.00  0.00     0.051 A
BRANCH  13  17
HETATM   17  O1  UNL     1     -78.214 -19.268  83.749  1.00  0.00    -0.353 OA
HETATM   18  C1  UNL     1     -77.386 -18.145  83.551  1.00  0.00     0.210 C
ENDBRANCH  13  17
BRANCH  14  19
HETATM   19  O5  UNL     1     -80.916 -19.881  84.201  1.00  0.00    -0.351 OA
HETATM   20  C19 UNL     1     -81.611 -18.678  83.945  1.00  0.00     0.210 C
ENDBRANCH  14  19
BRANCH  15  21
HETATM   21  O4  UNL     1     -81.725 -20.783  86.621  1.00  0.00    -0.353 OA
HETATM   22  C17 UNL     1     -82.493 -19.934  87.453  1.00  0.00     0.210 C
ENDBRANCH  15  21
ENDBRANCH   1  11
BRANCH   8  23
HETATM   23  C8  UNL     1     -73.293 -17.437  88.229  1.00  0.00     0.067 A
HETATM   24  C9  UNL     1     -72.452 -17.622  87.133  1.00  0.00     0.076 A
HETATM   25  C10 UNL     1     -71.645 -16.580  86.721  1.00  0.00     0.153 A
HETATM   26  F1  UNL     1     -70.826 -16.765  85.651  1.00  0.00    -0.203 F
HETATM   27  C11 UNL     1     -71.641 -15.360  87.359  1.00  0.00     0.127 A
HETATM   28  C12 UNL     1     -72.485 -15.205  88.443  1.00  0.00     0.089 A
HETATM   29 CL1  UNL     1     -72.478 -13.637  89.260  1.00  0.00    -0.080 Cl
HETATM   30  C13 UNL     1     -73.298 -16.232  88.867  1.00  0.00     0.063 A
HETATM   31 BR1  UNL     1     -74.420 -15.905  90.371  1.00  0.00    -0.047 Br
BRANCH  27  32
HETATM   32  O2  UNL     1     -70.803 -14.354  86.893  1.00  0.00    -0.356 OA
ATOM     33  H2  UNL     1     -70.964 -13.456  87.160  1.00  0.00     0.218 HD
ENDBRANCH  27  32
ENDBRANCH   8  23
TORSDOF 6
ENDMDL