MODEL 2
REMARK VINA RESULT: -9.309841738      0.827      2.164
REMARK  8 active torsions:
REMARK  status: ('A' for Active; 'I' for Inactive)
REMARK    1  A    between atoms: O1_2  and  C2_3
REMARK    2  A    between atoms: C4_5  and  C5_6
REMARK    3  A    between atoms: C12_13  and  O2_14
REMARK    4  A    between atoms: C14_18  and  C15_19
REMARK    5  A    between atoms: C15_19  and  O3_20
REMARK    6  A    between atoms: C15_19  and  O4_22
REMARK    7  A    between atoms: C21_31  and  O6_32
REMARK    8  A    between atoms: C23_34  and  O7_35
ROOT
HETATM    1  C5  UNL     1     -78.813 -18.842  83.824  1.00  0.00    -0.022 A
HETATM    2  C6  UNL     1     -78.977 -18.870  82.476  1.00  0.00     0.013 A
HETATM    3  C7  UNL     1     -77.967 -18.435  81.662  1.00  0.00     0.011 A
HETATM    4  C8  UNL     1     -76.788 -17.971  82.202  1.00  0.00    -0.023 A
HETATM    5  C9  UNL     1     -76.623 -17.944  83.593  1.00  0.00    -0.011 A
HETATM    6  C10 UNL     1     -77.626 -18.375  84.407  1.00  0.00     0.025 A
HETATM    7  C11 UNL     1     -75.360 -17.445  84.158  1.00  0.00     0.045 A
HETATM    8  C12 UNL     1     -75.177 -17.410  85.508  1.00  0.00     0.102 A
HETATM    9  C13 UNL     1     -73.956 -16.926  86.001  1.00  0.00     0.081 A
HETATM   10 CL1  UNL     1     -73.658 -16.840  87.720  1.00  0.00    -0.081 Cl
HETATM   11  C14 UNL     1     -72.975 -16.502  85.137  1.00  0.00     0.045 A
HETATM   12  C17 UNL     1     -73.177 -16.546  83.777  1.00  0.00     0.081 A
HETATM   13 CL2  UNL     1     -71.947 -16.013  82.649  1.00  0.00    -0.081 Cl
HETATM   14  C18 UNL     1     -74.383 -17.022  83.263  1.00  0.00     0.105 A
HETATM   15  O5  UNL     1     -74.581 -17.064  81.905  1.00  0.00    -0.344 OA
HETATM   16  C19 UNL     1     -75.735 -17.517  81.289  1.00  0.00     0.215 A
ENDROOT
BRANCH   1  17
HETATM   17  C4  UNL     1     -79.894 -19.312  84.720  1.00  0.00     0.018 A
HETATM   18  C3  UNL     1     -81.180 -18.830  84.587  1.00  0.00     0.055 A
HETATM   19  C2  UNL     1     -82.219 -19.238  85.391  1.00  0.00     0.105 A
HETATM   20  C23 UNL     1     -81.944 -20.180  86.377  1.00  0.00     0.138 A
HETATM   21  C21 UNL     1     -80.675 -20.691  86.548  1.00  0.00     0.144 A
HETATM   22  C20 UNL     1     -79.666 -20.243  85.709  1.00  0.00     0.163 A
HETATM   23  F1  UNL     1     -78.443 -20.750  85.896  1.00  0.00    -0.202 F
BRANCH  19  24
HETATM   24  O1  UNL     1     -83.518 -18.761  85.270  1.00  0.00    -0.353 OA
HETATM   25  C1  UNL     1     -83.928 -17.755  86.178  1.00  0.00     0.210 C
ENDBRANCH  19  24
BRANCH  20  26
HETATM   26  O7  UNL     1     -82.962 -20.617  87.208  1.00  0.00    -0.351 OA
HETATM   27  C24 UNL     1     -83.846 -21.656  86.878  1.00  0.00     0.210 C
ENDBRANCH  20  26
BRANCH  21  28
HETATM   28  O6  UNL     1     -80.471 -21.627  87.551  1.00  0.00    -0.350 OA
HETATM   29  C22 UNL     1     -79.999 -21.101  88.801  1.00  0.00     0.210 C
ENDBRANCH  21  28
ENDBRANCH   1  17
BRANCH   8  30
HETATM   30  O2  UNL     1     -76.075 -17.802  86.462  1.00  0.00    -0.358 OA
ATOM     31  H2  UNL     1     -76.919 -18.212  86.310  1.00  0.00     0.217 HD
ENDBRANCH   8  30
BRANCH  11  32
HETATM   32  C15 UNL     1     -71.649 -15.988  85.611  1.00  0.00     0.294 C
BRANCH  32  33
HETATM   33  O3  UNL     1     -70.984 -16.991  86.334  1.00  0.00    -0.367 OA
ATOM     34  H3  UNL     1     -71.574 -17.367  86.976  1.00  0.00     0.213 HD
ENDBRANCH  32  33
BRANCH  32  35
HETATM   35  O4  UNL     1     -71.773 -14.833  86.360  1.00  0.00    -0.362 OA
HETATM   36  C16 UNL     1     -70.819 -14.748  87.360  1.00  0.00     0.205 C
ENDBRANCH  32  35
ENDBRANCH  11  32
TORSDOF 8
ENDMDL