MODEL 2
REMARK VINA RESULT: -9.579905372      3.186      9.859
REMARK  6 active torsions:
REMARK  status: ('A' for Active; 'I' for Inactive)
REMARK    1  A    between atoms: C3_4  and  N2_5
REMARK    2  A    between atoms: C5_9  and  C6_10
REMARK    3  A    between atoms: N4_21  and  N5_23
REMARK    4  A    between atoms: C13_25  and  C14_26
REMARK    5  A    between atoms: C18_31  and  N6_32
REMARK    6  A    between atoms: C19_35  and  O5_36
ROOT
HETATM    1  N1  UNL     1     -75.243 -17.625  87.554  1.00  0.00    -0.191 NA
HETATM    2  C1  UNL     1     -74.630 -17.269  86.619  1.00  0.00     0.106 C
HETATM    3  C2  UNL     1     -73.879 -16.809  85.482  1.00  0.00     0.122 A
HETATM    4  C3  UNL     1     -72.639 -16.241  85.677  1.00  0.00     0.129 A
HETATM    5  C4  UNL     1     -71.861 -15.771  84.631  1.00  0.00     0.068 A
HETATM    6  C5  UNL     1     -72.375 -15.887  83.343  1.00  0.00     0.048 A
HETATM    7  N3  UNL     1     -73.581 -16.437  83.159  1.00  0.00    -0.339 N
ATOM      8  H3  UNL     1     -73.942 -16.512  82.208  1.00  0.00     0.167 HD
HETATM    9  C12 UNL     1     -74.357 -16.909  84.196  1.00  0.00     0.144 A
HETATM   10  N4  UNL     1     -75.482 -17.419  83.956  1.00  0.00    -0.284 N
ATOM     11  H4  UNL     1     -75.701 -17.423  82.960  1.00  0.00     0.188 HD
ENDROOT
BRANCH   4  12
HETATM   12  N2  UNL     1     -72.076 -16.101  86.970  1.00  0.00    -0.114 N
HETATM   13  O1  UNL     1     -71.342 -16.982  87.463  1.00  0.00    -0.532 OA
HETATM   14  O2  UNL     1     -72.306 -14.995  87.737  1.00  0.00    -0.532 OA
ENDBRANCH   4  12
BRANCH  10  15
HETATM   15  N5  UNL     1     -76.464 -17.959  84.697  1.00  0.00    -0.309 N
HETATM   16  C13 UNL     1     -76.995 -19.128  84.516  1.00  0.00     0.121 C
ATOM     17  H5  UNL     1     -76.824 -17.400  85.471  1.00  0.00     0.186 HD
BRANCH  16  18
HETATM   18  C14 UNL     1     -78.058 -19.643  85.368  1.00  0.00     0.018 A
HETATM   19  C15 UNL     1     -77.828 -19.991  86.673  1.00  0.00     0.039 A
HETATM   20  C16 UNL     1     -78.840 -20.484  87.462  1.00  0.00     0.037 A
HETATM   21 CL3  UNL     1     -78.507 -20.915  89.115  1.00  0.00    -0.084 Cl
HETATM   22  C17 UNL     1     -80.109 -20.650  86.982  1.00  0.00     0.062 A
HETATM   23  C18 UNL     1     -80.383 -20.304  85.645  1.00  0.00     0.138 A
HETATM   24  C19 UNL     1     -79.360 -19.811  84.872  1.00  0.00     0.110 A
BRANCH  23  25
HETATM   25  N6  UNL     1     -81.722 -20.491  85.204  1.00  0.00    -0.113 N
HETATM   26  O3  UNL     1     -81.953 -21.108  84.114  1.00  0.00    -0.532 OA
HETATM   27  O4  UNL     1     -82.759 -20.011  85.944  1.00  0.00    -0.532 OA
ENDBRANCH  23  25
BRANCH  24  28
HETATM   28  O5  UNL     1     -79.534 -19.446  83.563  1.00  0.00    -0.357 OA
ATOM     29  H5  UNL     1     -80.286 -19.835  83.133  1.00  0.00     0.217 HD
ENDBRANCH  24  28
ENDBRANCH  16  18
ENDBRANCH  10  15
BRANCH   6  30
HETATM   30  C6  UNL     1     -71.487 -15.460  82.269  1.00  0.00     0.014 A
HETATM   31  C7  UNL     1     -71.268 -14.087  82.081  1.00  0.00     0.039 A
HETATM   32  C8  UNL     1     -70.406 -13.571  81.149  1.00  0.00     0.035 A
HETATM   33 CL1  UNL     1     -70.174 -11.846  80.963  1.00  0.00    -0.084 Cl
HETATM   34  C9  UNL     1     -69.693 -14.406  80.325  1.00  0.00     0.025 A
HETATM   35  C10 UNL     1     -69.884 -15.750  80.482  1.00  0.00     0.026 A
HETATM   36  C11 UNL     1     -70.770 -16.277  81.443  1.00  0.00     0.046 A
HETATM   37 CL2  UNL     1     -70.874 -18.009  81.588  1.00  0.00    -0.083 Cl
ENDBRANCH   6  30
TORSDOF 6
ENDMDL