MODEL 5
REMARK VINA RESULT: -8.395653584      3.414      7.982
REMARK  9 active torsions:
REMARK  status: ('A' for Active; 'I' for Inactive)
REMARK    1  A    between atoms: C2_2  and  O1_3
REMARK    2  A    between atoms: O1_3  and  C3_4
REMARK    3  A    between atoms: C3_4  and  O2_5
REMARK    4  A    between atoms: C6_9  and  C7_10
REMARK    5  A    between atoms: N2_13  and  C8_14
REMARK    6  A    between atoms: C8_14  and  C9_15
REMARK    7  A    between atoms: C9_15  and  O3_16
REMARK    8  A    between atoms: C9_15  and  C10_18
REMARK    9  A    between atoms: C19_28  and  C20_29
ROOT
HETATM    1  C7  UNL     1     -76.564 -18.114  83.634  1.00  0.00     0.043 A
HETATM    2  N1  UNL     1     -76.161 -17.954  82.335  1.00  0.00    -0.300 N
ATOM      3  H1  UNL     1     -76.769 -18.010  81.518  1.00  0.00     0.187 HD
HETATM    4  N2  UNL     1     -74.877 -17.718  82.304  1.00  0.00    -0.282 N
HETATM    5  C14 UNL     1     -74.444 -17.726  83.603  1.00  0.00     0.104 A
HETATM    6  S1  UNL     1     -73.067 -17.522  84.570  1.00  0.00    -0.073 SA
HETATM    7  C15 UNL     1     -73.777 -17.743  86.099  1.00  0.00     0.001 A
HETATM    8  C16 UNL     1     -75.097 -17.977  85.816  1.00  0.00    -0.028 A
HETATM    9  C17 UNL     1     -75.449 -17.968  84.488  1.00  0.00     0.031 A
HETATM   10  C18 UNL     1     -76.054 -18.213  86.987  1.00  0.00     0.065 C
HETATM   11  C19 UNL     1     -75.563 -19.080  88.033  1.00  0.00     0.159 C
HETATM   12  S2  UNL     1     -73.786 -19.237  88.250  1.00  0.00    -0.150 SA
HETATM   13  C21 UNL     1     -73.165 -17.692  87.464  1.00  0.00     0.121 C
ENDROOT
BRANCH   1  14
HETATM   14  C6  UNL     1     -77.964 -18.421  83.995  1.00  0.00     0.038 C
HETATM   15  C5  UNL     1     -78.696 -18.815  82.689  1.00  0.00     0.016 C
HETATM   16  C4  UNL     1     -80.175 -18.775  82.858  1.00  0.00     0.069 C
HETATM   17  C3  UNL     1     -80.492 -19.529  84.155  1.00  0.00     0.161 C
HETATM   18  C23 UNL     1     -79.364 -20.425  84.541  1.00  0.00     0.069 C
HETATM   19  C22 UNL     1     -78.071 -19.675  84.845  1.00  0.00     0.016 C
BRANCH  17  20
HETATM   20  O1  UNL     1     -81.630 -20.242  83.909  1.00  0.00    -0.356 OA
BRANCH  20  21
HETATM   21  C2  UNL     1     -82.139 -20.965  84.950  1.00  0.00     0.167 C
HETATM   22  C1  UNL     1     -82.369 -22.386  84.461  1.00  0.00     0.033 C
ENDBRANCH  20  21
ENDBRANCH  17  20
BRANCH  17  23
HETATM   23  O2  UNL     1     -80.758 -18.550  85.104  1.00  0.00    -0.365 OA
ATOM     24  H2  UNL     1     -81.442 -18.854  85.688  1.00  0.00     0.213 HD
ENDBRANCH  17  23
ENDBRANCH   1  14
BRANCH   4  25
HETATM   25  C8  UNL     1     -74.009 -17.483  81.179  1.00  0.00     0.182 C
BRANCH  25  26
HETATM   26  C9  UNL     1     -72.798 -18.394  81.305  1.00  0.00     0.145 C
BRANCH  26  27
HETATM   27  O3  UNL     1     -73.189 -19.651  80.883  1.00  0.00    -0.393 OA
ATOM     28  H3  UNL     1     -72.910 -20.269  81.549  1.00  0.00     0.210 HD
ENDBRANCH  26  27
BRANCH  26  29
HETATM   29  C10 UNL     1     -71.714 -17.829  80.408  1.00  0.00    -0.024 C
HETATM   30  C11 UNL     1     -70.648 -17.129  81.219  1.00  0.00     0.017 C
HETATM   31  C12 UNL     1     -72.312 -16.839  79.429  1.00  0.00     0.017 C
HETATM   32  C13 UNL     1     -71.040 -18.918  79.610  1.00  0.00     0.017 C
ENDBRANCH  26  29
ENDBRANCH  25  26
ENDBRANCH   4  25
BRANCH  11  33
HETATM   33  C20 UNL     1     -76.129 -20.476  87.932  1.00  0.00     0.400 C
HETATM   34  F1  UNL     1     -75.691 -21.075  86.763  1.00  0.00    -0.170 F
HETATM   35  F2  UNL     1     -75.729 -21.207  89.037  1.00  0.00    -0.170 F
HETATM   36  F3  UNL     1     -77.503 -20.431  87.933  1.00  0.00    -0.170 F
ENDBRANCH  11  33
TORSDOF 9
ENDMDL