MODEL 4
REMARK VINA RESULT: -6.706390718      3.300      6.178
REMARK  6 active torsions:
REMARK  status: ('A' for Active; 'I' for Inactive)
REMARK    1  A    between atoms: O1_2  and  C2_3
REMARK    2  A    between atoms: C4_5  and  C5_6
REMARK    3  A    between atoms: C10_12  and  O2_13
REMARK    4  A    between atoms: C11_15  and  O3_16
REMARK    5  A    between atoms: C21_30  and  O5_31
REMARK    6  A    between atoms: C23_33  and  O6_34
ROOT
HETATM    1  C5  UNL     1     -74.994 -17.656  85.161  1.00  0.00     0.001 C
HETATM    2  C6  UNL     1     -73.862 -17.953  84.176  1.00  0.00     0.045 A
HETATM    3  C7  UNL     1     -72.576 -17.967  84.609  1.00  0.00     0.084 A
HETATM    4  C8  UNL     1     -71.530 -18.499  83.913  1.00  0.00     0.064 A
HETATM    5  C9  UNL     1     -71.718 -19.064  82.665  1.00  0.00     0.072 A
HETATM    6 CL1  UNL     1     -70.372 -19.771  81.827  1.00  0.00    -0.081 Cl
HETATM    7  C10 UNL     1     -72.979 -19.064  82.176  1.00  0.00     0.121 A
HETATM    8  C11 UNL     1     -74.057 -18.504  82.922  1.00  0.00     0.114 A
HETATM    9  O4  UNL     1     -72.281 -17.290  85.872  1.00  0.00    -0.346 OA
HETATM   10  C12 UNL     1     -73.232 -16.121  85.758  1.00  0.00     0.216 C
HETATM   11  C13 UNL     1     -74.475 -17.007  86.307  1.00  0.00    -0.010 C
HETATM   12  C14 UNL     1     -74.294 -16.677  87.649  1.00  0.00    -0.005 A
HETATM   13  C15 UNL     1     -74.441 -15.378  88.122  1.00  0.00     0.014 A
HETATM   14  C16 UNL     1     -73.766 -14.929  89.251  1.00  0.00     0.001 A
HETATM   15  C17 UNL     1     -72.942 -15.761  89.935  1.00  0.00     0.002 A
HETATM   16  C18 UNL     1     -72.770 -17.070  89.522  1.00  0.00     0.024 A
HETATM   17  C19 UNL     1     -73.434 -17.488  88.416  1.00  0.00     0.044 A
HETATM   18 CL2  UNL     1     -73.364 -19.119  87.963  1.00  0.00    -0.083 Cl
ENDROOT
BRANCH   1  19
HETATM   19  C4  UNL     1     -76.053 -18.634  85.428  1.00  0.00     0.003 A
HETATM   20  C3  UNL     1     -75.713 -19.414  86.607  1.00  0.00     0.054 A
HETATM   21  C2  UNL     1     -76.622 -20.187  87.296  1.00  0.00     0.105 A
HETATM   22  C23 UNL     1     -77.996 -20.237  86.849  1.00  0.00     0.136 A
HETATM   23  C21 UNL     1     -78.315 -19.513  85.733  1.00  0.00     0.127 A
HETATM   24  C20 UNL     1     -77.332 -18.790  85.110  1.00  0.00     0.081 A
HETATM   25 CL3  UNL     1     -77.772 -18.455  83.409  1.00  0.00    -0.080 Cl
BRANCH  21  26
HETATM   26  O1  UNL     1     -76.473 -20.970  88.362  1.00  0.00    -0.353 OA
HETATM   27  C1  UNL     1     -76.057 -20.912  89.621  1.00  0.00     0.210 C
ENDBRANCH  21  26
BRANCH  22  28
HETATM   28  O6  UNL     1     -78.921 -20.970  87.509  1.00  0.00    -0.351 OA
HETATM   29  C24 UNL     1     -79.744 -20.578  88.584  1.00  0.00     0.210 C
ENDBRANCH  22  28
BRANCH  23  30
HETATM   30  O5  UNL     1     -79.642 -19.570  85.314  1.00  0.00    -0.351 OA
HETATM   31  C22 UNL     1     -80.110 -20.652  84.608  1.00  0.00     0.210 C
ENDBRANCH  23  30
ENDBRANCH   1  19
BRANCH   8  32
HETATM   32  O3  UNL     1     -75.324 -18.466  82.380  1.00  0.00    -0.357 OA
ATOM     33  H3  UNL     1     -75.569 -19.141  81.758  1.00  0.00     0.217 HD
ENDBRANCH   8  32
BRANCH   7  34
HETATM   34  O2  UNL     1     -73.256 -19.636  80.905  1.00  0.00    -0.356 OA
ATOM     35  H2  UNL     1     -72.834 -19.297  80.124  1.00  0.00     0.218 HD
ENDBRANCH   7  34
TORSDOF 6
ENDMDL