MODEL 4
REMARK VINA RESULT: -8.523084649      4.052      5.703
REMARK  6 active torsions:
REMARK  status: ('A' for Active; 'I' for Inactive)
REMARK    1  A    between atoms: C4_4  and  N1_5
REMARK    2  A    between atoms: N1_5  and  C5_7
REMARK    3  A    between atoms: C7_9  and  S1_10
REMARK    4  A    between atoms: S1_10  and  C8_11
REMARK    5  A    between atoms: C9_12  and  N2_13
REMARK    6  A    between atoms: C14_25  and  N4_26
ROOT
HETATM    1  C5  UNL     1     -77.862 -19.455  85.061  1.00  0.00     0.039 A
HETATM    2  C6  UNL     1     -77.170 -18.510  84.317  1.00  0.00     0.066 A
HETATM    3  C7  UNL     1     -76.085 -17.789  84.838  1.00  0.00     0.078 A
HETATM    4  N3  UNL     1     -75.759 -18.071  86.103  1.00  0.00    -0.337 N
ATOM      5  H3  UNL     1     -74.975 -17.559  86.505  1.00  0.00     0.168 HD
HETATM    6  C14 UNL     1     -76.370 -18.965  86.891  1.00  0.00     0.106 A
HETATM    7  C19 UNL     1     -77.450 -19.674  86.353  1.00  0.00     0.078 A
ENDROOT
BRANCH   3   8
HETATM    8  S1  UNL     1     -75.234 -16.605  83.829  1.00  0.00    -0.068 SA
BRANCH   8   9
HETATM    9  C8  UNL     1     -73.676 -17.118  83.194  1.00  0.00     0.063 A
HETATM   10  C9  UNL     1     -72.495 -16.635  83.678  1.00  0.00     0.123 A
HETATM   11  C10 UNL     1     -71.262 -17.113  83.226  1.00  0.00     0.063 A
HETATM   12  C11 UNL     1     -71.192 -18.081  82.273  1.00  0.00     0.059 A
HETATM   13 CL1  UNL     1     -69.619 -18.654  81.730  1.00  0.00    -0.082 Cl
HETATM   14  C12 UNL     1     -72.359 -18.587  81.759  1.00  0.00     0.079 A
HETATM   15 CL2  UNL     1     -72.267 -19.831  80.533  1.00  0.00    -0.081 Cl
HETATM   16  C13 UNL     1     -73.591 -18.099  82.224  1.00  0.00     0.077 A
HETATM   17 CL3  UNL     1     -75.026 -18.759  81.505  1.00  0.00    -0.081 Cl
BRANCH  10  18
HETATM   18  N2  UNL     1     -72.447 -15.571  84.604  1.00  0.00    -0.114 N
HETATM   19  O1  UNL     1     -72.232 -14.407  84.121  1.00  0.00    -0.532 OA
HETATM   20  O2  UNL     1     -72.621 -15.721  85.929  1.00  0.00    -0.532 OA
ENDBRANCH  10  18
ENDBRANCH   8   9
ENDBRANCH   3   8
BRANCH   1  21
HETATM   21  N1  UNL     1     -78.951 -20.167  84.508  1.00  0.00    -0.341 N
ATOM     22  H1  UNL     1     -78.773 -21.083  84.097  1.00  0.00     0.167 HD
BRANCH  21  23
HETATM   23  C4  UNL     1     -80.160 -19.714  84.498  1.00  0.00     0.122 A
HETATM   24  C3  UNL     1     -81.058 -19.908  85.522  1.00  0.00     0.075 A
HETATM   25  C2  UNL     1     -82.258 -19.292  85.182  1.00  0.00     0.025 A
HETATM   26  C1  UNL     1     -83.471 -19.283  86.040  1.00  0.00     0.070 C
HETATM   27  N6  UNL     1     -82.063 -18.746  83.971  1.00  0.00    -0.304 N
HETATM   28  N5  UNL     1     -80.815 -18.999  83.565  1.00  0.00    -0.285 N
ATOM     29  H6  UNL     1     -82.759 -18.221  83.442  1.00  0.00     0.186 HD
ATOM     30  H5  UNL     1     -80.415 -18.693  82.678  1.00  0.00     0.188 HD
ENDBRANCH  21  23
ENDBRANCH   1  21
BRANCH   6  31
HETATM   31  N4  UNL     1     -75.969 -19.216  88.229  1.00  0.00    -0.367 N
HETATM   32  C15 UNL     1     -75.051 -18.404  89.006  1.00  0.00     0.124 C
HETATM   33  C16 UNL     1     -74.368 -19.351  89.962  1.00  0.00     0.021 C
HETATM   34  C17 UNL     1     -75.393 -20.417  90.185  1.00  0.00     0.021 C
HETATM   35  C18 UNL     1     -76.394 -20.312  89.065  1.00  0.00     0.124 C
ENDBRANCH   6  31
TORSDOF 6
ENDMDL