MODEL 3
REMARK VINA RESULT: -7.914147256      4.315      9.082
REMARK  7 active torsions:
REMARK  status: ('A' for Active; 'I' for Inactive)
REMARK    1  A    between atoms: O1_2  and  C2_3
REMARK    2  A    between atoms: C4_5  and  C5_6
REMARK    3  A    between atoms: N1_7  and  N2_9
REMARK    4  A    between atoms: C6_10  and  C7_11
REMARK    5  A    between atoms: C7_11  and  O2_12
REMARK    6  A    between atoms: C8_14  and  C9_15
REMARK    7  A    between atoms: C18_29  and  O4_30
ROOT
HETATM    1  N2  UNL     1     -77.435 -18.579  83.518  1.00  0.00    -0.224 N
HETATM    2  C6  UNL     1     -76.086 -18.622  83.764  1.00  0.00     0.095 A
HETATM    3  C8  UNL     1     -75.452 -18.432  82.589  1.00  0.00     0.117 A
HETATM    4  O3  UNL     1     -76.452 -18.284  81.695  1.00  0.00    -0.280 OA
HETATM    5  C15 UNL     1     -77.607 -18.368  82.226  1.00  0.00     0.241 A
HETATM    6  S1  UNL     1     -79.037 -18.238  81.442  1.00  0.00    -0.031 SA
ENDROOT
BRANCH   1   7
HETATM    7  N1  UNL     1     -78.403 -18.738  84.503  1.00  0.00    -0.302 N
HETATM    8  C5  UNL     1     -78.785 -19.898  84.844  1.00  0.00     0.119 C
ATOM      9  H1  UNL     1     -78.809 -17.917  84.954  1.00  0.00     0.186 HD
BRANCH   8  10
HETATM   10  C4  UNL     1     -79.803 -20.136  85.876  1.00  0.00    -0.015 A
HETATM   11  C3  UNL     1     -81.136 -19.891  85.630  1.00  0.00     0.052 A
HETATM   12  C2  UNL     1     -82.110 -20.107  86.586  1.00  0.00     0.103 A
HETATM   13  C18 UNL     1     -81.754 -20.583  87.827  1.00  0.00     0.116 A
HETATM   14  C17 UNL     1     -80.422 -20.833  88.089  1.00  0.00     0.047 A
HETATM   15  C16 UNL     1     -79.462 -20.611  87.121  1.00  0.00     0.035 A
HETATM   16 BR1  UNL     1     -79.914 -21.488  89.791  1.00  0.00    -0.048 Br
BRANCH  12  17
HETATM   17  O1  UNL     1     -83.456 -19.862  86.346  1.00  0.00    -0.353 OA
HETATM   18  C1  UNL     1     -83.876 -18.530  86.020  1.00  0.00     0.210 C
ENDBRANCH  12  17
BRANCH  13  19
HETATM   19  O4  UNL     1     -82.718 -20.806  88.797  1.00  0.00    -0.357 OA
ATOM     20  H4  UNL     1     -82.505 -20.708  89.717  1.00  0.00     0.218 HD
ENDBRANCH  13  19
ENDBRANCH   8  10
ENDBRANCH   1   7
BRANCH   2  21
HETATM   21  C7  UNL     1     -75.477 -18.827  85.099  1.00  0.00     0.226 C
BRANCH  21  22
HETATM   22  O2  UNL     1     -75.948 -17.848  85.998  1.00  0.00    -0.395 OA
ATOM     23  H2  UNL     1     -75.301 -17.160  86.096  1.00  0.00     0.209 HD
ENDBRANCH  21  22
ENDBRANCH   2  21
BRANCH   3  24
HETATM   24  C9  UNL     1     -74.056 -18.369  82.195  1.00  0.00     0.022 A
HETATM   25  C10 UNL     1     -73.454 -19.273  81.393  1.00  0.00     0.018 A
HETATM   26  C11 UNL     1     -72.086 -19.180  81.047  1.00  0.00     0.025 A
HETATM   27  C12 UNL     1     -71.323 -18.147  81.525  1.00  0.00     0.035 A
HETATM   28 CL1  UNL     1     -69.621 -18.047  81.082  1.00  0.00    -0.084 Cl
HETATM   29  C13 UNL     1     -71.928 -17.230  82.335  1.00  0.00     0.048 A
HETATM   30  C14 UNL     1     -73.263 -17.331  82.666  1.00  0.00     0.048 A
HETATM   31 CL2  UNL     1     -73.997 -16.130  83.711  1.00  0.00    -0.083 Cl
ENDBRANCH   3  24
TORSDOF 7
ENDMDL