MODEL 2
REMARK VINA RESULT: -9.234042224      3.455      6.435
REMARK  8 active torsions:
REMARK  status: ('A' for Active; 'I' for Inactive)
REMARK    1  A    between atoms: C2_2  and  C3_3
REMARK    2  A    between atoms: C4_8  and  N3_9
REMARK    3  A    between atoms: C9_14  and  N4_15
REMARK    4  A    between atoms: C10_18  and  C11_19
REMARK    5  A    between atoms: C10_18  and  C13_21
REMARK    6  A    between atoms: C23_32  and  O2_33
REMARK    7  A    between atoms: N5_37  and  C26_38
REMARK    8  A    between atoms: C26_38  and  C27_39
ROOT
HETATM    1  C3  UNL     1     -77.848 -19.863  86.765  1.00  0.00     0.039 A
HETATM    2  N1  UNL     1     -77.363 -20.094  88.048  1.00  0.00    -0.302 N
ATOM      3  H1  UNL     1     -77.972 -20.579  88.706  1.00  0.00     0.186 HD
HETATM    4  N2  UNL     1     -76.203 -19.738  88.458  1.00  0.00    -0.283 N
ATOM      5  H2  UNL     1     -75.931 -19.948  89.419  1.00  0.00     0.188 HD
HETATM    6  C4  UNL     1     -75.322 -19.084  87.648  1.00  0.00     0.156 A
HETATM    7  C16 UNL     1     -75.704 -18.809  86.370  1.00  0.00     0.095 A
HETATM    8  C17 UNL     1     -77.006 -19.202  85.931  1.00  0.00     0.032 A
HETATM    9  C18 UNL     1     -77.123 -18.798  84.619  1.00  0.00     0.012 A
HETATM   10  C19 UNL     1     -78.136 -18.849  83.723  1.00  0.00    -0.040 A
HETATM   11  C20 UNL     1     -79.554 -19.040  84.010  1.00  0.00     0.050 C
HETATM   12  C21 UNL     1     -77.921 -18.340  82.434  1.00  0.00    -0.022 A
HETATM   13  C22 UNL     1     -79.009 -18.452  81.430  1.00  0.00     0.052 C
HETATM   14  C23 UNL     1     -76.731 -17.780  82.065  1.00  0.00     0.074 A
HETATM   15  C24 UNL     1     -75.724 -17.725  83.004  1.00  0.00     0.067 A
HETATM   16  C25 UNL     1     -75.899 -18.228  84.285  1.00  0.00     0.049 A
HETATM   17  N5  UNL     1     -75.058 -18.236  85.338  1.00  0.00    -0.337 N
ENDROOT
BRANCH   6  18
HETATM   18  N3  UNL     1     -74.123 -18.687  88.243  1.00  0.00    -0.291 N
HETATM   19  C5  UNL     1     -73.056 -19.497  88.127  1.00  0.00     0.101 A
HETATM   20  C6  UNL     1     -71.808 -19.182  88.599  1.00  0.00     0.027 A
HETATM   21  C7  UNL     1     -71.606 -17.976  89.230  1.00  0.00    -0.020 A
HETATM   22  C8  UNL     1     -72.674 -17.123  89.364  1.00  0.00     0.029 A
HETATM   23  C15 UNL     1     -70.420 -17.319  89.853  1.00  0.00     0.208 C
HETATM   24  C9  UNL     1     -73.928 -17.512  88.854  1.00  0.00     0.116 A
HETATM   25  C10 UNL     1     -72.186 -15.929  90.063  1.00  0.00     0.092 C
HETATM   26  O1  UNL     1     -70.815 -16.010  89.983  1.00  0.00    -0.371 OA
BRANCH  24  27
HETATM   27  N4  UNL     1     -74.896 -16.666  88.971  1.00  0.00    -0.384 N
ATOM     28  H42 UNL     1     -75.272 -16.520  89.908  1.00  0.00     0.157 HD
ATOM     29  H41 UNL     1     -75.238 -16.155  88.157  1.00  0.00     0.157 HD
ENDBRANCH  24  27
BRANCH  25  30
HETATM   30  C11 UNL     1     -72.584 -15.905  91.522  1.00  0.00     0.039 C
HETATM   31  C12 UNL     1     -72.006 -14.778  92.302  1.00  0.00     0.008 C
ENDBRANCH  25  30
BRANCH  25  32
HETATM   32  C13 UNL     1     -72.586 -14.636  89.383  1.00  0.00     0.039 C
HETATM   33  C14 UNL     1     -71.304 -14.098  88.732  1.00  0.00     0.008 C
ENDBRANCH  25  32
ENDBRANCH   6  18
BRANCH  17  34
HETATM   34  C26 UNL     1     -73.714 -17.762  85.257  1.00  0.00     0.200 C
BRANCH  34  35
HETATM   35  C27 UNL     1     -73.645 -16.246  85.419  1.00  0.00     0.371 C
HETATM   36  F1  UNL     1     -74.773 -15.757  86.028  1.00  0.00    -0.213 F
HETATM   37  F2  UNL     1     -72.587 -15.904  86.254  1.00  0.00    -0.213 F
ENDBRANCH  34  35
ENDBRANCH  17  34
BRANCH   1  38
HETATM   38  C2  UNL     1     -79.036 -20.627  86.423  1.00  0.00     0.055 C
HETATM   39  C1  UNL     1     -79.899 -20.976  87.655  1.00  0.00     0.011 C
ENDBRANCH   1  38
BRANCH  14  40
HETATM   40  O2  UNL     1     -76.500 -17.272  80.806  1.00  0.00    -0.360 OA
ATOM     41  H2  UNL     1     -75.718 -16.781  80.582  1.00  0.00     0.217 HD
ENDBRANCH  14  40
TORSDOF 8
ENDMDL