MODEL 5
REMARK VINA RESULT: -8.457762177      2.401      2.675
REMARK  6 active torsions:
REMARK  status: ('A' for Active; 'I' for Inactive)
REMARK    1  A    between atoms: S1_2  and  C2_3
REMARK    2  A    between atoms: C5_8  and  C6_9
REMARK    3  A    between atoms: C9_13  and  O1_14
REMARK    4  A    between atoms: C11_17  and  N1_18
REMARK    5  A    between atoms: N1_18  and  S3_20
REMARK    6  A    between atoms: S3_20  and  C12_23
ROOT
HETATM    1  C6  UNL     1     -76.867 -18.466  84.146  1.00  0.00    -0.006 A
HETATM    2  C7  UNL     1     -75.826 -18.280  83.267  1.00  0.00     0.040 A
HETATM    3  C8  UNL     1     -76.013 -17.980  81.929  1.00  0.00     0.068 A
HETATM    4 CL2  UNL     1     -74.630 -17.757  80.883  1.00  0.00    -0.081 Cl
HETATM    5  C9  UNL     1     -77.295 -17.863  81.455  1.00  0.00     0.089 A
HETATM    6  C10 UNL     1     -78.370 -18.045  82.314  1.00  0.00     0.069 A
HETATM    7  C11 UNL     1     -78.184 -18.342  83.637  1.00  0.00     0.055 A
ENDROOT
BRANCH   7   8
HETATM    8  N1  UNL     1     -79.208 -18.524  84.593  1.00  0.00    -0.279 N
ATOM      9  H1  UNL     1     -79.435 -17.734  85.197  1.00  0.00     0.179 HD
BRANCH   8  10
HETATM   10  S3  UNL     1     -80.090 -19.963  84.812  1.00  0.00     0.269 S
HETATM   11  O2  UNL     1     -81.455 -19.888  84.165  1.00  0.00    -0.200 OA
HETATM   12  O3  UNL     1     -79.391 -21.128  84.116  1.00  0.00    -0.200 OA
BRANCH  10  13
HETATM   13  C12 UNL     1     -80.254 -20.462  86.491  1.00  0.00     0.121 A
HETATM   14  C13 UNL     1     -81.423 -20.653  87.193  1.00  0.00     0.035 A
HETATM   15  C14 UNL     1     -81.319 -21.054  88.462  1.00  0.00     0.033 A
HETATM   16  C15 UNL     1     -80.058 -21.245  88.966  1.00  0.00     0.075 A
HETATM   17 CL3  UNL     1     -79.628 -21.772  90.605  1.00  0.00    -0.076 Cl
HETATM   18  S4  UNL     1     -79.058 -20.853  87.642  1.00  0.00    -0.064 SA
ENDBRANCH  10  13
ENDBRANCH   8  10
ENDBRANCH   7   8
BRANCH   1  19
HETATM   19  C5  UNL     1     -76.644 -18.772  85.542  1.00  0.00     0.036 C
HETATM   20  C4  UNL     1     -75.819 -18.054  86.279  1.00  0.00     0.059 A
HETATM   21  S2  UNL     1     -74.839 -16.633  85.812  1.00  0.00    -0.072 SA
HETATM   22  C16 UNL     1     -75.468 -18.234  87.685  1.00  0.00     0.207 A
HETATM   23  C3  UNL     1     -74.102 -16.358  87.402  1.00  0.00     0.096 A
HETATM   24  C2  UNL     1     -74.545 -17.289  88.214  1.00  0.00     0.080 A
HETATM   25 CL1  UNL     1     -72.970 -15.050  87.712  1.00  0.00    -0.075 Cl
HETATM   26  O4  UNL     1     -75.974 -19.196  88.387  1.00  0.00    -0.285 OA
BRANCH  24  27
HETATM   27  S1  UNL     1     -73.956 -17.316  89.943  1.00  0.00    -0.128 SA
HETATM   28  C1  UNL     1     -74.763 -16.017  90.913  1.00  0.00     0.096 C
ENDBRANCH  24  27
ENDBRANCH   1  19
BRANCH   5  29
HETATM   29  O1  UNL     1     -77.511 -17.562  80.103  1.00  0.00    -0.359 OA
ATOM     30  H1  UNL     1     -78.111 -18.093  79.593  1.00  0.00     0.217 HD
ENDBRANCH   5  29
TORSDOF 6
ENDMDL