MODEL 1
REMARK VINA RESULT: -8.845268612      0.000      0.000
REMARK  5 active torsions:
REMARK  status: ('A' for Active; 'I' for Inactive)
REMARK    1  A    between atoms: C6_10  and  N3_11
REMARK    2  A    between atoms: N3_11  and  C7_13
REMARK    3  A    between atoms: C10_19  and  C11_20
REMARK    4  A    between atoms: C11_20  and  C12_22
REMARK    5  A    between atoms: C14_24  and  C15_25
ROOT
HETATM    1  C1  UNL     1     -72.065 -19.063  88.800  1.00  0.00     0.159 C
HETATM    2  N1  UNL     1     -73.468 -19.195  88.480  1.00  0.00    -0.326 N
HETATM    3  C2  UNL     1     -74.359 -19.898  89.262  1.00  0.00     0.141 A
HETATM    4  C3  UNL     1     -74.000 -20.550  90.477  1.00  0.00     0.119 C
HETATM    5  N2  UNL     1     -73.726 -21.093  91.478  1.00  0.00    -0.190 NA
HETATM    6  C4  UNL     1     -75.586 -19.862  88.701  1.00  0.00     0.097 A
HETATM    7 CL1  UNL     1     -77.064 -20.607  89.310  1.00  0.00    -0.079 Cl
HETATM    8  C5  UNL     1     -75.453 -19.125  87.554  1.00  0.00     0.102 A
HETATM    9 CL2  UNL     1     -76.774 -18.778  86.448  1.00  0.00    -0.078 Cl
HETATM   10  C6  UNL     1     -74.103 -18.704  87.420  1.00  0.00     0.128 A
ENDROOT
BRANCH  10  11
HETATM   11  N3  UNL     1     -73.707 -17.902  86.329  1.00  0.00    -0.368 N
ATOM     12  H3  UNL     1     -74.062 -16.945  86.323  1.00  0.00     0.161 HD
BRANCH  11  13
HETATM   13  C7  UNL     1     -72.874 -18.265  85.238  1.00  0.00     0.109 C
HETATM   14  C8  UNL     1     -72.054 -17.150  84.650  1.00  0.00     0.257 C
HETATM   15  N4  UNL     1     -72.446 -16.760  83.321  1.00  0.00    -0.072 N
HETATM   16  C9  UNL     1     -73.843 -16.407  83.296  1.00  0.00     0.244 C
ATOM     17  H42 UNL     1     -71.857 -16.011  82.955  1.00  0.00     0.277 HD
ATOM     18  H41 UNL     1     -72.222 -17.477  82.632  1.00  0.00     0.277 HD
HETATM   19  C10 UNL     1     -74.669 -17.664  83.578  1.00  0.00     0.088 C
HETATM   20  C20 UNL     1     -73.763 -18.759  84.075  1.00  0.00     0.041 C
BRANCH  19  21
HETATM   21  C11 UNL     1     -75.318 -18.124  82.360  1.00  0.00     0.172 C
HETATM   22  O1  UNL     1     -74.668 -18.424  81.343  1.00  0.00    -0.291 OA
BRANCH  21  23
HETATM   23  C12 UNL     1     -76.794 -18.240  82.321  1.00  0.00     0.051 A
HETATM   24  C13 UNL     1     -77.603 -18.734  83.307  1.00  0.00     0.036 A
HETATM   25  C14 UNL     1     -78.930 -18.751  83.068  1.00  0.00    -0.011 A
HETATM   26  C19 UNL     1     -79.341 -18.265  81.847  1.00  0.00     0.063 A
HETATM   27  S2  UNL     1     -77.889 -17.813  81.093  1.00  0.00    -0.098 SA
BRANCH  25  28
HETATM   28  C15 UNL     1     -79.925 -19.267  84.069  1.00  0.00     0.017 A
HETATM   29  C16 UNL     1     -79.760 -20.194  85.048  1.00  0.00     0.022 A
HETATM   30  C17 UNL     1     -80.822 -20.480  85.816  1.00  0.00     0.033 A
HETATM   31  C18 UNL     1     -81.985 -19.809  85.546  1.00  0.00     0.075 A
HETATM   32 CL3  UNL     1     -83.548 -19.958  86.368  1.00  0.00    -0.076 Cl
HETATM   33  S1  UNL     1     -81.551 -18.809  84.233  1.00  0.00    -0.077 SA
ENDBRANCH  25  28
ENDBRANCH  21  23
ENDBRANCH  19  21
ENDBRANCH  11  13
ENDBRANCH  10  11
TORSDOF 5
ENDMDL