MODEL 3
REMARK VINA RESULT: -8.153575564      3.737      9.083
REMARK  7 active torsions:
REMARK  status: ('A' for Active; 'I' for Inactive)
REMARK    1  A    between atoms: C3_3  and  C4_4
REMARK    2  A    between atoms: C4_4  and  O2_6
REMARK    3  A    between atoms: O2_6  and  C5_7
REMARK    4  A    between atoms: C10_13  and  C11_14
REMARK    5  A    between atoms: C12_15  and  C13_16
REMARK    6  A    between atoms: N1_19  and  C14_20
REMARK    7  A    between atoms: C20_29  and  N2_30
ROOT
HETATM    1  C1  UNL     1     -99.903 -16.186  44.826  1.00  0.00     0.071 C
HETATM    2  C2  UNL     1     -99.314 -16.750  46.120  1.00  0.00     0.054 A
HETATM    3  C3  UNL     1     -97.975 -16.705  46.341  1.00  0.00     0.105 A
HETATM    4  S1  UNL     1     -97.875 -17.467  47.897  1.00  0.00    -0.061 SA
HETATM    5  C9  UNL     1     -99.532 -17.773  48.132  1.00  0.00     0.127 A
HETATM    6  C10 UNL     1    -100.469 -18.344  49.048  1.00  0.00     0.092 A
HETATM    7  N1  UNL     1    -101.620 -18.176  48.440  1.00  0.00    -0.143 N
HETATM    8  C20 UNL     1    -101.432 -17.549  47.229  1.00  0.00     0.691 A
HETATM    9  N3  UNL     1    -100.107 -17.300  47.047  1.00  0.00    -0.141 N
ENDROOT
BRANCH   7  10
HETATM   10  C14 UNL     1    -102.923 -18.486  48.887  1.00  0.00     0.081 A
HETATM   11  C15 UNL     1    -103.699 -17.522  49.502  1.00  0.00     0.058 A
HETATM   12  C16 UNL     1    -104.952 -17.862  49.952  1.00  0.00     0.058 A
HETATM   13 CL1  UNL     1    -105.967 -16.674  50.734  1.00  0.00    -0.082 Cl
HETATM   14  C17 UNL     1    -105.453 -19.158  49.799  1.00  0.00     0.057 A
HETATM   15 CL2  UNL     1    -107.059 -19.556  50.387  1.00  0.00    -0.082 Cl
HETATM   16  C18 UNL     1    -104.645 -20.103  49.176  1.00  0.00     0.051 A
HETATM   17  C19 UNL     1    -103.365 -19.774  48.712  1.00  0.00     0.063 A
HETATM   18 CL3  UNL     1    -102.458 -21.076  47.976  1.00  0.00    -0.082 Cl
ENDBRANCH   7  10
BRANCH   6  19
HETATM   19  C11 UNL     1    -100.004 -18.831  50.300  1.00  0.00     0.040 C
HETATM   20  C12 UNL     1    -100.389 -19.091  51.483  1.00  0.00     0.087 C
BRANCH  20  21
HETATM   21  C13 UNL     1    -101.554 -19.054  52.284  1.00  0.00     0.198 C
HETATM   22  O3  UNL     1    -102.554 -18.343  52.195  1.00  0.00    -0.645 OA
HETATM   23  O4  UNL     1    -101.630 -19.976  53.392  1.00  0.00    -0.645 OA
ENDBRANCH  20  21
ENDBRANCH   6  19
BRANCH   8  24
HETATM   24  N2  UNL     1    -102.437 -17.279  46.453  1.00  0.00    -0.233 N
ATOM     25  H22 UNL     1    -103.406 -17.073  46.695  1.00  0.00     0.174 HD
ATOM     26  H21 UNL     1    -102.325 -17.250  45.439  1.00  0.00     0.174 HD
ENDBRANCH   8  24
BRANCH   3  27
HETATM   27  C4  UNL     1     -96.834 -16.192  45.582  1.00  0.00     0.303 C
HETATM   28  O1  UNL     1     -96.309 -16.791  44.677  1.00  0.00    -0.259 OA
BRANCH  27  29
HETATM   29  O2  UNL     1     -96.332 -14.940  45.930  1.00  0.00    -0.307 OA
BRANCH  29  30
HETATM   30  C5  UNL     1     -95.443 -14.674  46.963  1.00  0.00     0.060 C
HETATM   31  C6  UNL     1     -94.613 -15.829  47.422  1.00  0.00     0.046 C
HETATM   32  C7  UNL     1     -94.471 -13.602  46.456  1.00  0.00     0.046 C
HETATM   33  C8  UNL     1     -96.125 -14.073  48.172  1.00  0.00     0.046 C
ENDBRANCH  29  30
ENDBRANCH  27  29
ENDBRANCH   3  27
TORSDOF 7
ENDMDL