MODEL 2
REMARK VINA RESULT: -8.151652633      2.931      7.548
REMARK  8 active torsions:
REMARK  status: ('A' for Active; 'I' for Inactive)
REMARK    1  A    between atoms: O1_2  and  C2_3
REMARK    2  A    between atoms: C4_6  and  O2_7
REMARK    3  A    between atoms: C6_9  and  O3_10
REMARK    4  A    between atoms: C10_16  and  C11_17
REMARK    5  A    between atoms: C11_17  and  O4_18
REMARK    6  A    between atoms: C11_17  and  C12_20
REMARK    7  A    between atoms: C16_25  and  C17_26
REMARK    8  A    between atoms: C18_28  and  O6_29
ROOT
HETATM    1  C2  UNL     1     -99.649 -17.456  46.909  1.00  0.00     0.120 A
HETATM    2  C3  UNL     1     -98.786 -16.966  45.954  1.00  0.00     0.105 A
HETATM    3 CL1  UNL     1     -99.430 -16.679  44.340  1.00  0.00    -0.078 Cl
HETATM    4  C4  UNL     1     -97.480 -16.706  46.221  1.00  0.00     0.127 A
HETATM    5  C6  UNL     1     -96.986 -16.939  47.502  1.00  0.00     0.116 A
HETATM    6  C8  UNL     1     -97.839 -17.432  48.477  1.00  0.00     0.031 A
HETATM    7  C9  UNL     1     -99.157 -17.688  48.181  1.00  0.00     0.081 A
HETATM    8  N1  UNL     1    -100.068 -18.199  49.125  1.00  0.00    -0.350 N
ATOM      9  H1  UNL     1    -101.040 -18.376  48.869  1.00  0.00     0.166 HD
HETATM   10  C10 UNL     1     -99.588 -18.473  50.489  1.00  0.00     0.080 A
HETATM   11  C16 UNL     1     -98.215 -18.209  50.787  1.00  0.00     0.030 A
HETATM   12  C21 UNL     1     -97.390 -17.713  49.826  1.00  0.00     0.033 A
ENDROOT
BRANCH  11  13
HETATM   13  C17 UNL     1     -97.604 -18.387  52.106  1.00  0.00     0.114 A
HETATM   14  O5  UNL     1     -97.590 -19.420  52.890  1.00  0.00    -0.284 OA
HETATM   15  C18 UNL     1     -96.965 -19.277  54.011  1.00  0.00     0.207 A
HETATM   16  C19 UNL     1     -96.489 -18.006  54.020  1.00  0.00     0.116 A
HETATM   17 CL2  UNL     1     -95.552 -17.238  55.300  1.00  0.00    -0.077 Cl
HETATM   18  C20 UNL     1     -96.887 -17.426  52.820  1.00  0.00     0.095 A
HETATM   19 CL3  UNL     1     -96.559 -15.769  52.424  1.00  0.00    -0.079 Cl
BRANCH  15  20
HETATM   20  O6  UNL     1     -96.801 -20.241  55.034  1.00  0.00    -0.339 OA
ATOM     21  H6  UNL     1     -97.217 -20.254  55.887  1.00  0.00     0.220 HD
ENDBRANCH  15  20
ENDBRANCH  11  13
BRANCH  10  22
HETATM   22  C11 UNL     1    -100.482 -18.870  51.351  1.00  0.00     0.104 C
BRANCH  22  23
HETATM   23  O4  UNL     1    -100.257 -19.231  52.641  1.00  0.00    -0.357 OA
ATOM     24  H4  UNL     1     -99.790 -20.004  52.939  1.00  0.00     0.217 HD
ENDBRANCH  22  23
BRANCH  22  25
HETATM   25  C12 UNL     1    -101.947 -18.967  51.002  1.00  0.00     0.006 A
HETATM   26  C13 UNL     1    -102.447 -19.883  50.167  1.00  0.00     0.022 A
HETATM   27  C14 UNL     1    -103.795 -19.873  49.945  1.00  0.00     0.050 A
HETATM   28  S1  UNL     1    -104.335 -18.580  50.915  1.00  0.00    -0.113 SA
HETATM   29  C15 UNL     1    -102.832 -18.090  51.571  1.00  0.00     0.063 A
ENDBRANCH  22  25
ENDBRANCH  10  22
BRANCH   5  30
HETATM   30  O3  UNL     1     -95.666 -16.688  47.802  1.00  0.00    -0.352 OA
HETATM   31  C7  UNL     1     -94.580 -17.536  47.494  1.00  0.00     0.210 C
ENDBRANCH   5  30
BRANCH   1  32
HETATM   32  O1  UNL     1    -100.981 -17.723  46.643  1.00  0.00    -0.352 OA
HETATM   33  C1  UNL     1    -101.904 -16.648  46.513  1.00  0.00     0.210 C
ENDBRANCH   1  32
BRANCH   4  34
HETATM   34  O2  UNL     1     -96.617 -16.211  45.246  1.00  0.00    -0.351 OA
HETATM   35  C5  UNL     1     -96.415 -14.843  45.036  1.00  0.00     0.210 C
ENDBRANCH   4  34
TORSDOF 8
ENDMDL