MODEL 3
REMARK VINA RESULT: -8.725477685      0.976      1.063
REMARK  7 active torsions:
REMARK  status: ('A' for Active; 'I' for Inactive)
REMARK    1  A    between atoms: N1_1  and  C1_5
REMARK    2  A    between atoms: C1_5  and  C2_6
REMARK    3  A    between atoms: C2_6  and  N2_7
REMARK    4  A    between atoms: C5_10  and  C6_11
REMARK    5  A    between atoms: C9_15  and  O1_16
REMARK    6  A    between atoms: C10_18  and  C11_19
REMARK    7  A    between atoms: N3_20  and  N4_22
ROOT
HETATM    1  C6  UNL     1    -100.425 -18.874  50.420  1.00  0.00    -0.050 A
HETATM    2  C7  UNL     1     -99.747 -18.814  51.616  1.00  0.00     0.052 A
HETATM    3  C8  UNL     1     -98.498 -18.262  51.684  1.00  0.00     0.150 A
HETATM    4  F1  UNL     1     -97.817 -18.196  52.849  1.00  0.00    -0.203 F
HETATM    5  C9  UNL     1     -97.851 -17.735  50.549  1.00  0.00     0.116 A
HETATM    6  C10 UNL     1     -98.516 -17.788  49.352  1.00  0.00     0.018 A
HETATM    7  C19 UNL     1     -99.799 -18.363  49.328  1.00  0.00     0.023 A
ENDROOT
BRANCH   6   8
HETATM    8  C11 UNL     1     -97.959 -17.276  48.103  1.00  0.00     0.122 C
HETATM    9  N3  UNL     1     -98.110 -16.151  47.603  1.00  0.00    -0.302 N
ATOM     10  H3  UNL     1     -98.689 -15.472  48.098  1.00  0.00     0.186 HD
BRANCH   9  11
HETATM   11  N4  UNL     1     -97.505 -15.759  46.357  1.00  0.00    -0.238 N
HETATM   12  C12 UNL     1     -98.223 -15.876  45.244  1.00  0.00     0.165 A
HETATM   13  S1  UNL     1     -99.740 -16.400  44.966  1.00  0.00    -0.050 SA
HETATM   14  S2  UNL     1     -97.177 -15.324  44.033  1.00  0.00    -0.057 SA
HETATM   15  C13 UNL     1     -95.823 -14.954  45.016  1.00  0.00     0.038 A
HETATM   16  C14 UNL     1     -94.537 -14.443  44.765  1.00  0.00     0.047 A
HETATM   17  C18 UNL     1     -96.275 -15.289  46.261  1.00  0.00     0.077 A
HETATM   18  C15 UNL     1     -93.647 -14.252  45.803  1.00  0.00     0.057 A
HETATM   19 CL1  UNL     1     -92.060 -13.616  45.452  1.00  0.00    -0.083 Cl
HETATM   20  C16 UNL     1     -94.102 -14.588  47.049  1.00  0.00     0.058 A
HETATM   21 CL2  UNL     1     -92.974 -14.348  48.380  1.00  0.00    -0.082 Cl
HETATM   22  C17 UNL     1     -95.340 -15.083  47.307  1.00  0.00     0.058 A
ENDBRANCH   9  11
ENDBRANCH   6   8
BRANCH   5  23
HETATM   23  O1  UNL     1     -96.611 -17.201  50.685  1.00  0.00    -0.357 OA
ATOM     24  H1  UNL     1     -95.853 -17.761  50.569  1.00  0.00     0.218 HD
ENDBRANCH   5  23
BRANCH   1  25
HETATM   25  C5  UNL     1    -101.786 -19.466  50.307  1.00  0.00     0.022 C
HETATM   26  C4  UNL     1    -102.663 -19.171  51.479  1.00  0.00     0.039 C
HETATM   27  C3  UNL     1    -103.810 -18.294  51.091  1.00  0.00     0.273 C
HETATM   28  N2  UNL     1    -104.670 -18.877  50.080  1.00  0.00     0.090 N
HETATM   29  C21 UNL     1    -103.893 -19.591  49.115  1.00  0.00     0.273 C
HETATM   30  C20 UNL     1    -102.468 -19.030  49.023  1.00  0.00     0.039 C
BRANCH  28  31
HETATM   31  C2  UNL     1    -105.437 -17.793  49.510  1.00  0.00     0.299 C
BRANCH  31  32
HETATM   32  C1  UNL     1    -104.980 -16.439  49.948  1.00  0.00     0.259 C
BRANCH  32  33
HETATM   33  N1  UNL     1    -106.034 -15.771  50.702  1.00  0.00    -0.078 N
ATOM     34  H13 UNL     1    -106.779 -15.430  50.094  1.00  0.00     0.274 HD
ATOM     35  H12 UNL     1    -106.582 -16.430  51.256  1.00  0.00     0.274 HD
ATOM     36  H11 UNL     1    -105.638 -15.027  51.276  1.00  0.00     0.274 HD
ENDBRANCH  32  33
ENDBRANCH  31  32
ENDBRANCH  28  31
ENDBRANCH   1  25
TORSDOF 7
ENDMDL