MODEL 1
REMARK VINA RESULT: -7.756466363      0.000      0.000
REMARK  6 active torsions:
REMARK  status: ('A' for Active; 'I' for Inactive)
REMARK    1  A    between atoms: C2_2  and  O1_3
REMARK    2  A    between atoms: O1_3  and  C3_4
REMARK    3  A    between atoms: C3_4  and  C4_6
REMARK    4  A    between atoms: C5_7  and  C6_8
REMARK    5  A    between atoms: C6_8  and  C7_10
REMARK    6  A    between atoms: N1_15  and  C11_16
ROOT
HETATM    1  C4  UNL     1     -98.429 -17.170  47.605  1.00  0.00     0.085 A
HETATM    2  C5  UNL     1     -97.200 -16.739  47.965  1.00  0.00     0.111 A
HETATM    3  N1  UNL     1     -96.943 -16.990  49.294  1.00  0.00    -0.294 N
HETATM    4  C17 UNL     1     -98.049 -17.596  49.772  1.00  0.00     0.078 A
HETATM    5  C18 UNL     1     -98.441 -18.092  50.991  1.00  0.00     0.088 A
HETATM    6 CL1  UNL     1     -97.380 -17.986  52.351  1.00  0.00    -0.080 Cl
HETATM    7  C19 UNL     1     -99.670 -18.675  51.203  1.00  0.00     0.093 A
HETATM    8  N3  UNL     1    -100.016 -19.173  52.503  1.00  0.00    -0.099 NA
HETATM    9  C20 UNL     1    -100.578 -18.782  50.155  1.00  0.00     0.082 A
HETATM   10 CL2  UNL     1    -102.117 -19.527  50.473  1.00  0.00    -0.080 Cl
HETATM   11  C21 UNL     1    -100.217 -18.295  48.921  1.00  0.00     0.071 A
HETATM   12 CL3  UNL     1    -101.380 -18.445  47.628  1.00  0.00    -0.081 Cl
HETATM   13  C22 UNL     1     -98.981 -17.713  48.725  1.00  0.00     0.035 A
ENDROOT
BRANCH   3  14
HETATM   14  C11 UNL     1     -95.762 -16.691  50.017  1.00  0.00     0.088 C
HETATM   15  N2  UNL     1     -94.633 -17.587  49.841  1.00  0.00    -0.379 N
HETATM   16  C12 UNL     1     -93.791 -17.454  51.009  1.00  0.00     0.121 C
ATOM     17  H2  UNL     1     -94.465 -18.198  49.041  1.00  0.00     0.160 HD
HETATM   18  C13 UNL     1     -93.131 -16.121  50.950  1.00  0.00     0.020 C
HETATM   19  C14 UNL     1     -94.022 -14.970  50.701  1.00  0.00     0.013 C
HETATM   20  C15 UNL     1     -95.439 -15.268  50.319  1.00  0.00     0.050 C
HETATM   21  C16 UNL     1     -96.255 -14.729  51.527  1.00  0.00     0.018 C
ENDBRANCH   3  14
BRANCH   2  22
HETATM   22  C6  UNL     1     -96.275 -16.105  47.079  1.00  0.00     0.233 C
HETATM   23  O3  UNL     1     -96.250 -14.867  46.884  1.00  0.00    -0.283 OA
BRANCH  22  24
HETATM   24  C7  UNL     1     -95.286 -16.909  46.343  1.00  0.00     0.127 A
HETATM   25  C8  UNL     1     -95.316 -17.354  45.064  1.00  0.00     0.043 A
HETATM   26  C9  UNL     1     -94.165 -18.058  44.834  1.00  0.00     0.027 A
HETATM   27  C10 UNL     1     -93.450 -18.020  46.012  1.00  0.00     0.142 A
HETATM   28  O4  UNL     1     -94.148 -17.336  46.861  1.00  0.00    -0.319 OA
ENDBRANCH  22  24
ENDBRANCH   2  22
BRANCH   1  29
HETATM   29  C3  UNL     1     -99.107 -17.098  46.323  1.00  0.00     0.296 C
HETATM   30  O2  UNL     1     -99.184 -18.131  45.562  1.00  0.00    -0.259 OA
BRANCH  29  31
HETATM   31  O1  UNL     1     -99.717 -15.977  45.788  1.00  0.00    -0.318 OA
BRANCH  31  32
HETATM   32  C2  UNL     1     -99.830 -15.747  44.395  1.00  0.00     0.174 C
HETATM   33  C1  UNL     1     -98.548 -15.308  43.766  1.00  0.00     0.034 C
ENDBRANCH  31  32
ENDBRANCH  29  31
ENDBRANCH   1  29
TORSDOF 6
ENDMDL