MODEL 1
REMARK VINA RESULT: -7.833837786      0.000      0.000
REMARK  7 active torsions:
REMARK  status: ('A' for Active; 'I' for Inactive)
REMARK    1  A    between atoms: N1_2  and  C3_4
REMARK    2  A    between atoms: N2_5  and  C4_7
REMARK    3  A    between atoms: C5_9  and  C6_10
REMARK    4  A    between atoms: C6_10  and  C7_11
REMARK    5  A    between atoms: C13_19  and  N3_20
REMARK    6  A    between atoms: C14_21  and  O1_22
REMARK    7  A    between atoms: C17_26  and  O2_27
ROOT
HETATM    1  C4  UNL     1     -96.204 -15.863  52.400  1.00  0.00     0.098 A
HETATM    2  S1  UNL     1     -97.178 -17.226  52.426  1.00  0.00    -0.073 SA
HETATM    3  C5  UNL     1     -97.082 -17.675  50.714  1.00  0.00     0.018 A
HETATM    4  C13 UNL     1     -96.286 -16.716  50.220  1.00  0.00     0.080 A
HETATM    5  C22 UNL     1     -95.817 -15.757  51.093  1.00  0.00     0.106 A
HETATM    6  C23 UNL     1     -94.961 -14.625  50.642  1.00  0.00     0.104 C
HETATM    7  N4  UNL     1     -94.289 -13.710  50.304  1.00  0.00    -0.191 NA
ENDROOT
BRANCH   1   8
HETATM    8  N2  UNL     1     -95.809 -14.944  53.472  1.00  0.00    -0.345 N
HETATM    9  C3  UNL     1     -95.359 -15.516  54.543  1.00  0.00     0.178 C
ATOM     10  H2  UNL     1     -95.883 -13.931  53.381  1.00  0.00     0.167 HD
BRANCH   9  11
HETATM   11  N1  UNL     1     -94.941 -14.761  55.655  1.00  0.00    -0.386 N
HETATM   12  C1  UNL     1     -93.831 -15.173  56.461  1.00  0.00     0.149 C
HETATM   13  C2  UNL     1     -95.660 -13.546  55.982  1.00  0.00     0.149 C
ENDBRANCH   9  11
ENDBRANCH   1   8
BRANCH   4  14
HETATM   14  N3  UNL     1     -95.978 -16.571  48.784  1.00  0.00    -0.269 N
HETATM   15  C14 UNL     1     -94.946 -17.120  48.130  1.00  0.00     0.156 A
HETATM   16  C15 UNL     1     -95.043 -16.852  46.789  1.00  0.00     0.008 A
HETATM   17  C16 UNL     1     -96.179 -16.111  46.643  1.00  0.00     0.010 A
HETATM   18  C21 UNL     1     -94.232 -17.230  45.618  1.00  0.00     0.073 C
HETATM   19  C17 UNL     1     -96.747 -15.948  47.897  1.00  0.00     0.156 A
HETATM   20  C18 UNL     1     -96.661 -15.582  45.341  1.00  0.00     0.113 C
HETATM   21  C19 UNL     1     -95.695 -15.759  44.256  1.00  0.00     0.095 C
HETATM   22  F1  UNL     1     -95.924 -15.132  43.074  1.00  0.00    -0.211 F
HETATM   23  C20 UNL     1     -94.609 -16.503  44.401  1.00  0.00     0.016 C
BRANCH  15  24
HETATM   24  O1  UNL     1     -93.945 -17.847  48.735  1.00  0.00    -0.345 OA
ATOM     25  H1  UNL     1     -93.830 -18.784  48.632  1.00  0.00     0.219 HD
ENDBRANCH  15  24
BRANCH  19  26
HETATM   26  O2  UNL     1     -97.920 -15.246  48.138  1.00  0.00    -0.345 OA
ATOM     27  H2  UNL     1     -98.665 -15.147  47.557  1.00  0.00     0.219 HD
ENDBRANCH  19  26
ENDBRANCH   4  14
BRANCH   3  28
HETATM   28  C6  UNL     1     -97.733 -18.906  50.196  1.00  0.00     0.088 C
BRANCH  28  29
HETATM   29  C7  UNL     1     -99.126 -18.763  49.782  1.00  0.00    -0.032 A
HETATM   30  C8  UNL     1     -99.329 -18.447  48.403  1.00  0.00     0.011 A
HETATM   31  C9  UNL     1    -100.533 -18.237  47.855  1.00  0.00     0.024 A
HETATM   32  C10 UNL     1    -101.680 -18.320  48.626  1.00  0.00     0.035 A
HETATM   33 CL1  UNL     1    -103.217 -18.031  47.843  1.00  0.00    -0.084 Cl
HETATM   34  C11 UNL     1    -101.540 -18.619  49.944  1.00  0.00     0.048 A
HETATM   35  C12 UNL     1    -100.267 -18.838  50.503  1.00  0.00     0.042 A
HETATM   36 CL2  UNL     1    -100.194 -19.333  52.182  1.00  0.00    -0.084 Cl
ENDBRANCH  28  29
ENDBRANCH   3  28
TORSDOF 7
ENDMDL