MODEL 5
REMARK VINA RESULT: -7.983916912      2.143      4.072
REMARK  10 active torsions:
REMARK  status: ('A' for Active; 'I' for Inactive)
REMARK    1  A    between atoms: N1_6  and  C5_7
REMARK    2  A    between atoms: C5_7  and  S1_12
REMARK    3  A    between atoms: N2_8  and  O1_10
REMARK    4  A    between atoms: S1_12  and  C6_13
REMARK    5  A    between atoms: C6_13  and  C7_14
REMARK    6  A    between atoms: C7_14  and  C8_15
REMARK    7  A    between atoms: C8_15  and  O2_16
REMARK    8  A    between atoms: O2_16  and  C9_17
REMARK    9  A    between atoms: C9_17  and  C10_19
REMARK   10  A    between atoms: C12_22  and  C13_23
ROOT
HETATM    1  C10 UNL     1     -99.401 -18.327  49.086  1.00  0.00     0.120 C
HETATM    2  C11 UNL     1     -99.525 -18.421  50.501  1.00  0.00     0.105 C
HETATM    3  N3  UNL     1     -99.604 -18.514  51.676  1.00  0.00    -0.191 NA
HETATM    4  C12 UNL     1    -100.434 -18.448  48.305  1.00  0.00     0.042 C
ENDROOT
BRANCH   1   5
HETATM    5  C9  UNL     1     -98.071 -18.114  48.486  1.00  0.00     0.303 C
HETATM    6  O3  UNL     1     -97.068 -18.568  49.046  1.00  0.00    -0.258 OA
BRANCH   5   7
HETATM    7  O2  UNL     1     -97.934 -17.413  47.306  1.00  0.00    -0.317 OA
BRANCH   7   8
HETATM    8  C8  UNL     1     -98.235 -16.067  47.078  1.00  0.00     0.180 C
BRANCH   8   9
HETATM    9  C7  UNL     1     -97.479 -15.197  48.041  1.00  0.00     0.037 C
BRANCH   9  10
HETATM   10  C6  UNL     1     -96.509 -14.353  47.220  1.00  0.00     0.084 C
BRANCH  10  11
HETATM   11  S1  UNL     1     -95.022 -15.332  46.992  1.00  0.00    -0.092 SA
BRANCH  11  12
HETATM   12  C5  UNL     1     -94.577 -16.134  48.512  1.00  0.00     0.162 C
HETATM   13  N2  UNL     1     -94.501 -17.450  48.396  1.00  0.00    -0.247 N
ATOM     14  H2  UNL     1     -94.248 -17.981  49.229  1.00  0.00     0.196 HD
BRANCH  12  15
HETATM   15  N1  UNL     1     -94.315 -15.521  49.745  1.00  0.00    -0.351 N
HETATM   16  C4  UNL     1     -95.178 -15.884  50.882  1.00  0.00     0.129 C
HETATM   17  C3  UNL     1     -95.911 -14.682  51.399  1.00  0.00     0.063 C
HETATM   18  C2  UNL     1     -95.281 -13.362  51.206  1.00  0.00     0.103 C
HETATM   19  C1  UNL     1     -94.903 -12.706  52.543  1.00  0.00     0.052 C
HETATM   20  F1  UNL     1     -96.284 -12.513  50.695  1.00  0.00    -0.243 F
HETATM   21  C22 UNL     1     -94.130 -13.244  50.291  1.00  0.00     0.073 C
HETATM   22  C19 UNL     1     -93.340 -14.532  50.077  1.00  0.00     0.030 C
HETATM   23  C20 UNL     1     -92.334 -14.239  49.015  1.00  0.00     0.038 C
HETATM   24  C21 UNL     1     -92.591 -14.842  51.359  1.00  0.00     0.038 C
ENDBRANCH  12  15
BRANCH  13  25
HETATM   25  O1  UNL     1     -94.730 -18.143  47.267  1.00  0.00    -0.288 OA
ATOM     26  H1  UNL     1     -95.459 -18.000  46.674  1.00  0.00     0.244 HD
ENDBRANCH  13  25
ENDBRANCH  11  12
ENDBRANCH  10  11
ENDBRANCH   9  10
ENDBRANCH   8   9
ENDBRANCH   7   8
ENDBRANCH   5   7
ENDBRANCH   1   5
BRANCH   4  27
HETATM   27  C13 UNL     1    -101.803 -18.657  48.738  1.00  0.00    -0.013 A
HETATM   28  C14 UNL     1    -102.125 -19.540  49.728  1.00  0.00     0.015 A
HETATM   29  C15 UNL     1    -103.470 -19.711  50.083  1.00  0.00     0.024 A
HETATM   30  C16 UNL     1    -104.425 -18.989  49.430  1.00  0.00     0.035 A
HETATM   31 CL1  UNL     1    -106.102 -19.209  49.882  1.00  0.00    -0.084 Cl
HETATM   32  C17 UNL     1    -104.088 -18.093  48.426  1.00  0.00     0.048 A
HETATM   33  C18 UNL     1    -102.772 -17.914  48.064  1.00  0.00     0.045 A
HETATM   34 CL2  UNL     1    -102.339 -16.794  46.802  1.00  0.00    -0.083 Cl
ENDBRANCH   4  27
TORSDOF 10
ENDMDL