MODEL 5
REMARK VINA RESULT: -9.384263035      4.060      8.033
REMARK  5 active torsions:
REMARK  status: ('A' for Active; 'I' for Inactive)
REMARK    1  A    between atoms: N3_6  and  C4_7
REMARK    2  A    between atoms: C4_7  and  C5_8
REMARK    3  A    between atoms: C4_7  and  C10_14
REMARK    4  A    between atoms: C5_8  and  C6_9
REMARK    5  A    between atoms: C12_16  and  C13_17
ROOT
HETATM    1  N1  UNL     1     -93.550 -18.102  44.061  1.00  0.00    -0.191 NA
HETATM    2  C1  UNL     1     -94.267 -17.750  44.891  1.00  0.00     0.105 C
HETATM    3  C2  UNL     1     -95.146 -17.316  45.944  1.00  0.00     0.115 A
HETATM    4  C3  UNL     1     -94.924 -17.395  47.293  1.00  0.00     0.143 A
HETATM    5  N2  UNL     1     -93.728 -17.939  47.855  1.00  0.00    -0.081 NA
HETATM    6  N3  UNL     1     -96.009 -16.871  47.962  1.00  0.00    -0.321 N
HETATM    7  C17 UNL     1     -96.900 -16.467  47.027  1.00  0.00     0.065 A
HETATM    8  C18 UNL     1     -98.141 -15.874  47.090  1.00  0.00     0.035 A
HETATM    9  C19 UNL     1     -98.855 -15.556  45.936  1.00  0.00     0.044 A
HETATM   10  C20 UNL     1     -98.306 -15.839  44.706  1.00  0.00     0.104 A
HETATM   11 CL3  UNL     1     -99.198 -15.442  43.234  1.00  0.00    -0.065 Cl
HETATM   12  N6  UNL     1     -97.102 -16.413  44.673  1.00  0.00    -0.344 N
ATOM     13  H6  UNL     1     -96.703 -16.621  43.758  1.00  0.00     0.167 HD
HETATM   14  C21 UNL     1     -96.377 -16.739  45.756  1.00  0.00     0.085 A
ENDROOT
BRANCH   6  15
HETATM   15  C4  UNL     1     -96.046 -16.822  49.378  1.00  0.00     0.143 C
BRANCH  15  16
HETATM   16  C5  UNL     1     -96.022 -15.508  50.059  1.00  0.00     0.038 C
BRANCH  16  17
HETATM   17  C6  UNL     1     -96.019 -15.722  51.598  1.00  0.00     0.014 C
HETATM   18  C7  UNL     1     -96.281 -14.350  52.183  1.00  0.00     0.033 C
HETATM   19  C8  UNL     1     -95.395 -14.370  53.391  1.00  0.00     0.168 C
HETATM   20  O1  UNL     1     -94.331 -15.190  53.120  1.00  0.00    -0.391 OA
HETATM   21  C9  UNL     1     -94.651 -16.030  52.091  1.00  0.00     0.172 C
ENDBRANCH  16  17
ENDBRANCH  15  16
BRANCH  15  22
HETATM   22  C10 UNL     1     -97.162 -17.680  49.926  1.00  0.00     0.051 A
HETATM   23  C11 UNL     1     -98.530 -17.492  49.811  1.00  0.00     0.061 A
HETATM   24  C12 UNL     1     -99.164 -18.493  50.449  1.00  0.00     0.069 A
HETATM   25  N4  UNL     1     -98.209 -19.295  50.955  1.00  0.00    -0.299 N
HETATM   26  N5  UNL     1     -97.034 -18.808  50.641  1.00  0.00    -0.302 N
ATOM     27  H4  UNL     1     -98.373 -20.145  51.494  1.00  0.00     0.187 HD
ATOM     28  H5  UNL     1     -96.143 -19.229  50.905  1.00  0.00     0.186 HD
BRANCH  24  29
HETATM   29  C13 UNL     1    -100.605 -18.788  50.641  1.00  0.00     0.056 A
HETATM   30  S1  UNL     1    -101.387 -19.180  52.130  1.00  0.00    -0.096 SA
HETATM   31  C14 UNL     1    -102.975 -19.376  51.566  1.00  0.00     0.076 A
HETATM   32  C15 UNL     1    -102.863 -19.131  50.232  1.00  0.00     0.063 A
HETATM   33 CL1  UNL     1    -104.324 -19.225  49.198  1.00  0.00    -0.082 Cl
HETATM   34  C16 UNL     1    -101.637 -18.827  49.752  1.00  0.00     0.075 A
HETATM   35 CL2  UNL     1    -101.340 -18.482  48.016  1.00  0.00    -0.081 Cl
ENDBRANCH  24  29
ENDBRANCH  15  22
ENDBRANCH   6  15
TORSDOF 5
ENDMDL