MODEL 5
REMARK VINA RESULT: -7.791448067      0.865      2.796
REMARK  7 active torsions:
REMARK  status: ('A' for Active; 'I' for Inactive)
REMARK    1  A    between atoms: C7_8  and  O2_9
REMARK    2  A    between atoms: C13_17  and  O4_18
REMARK    3  A    between atoms: O4_18  and  C14_19
REMARK    4  A    between atoms: C14_19  and  C15_21
REMARK    5  A    between atoms: C16_22  and  O6_23
REMARK    6  A    between atoms: C20_31  and  O7_32
REMARK    7  A    between atoms: O7_32  and  C21_33
ROOT
HETATM    1  C1  UNL     1     -97.213 -14.307  47.611  1.00  0.00     0.017 C
HETATM    2  C2  UNL     1     -96.220 -15.112  47.912  1.00  0.00    -0.059 C
HETATM    3  C3  UNL     1     -95.210 -15.035  46.807  1.00  0.00     0.037 C
HETATM    4  C4  UNL     1     -94.012 -14.132  47.173  1.00  0.00     0.020 C
HETATM    5  C5  UNL     1     -94.021 -14.065  48.578  1.00  0.00     0.095 C
HETATM    6  C6  UNL     1     -93.809 -15.479  49.102  1.00  0.00     0.196 C
HETATM    7  O1  UNL     1     -93.414 -16.432  48.521  1.00  0.00    -0.291 OA
HETATM    8  C7  UNL     1     -94.255 -15.184  50.480  1.00  0.00     0.232 C
HETATM    9  O3  UNL     1     -93.688 -13.929  50.724  1.00  0.00    -0.337 OA
HETATM   10  C8  UNL     1     -93.061 -13.486  49.523  1.00  0.00     0.068 C
HETATM   11  C9  UNL     1     -91.685 -14.077  49.406  1.00  0.00     0.046 C
HETATM   12  C10 UNL     1     -92.965 -11.996  49.523  1.00  0.00     0.046 C
HETATM   13  C11 UNL     1     -95.766 -15.143  50.399  1.00  0.00     0.086 C
HETATM   14  C12 UNL     1     -96.237 -15.956  51.618  1.00  0.00     0.019 C
HETATM   15  C13 UNL     1     -96.360 -15.851  49.208  1.00  0.00     0.170 C
ENDROOT
BRANCH  15  16
HETATM   16  O4  UNL     1     -97.667 -16.312  49.433  1.00  0.00    -0.307 OA
BRANCH  16  17
HETATM   17  C14 UNL     1     -98.150 -17.542  49.160  1.00  0.00     0.299 C
HETATM   18  O5  UNL     1     -97.317 -18.294  48.546  1.00  0.00    -0.259 OA
BRANCH  17  19
HETATM   19  C15 UNL     1     -99.473 -18.050  49.493  1.00  0.00     0.109 A
HETATM   20  C16 UNL     1    -100.436 -18.192  48.511  1.00  0.00     0.108 A
HETATM   21  C17 UNL     1    -101.702 -18.720  48.822  1.00  0.00     0.091 A
HETATM   22 CL1  UNL     1    -102.929 -18.899  47.565  1.00  0.00    -0.079 Cl
HETATM   23  C18 UNL     1    -101.977 -19.094  50.105  1.00  0.00     0.083 A
HETATM   24 CL2  UNL     1    -103.573 -19.757  50.475  1.00  0.00    -0.081 Cl
HETATM   25  C19 UNL     1    -101.016 -18.952  51.085  1.00  0.00     0.092 A
HETATM   26 CL3  UNL     1    -101.460 -19.459  52.705  1.00  0.00    -0.079 Cl
HETATM   27  C20 UNL     1     -99.767 -18.434  50.804  1.00  0.00     0.111 A
BRANCH  20  28
HETATM   28  O6  UNL     1    -100.261 -17.847  47.201  1.00  0.00    -0.358 OA
ATOM     29  H6  UNL     1    -100.896 -18.009  46.513  1.00  0.00     0.217 HD
ENDBRANCH  20  28
BRANCH  27  30
HETATM   30  O7  UNL     1     -98.859 -18.312  51.836  1.00  0.00    -0.349 OA
BRANCH  30  31
HETATM   31  C21 UNL     1     -98.079 -19.392  52.311  1.00  0.00     0.171 C
HETATM   32  C22 UNL     1     -97.313 -19.054  53.547  1.00  0.00     0.034 C
ENDBRANCH  30  31
ENDBRANCH  27  30
ENDBRANCH  17  19
ENDBRANCH  16  17
ENDBRANCH  15  16
BRANCH   8  33
HETATM   33  O2  UNL     1     -93.776 -16.168  51.311  1.00  0.00    -0.359 OA
ATOM     34  H2  UNL     1     -93.158 -16.700  50.822  1.00  0.00     0.213 HD
ENDBRANCH   8  33
TORSDOF 7
ENDMDL