MODEL 3
REMARK VINA RESULT: -6.823304438      3.914      5.634
REMARK  7 active torsions:
REMARK  status: ('A' for Active; 'I' for Inactive)
REMARK    1  A    between atoms: C2_2  and  C4_4
REMARK    2  A    between atoms: C2_2  and  S1_6
REMARK    3  A    between atoms: S1_6  and  C5_7
REMARK    4  A    between atoms: C6_8  and  C7_9
REMARK    5  A    between atoms: N1_10  and  C8_12
REMARK    6  A    between atoms: C9_15  and  O1_16
REMARK    7  A    between atoms: C13_23  and  O2_24
ROOT
HETATM    1  C5  UNL     1     -98.981 -17.656  47.904  1.00  0.00     0.033 A
HETATM    2  C6  UNL     1     -99.368 -18.241  49.087  1.00  0.00    -0.001 A
HETATM    3  C11 UNL     1    -100.728 -18.485  49.316  1.00  0.00     0.036 A
HETATM    4  C12 UNL     1    -101.649 -18.133  48.353  1.00  0.00     0.046 A
HETATM    5 BR1  UNL     1    -103.507 -18.468  48.673  1.00  0.00    -0.048 Br
HETATM    6  C13 UNL     1    -101.277 -17.548  47.167  1.00  0.00     0.101 A
HETATM    7  C14 UNL     1     -99.922 -17.314  46.955  1.00  0.00     0.063 A
HETATM    8 BR2  UNL     1     -99.440 -16.512  45.295  1.00  0.00    -0.047 Br
ENDROOT
BRANCH   2   9
HETATM    9  C7  UNL     1     -98.435 -18.663  50.136  1.00  0.00     0.103 C
HETATM   10  N1  UNL     1     -98.484 -18.130  51.290  1.00  0.00    -0.346 N
ATOM     11  H1  UNL     1     -99.176 -17.407  51.485  1.00  0.00     0.167 HD
BRANCH  10  12
HETATM   12  C8  UNL     1     -97.566 -18.543  52.325  1.00  0.00     0.150 A
HETATM   13  N2  UNL     1     -97.825 -19.200  53.447  1.00  0.00    -0.317 N
HETATM   14  C9  UNL     1     -96.865 -19.485  54.264  1.00  0.00     0.148 A
ATOM     15  H2  UNL     1     -98.782 -19.480  53.665  1.00  0.00     0.170 HD
HETATM   16  C10 UNL     1     -95.597 -19.089  53.926  1.00  0.00     0.109 A
HETATM   17  S2  UNL     1     -95.869 -18.314  52.425  1.00  0.00    -0.061 SA
BRANCH  14  18
HETATM   18  O1  UNL     1     -97.092 -20.186  55.477  1.00  0.00    -0.346 OA
ATOM     19  H1  UNL     1     -97.622 -20.973  55.513  1.00  0.00     0.219 HD
ENDBRANCH  14  18
ENDBRANCH  10  12
ENDBRANCH   2   9
BRANCH   1  20
HETATM   20  S1  UNL     1     -97.258 -17.329  47.634  1.00  0.00    -0.117 SA
BRANCH  20  21
HETATM   21  C2  UNL     1     -96.713 -15.723  48.185  1.00  0.00     0.018 C
HETATM   22  C1  UNL     1     -97.408 -14.561  47.511  1.00  0.00     0.028 C
HETATM   23  C3  UNL     1     -96.848 -15.565  49.688  1.00  0.00     0.028 C
BRANCH  21  24
HETATM   24  C4  UNL     1     -95.224 -15.563  47.880  1.00  0.00     0.134 C
HETATM   25 CL1  UNL     1     -95.016 -13.993  47.048  1.00  0.00    -0.129 Cl
ENDBRANCH  21  24
ENDBRANCH  20  21
ENDBRANCH   1  20
BRANCH   6  26
HETATM   26  O2  UNL     1    -102.264 -17.228  46.256  1.00  0.00    -0.358 OA
ATOM     27  H2  UNL     1    -102.801 -16.462  46.423  1.00  0.00     0.217 HD
ENDBRANCH   6  26
TORSDOF 7
ENDMDL