MODEL 3
REMARK VINA RESULT: -9.567893773      1.913      2.828
REMARK  7 active torsions:
REMARK  status: ('A' for Active; 'I' for Inactive)
REMARK    1  A    between atoms: C3_4  and  C4_5
REMARK    2  A    between atoms: C5_9  and  C6_10
REMARK    3  A    between atoms: C9_13  and  C10_14
REMARK    4  A    between atoms: C10_14  and  N3_15
REMARK    5  A    between atoms: N3_15  and  C11_17
REMARK    6  A    between atoms: C11_17  and  C12_18
REMARK    7  A    between atoms: C22_35  and  C23_36
ROOT
HETATM    1  C4  UNL     1      18.129  93.316   0.791  1.00  0.00     0.139 A
HETATM    2  N2  UNL     1      18.836  92.503   1.592  1.00  0.00    -0.242 N
ATOM      3  H2  UNL     1      19.020  91.515   1.415  1.00  0.00     0.196 HD
HETATM    4  O1  UNL     1      19.249  93.168   2.623  1.00  0.00    -0.222 OA
HETATM    5  C5  UNL     1      18.841  94.421   2.549  1.00  0.00     0.152 A
HETATM    6  N4  UNL     1      18.142  94.511   1.404  1.00  0.00    -0.322 N
ATOM      7  H4  UNL     1      17.691  95.356   1.054  1.00  0.00     0.169 HD
ENDROOT
BRANCH   5   8
HETATM    8  C6  UNL     1      19.131  95.469   3.564  1.00  0.00     0.063 C
HETATM    9  C7  UNL     1      17.832  96.050   4.091  1.00  0.00     0.013 C
HETATM   10  C8  UNL     1      17.075  95.101   4.966  1.00  0.00     0.007 C
HETATM   11  C9  UNL     1      17.991  94.386   5.926  1.00  0.00     0.003 C
HETATM   12  C19 UNL     1      19.339  95.035   5.981  1.00  0.00     0.007 C
HETATM   13  C20 UNL     1      20.023  94.938   4.634  1.00  0.00     0.013 C
BRANCH  11  14
HETATM   14  C10 UNL     1      17.369  94.530   7.340  1.00  0.00     0.119 C
BRANCH  14  15
HETATM   15  N3  UNL     1      16.135  95.201   7.263  1.00  0.00    -0.405 N
ATOM     16  H3  UNL     1      15.453  94.929   6.554  1.00  0.00     0.154 HD
BRANCH  15  17
HETATM   17  C11 UNL     1      15.835  96.248   8.162  1.00  0.00     0.124 C
HETATM   18  C13 UNL     1      14.422  96.043   8.717  1.00  0.00     0.040 C
HETATM   19  C14 UNL     1      14.281  94.762   9.485  1.00  0.00     0.003 C
HETATM   20  C15 UNL     1      14.400  95.020  10.991  1.00  0.00     0.000 C
HETATM   21  C16 UNL     1      15.893  95.202  11.243  1.00  0.00     0.000 C
HETATM   22  C17 UNL     1      16.250  96.557  10.637  1.00  0.00     0.003 C
HETATM   23  C18 UNL     1      16.852  96.337   9.291  1.00  0.00     0.040 C
BRANCH  17  24
HETATM   24  C12 UNL     1      15.805  97.585   7.469  1.00  0.00     0.412 C
HETATM   25  F1  UNL     1      15.037  97.517   6.302  1.00  0.00    -0.168 F
HETATM   26  F2  UNL     1      17.075  97.933   7.104  1.00  0.00    -0.168 F
HETATM   27  F3  UNL     1      15.166  98.564   8.239  1.00  0.00    -0.168 F
ENDBRANCH  17  24
ENDBRANCH  15  17
ENDBRANCH  14  15
ENDBRANCH  11  14
ENDBRANCH   5   8
BRANCH   1  28
HETATM   28  C3  UNL     1      17.520  92.897  -0.459  1.00  0.00     0.027 A
HETATM   29  C2  UNL     1      18.117  91.964  -1.275  1.00  0.00     0.045 A
HETATM   30  C1  UNL     1      17.510  91.576  -2.462  1.00  0.00     0.070 A
HETATM   31  N1  UNL     1      18.186  90.613  -3.237  1.00  0.00    -0.100 NA
HETATM   32  C22 UNL     1      16.303  92.104  -2.866  1.00  0.00     0.040 A
HETATM   33  N5  UNL     1      15.731  93.014  -2.061  1.00  0.00    -0.366 N
HETATM   34  C21 UNL     1      16.298  93.418  -0.889  1.00  0.00     0.103 A
ATOM     35  H5  UNL     1      14.837  93.419  -2.338  1.00  0.00     0.165 HD
BRANCH  32  36
HETATM   36  C23 UNL     1      15.705  91.667  -4.129  1.00  0.00     0.063 C
HETATM   37  C24 UNL     1      14.913  90.368  -3.933  1.00  0.00     0.039 C
HETATM   38  C25 UNL     1      13.933  90.506  -5.095  1.00  0.00     0.168 C
HETATM   39  O2  UNL     1      13.597  91.831  -5.150  1.00  0.00    -0.390 OA
HETATM   40  C26 UNL     1      14.604  92.586  -4.607  1.00  0.00     0.178 C
ENDBRANCH  32  36
ENDBRANCH   1  28
TORSDOF 7
ENDMDL