MODEL 4
REMARK VINA RESULT: -7.887161355      2.685      7.919
REMARK  6 active torsions:
REMARK  status: ('A' for Active; 'I' for Inactive)
REMARK    1  A    between atoms: O1_2  and  C2_3
REMARK    2  A    between atoms: C4_5  and  C5_6
REMARK    3  A    between atoms: C9_13  and  O3_14
REMARK    4  A    between atoms: C18_25  and  O4_26
REMARK    5  A    between atoms: C21_31  and  O5_32
REMARK    6  A    between atoms: C23_34  and  O6_35
ROOT
HETATM    1  C5  UNL     1      17.704  95.230   7.468  1.00  0.00     0.149 C
HETATM    2  N1  UNL     1      17.290  95.764   6.205  1.00  0.00    -0.376 N
ATOM      3  H1  UNL     1      16.550  96.464   6.155  1.00  0.00     0.160 HD
HETATM    4  C6  UNL     1      17.922  95.308   5.036  1.00  0.00     0.044 C
HETATM    5  C7  UNL     1      17.603  96.044   3.916  1.00  0.00     0.087 C
HETATM    6  C8  UNL     1      17.576  95.601   2.599  1.00  0.00     0.208 C
HETATM    7  O2  UNL     1      16.903  96.277   1.783  1.00  0.00    -0.285 OA
HETATM    8  C9  UNL     1      18.218  94.478   2.082  1.00  0.00     0.140 C
HETATM    9  C11 UNL     1      19.283  93.796   2.694  1.00  0.00     0.072 C
HETATM   10 CL1  UNL     1      20.355  93.024   1.530  1.00  0.00    -0.081 Cl
HETATM   11  C12 UNL     1      19.567  93.720   4.034  1.00  0.00     0.041 C
HETATM   12  C13 UNL     1      18.750  94.163   5.057  1.00  0.00     0.005 C
HETATM   13  C14 UNL     1      18.967  93.431   6.282  1.00  0.00     0.010 A
HETATM   14  C15 UNL     1      18.356  93.922   7.444  1.00  0.00    -0.015 A
HETATM   15  C16 UNL     1      18.447  93.163   8.607  1.00  0.00     0.055 A
HETATM   16  C17 UNL     1      19.115  91.977   8.609  1.00  0.00     0.151 A
HETATM   17  F1  UNL     1      19.184  91.273   9.757  1.00  0.00    -0.203 F
HETATM   18  C18 UNL     1      19.706  91.519   7.454  1.00  0.00     0.127 A
HETATM   19  C19 UNL     1      19.633  92.245   6.274  1.00  0.00     0.082 A
HETATM   20 CL2  UNL     1      20.274  91.450   4.880  1.00  0.00    -0.080 Cl
ENDROOT
BRANCH   1  21
HETATM   21  C4  UNL     1      16.656  95.363   8.497  1.00  0.00    -0.026 A
HETATM   22  C3  UNL     1      15.532  94.570   8.480  1.00  0.00     0.049 A
HETATM   23  C2  UNL     1      14.540  94.705   9.424  1.00  0.00     0.104 A
HETATM   24  C23 UNL     1      14.704  95.675  10.413  1.00  0.00     0.135 A
HETATM   25  C21 UNL     1      15.810  96.493  10.472  1.00  0.00     0.104 A
HETATM   26  C20 UNL     1      16.769  96.300   9.487  1.00  0.00     0.049 A
BRANCH  23  27
HETATM   27  O1  UNL     1      13.428  93.894   9.376  1.00  0.00    -0.353 OA
HETATM   28  C1  UNL     1      13.294  92.964   8.325  1.00  0.00     0.210 C
ENDBRANCH  23  27
BRANCH  24  29
HETATM   29  O6  UNL     1      13.695  95.794  11.352  1.00  0.00    -0.351 OA
HETATM   30  C24 UNL     1      13.576  94.963  12.476  1.00  0.00     0.210 C
ENDBRANCH  24  29
BRANCH  25  31
HETATM   31  O5  UNL     1      15.931  97.444  11.472  1.00  0.00    -0.353 OA
HETATM   32  C22 UNL     1      16.356  97.172  12.772  1.00  0.00     0.210 C
ENDBRANCH  25  31
ENDBRANCH   1  21
BRANCH  18  33
HETATM   33  O4  UNL     1      20.386  90.312   7.462  1.00  0.00    -0.356 OA
ATOM     34  H4  UNL     1      20.538  89.851   6.645  1.00  0.00     0.218 HD
ENDBRANCH  18  33
BRANCH   8  35
HETATM   35  O3  UNL     1      17.807  93.963   0.873  1.00  0.00    -0.351 OA
HETATM   36  C10 UNL     1      16.901  92.880   0.785  1.00  0.00     0.210 C
ENDBRANCH   8  35
TORSDOF 6
ENDMDL