MODEL 2
REMARK VINA RESULT: -10.115134281      4.054      6.349
REMARK  5 active torsions:
REMARK  status: ('A' for Active; 'I' for Inactive)
REMARK    1  A    between atoms: O1_1  and  N1_3
REMARK    2  A    between atoms: C3_8  and  N3_9
REMARK    3  A    between atoms: N3_9  and  C4_11
REMARK    4  A    between atoms: C7_14  and  C8_15
REMARK    5  A    between atoms: C8_15  and  N4_16
ROOT
HETATM    1  N1  UNL     1      18.100  94.823   5.276  1.00  0.00    -0.202 N
HETATM    2  C1  UNL     1      17.530  94.892   6.454  1.00  0.00     0.163 A
HETATM    3  C2  UNL     1      16.650  95.821   7.103  1.00  0.00     0.102 A
HETATM    4  N2  UNL     1      16.242  95.529   8.378  1.00  0.00    -0.338 N
ATOM      5  H2  UNL     1      16.598  94.663   8.780  1.00  0.00     0.167 HD
HETATM    6  C3  UNL     1      15.443  96.240   9.141  1.00  0.00     0.101 A
HETATM    7  C15 UNL     1      14.931  97.424   8.650  1.00  0.00     0.050 A
HETATM    8  C16 UNL     1      15.283  97.803   7.380  1.00  0.00     0.030 A
HETATM    9  C17 UNL     1      16.153  96.985   6.608  1.00  0.00     0.064 A
HETATM   10 CL1  UNL     1      16.528  97.605   5.032  1.00  0.00    -0.082 Cl
HETATM   11  N5  UNL     1      17.944  93.751   7.110  1.00  0.00    -0.337 N
ATOM     12  H5  UNL     1      17.672  93.500   8.060  1.00  0.00     0.167 HD
HETATM   13  C18 UNL     1      18.740  93.025   6.343  1.00  0.00     0.066 A
HETATM   14  C19 UNL     1      19.391  91.836   6.540  1.00  0.00     0.056 A
HETATM   15  C20 UNL     1      20.155  91.330   5.541  1.00  0.00     0.037 A
HETATM   16 CL2  UNL     1      21.010  89.819   5.732  1.00  0.00    -0.084 Cl
HETATM   17  C21 UNL     1      20.284  92.001   4.329  1.00  0.00     0.050 A
HETATM   18  C22 UNL     1      19.624  93.206   4.129  1.00  0.00     0.067 A
HETATM   19 CL3  UNL     1      19.810  94.031   2.607  1.00  0.00    -0.082 Cl
HETATM   20  C23 UNL     1      18.863  93.683   5.155  1.00  0.00     0.113 A
ENDROOT
BRANCH   6  21
HETATM   21  N3  UNL     1      15.122  95.834  10.472  1.00  0.00    -0.372 N
ATOM     22  H3  UNL     1      15.055  94.834  10.660  1.00  0.00     0.161 HD
BRANCH  21  23
HETATM   23  C4  UNL     1      14.889  96.733  11.556  1.00  0.00     0.083 C
HETATM   24  C5  UNL     1      14.094  95.998  12.597  1.00  0.00     0.026 C
HETATM   25  C6  UNL     1      13.562  97.016  13.606  1.00  0.00     0.012 C
HETATM   26  C7  UNL     1      14.503  98.158  13.654  1.00  0.00     0.024 C
HETATM   27  C13 UNL     1      15.948  97.721  13.543  1.00  0.00     0.012 C
HETATM   28  C14 UNL     1      16.172  97.303  12.109  1.00  0.00     0.026 C
BRANCH  26  29
HETATM   29  C8  UNL     1      14.218  99.103  14.763  1.00  0.00     0.068 C
BRANCH  29  30
HETATM   30  N4  UNL     1      14.397 100.454  14.648  1.00  0.00    -0.369 N
HETATM   31  C9  UNL     1      13.446 101.421  14.415  1.00  0.00     0.089 C
HETATM   32  C10 UNL     1      13.857 102.520  13.444  1.00  0.00     0.212 C
HETATM   33  O2  UNL     1      15.178 102.864  13.521  1.00  0.00    -0.385 OA
HETATM   34  C11 UNL     1      15.857 102.419  14.629  1.00  0.00     0.188 C
HETATM   35  C12 UNL     1      15.737 100.903  14.763  1.00  0.00     0.153 C
ENDBRANCH  29  30
ENDBRANCH  26  29
ENDBRANCH  21  23
ENDBRANCH   6  21
BRANCH   1  36
HETATM   36  O1  UNL     1      18.007  95.684   4.229  1.00  0.00    -0.281 OA
ATOM     37  H1  UNL     1      18.683  96.227   3.840  1.00  0.00     0.245 HD
ENDBRANCH   1  36
TORSDOF 5
ENDMDL