MODEL 2
REMARK VINA RESULT: -9.542748799      5.604      9.979
REMARK  8 active torsions:
REMARK  status: ('A' for Active; 'I' for Inactive)
REMARK    1  A    between atoms: C4_4  and  S1_5
REMARK    2  A    between atoms: S1_5  and  N1_6
REMARK    3  A    between atoms: N1_6  and  C5_8
REMARK    4  A    between atoms: C6_11  and  C7_12
REMARK    5  A    between atoms: C11_16  and  C12_17
REMARK    6  A    between atoms: C12_17  and  N3_18
REMARK    7  A    between atoms: N4_20  and  N5_22
REMARK    8  A    between atoms: N6_25  and  O1_27
ROOT
HETATM    1  C1  UNL     1      18.879  92.165   8.449  1.00  0.00     0.050 C
HETATM    2  C2  UNL     1      18.471  93.180   7.448  1.00  0.00    -0.038 A
HETATM    3  C3  UNL     1      17.624  94.238   7.806  1.00  0.00     0.030 A
HETATM    4  C4  UNL     1      17.227  95.181   6.920  1.00  0.00     0.045 A
HETATM    5  C14 UNL     1      17.673  95.106   5.618  1.00  0.00     0.075 A
HETATM    6 CL2  UNL     1      17.140  96.329   4.464  1.00  0.00    -0.081 Cl
HETATM    7  C15 UNL     1      18.500  94.083   5.248  1.00  0.00     0.078 A
HETATM    8 CL3  UNL     1      19.066  93.969   3.578  1.00  0.00    -0.081 Cl
HETATM    9  C16 UNL     1      18.917  93.106   6.137  1.00  0.00     0.074 A
HETATM   10  C17 UNL     1      19.774  92.033   5.730  1.00  0.00     0.102 C
HETATM   11  N7  UNL     1      20.450  91.159   5.392  1.00  0.00    -0.191 NA
ENDROOT
BRANCH   4  12
HETATM   12  S1  UNL     1      16.057  96.468   7.367  1.00  0.00    -0.011 SA
BRANCH  12  13
HETATM   13  N1  UNL     1      16.424  96.900   9.050  1.00  0.00    -0.306 N
ATOM     14  H1  UNL     1      17.127  97.606   9.268  1.00  0.00     0.176 HD
BRANCH  13  15
HETATM   15  C5  UNL     1      15.769  96.288  10.003  1.00  0.00     0.156 A
HETATM   16  N2  UNL     1      15.977  96.376  11.321  1.00  0.00    -0.338 N
HETATM   17  C6  UNL     1      15.227  95.687  12.136  1.00  0.00     0.037 A
ATOM     18  H2  UNL     1      16.715  96.977  11.686  1.00  0.00     0.168 HD
HETATM   19  C11 UNL     1      14.241  94.885  11.532  1.00  0.00     0.078 A
HETATM   20  S2  UNL     1      14.476  95.193   9.880  1.00  0.00    -0.048 SA
BRANCH  17  21
HETATM   21  C7  UNL     1      15.437  95.580  13.631  1.00  0.00     0.041 A
HETATM   22  C8  UNL     1      16.671  95.769  14.381  1.00  0.00     0.016 A
HETATM   23  C9  UNL     1      16.424  94.417  13.925  1.00  0.00    -0.008 A
HETATM   24  C10 UNL     1      15.944  93.286  14.763  1.00  0.00     0.011 C
ENDBRANCH  17  21
BRANCH  19  25
HETATM   25  C12 UNL     1      13.203  94.055  12.173  1.00  0.00     0.160 C
HETATM   26  N6  UNL     1      12.166  94.675  12.570  1.00  0.00    -0.251 N
ATOM     27  H6  UNL     1      12.208  95.676  12.380  1.00  0.00     0.196 HD
BRANCH  25  28
HETATM   28  N3  UNL     1      13.311  92.667  12.361  1.00  0.00    -0.268 N
HETATM   29  N4  UNL     1      12.335  91.858  12.202  1.00  0.00    -0.229 N
ATOM     30  H4  UNL     1      11.407  92.176  11.924  1.00  0.00     0.209 HD
ATOM     31  H3  UNL     1      14.215  92.285  12.638  1.00  0.00     0.190 HD
BRANCH  29  32
HETATM   32  N5  UNL     1      12.622  90.498  12.436  1.00  0.00    -0.223 N
HETATM   33  C13 UNL     1      12.966  90.108  13.776  1.00  0.00     0.195 C
HETATM   34 CL1  UNL     1      12.586  89.308  11.169  1.00  0.00     0.031 Cl
ENDBRANCH  29  32
ENDBRANCH  25  28
BRANCH  26  35
HETATM   35  O1  UNL     1      11.050  94.316  13.170  1.00  0.00    -0.288 OA
ATOM     36  H1  UNL     1      10.675  94.476  14.028  1.00  0.00     0.244 HD
ENDBRANCH  26  35
ENDBRANCH  19  25
ENDBRANCH  13  15
ENDBRANCH  12  13
ENDBRANCH   4  12
TORSDOF 8
ENDMDL