MODEL 4
REMARK VINA RESULT: -7.118339479     15.318     19.113
REMARK  7 active torsions:
REMARK  status: ('A' for Active; 'I' for Inactive)
REMARK    1  A    between atoms: O1_2  and  C2_3
REMARK    2  A    between atoms: C5_7  and  C6_8
REMARK    3  A    between atoms: C10_13  and  O3_14
REMARK    4  A    between atoms: C12_16  and  O4_17
REMARK    5  A    between atoms: C14_19  and  O5_20
REMARK    6  A    between atoms: C19_25  and  O6_26
REMARK    7  A    between atoms: C21_30  and  O7_31
ROOT
HETATM    1  C6  UNL     1      18.155  88.355  -3.943  1.00  0.00    -0.055 C
HETATM    2  C7  UNL     1      18.801  88.390  -5.270  1.00  0.00     0.119 C
HETATM    3  C8  UNL     1      20.152  87.835  -5.444  1.00  0.00     0.167 C
HETATM    4  O2  UNL     1      20.583  88.050  -6.606  1.00  0.00    -0.292 OA
HETATM    5  C9  UNL     1      21.073  87.114  -4.577  1.00  0.00     0.057 A
HETATM    6  C10 UNL     1      22.390  87.116  -4.998  1.00  0.00     0.118 A
HETATM    7  C12 UNL     1      23.351  86.547  -4.173  1.00  0.00     0.136 A
HETATM    8  C14 UNL     1      22.986  85.997  -2.969  1.00  0.00     0.111 A
HETATM    9  C16 UNL     1      21.689  85.967  -2.511  1.00  0.00    -0.014 A
HETATM   10  C17 UNL     1      21.339  85.359  -1.208  1.00  0.00     0.052 C
HETATM   11  C18 UNL     1      20.750  86.530  -3.329  1.00  0.00     0.017 A
HETATM   12  C19 UNL     1      19.379  86.472  -2.851  1.00  0.00     0.167 C
HETATM   13 CL2  UNL     1      18.437  85.757  -4.243  1.00  0.00    -0.083 Cl
HETATM   14  C20 UNL     1      18.885  87.931  -2.757  1.00  0.00     0.095 C
ENDROOT
BRANCH   1  15
HETATM   15  C5  UNL     1      17.340  89.611  -3.835  1.00  0.00     0.004 A
HETATM   16  C4  UNL     1      16.227  89.751  -4.690  1.00  0.00     0.041 A
HETATM   17  C3  UNL     1      15.364  90.809  -4.644  1.00  0.00     0.070 A
HETATM   18  C2  UNL     1      15.588  91.792  -3.710  1.00  0.00     0.114 A
HETATM   19 CL1  UNL     1      13.993  90.901  -5.763  1.00  0.00    -0.081 Cl
HETATM   20  C22 UNL     1      16.675  91.677  -2.858  1.00  0.00     0.102 A
HETATM   21  C21 UNL     1      17.556  90.589  -2.914  1.00  0.00     0.100 A
HETATM   22 CL3  UNL     1      16.984  92.916  -1.664  1.00  0.00    -0.078 Cl
BRANCH  18  23
HETATM   23  O1  UNL     1      14.734  92.867  -3.639  1.00  0.00    -0.352 OA
HETATM   24  C1  UNL     1      14.847  94.082  -4.317  1.00  0.00     0.210 C
ENDBRANCH  18  23
BRANCH  21  25
HETATM   25  O7  UNL     1      18.595  90.589  -2.022  1.00  0.00    -0.358 OA
ATOM     26  H7  UNL     1      18.832  91.332  -1.479  1.00  0.00     0.217 HD
ENDBRANCH  21  25
ENDBRANCH   1  15
BRANCH  12  27
HETATM   27  O6  UNL     1      19.022  85.686  -1.833  1.00  0.00    -0.370 OA
ATOM     28  H6  UNL     1      18.569  86.029  -1.072  1.00  0.00     0.212 HD
ENDBRANCH  12  27
BRANCH   6  29
HETATM   29  O3  UNL     1      22.775  87.661  -6.223  1.00  0.00    -0.352 OA
HETATM   30  C11 UNL     1      23.213  86.833  -7.316  1.00  0.00     0.210 C
ENDBRANCH   6  29
BRANCH   7  31
HETATM   31  O4  UNL     1      24.665  86.514  -4.519  1.00  0.00    -0.351 OA
HETATM   32  C13 UNL     1      25.413  85.368  -4.894  1.00  0.00     0.210 C
ENDBRANCH   7  31
BRANCH   8  33
HETATM   33  O5  UNL     1      23.985  85.426  -2.145  1.00  0.00    -0.352 OA
HETATM   34  C15 UNL     1      24.779  86.271  -1.316  1.00  0.00     0.210 C
ENDBRANCH   8  33
TORSDOF 7
ENDMDL