MODEL 5
REMARK VINA RESULT: -8.642225512      4.003     10.384
REMARK  5 active torsions:
REMARK  status: ('A' for Active; 'I' for Inactive)
REMARK    1  A    between atoms: C2_2  and  C3_3
REMARK    2  A    between atoms: C4_7  and  C5_8
REMARK    3  A    between atoms: C5_8  and  N2_9
REMARK       I    between atoms: N2_9  and  C7_11
REMARK    4  A    between atoms: C7_11  and  C8_13
REMARK    5  A    between atoms: C10_18  and  C11_19
ROOT
HETATM    1  C11 UNL     1      18.984  94.609   3.732  1.00  0.00     0.016 A
HETATM    2  C12 UNL     1      18.443  93.991   2.623  1.00  0.00     0.040 A
HETATM    3  C13 UNL     1      19.172  93.773   1.460  1.00  0.00     0.067 A
HETATM    4  C14 UNL     1      18.564  93.125   0.327  1.00  0.00     0.101 C
HETATM    5  N4  UNL     1      18.058  92.599  -0.581  1.00  0.00    -0.191 NA
HETATM    6  C15 UNL     1      20.473  94.178   1.391  1.00  0.00     0.056 A
HETATM    7 CL1  UNL     1      21.444  93.926  -0.063  1.00  0.00    -0.083 Cl
HETATM    8  C16 UNL     1      21.029  94.794   2.483  1.00  0.00     0.050 A
HETATM    9  C17 UNL     1      20.282  95.009   3.652  1.00  0.00     0.048 A
HETATM   10 CL2  UNL     1      21.061  95.859   4.984  1.00  0.00    -0.083 Cl
ENDROOT
BRANCH   1  11
HETATM   11  C10 UNL     1      18.167  94.886   4.900  1.00  0.00     0.068 A
HETATM   12  N3  UNL     1      18.159  94.180   6.043  1.00  0.00    -0.348 N
HETATM   13  C9  UNL     1      17.318  94.806   6.929  1.00  0.00     0.089 A
ATOM     14  H3  UNL     1      18.686  93.326   6.221  1.00  0.00     0.166 HD
HETATM   15  S1  UNL     1      16.646  94.776   8.487  1.00  0.00    -0.064 SA
HETATM   16  C19 UNL     1      16.773  95.920   6.373  1.00  0.00     0.048 A
HETATM   17  C8  UNL     1      15.679  96.180   8.409  1.00  0.00     0.100 A
HETATM   18  C20 UNL     1      15.917  96.641   7.139  1.00  0.00     0.083 A
HETATM   19  N5  UNL     1      15.242  97.863   6.694  1.00  0.00    -0.100 NA
HETATM   20  C18 UNL     1      17.322  95.966   5.071  1.00  0.00     0.076 A
HETATM   21 CL3  UNL     1      17.021  97.219   3.879  1.00  0.00    -0.081 Cl
BRANCH  17  22
HETATM   22  C7  UNL     1      14.799  96.771   9.439  1.00  0.00     0.262 C
HETATM   23  N2  UNL     1      15.267  96.954  10.742  1.00  0.00    -0.344 N
HETATM   24  C6  UNL     1      16.578  96.608  11.202  1.00  0.00     0.153 C
HETATM   25  O2  UNL     1      13.651  97.089   9.098  1.00  0.00    -0.267 OA
BRANCH  23  26
HETATM   26  C5  UNL     1      14.333  97.544  11.701  1.00  0.00     0.212 C
BRANCH  26  27
HETATM   27  C4  UNL     1      13.852  96.457  12.611  1.00  0.00     0.166 A
HETATM   28  O1  UNL     1      13.590  96.565  13.891  1.00  0.00    -0.221 OA
HETATM   29  N1  UNL     1      13.191  95.427  14.373  1.00  0.00    -0.247 N
HETATM   30  C3  UNL     1      13.183  94.520  13.387  1.00  0.00     0.103 A
ATOM     31  H1  UNL     1      12.927  95.252  15.343  1.00  0.00     0.196 HD
HETATM   32  N6  UNL     1      13.597  95.176  12.289  1.00  0.00    -0.325 N
ATOM     33  H6  UNL     1      13.702  94.768  11.360  1.00  0.00     0.169 HD
BRANCH  30  34
HETATM   34  C2  UNL     1      12.785  93.105  13.555  1.00  0.00     0.074 C
HETATM   35  C1  UNL     1      12.766  92.362  12.228  1.00  0.00     0.013 C
ENDBRANCH  30  34
ENDBRANCH  26  27
ENDBRANCH  23  26
ENDBRANCH  17  22
ENDBRANCH   1  11
TORSDOF 5
ENDMDL