MODEL 5
REMARK VINA RESULT: -6.440663912     13.595     17.362
REMARK  7 active torsions:
REMARK  status: ('A' for Active; 'I' for Inactive)
REMARK    1  A    between atoms: O1_2  and  C2_3
REMARK    2  A    between atoms: C2_3  and  C3_5
REMARK    3  A    between atoms: C7_10  and  N1_11
REMARK    4  A    between atoms: C9_16  and  O6_17
REMARK    5  A    between atoms: C10_19  and  N2_20
REMARK    6  A    between atoms: N2_20  and  S1_22
REMARK    7  A    between atoms: C14_28  and  C15_29
ROOT
HETATM    1  C3  UNL     1      18.837  85.342  -5.152  1.00  0.00     0.054 A
HETATM    2  C4  UNL     1      18.918  85.445  -3.757  1.00  0.00     0.056 A
HETATM    3  C5  UNL     1      20.061  85.849  -3.100  1.00  0.00     0.088 A
HETATM    4  O3  UNL     1      20.387  86.024  -1.844  1.00  0.00    -0.306 OA
HETATM    5  C6  UNL     1      21.624  86.429  -1.731  1.00  0.00     0.124 A
HETATM    6  C7  UNL     1      22.390  86.742  -0.611  1.00  0.00     0.162 A
HETATM    7  C8  UNL     1      23.682  87.152  -0.778  1.00  0.00     0.105 A
HETATM    8 CL1  UNL     1      24.659  87.549   0.619  1.00  0.00    -0.079 Cl
HETATM    9  C9  UNL     1      24.242  87.260  -2.038  1.00  0.00     0.118 A
HETATM   10  C10 UNL     1      23.503  86.955  -3.152  1.00  0.00     0.092 A
HETATM   11  C11 UNL     1      22.210  86.545  -3.003  1.00  0.00     0.044 A
HETATM   12  C12 UNL     1      21.174  86.164  -3.855  1.00  0.00     0.014 A
HETATM   13  C13 UNL     1      21.147  86.081  -5.227  1.00  0.00     0.029 A
HETATM   14  C14 UNL     1      19.951  85.663  -5.853  1.00  0.00     0.004 A
ENDROOT
BRANCH  10  15
HETATM   15  N2  UNL     1      24.098  87.047  -4.419  1.00  0.00    -0.267 N
ATOM     16  H2  UNL     1      24.215  87.955  -4.869  1.00  0.00     0.180 HD
BRANCH  15  17
HETATM   17  S1  UNL     1      24.638  85.588  -5.219  1.00  0.00     0.359 S
HETATM   18  O7  UNL     1      26.096  85.341  -4.955  1.00  0.00    -0.187 OA
HETATM   19  O8  UNL     1      24.464  85.722  -6.700  1.00  0.00    -0.187 OA
ENDBRANCH  15  17
ENDBRANCH  10  15
BRANCH   9  20
HETATM   20  O6  UNL     1      25.569  87.685  -2.137  1.00  0.00    -0.357 OA
ATOM     21  H6  UNL     1      26.216  87.066  -2.453  1.00  0.00     0.218 HD
ENDBRANCH   9  20
BRANCH   6  22
HETATM   22  N1  UNL     1      21.834  86.637   0.693  1.00  0.00    -0.111 N
HETATM   23  O4  UNL     1      22.004  85.611   1.379  1.00  0.00    -0.532 OA
HETATM   24  O5  UNL     1      21.095  87.650   1.246  1.00  0.00    -0.532 OA
ENDBRANCH   6  22
BRANCH  14  25
HETATM   25  C15 UNL     1      19.974  85.686  -7.305  1.00  0.00     0.062 C
HETATM   26 CL2  UNL     1      19.000  86.918  -8.132  1.00  0.00    -0.082 Cl
HETATM   27  C16 UNL     1      20.706  84.914  -8.043  1.00  0.00     0.030 C
HETATM   28  C17 UNL     1      20.677  84.997  -9.511  1.00  0.00     0.064 C
HETATM   29 CL3  UNL     1      21.744  83.736  -7.282  1.00  0.00    -0.088 Cl
ENDBRANCH  14  25
BRANCH   1  30
HETATM   30  C2  UNL     1      17.633  84.844  -5.778  1.00  0.00     0.293 C
HETATM   31  O2  UNL     1      16.472  85.241  -5.624  1.00  0.00    -0.259 OA
BRANCH  30  32
HETATM   32  O1  UNL     1      17.759  83.770  -6.687  1.00  0.00    -0.322 OA
HETATM   33  C1  UNL     1      17.044  83.736  -7.908  1.00  0.00     0.213 C
ENDBRANCH  30  32
ENDBRANCH   1  30
TORSDOF 7
ENDMDL