MODEL 4
REMARK VINA RESULT: -7.562830373      8.311     11.593
REMARK  7 active torsions:
REMARK  status: ('A' for Active; 'I' for Inactive)
REMARK    1  A    between atoms: C2_2  and  O1_3
REMARK    2  A    between atoms: O1_3  and  C3_4
REMARK    3  A    between atoms: C3_4  and  C4_6
REMARK    4  A    between atoms: C5_7  and  N1_8
REMARK    5  A    between atoms: N2_10  and  C6_12
REMARK    6  A    between atoms: C10_17  and  S1_18
REMARK    7  A    between atoms: C14_26  and  O6_27
ROOT
HETATM    1  C4  UNL     1      18.182  93.857   6.860  1.00  0.00     0.092 A
HETATM    2  C5  UNL     1      17.225  94.794   7.173  1.00  0.00     0.067 A
HETATM    3  C12 UNL     1      16.808  95.725   6.212  1.00  0.00     0.054 A
HETATM    4  C13 UNL     1      17.366  95.694   4.951  1.00  0.00     0.048 A
HETATM    5 BR1  UNL     1      16.783  96.972   3.661  1.00  0.00    -0.048 Br
HETATM    6  C14 UNL     1      18.326  94.755   4.637  1.00  0.00     0.105 A
HETATM    7  C15 UNL     1      18.735  93.833   5.595  1.00  0.00     0.087 A
HETATM    8 CL2  UNL     1      19.947  92.613   5.268  1.00  0.00    -0.080 Cl
ENDROOT
BRANCH   2   9
HETATM    9  N1  UNL     1      16.687  94.776   8.489  1.00  0.00    -0.299 N
HETATM   10  N2  UNL     1      16.203  95.840   8.938  1.00  0.00    -0.300 N
ATOM     11  H2  UNL     1      16.220  96.663   8.336  1.00  0.00     0.187 HD
ATOM     12  H1  UNL     1      16.695  93.924   9.050  1.00  0.00     0.187 HD
BRANCH  10  13
HETATM   13  C6  UNL     1      15.632  95.975  10.230  1.00  0.00     0.049 A
HETATM   14  C7  UNL     1      15.966  97.009  11.086  1.00  0.00     0.033 A
HETATM   15  C8  UNL     1      15.407  97.134  12.341  1.00  0.00     0.028 A
HETATM   16  C9  UNL     1      14.486  96.202  12.762  1.00  0.00     0.058 A
HETATM   17 CL1  UNL     1      13.742  96.319  14.360  1.00  0.00    -0.083 Cl
HETATM   18  C10 UNL     1      14.126  95.157  11.938  1.00  0.00     0.104 A
HETATM   19  C11 UNL     1      14.701  95.068  10.708  1.00  0.00     0.059 A
BRANCH  18  20
HETATM   20  S1  UNL     1      12.938  93.987  12.529  1.00  0.00     0.139 S
HETATM   21  O3  UNL     1      13.470  93.272  13.738  1.00  0.00    -0.591 OA
HETATM   22  O4  UNL     1      12.666  93.012  11.421  1.00  0.00    -0.591 OA
HETATM   23  O5  UNL     1      11.536  94.801  12.947  1.00  0.00    -0.591 OA
ENDBRANCH  18  20
ENDBRANCH  10  13
ENDBRANCH   2   9
BRANCH   1  24
HETATM   24  C3  UNL     1      18.602  92.898   7.869  1.00  0.00     0.297 C
HETATM   25  O2  UNL     1      19.154  93.220   8.952  1.00  0.00    -0.259 OA
BRANCH  24  26
HETATM   26  O1  UNL     1      18.382  91.562   7.623  1.00  0.00    -0.318 OA
BRANCH  26  27
HETATM   27  C2  UNL     1      19.053  90.505   8.267  1.00  0.00     0.174 C
HETATM   28  C1  UNL     1      20.465  90.330   7.777  1.00  0.00     0.034 C
ENDBRANCH  26  27
ENDBRANCH  24  26
ENDBRANCH   1  24
BRANCH   6  29
HETATM   29  O6  UNL     1      18.908  94.692   3.382  1.00  0.00    -0.358 OA
ATOM     30  H6  UNL     1      19.791  94.368   3.253  1.00  0.00     0.217 HD
ENDBRANCH   6  29
TORSDOF 7
ENDMDL