MODEL 1
REMARK VINA RESULT: -9.951786534      0.000      0.000
REMARK  6 active torsions:
REMARK  status: ('A' for Active; 'I' for Inactive)
REMARK    1  A    between atoms: C2_2  and  N1_3
REMARK    2  A    between atoms: C2_2  and  C13_24
REMARK    3  A    between atoms: N1_3  and  N2_4
REMARK    4  A    between atoms: C4_11  and  C5_12
REMARK    5  A    between atoms: C16_28  and  N6_29
REMARK    6  A    between atoms: C17_32  and  N7_33
ROOT
HETATM    1  N2  UNL     1      17.480  89.451  -4.644  1.00  0.00    -0.196 N
ATOM      2  H2  UNL     1      16.925  89.456  -5.501  1.00  0.00     0.205 HD
HETATM    3  C3  UNL     1      17.224  90.450  -3.884  1.00  0.00     0.271 A
HETATM    4  N3  UNL     1      16.335  91.430  -4.127  1.00  0.00    -0.261 N
ATOM      5  H3  UNL     1      15.744  91.510  -4.954  1.00  0.00     0.190 HD
HETATM    6  N4  UNL     1      16.361  92.260  -3.122  1.00  0.00    -0.275 N
ATOM      7  H4  UNL     1      15.790  93.100  -3.031  1.00  0.00     0.189 HD
HETATM    8  C4  UNL     1      17.261  91.826  -2.226  1.00  0.00     0.193 A
HETATM    9  O1  UNL     1      17.779  90.721  -2.706  1.00  0.00    -0.256 OA
ENDROOT
BRANCH   1  10
HETATM   10  N1  UNL     1      18.271  88.448  -4.576  1.00  0.00    -0.327 NA
BRANCH  10  11
HETATM   11  C2  UNL     1      18.742  87.349  -4.400  1.00  0.00     0.117 C
HETATM   12  C1  UNL     1      17.950  86.123  -4.759  1.00  0.00     0.088 C
BRANCH  11  13
HETATM   13  C13 UNL     1      20.089  87.181  -3.830  1.00  0.00     0.028 A
HETATM   14  C14 UNL     1      21.173  87.189  -4.710  1.00  0.00     0.043 A
HETATM   15  C15 UNL     1      22.462  87.039  -4.259  1.00  0.00     0.070 A
HETATM   16 CL2  UNL     1      23.856  87.043  -5.348  1.00  0.00    -0.082 Cl
HETATM   17  C16 UNL     1      22.703  86.875  -2.893  1.00  0.00     0.159 A
HETATM   18  C17 UNL     1      21.648  86.864  -2.010  1.00  0.00     0.160 A
HETATM   19  C18 UNL     1      20.355  87.020  -2.505  1.00  0.00     0.083 A
HETATM   20 CL3  UNL     1      19.060  86.995  -1.355  1.00  0.00    -0.081 Cl
BRANCH  17  21
HETATM   21  N6  UNL     1      24.028  86.720  -2.398  1.00  0.00    -0.111 N
HETATM   22  O2  UNL     1      24.665  87.731  -2.061  1.00  0.00    -0.532 OA
HETATM   23  O3  UNL     1      24.528  85.448  -2.316  1.00  0.00    -0.532 OA
ENDBRANCH  17  21
BRANCH  18  24
HETATM   24  N7  UNL     1      21.894  86.698  -0.614  1.00  0.00    -0.111 N
HETATM   25  O4  UNL     1      21.996  87.701   0.127  1.00  0.00    -0.532 OA
HETATM   26  O5  UNL     1      22.030  85.460  -0.035  1.00  0.00    -0.532 OA
ENDBRANCH  18  24
ENDBRANCH  11  13
ENDBRANCH  10  11
ENDBRANCH   1  10
BRANCH   8  27
HETATM   27  C5  UNL     1      17.568  92.496  -0.965  1.00  0.00     0.087 A
HETATM   28  C6  UNL     1      16.796  93.476  -0.363  1.00  0.00     0.048 A
HETATM   29  C7  UNL     1      17.372  93.866   0.818  1.00  0.00    -0.005 A
HETATM   30  C8  UNL     1      17.025  94.778   1.776  1.00  0.00     0.037 A
HETATM   31  C12 UNL     1      18.522  93.109   0.943  1.00  0.00     0.043 A
HETATM   32  C9  UNL     1      17.851  94.941   2.895  1.00  0.00     0.035 A
HETATM   33 CL1  UNL     1      17.440  96.103   4.155  1.00  0.00    -0.084 Cl
HETATM   34  C10 UNL     1      19.000  94.198   3.039  1.00  0.00     0.026 A
HETATM   35  C11 UNL     1      19.311  93.290   2.049  1.00  0.00     0.032 A
HETATM   36  N5  UNL     1      18.614  92.292  -0.147  1.00  0.00    -0.352 N
ATOM     37  H5  UNL     1      19.366  91.625  -0.316  1.00  0.00     0.166 HD
ENDBRANCH   8  27
TORSDOF 6
ENDMDL