MODEL 2
REMARK VINA RESULT: -7.873303536      2.501      7.043
REMARK  6 active torsions:
REMARK  status: ('A' for Active; 'I' for Inactive)
REMARK    1  A    between atoms: C2_2  and  O1_3
REMARK    2  A    between atoms: O1_3  and  C3_4
REMARK    3  A    between atoms: C8_9  and  O2_10
REMARK    4  A    between atoms: C9_14  and  C10_15
REMARK    5  A    between atoms: C18_25  and  C19_26
REMARK    6  A    between atoms: N2_31  and  C22_32
ROOT
HETATM    1  C3  UNL     1      23.393  86.263  -2.208  1.00  0.00     0.104 A
HETATM    2  C4  UNL     1      22.751  86.171  -3.419  1.00  0.00     0.078 A
HETATM    3  C5  UNL     1      21.531  86.759  -3.677  1.00  0.00     0.099 A
HETATM    4  C6  UNL     1      20.938  87.474  -2.664  1.00  0.00     0.065 A
HETATM    5  C7  UNL     1      21.546  87.591  -1.439  1.00  0.00     0.071 A
HETATM    6  C8  UNL     1      22.765  86.992  -1.207  1.00  0.00     0.101 A
HETATM    7  N1  UNL     1      19.685  88.147  -2.760  1.00  0.00    -0.379 N
ATOM      8  H1  UNL     1      19.533  88.846  -2.033  1.00  0.00     0.160 HD
HETATM    9  C9  UNL     1      18.597  88.025  -3.692  1.00  0.00     0.118 C
HETATM   10  C17 UNL     1      19.005  87.763  -5.115  1.00  0.00     0.067 C
HETATM   11  C18 UNL     1      19.660  86.439  -5.343  1.00  0.00     0.170 C
HETATM   12  O6  UNL     1      21.045  86.549  -4.963  1.00  0.00    -0.339 OA
ENDROOT
BRANCH  11  13
HETATM   13  C19 UNL     1      19.675  86.120  -6.804  1.00  0.00     0.053 A
HETATM   14  C20 UNL     1      18.669  85.397  -7.453  1.00  0.00     0.086 A
HETATM   15 CL1  UNL     1      17.211  84.740  -6.727  1.00  0.00    -0.080 Cl
HETATM   16  C21 UNL     1      19.034  85.294  -8.774  1.00  0.00     0.137 A
HETATM   17 CL2  UNL     1      18.093  84.467 -10.024  1.00  0.00    -0.062 Cl
HETATM   18  N2  UNL     1      20.207  85.909  -8.985  1.00  0.00    -0.253 N
HETATM   19  C23 UNL     1      20.589  86.408  -7.780  1.00  0.00     0.208 A
HETATM   20  F1  UNL     1      21.751  87.094  -7.620  1.00  0.00    -0.185 F
BRANCH  18  21
HETATM   21  C22 UNL     1      20.898  86.010 -10.221  1.00  0.00     0.363 C
HETATM   22  O5  UNL     1      22.069  85.574 -10.347  1.00  0.00    -0.283 OA
ENDBRANCH  18  21
ENDBRANCH  11  13
BRANCH   9  23
HETATM   23  C10 UNL     1      17.816  89.277  -3.608  1.00  0.00    -0.033 A
HETATM   24  C11 UNL     1      18.318  90.297  -2.826  1.00  0.00     0.012 A
HETATM   25  C12 UNL     1      17.621  91.498  -2.729  1.00  0.00     0.040 A
HETATM   26  C13 UNL     1      16.432  91.715  -3.390  1.00  0.00     0.105 A
HETATM   27  C14 UNL     1      15.922  90.704  -4.172  1.00  0.00     0.105 A
HETATM   28  O4  UNL     1      15.524  92.773  -3.491  1.00  0.00    -0.323 OA
HETATM   29  C15 UNL     1      16.626  89.515  -4.260  1.00  0.00     0.049 A
HETATM   30  O3  UNL     1      14.712  91.132  -4.752  1.00  0.00    -0.323 OA
HETATM   31  C16 UNL     1      14.690  92.543  -4.638  1.00  0.00     0.352 C
ENDBRANCH   9  23
BRANCH   1  32
HETATM   32  O1  UNL     1      24.599  85.692  -1.929  1.00  0.00    -0.349 OA
BRANCH  32  33
HETATM   33  C2  UNL     1      25.649  85.424  -2.806  1.00  0.00     0.171 C
HETATM   34  C1  UNL     1      26.110  83.993  -2.717  1.00  0.00     0.034 C
ENDBRANCH  32  33
ENDBRANCH   1  32
BRANCH   6  35
HETATM   35  O2  UNL     1      23.355  87.133   0.049  1.00  0.00    -0.358 OA
ATOM     36  H2  UNL     1      23.038  87.783   0.664  1.00  0.00     0.217 HD
ENDBRANCH   6  35
TORSDOF 6
ENDMDL