MODEL 1
REMARK VINA RESULT: -8.878251991      0.000      0.000
REMARK  6 active torsions:
REMARK  status: ('A' for Active; 'I' for Inactive)
REMARK    1  A    between atoms: O1_2  and  C2_3
REMARK    2  A    between atoms: C6_9  and  N1_10
REMARK    3  A    between atoms: N1_10  and  C7_12
REMARK    4  A    between atoms: C8_15  and  S1_16
REMARK    5  A    between atoms: S1_16  and  C9_17
REMARK    6  A    between atoms: C9_17  and  C10_18
ROOT
HETATM    1  C10 UNL     1       1.221  11.761 108.527  1.00  0.00     0.136 A
HETATM    2  N3  UNL     1       0.975  11.566 107.234  1.00  0.00    -0.328 N
ATOM      3  H3  UNL     1       0.050  11.401 106.834  1.00  0.00     0.168 HD
HETATM    4  C11 UNL     1       2.114  11.615 106.534  1.00  0.00     0.164 A
HETATM    5  C12 UNL     1       2.306  11.458 105.120  1.00  0.00     0.122 C
HETATM    6  N4  UNL     1       2.475  11.344 103.975  1.00  0.00    -0.190 NA
HETATM    7  C13 UNL     1       3.115  11.856 107.469  1.00  0.00     0.196 A
HETATM    8  N5  UNL     1       4.505  11.985 107.158  1.00  0.00    -0.071 NA
HETATM    9  O2  UNL     1       2.530  11.932 108.621  1.00  0.00    -0.279 OA
ENDROOT
BRANCH   1  10
HETATM   10  C9  UNL     1       0.261  11.792 109.685  1.00  0.00     0.165 C
BRANCH  10  11
HETATM   11  S1  UNL     1      -0.393  10.194 110.082  1.00  0.00    -0.104 SA
BRANCH  11  12
HETATM   12  C8  UNL     1      -1.960  10.263 110.887  1.00  0.00     0.072 A
HETATM   13  N2  UNL     1      -2.547   9.137 111.387  1.00  0.00    -0.337 N
HETATM   14  C7  UNL     1      -3.710   9.121 112.035  1.00  0.00     0.113 A
ATOM     15  H2  UNL     1      -2.062   8.249 111.257  1.00  0.00     0.168 HD
HETATM   16  C16 UNL     1      -4.398  10.294 112.234  1.00  0.00    -0.008 A
HETATM   17  C15 UNL     1      -3.847  11.453 111.749  1.00  0.00    -0.045 A
HETATM   18  C17 UNL     1      -5.684  10.315 112.948  1.00  0.00     0.043 C
HETATM   19  C14 UNL     1      -2.643  11.440 111.084  1.00  0.00     0.044 A
HETATM   20  C20 UNL     1      -4.616  12.710 111.978  1.00  0.00     0.039 C
HETATM   21  C19 UNL     1      -6.044  12.404 111.575  1.00  0.00     0.005 C
HETATM   22  C18 UNL     1      -6.629  11.366 112.473  1.00  0.00     0.005 C
BRANCH  14  23
HETATM   23  N1  UNL     1      -4.237   8.031 112.497  1.00  0.00    -0.339 N
ATOM     24  H1  UNL     1      -4.732   8.064 113.388  1.00  0.00     0.167 HD
BRANCH  23  25
HETATM   25  C6  UNL     1      -4.152   6.791 111.809  1.00  0.00     0.080 A
HETATM   26  C5  UNL     1      -3.146   5.897 112.105  1.00  0.00     0.064 A
HETATM   27  C4  UNL     1      -3.102   4.692 111.404  1.00  0.00     0.053 A
HETATM   28 CL2  UNL     1      -1.934   6.230 113.323  1.00  0.00    -0.082 Cl
HETATM   29  C3  UNL     1      -4.042   4.404 110.440  1.00  0.00     0.070 A
HETATM   30  C2  UNL     1      -5.053   5.292 110.136  1.00  0.00     0.114 A
HETATM   31 CL1  UNL     1      -3.935   2.876 109.594  1.00  0.00    -0.081 Cl
HETATM   32  C21 UNL     1      -5.085   6.487 110.842  1.00  0.00     0.097 A
HETATM   33 CL3  UNL     1      -6.389   7.593 110.426  1.00  0.00    -0.079 Cl
BRANCH  30  34
HETATM   34  O1  UNL     1      -6.016   5.005 109.153  1.00  0.00    -0.352 OA
HETATM   35  C1  UNL     1      -7.100   4.183 109.572  1.00  0.00     0.210 C
ENDBRANCH  30  34
ENDBRANCH  23  25
ENDBRANCH  14  23
ENDBRANCH  11  12
ENDBRANCH  10  11
ENDBRANCH   1  10
TORSDOF 6
ENDMDL