MODEL 5
REMARK VINA RESULT: -6.507299510      3.410      5.897
REMARK  6 active torsions:
REMARK  status: ('A' for Active; 'I' for Inactive)
REMARK    1  A    between atoms: O1_1  and  C1_3
REMARK    2  A    between atoms: C4_6  and  O2_7
REMARK    3  A    between atoms: N1_9  and  C5_10
REMARK    4  A    between atoms: C5_10  and  O3_11
REMARK    5  A    between atoms: O3_11  and  C6_12
REMARK    6  A    between atoms: C6_12  and  C7_13
ROOT
HETATM    1  C1  UNL     1      -7.039   7.133 113.491  1.00  0.00     0.156 A
HETATM    2  C2  UNL     1      -6.407   7.829 112.463  1.00  0.00     0.045 A
HETATM    3  C3  UNL     1      -5.022   7.657 112.602  1.00  0.00     0.047 A
HETATM    4  C4  UNL     1      -4.869   6.856 113.719  1.00  0.00     0.156 A
HETATM    5  N1  UNL     1      -6.080   6.562 114.223  1.00  0.00    -0.285 N
HETATM    6  C8  UNL     1      -4.391   8.428 111.476  1.00  0.00     0.138 C
HETATM    7  O4  UNL     1      -5.424   8.344 110.530  1.00  0.00    -0.348 OA
HETATM    8  C9  UNL     1      -6.574   8.676 111.288  1.00  0.00     0.223 C
HETATM    9  S1  UNL     1      -6.019  10.370 111.763  1.00  0.00    -0.123 SA
HETATM   10  C10 UNL     1      -4.262   9.825 111.949  1.00  0.00     0.104 C
HETATM   11  C11 UNL     1      -3.426  10.756 111.156  1.00  0.00     0.098 C
HETATM   12  S2  UNL     1      -1.714  10.089 111.337  1.00  0.00    -0.128 SA
HETATM   13  C12 UNL     1      -1.937   8.365 110.916  1.00  0.00     0.012 A
HETATM   14  C13 UNL     1      -0.841   7.676 110.481  1.00  0.00     0.021 A
HETATM   15  C14 UNL     1      -0.926   6.358 110.125  1.00  0.00     0.022 A
HETATM   16  C15 UNL     1      -2.151   5.734 110.215  1.00  0.00     0.033 A
HETATM   17 BR1  UNL     1      -2.261   3.887 109.714  1.00  0.00    -0.049 Br
HETATM   18  C16 UNL     1      -3.262   6.439 110.657  1.00  0.00     0.062 A
HETATM   19 CL2  UNL     1      -4.759   5.519 110.707  1.00  0.00    -0.082 Cl
HETATM   20  C17 UNL     1      -3.162   7.767 111.013  1.00  0.00     0.022 A
ENDROOT
BRANCH   5  21
HETATM   21  C5  UNL     1      -6.344   5.733 115.410  1.00  0.00     0.303 C
BRANCH  21  22
HETATM   22  O3  UNL     1      -7.206   6.410 116.218  1.00  0.00    -0.370 OA
BRANCH  22  23
HETATM   23  C6  UNL     1      -6.701   7.270 117.134  1.00  0.00     0.185 C
BRANCH  23  24
HETATM   24  C7  UNL     1      -7.335   8.628 116.990  1.00  0.00     0.141 C
HETATM   25 CL1  UNL     1      -6.299   9.660 115.977  1.00  0.00    -0.128 Cl
ENDBRANCH  23  24
ENDBRANCH  22  23
ENDBRANCH  21  22
ENDBRANCH   5  21
BRANCH   1  26
HETATM   26  O1  UNL     1      -8.411   7.057 113.701  1.00  0.00    -0.345 OA
ATOM     27  H1  UNL     1      -9.030   6.581 113.160  1.00  0.00     0.219 HD
ENDBRANCH   1  26
BRANCH   4  28
HETATM   28  O2  UNL     1      -3.644   6.437 114.218  1.00  0.00    -0.345 OA
ATOM     29  H2  UNL     1      -3.262   6.749 115.030  1.00  0.00     0.219 HD
ENDBRANCH   4  28
TORSDOF 6
ENDMDL