MODEL 5
REMARK VINA RESULT: -7.741590944      1.800      2.335
REMARK  7 active torsions:
REMARK  status: ('A' for Active; 'I' for Inactive)
REMARK    1  A    between atoms: C2_2  and  C3_7
REMARK    2  A    between atoms: N1_3  and  O1_5
REMARK    3  A    between atoms: C3_7  and  C4_8
REMARK    4  A    between atoms: C3_7  and  N2_12
REMARK    5  A    between atoms: C4_8  and  C5_9
REMARK    6  A    between atoms: C16_22  and  C17_23
REMARK    7  A    between atoms: C17_23  and  C18_24
ROOT
HETATM    1  N2  UNL     1      -4.938   7.944 111.287  1.00  0.00    -0.399 N
HETATM    2  C8  UNL     1      -5.232   6.939 110.357  1.00  0.00     0.122 C
HETATM    3  C9  UNL     1      -4.571   5.644 110.922  1.00  0.00     0.055 C
HETATM    4  C10 UNL     1      -3.072   5.877 110.841  1.00  0.00    -0.064 C
HETATM    5  C11 UNL     1      -2.372   4.898 110.379  1.00  0.00    -0.017 C
HETATM    6  C12 UNL     1      -0.904   4.980 110.212  1.00  0.00     0.008 A
HETATM    7  C13 UNL     1      -0.340   6.146 109.740  1.00  0.00     0.038 A
HETATM    8  C14 UNL     1       1.027   6.251 109.635  1.00  0.00     0.052 A
HETATM    9  C15 UNL     1       1.616   7.468 109.090  1.00  0.00     0.100 C
HETATM   10  N3  UNL     1       2.059   8.432 108.632  1.00  0.00    -0.191 NA
HETATM   11  C16 UNL     1       1.809   5.190 110.001  1.00  0.00    -0.026 A
HETATM   12  C19 UNL     1       1.234   4.005 110.475  1.00  0.00     0.047 A
HETATM   13  C20 UNL     1      -0.126   3.911 110.574  1.00  0.00     0.089 A
HETATM   14  O2  UNL     1      -0.759   2.729 111.033  1.00  0.00    -0.296 OA
HETATM   15  C21 UNL     1      -2.119   2.669 111.102  1.00  0.00     0.140 C
HETATM   16  N4  UNL     1      -2.739   1.945 111.917  1.00  0.00    -0.382 N
ATOM     17  H41 UNL     1      -3.757   1.900 111.968  1.00  0.00     0.158 HD
ATOM     18  H42 UNL     1      -2.206   1.368 112.568  1.00  0.00     0.158 HD
HETATM   19  C22 UNL     1      -2.915   3.529 110.131  1.00  0.00     0.201 C
HETATM   20  C23 UNL     1      -2.541   3.064 108.792  1.00  0.00     0.077 C
HETATM   21  N5  UNL     1      -2.264   2.697 107.728  1.00  0.00    -0.196 NA
HETATM   22  C24 UNL     1      -2.650   7.162 111.442  1.00  0.00     0.028 C
HETATM   23  C25 UNL     1      -1.611   6.982 112.550  1.00  0.00     0.016 C
HETATM   24  C26 UNL     1      -3.892   7.753 112.169  1.00  0.00     0.126 C
ENDROOT
BRANCH  11  25
HETATM   25  C17 UNL     1       3.295   5.263 109.980  1.00  0.00     0.157 C
BRANCH  25  26
HETATM   26  C18 UNL     1       3.929   4.536 108.842  1.00  0.00     0.391 C
HETATM   27  F1  UNL     1       3.677   5.295 107.695  1.00  0.00    -0.171 F
HETATM   28  F2  UNL     1       5.310   4.529 109.021  1.00  0.00    -0.171 F
HETATM   29  F3  UNL     1       3.535   3.244 108.660  1.00  0.00    -0.171 F
ENDBRANCH  25  26
ENDBRANCH  11  25
BRANCH   1  30
HETATM   30  C3  UNL     1      -6.045   8.758 111.741  1.00  0.00     0.149 C
BRANCH  30  31
HETATM   31  C2  UNL     1      -7.017   7.968 112.477  1.00  0.00     0.032 C
HETATM   32  C1  UNL     1      -6.902   7.780 113.975  1.00  0.00     0.068 C
HETATM   33  N1  UNL     1      -8.046   7.441 111.957  1.00  0.00    -0.275 N
ATOM     34  H1  UNL     1      -8.183   7.531 110.950  1.00  0.00     0.193 HD
BRANCH  33  35
HETATM   35  O1  UNL     1      -8.976   6.759 112.684  1.00  0.00    -0.290 OA
ATOM     36  H1  UNL     1      -9.642   7.191 113.205  1.00  0.00     0.244 HD
ENDBRANCH  33  35
ENDBRANCH  30  31
BRANCH  30  37
HETATM   37  C4  UNL     1      -5.514   9.963 112.379  1.00  0.00     0.006 C
BRANCH  37  38
HETATM   38  C5  UNL     1      -5.009  11.119 111.659  1.00  0.00    -0.089 C
HETATM   39  C6  UNL     1      -5.753  12.417 111.924  1.00  0.00     0.042 C
HETATM   40  C7  UNL     1      -3.563  11.411 111.514  1.00  0.00     0.042 C
ENDBRANCH  37  38
ENDBRANCH  30  37
ENDBRANCH   1  30
TORSDOF 7
ENDMDL