MODEL 4
REMARK VINA RESULT: -7.204424126      0.994      1.421
REMARK  8 active torsions:
REMARK  status: ('A' for Active; 'I' for Inactive)
REMARK    1  A    between atoms: C2_2  and  O1_3
REMARK    2  A    between atoms: O1_3  and  C3_4
REMARK    3  A    between atoms: C3_4  and  C4_6
REMARK    4  A    between atoms: C9_13  and  O4_14
REMARK    5  A    between atoms: C10_16  and  O5_17
REMARK    6  A    between atoms: C12_19  and  O6_20
REMARK    7  A    between atoms: C16_24  and  C17_25
REMARK    8  A    between atoms: C22_32  and  O7_33
ROOT
HETATM    1  C4  UNL     1      -1.822   4.764 110.998  1.00  0.00     0.069 C
HETATM    2  C5  UNL     1      -0.565   5.112 110.891  1.00  0.00     0.161 C
HETATM    3  O3  UNL     1       0.058   6.200 110.258  1.00  0.00    -0.318 OA
HETATM    4  C6  UNL     1      -0.364   7.555 110.321  1.00  0.00     0.119 A
HETATM    5  C7  UNL     1      -1.539   8.166 110.717  1.00  0.00     0.004 A
HETATM    6  C8  UNL     1      -1.653   9.519 110.656  1.00  0.00     0.079 A
HETATM    7 CL1  UNL     1      -3.159  10.254 111.165  1.00  0.00    -0.081 Cl
HETATM    8  C9  UNL     1      -0.579  10.248 110.200  1.00  0.00     0.124 A
HETATM    9  C10 UNL     1       0.609   9.622 109.803  1.00  0.00     0.139 A
HETATM   10  C12 UNL     1       0.735   8.232 109.860  1.00  0.00     0.139 A
HETATM   11  C14 UNL     1      -2.803   7.608 111.308  1.00  0.00     0.048 C
HETATM   12  C15 UNL     1      -3.410   6.644 110.368  1.00  0.00     0.045 C
HETATM   13  C16 UNL     1      -3.143   5.185 110.617  1.00  0.00    -0.027 C
ENDROOT
BRANCH  13  14
HETATM   14  C17 UNL     1      -3.985   4.347 109.787  1.00  0.00     0.008 A
HETATM   15  C18 UNL     1      -3.393   3.691 108.686  1.00  0.00     0.038 A
HETATM   16  C19 UNL     1      -4.123   3.050 107.728  1.00  0.00     0.036 A
HETATM   17 CL2  UNL     1      -3.290   2.277 106.379  1.00  0.00    -0.084 Cl
HETATM   18  C20 UNL     1      -5.485   3.002 107.771  1.00  0.00     0.050 A
HETATM   19  C21 UNL     1      -6.113   3.630 108.837  1.00  0.00     0.069 A
HETATM   20 CL3  UNL     1      -7.853   3.591 108.927  1.00  0.00    -0.081 Cl
HETATM   21  C22 UNL     1      -5.362   4.280 109.815  1.00  0.00     0.098 A
BRANCH  21  22
HETATM   22  O7  UNL     1      -6.099   4.860 110.848  1.00  0.00    -0.358 OA
ATOM     23  H7  UNL     1      -6.803   5.473 110.672  1.00  0.00     0.217 HD
ENDBRANCH  21  22
ENDBRANCH  13  14
BRANCH   1  24
HETATM   24  C3  UNL     1      -1.872   3.511 111.810  1.00  0.00     0.295 C
HETATM   25  O2  UNL     1      -1.481   2.402 111.362  1.00  0.00    -0.259 OA
BRANCH  24  26
HETATM   26  O1  UNL     1      -2.362   3.547 113.106  1.00  0.00    -0.318 OA
BRANCH  26  27
HETATM   27  C2  UNL     1      -3.403   2.741 113.548  1.00  0.00     0.174 C
HETATM   28  C1  UNL     1      -4.667   3.559 113.628  1.00  0.00     0.034 C
ENDBRANCH  26  27
ENDBRANCH  24  26
ENDBRANCH   1  24
BRANCH  10  29
HETATM   29  O6  UNL     1       1.880   7.600 109.490  1.00  0.00    -0.351 OA
HETATM   30  C13 UNL     1       2.367   7.210 108.264  1.00  0.00     0.210 C
ENDBRANCH  10  29
BRANCH   8  31
HETATM   31  O4  UNL     1      -0.674  11.635 110.132  1.00  0.00    -0.356 OA
ATOM     32  H4  UNL     1      -0.719  12.058 109.282  1.00  0.00     0.218 HD
ENDBRANCH   8  31
BRANCH   9  33
HETATM   33  O5  UNL     1       1.668  10.391 109.347  1.00  0.00    -0.351 OA
HETATM   34  C11 UNL     1       1.843  10.838 108.023  1.00  0.00     0.210 C
ENDBRANCH   9  33
TORSDOF 8
ENDMDL