MODEL 3
REMARK VINA RESULT: -8.826987415      4.715      5.901
REMARK  8 active torsions:
REMARK  status: ('A' for Active; 'I' for Inactive)
REMARK    1  A    between atoms: C9_9  and  C10_10
REMARK    2  A    between atoms: C10_10  and  C11_11
REMARK    3  A    between atoms: C11_11  and  C12_12
REMARK    4  A    between atoms: C12_12  and  S1_15
REMARK    5  A    between atoms: S1_15  and  C13_16
REMARK    6  A    between atoms: C14_18  and  N1_19
REMARK    7  A    between atoms: C17_27  and  O2_28
REMARK    8  A    between atoms: C18_30  and  O3_31
ROOT
HETATM    1  C12 UNL     1      -2.747   7.270 111.799  1.00  0.00     0.294 C
HETATM    2  F1  UNL     1      -3.190   7.895 112.943  1.00  0.00    -0.194 F
HETATM    3  F2  UNL     1      -1.514   6.703 112.046  1.00  0.00    -0.194 F
ENDROOT
BRANCH   1   4
HETATM    4  C11 UNL     1      -2.531   8.342 110.749  1.00  0.00     0.092 C
BRANCH   4   5
HETATM    5  C10 UNL     1      -1.072   8.472 110.382  1.00  0.00     0.012 C
BRANCH   5   6
HETATM    6  C9  UNL     1      -0.623   9.892 110.643  1.00  0.00    -0.006 C
HETATM    7  C7  UNL     1       0.693  10.244 110.005  1.00  0.00    -0.036 C
HETATM    8  C6  UNL     1       1.425  11.158 110.952  1.00  0.00     0.010 C
HETATM    9  C8  UNL     1       1.483   8.919 110.007  1.00  0.00     0.016 C
HETATM   10  C22 UNL     1       0.565  10.770 108.626  1.00  0.00     0.002 C
HETATM   11  C5  UNL     1       2.576  11.872 110.351  1.00  0.00     0.002 C
HETATM   12  C4  UNL     1       2.424  12.349 108.956  1.00  0.00     0.009 C
HETATM   13  C2  UNL     1       1.846  11.327 108.034  1.00  0.00    -0.043 C
HETATM   14  C1  UNL     1       1.426  12.056 106.741  1.00  0.00     0.015 C
HETATM   15  C3  UNL     1       2.842  10.295 107.622  1.00  0.00     0.015 C
HETATM   16  C21 UNL     1      -0.531  11.799 108.429  1.00  0.00     0.006 C
HETATM   17  C20 UNL     1      -1.322  12.113 109.649  1.00  0.00     0.001 C
HETATM   18  C19 UNL     1      -1.739  10.861 110.380  1.00  0.00     0.005 C
ENDBRANCH   5   6
ENDBRANCH   4   5
ENDBRANCH   1   4
BRANCH   1  19
HETATM   19  S1  UNL     1      -3.909   6.006 111.216  1.00  0.00    -0.058 SA
BRANCH  19  20
HETATM   20  C13 UNL     1      -3.058   4.538 110.633  1.00  0.00     0.222 C
HETATM   21  O1  UNL     1      -1.873   4.827 110.004  1.00  0.00    -0.344 OA
HETATM   22  C14 UNL     1      -1.058   3.713 110.113  1.00  0.00     0.279 C
HETATM   23  C17 UNL     1      -1.282   3.286 111.548  1.00  0.00     0.200 C
HETATM   24  C18 UNL     1      -2.773   3.534 111.711  1.00  0.00     0.190 C
BRANCH  22  25
HETATM   25  N1  UNL     1       0.325   4.120 109.917  1.00  0.00    -0.233 N
HETATM   26  N2  UNL     1       0.799   5.335 109.816  1.00  0.00    -0.289 N
HETATM   27  C15 UNL     1       2.150   5.311 109.638  1.00  0.00     0.200 A
ATOM     28  H2  UNL     1       0.235   6.184 109.864  1.00  0.00     0.188 HD
HETATM   29  N3  UNL     1       2.486   4.007 109.633  1.00  0.00    -0.326 N
HETATM   30  C16 UNL     1       1.355   3.262 109.806  1.00  0.00     0.199 A
ATOM     31  H3  UNL     1       3.429   3.636 109.520  1.00  0.00     0.169 HD
HETATM   32 CL1  UNL     1       1.321   1.514 109.865  1.00  0.00    -0.043 Cl
ENDBRANCH  22  25
BRANCH  23  33
HETATM   33  O2  UNL     1      -0.608   4.193 112.364  1.00  0.00    -0.388 OA
ATOM     34  H2  UNL     1      -1.155   4.966 112.441  1.00  0.00     0.210 HD
ENDBRANCH  23  33
BRANCH  24  35
HETATM   35  O3  UNL     1      -3.415   2.301 111.458  1.00  0.00    -0.389 OA
ATOM     36  H3  UNL     1      -3.401   1.736 112.220  1.00  0.00     0.210 HD
ENDBRANCH  24  35
ENDBRANCH  19  20
ENDBRANCH   1  19
TORSDOF 8
ENDMDL