MODEL 5
REMARK VINA RESULT: -7.157213975      2.155      2.844
REMARK  9 active torsions:
REMARK  status: ('A' for Active; 'I' for Inactive)
REMARK    1  A    between atoms: C8_8  and  O1_9
REMARK    2  A    between atoms: C9_11  and  C11_13
REMARK    3  A    between atoms: C11_13  and  C13_16
REMARK    4  A    between atoms: C13_16  and  C14_17
REMARK    5  A    between atoms: C14_17  and  O3_19
REMARK    6  A    between atoms: O3_19  and  C15_20
REMARK    7  A    between atoms: C15_20  and  O4_21
REMARK    8  A    between atoms: O4_21  and  C16_22
REMARK    9  A    between atoms: C24_33  and  C25_34
ROOT
HETATM    1  C11 UNL     1      -4.074  10.892 111.766  1.00  0.00     0.112 C
HETATM    2  C12 UNL     1      -4.992  12.030 111.608  1.00  0.00     0.065 C
HETATM    3  N1  UNL     1      -5.709  12.928 111.501  1.00  0.00    -0.197 NA
ENDROOT
BRANCH   1   4
HETATM    4  C9  UNL     1      -4.800   9.703 112.380  1.00  0.00    -0.001 C
HETATM    5  C8  UNL     1      -4.096   8.485 112.036  1.00  0.00     0.136 C
HETATM    6  C6  UNL     1      -4.854   7.315 111.435  1.00  0.00    -0.006 C
HETATM    7  C5  UNL     1      -3.747   6.320 111.158  1.00  0.00     0.048 C
HETATM    8  C7  UNL     1      -5.357   7.714 110.114  1.00  0.00     0.019 C
HETATM    9  C20 UNL     1      -5.791   6.688 112.413  1.00  0.00    -0.026 C
HETATM   10  C4  UNL     1      -4.235   4.924 110.882  1.00  0.00    -0.064 C
HETATM   11  C2  UNL     1      -3.306   4.137 110.402  1.00  0.00    -0.084 C
HETATM   12  C26 UNL     1      -5.609   4.496 111.137  1.00  0.00     0.015 A
HETATM   13  C1  UNL     1      -1.917   4.732 110.201  1.00  0.00     0.043 C
HETATM   14  C3  UNL     1      -3.457   2.733 110.045  1.00  0.00     0.043 C
HETATM   15  C22 UNL     1      -6.470   5.493 111.873  1.00  0.00     0.035 A
HETATM   16  C24 UNL     1      -6.610   4.639 110.055  1.00  0.00    -0.033 A
HETATM   17  C27 UNL     1      -5.773   3.084 111.752  1.00  0.00     0.026 C
HETATM   18  C23 UNL     1      -7.332   5.505 110.752  1.00  0.00    -0.010 A
HETATM   19  C19 UNL     1      -6.745   7.625 113.065  1.00  0.00     0.011 C
HETATM   20  C21 UNL     1      -5.029   6.104 113.615  1.00  0.00     0.016 C
HETATM   21  C18 UNL     1      -7.194   8.844 112.388  1.00  0.00     0.002 C
HETATM   22  C17 UNL     1      -6.232   9.891 112.059  1.00  0.00     0.013 C
HETATM   23  C10 UNL     1      -4.669   9.954 113.898  1.00  0.00     0.019 C
BRANCH   5  24
HETATM   24  O1  UNL     1      -3.319   7.996 113.099  1.00  0.00    -0.394 OA
ATOM     25  H1  UNL     1      -3.011   8.740 113.601  1.00  0.00     0.210 HD
ENDBRANCH   5  24
BRANCH  16  26
HETATM   26  C25 UNL     1      -6.770   4.059 108.731  1.00  0.00     0.088 C
HETATM   27  N2  UNL     1      -5.883   4.314 107.820  1.00  0.00    -0.407 N
ATOM     28  H22 UNL     1      -5.090   4.915 108.046  1.00  0.00     0.155 HD
ATOM     29  H21 UNL     1      -5.996   3.908 106.891  1.00  0.00     0.155 HD
ENDBRANCH  16  26
ENDBRANCH   1   4
BRANCH   1  30
HETATM   30  C13 UNL     1      -3.471  10.641 110.426  1.00  0.00     0.131 C
BRANCH  30  31
HETATM   31  C14 UNL     1      -1.989  10.932 110.516  1.00  0.00     0.262 C
HETATM   32  O2  UNL     1      -1.275  10.420 111.416  1.00  0.00    -0.265 OA
BRANCH  31  33
HETATM   33  O3  UNL     1      -1.366  11.769 109.611  1.00  0.00    -0.295 OA
BRANCH  33  34
HETATM   34  C15 UNL     1      -0.004  11.556 109.282  1.00  0.00     0.357 C
BRANCH  34  35
HETATM   35  O4  UNL     1       0.738  12.558 109.871  1.00  0.00    -0.272 OA
BRANCH  35  36
HETATM   36  C16 UNL     1       1.880  12.088 110.507  1.00  0.00     0.526 C
HETATM   37  F1  UNL     1       2.430  11.126 109.675  1.00  0.00    -0.144 F
HETATM   38  F2  UNL     1       2.785  13.119 110.622  1.00  0.00    -0.144 F
HETATM   39  F3  UNL     1       1.644  11.514 111.720  1.00  0.00    -0.144 F
ENDBRANCH  35  36
ENDBRANCH  34  35
ENDBRANCH  33  34
ENDBRANCH  31  33
ENDBRANCH  30  31
ENDBRANCH   1  30
TORSDOF 9
ENDMDL