MODEL 3
REMARK VINA RESULT: -8.418371664      2.628      3.628
REMARK  6 active torsions:
REMARK  status: ('A' for Active; 'I' for Inactive)
REMARK    1  A    between atoms: C2_3  and  C3_4
REMARK    2  A    between atoms: C6_9  and  C7_10
REMARK    3  A    between atoms: C14_23  and  N5_24
REMARK    4  A    between atoms: C19_29  and  C20_30
REMARK    5  A    between atoms: C20_30  and  C21_31
REMARK    6  A    between atoms: C21_31  and  O1_32
ROOT
HETATM    1  N1  UNL     1      -5.218  13.280 111.542  1.00  0.00    -0.197 NA
HETATM    2  C1  UNL     1      -4.178  12.907 111.156  1.00  0.00     0.065 C
HETATM    3  C2  UNL     1      -2.883  12.464 110.663  1.00  0.00     0.184 C
ENDROOT
BRANCH   3   4
HETATM    4  C3  UNL     1      -2.829  10.973 110.782  1.00  0.00     0.067 A
HETATM    5  N2  UNL     1      -3.934  10.290 111.130  1.00  0.00    -0.353 N
HETATM    6  C4  UNL     1      -3.939   8.939 111.278  1.00  0.00     0.068 A
ATOM      7  H2  UNL     1      -4.800  10.806 111.290  1.00  0.00     0.166 HD
HETATM    8  C5  UNL     1      -5.008   8.176 111.624  1.00  0.00     0.052 A
HETATM    9  C13 UNL     1      -2.759   8.315 111.053  1.00  0.00     0.103 A
HETATM   10  C6  UNL     1      -4.835   6.844 111.725  1.00  0.00     0.023 A
HETATM   11  S1  UNL     1      -3.140   6.684 111.323  1.00  0.00    -0.069 SA
HETATM   12  N4  UNL     1      -1.642   8.994 110.703  1.00  0.00    -0.333 N
HETATM   13  C14 UNL     1      -1.638  10.357 110.554  1.00  0.00     0.128 A
ATOM     14  H4  UNL     1      -0.777   8.477 110.544  1.00  0.00     0.168 HD
BRANCH  10  15
HETATM   15  C7  UNL     1      -5.707   5.704 112.055  1.00  0.00     0.025 A
HETATM   16  C8  UNL     1      -6.243   4.947 111.003  1.00  0.00     0.049 A
HETATM   17 CL1  UNL     1      -5.841   5.414 109.366  1.00  0.00    -0.083 Cl
HETATM   18  C9  UNL     1      -7.057   3.870 111.211  1.00  0.00     0.051 A
HETATM   19  C10 UNL     1      -7.359   3.522 112.502  1.00  0.00     0.049 A
HETATM   20  N3  UNL     1      -8.210   2.399 112.731  1.00  0.00    -0.102 NA
HETATM   21  C11 UNL     1      -6.872   4.215 113.576  1.00  0.00     0.051 A
HETATM   22  C12 UNL     1      -6.037   5.315 113.306  1.00  0.00     0.049 A
HETATM   23 CL2  UNL     1      -5.454   6.136 114.720  1.00  0.00    -0.083 Cl
ENDBRANCH  10  15
BRANCH  13  24
HETATM   24  N5  UNL     1      -0.414  10.930 110.159  1.00  0.00    -0.366 N
HETATM   25  C15 UNL     1       0.292  11.483 111.286  1.00  0.00     0.124 C
HETATM   26  C16 UNL     1       1.777  11.270 111.280  1.00  0.00     0.020 C
HETATM   27  C17 UNL     1       2.451  12.368 110.514  1.00  0.00     0.002 C
HETATM   28  C18 UNL     1       3.084  11.806 109.252  1.00  0.00     0.005 C
HETATM   29  C19 UNL     1       1.966  11.879 108.195  1.00  0.00    -0.011 C
HETATM   30  C22 UNL     1       1.152  10.606 108.256  1.00  0.00     0.024 C
HETATM   31  C23 UNL     1      -0.242  10.819 108.731  1.00  0.00     0.125 C
BRANCH  29  32
HETATM   32  C20 UNL     1       2.642  12.116 106.888  1.00  0.00     0.030 C
BRANCH  32  33
HETATM   33  C21 UNL     1       1.834  11.757 105.674  1.00  0.00     0.164 C
BRANCH  33  34
HETATM   34  O1  UNL     1       2.650  10.933 104.869  1.00  0.00    -0.401 OA
ATOM     35  H1  UNL     1       2.075  10.310 104.440  1.00  0.00     0.209 HD
ENDBRANCH  33  34
ENDBRANCH  32  33
ENDBRANCH  29  32
ENDBRANCH  13  24
ENDBRANCH   3   4
TORSDOF 6
ENDMDL