MODEL 3
REMARK VINA RESULT: -7.499864392      4.344      9.968
REMARK  6 active torsions:
REMARK  status: ('A' for Active; 'I' for Inactive)
REMARK    1  A    between atoms: C2_2  and  C4_4
REMARK    2  A    between atoms: C6_9  and  N2_10
REMARK    3  A    between atoms: N3_13  and  C9_14
REMARK    4  A    between atoms: C10_15  and  C11_16
REMARK    5  A    between atoms: N5_21  and  C14_22
REMARK    6  A    between atoms: C18_30  and  O1_31
ROOT
HETATM    1  C9  UNL     1      -1.921   8.531 110.959  1.00  0.00     0.108 A
HETATM    2  C10 UNL     1      -1.100   7.463 110.688  1.00  0.00     0.060 A
HETATM    3  N4  UNL     1       0.006   7.940 110.079  1.00  0.00    -0.293 N
ATOM      4  H4  UNL     1       0.786   7.360 109.768  1.00  0.00     0.187 HD
HETATM    5  N5  UNL     1      -0.045   9.253 109.935  1.00  0.00    -0.229 N
HETATM    6  C18 UNL     1      -1.221   9.643 110.469  1.00  0.00     0.191 A
ENDROOT
BRANCH   1   7
HETATM    7  N3  UNL     1      -3.173   8.529 111.588  1.00  0.00    -0.373 N
HETATM    8  C8  UNL     1      -3.420   7.821 112.796  1.00  0.00     0.143 C
HETATM    9  C7  UNL     1      -4.734   7.098 112.867  1.00  0.00     0.143 C
HETATM   10  N2  UNL     1      -5.700   7.455 111.896  1.00  0.00    -0.370 N
HETATM   11  C20 UNL     1      -5.309   8.197 110.687  1.00  0.00     0.143 C
HETATM   12  C19 UNL     1      -4.299   9.273 111.015  1.00  0.00     0.143 C
BRANCH  10  13
HETATM   13  C6  UNL     1      -7.079   7.133 111.988  1.00  0.00     0.113 A
HETATM   14  C5  UNL     1      -7.841   6.111 111.484  1.00  0.00     0.138 A
HETATM   15  N1  UNL     1      -9.105   6.092 111.776  1.00  0.00    -0.342 N
HETATM   16 CL1  UNL     1      -7.092   4.857 110.434  1.00  0.00    -0.061 Cl
HETATM   17  C4  UNL     1      -9.633   7.026 112.535  1.00  0.00     0.057 A
ATOM     18  H1  UNL     1      -9.695   5.343 111.414  1.00  0.00     0.167 HD
HETATM   19  S1  UNL     1      -8.280   8.012 112.872  1.00  0.00    -0.056 SA
BRANCH  17  20
HETATM   20  C2  UNL     1     -11.041   7.226 113.016  1.00  0.00     0.035 C
HETATM   21  C1  UNL     1     -11.314   6.274 114.137  1.00  0.00     0.016 C
HETATM   22  C3  UNL     1     -11.188   8.676 113.411  1.00  0.00     0.016 C
ENDBRANCH  17  20
ENDBRANCH  10  13
ENDBRANCH   1   7
BRANCH   2  23
HETATM   23  C11 UNL     1      -1.337   6.027 110.985  1.00  0.00     0.031 C
HETATM   24  C12 UNL     1      -0.111   5.244 110.555  1.00  0.00     0.016 C
HETATM   25  C13 UNL     1      -2.500   5.542 110.154  1.00  0.00     0.016 C
ENDBRANCH   2  23
BRANCH   6  26
HETATM   26  O1  UNL     1      -1.696  10.920 110.539  1.00  0.00    -0.343 OA
ATOM     27  H1  UNL     1      -1.500  11.587 109.892  1.00  0.00     0.219 HD
ENDBRANCH   6  26
BRANCH   5  28
HETATM   28  C14 UNL     1       0.933  10.096 109.344  1.00  0.00     0.100 A
HETATM   29  C15 UNL     1       1.249  10.207 108.013  1.00  0.00     0.077 A
HETATM   30  C16 UNL     1       2.264  11.147 107.871  1.00  0.00     0.106 A
HETATM   31 CL2  UNL     1       2.988  11.618 106.347  1.00  0.00    -0.064 Cl
HETATM   32  N6  UNL     1       2.544  11.586 109.106  1.00  0.00    -0.335 N
HETATM   33  C17 UNL     1       1.753  10.967 110.017  1.00  0.00     0.133 A
ATOM     34  H6  UNL     1       3.252  12.287 109.329  1.00  0.00     0.168 HD
HETATM   35 CL3  UNL     1       1.719  11.178 111.753  1.00  0.00    -0.062 Cl
ENDBRANCH   5  28
TORSDOF 6
ENDMDL