MODEL 5
REMARK VINA RESULT: -6.805011100      3.512      7.032
REMARK  9 active torsions:
REMARK  status: ('A' for Active; 'I' for Inactive)
REMARK    1  A    between atoms: O1_2  and  C2_3
REMARK    2  A    between atoms: C2_3  and  C3_5
REMARK    3  A    between atoms: C4_7  and  S2_8
REMARK    4  A    between atoms: S2_8  and  C5_9
REMARK    5  A    between atoms: C11_18  and  C12_19
REMARK    6  A    between atoms: C12_19  and  N1_20
REMARK       I    between atoms: N1_20  and  C13_22
REMARK    7  A    between atoms: C13_22  and  O4_24
REMARK    8  A    between atoms: O4_24  and  C14_25
REMARK    9  A    between atoms: C18_29  and  C19_30
ROOT
HETATM    1  C3  UNL     1      -2.770   4.557 110.449  1.00  0.00     0.093 A
HETATM    2  S1  UNL     1      -4.377   5.076 110.285  1.00  0.00    -0.075 SA
HETATM    3  C4  UNL     1      -4.215   6.705 110.727  1.00  0.00     0.056 A
HETATM    4  C11 UNL     1      -2.822   6.828 111.037  1.00  0.00    -0.004 A
HETATM    5  C18 UNL     1      -2.106   5.719 110.874  1.00  0.00     0.010 A
ENDROOT
BRANCH   3   6
HETATM    6  S2  UNL     1      -5.509   7.935 110.837  1.00  0.00    -0.079 SA
BRANCH   6   7
HETATM    7  C5  UNL     1      -5.847   8.419 112.538  1.00  0.00     0.049 A
HETATM    8  C6  UNL     1      -5.573   9.787 112.834  1.00  0.00     0.054 A
HETATM    9 CL1  UNL     1      -4.921  10.825 111.637  1.00  0.00    -0.083 Cl
HETATM   10  C7  UNL     1      -5.866  10.175 114.155  1.00  0.00     0.049 A
HETATM   11  C8  UNL     1      -6.371   9.343 115.115  1.00  0.00     0.037 A
HETATM   12 CL2  UNL     1      -6.698   9.926 116.729  1.00  0.00    -0.084 Cl
HETATM   13  C9  UNL     1      -6.618   8.031 114.792  1.00  0.00     0.049 A
HETATM   14  C10 UNL     1      -6.348   7.600 113.487  1.00  0.00     0.054 A
HETATM   15 CL3  UNL     1      -6.721   5.918 113.103  1.00  0.00    -0.083 Cl
ENDBRANCH   6   7
ENDBRANCH   3   6
BRANCH   4  16
HETATM   16  C12 UNL     1      -2.371   8.184 111.427  1.00  0.00     0.166 C
BRANCH  16  17
HETATM   17  N1  UNL     1      -1.576   8.947 110.427  1.00  0.00    -0.333 N
HETATM   18  C13 UNL     1      -1.207  10.290 110.933  1.00  0.00     0.361 C
HETATM   19  O3  UNL     1      -1.489  10.685 111.987  1.00  0.00    -0.238 OA
ATOM     20  H1  UNL     1      -1.318   8.590 109.507  1.00  0.00     0.165 HD
BRANCH  18  21
HETATM   21  O4  UNL     1      -0.473  11.103 110.019  1.00  0.00    -0.294 OA
BRANCH  21  22
HETATM   22  C14 UNL     1       0.962  10.978 109.990  1.00  0.00     0.061 C
HETATM   23  C15 UNL     1       1.454  11.935 108.892  1.00  0.00     0.046 C
HETATM   24  C16 UNL     1       1.384   9.576 109.529  1.00  0.00     0.046 C
HETATM   25  C17 UNL     1       1.675  11.294 111.259  1.00  0.00     0.046 C
ENDBRANCH  21  22
ENDBRANCH  18  21
ENDBRANCH  16  17
ENDBRANCH   4  16
BRANCH   1  26
HETATM   26  C2  UNL     1      -2.238   3.210 110.165  1.00  0.00     0.300 C
HETATM   27  O2  UNL     1      -2.225   2.409 111.104  1.00  0.00    -0.259 OA
BRANCH  26  28
HETATM   28  O1  UNL     1      -1.763   2.796 108.931  1.00  0.00    -0.322 OA
HETATM   29  C1  UNL     1      -0.409   2.361 108.922  1.00  0.00     0.213 C
ENDBRANCH  26  28
ENDBRANCH   1  26
BRANCH   5  30
HETATM   30  C19 UNL     1      -0.583   5.559 110.869  1.00  0.00     0.113 C
HETATM   31  N2  UNL     1       0.111   6.217 109.840  1.00  0.00    -0.114 NA
ENDBRANCH   5  30
TORSDOF 9
ENDMDL