MODEL 5
REMARK VINA RESULT: -8.030926943      4.358      7.943
REMARK  8 active torsions:
REMARK  status: ('A' for Active; 'I' for Inactive)
REMARK    1  A    between atoms: C3_3  and  C4_4
REMARK    2  A    between atoms: C6_7  and  O2_8
REMARK    3  A    between atoms: C18_23  and  C19_24
REMARK    4  A    between atoms: C20_26  and  C21_27
REMARK    5  A    between atoms: C23_32  and  O6_33
REMARK    6  A    between atoms: O6_33  and  C24_34
REMARK    7  A    between atoms: C24_34  and  C25_35
REMARK    8  A    between atoms: C25_35  and  O7_36
ROOT
HETATM    1  C1  UNL     1      -0.643   4.913 111.805  1.00  0.00     0.013 C
HETATM    2  C2  UNL     1      -1.639   5.407 110.785  1.00  0.00     0.020 C
HETATM    3  C3  UNL     1      -1.316   6.782 110.273  1.00  0.00     0.160 C
HETATM    4  O3  UNL     1      -1.608   7.725 111.267  1.00  0.00    -0.380 OA
HETATM    5  C8  UNL     1      -3.056   7.820 111.307  1.00  0.00     0.182 C
HETATM    6  C9  UNL     1      -3.457   6.631 112.084  1.00  0.00     0.009 C
HETATM    7  C10 UNL     1      -2.551   6.714 113.355  1.00  0.00     0.023 C
HETATM    8  C11 UNL     1      -3.038   5.407 111.241  1.00  0.00     0.007 C
HETATM    9  C12 UNL     1      -3.527   4.133 111.873  1.00  0.00     0.009 C
HETATM   10  C13 UNL     1      -5.012   4.053 111.630  1.00  0.00     0.043 C
HETATM   11  C14 UNL     1      -5.694   5.391 111.870  1.00  0.00     0.082 C
HETATM   12  C15 UNL     1      -6.422   5.886 110.657  1.00  0.00     0.051 C
HETATM   13  O4  UNL     1      -6.649   5.203 112.861  1.00  0.00    -0.371 OA
HETATM   14  C16 UNL     1      -6.795   6.427 113.565  1.00  0.00     0.208 C
HETATM   15  C17 UNL     1      -5.761   7.353 113.032  1.00  0.00    -0.026 C
HETATM   16  C18 UNL     1      -5.757   8.600 113.110  1.00  0.00     0.049 C
HETATM   17  C26 UNL     1      -4.777   6.350 112.549  1.00  0.00    -0.027 C
ENDROOT
BRANCH  16  18
HETATM   18  C19 UNL     1      -6.642   9.575 113.695  1.00  0.00     0.110 A
HETATM   19  O5  UNL     1      -7.428   9.577 114.732  1.00  0.00    -0.303 OA
HETATM   20  C20 UNL     1      -8.087  10.671 114.898  1.00  0.00     0.162 A
HETATM   21  C22 UNL     1      -7.704  11.524 113.864  1.00  0.00     0.081 A
HETATM   22  C23 UNL     1      -6.802  10.856 113.108  1.00  0.00     0.105 A
BRANCH  20  23
HETATM   23  C21 UNL     1      -9.071  11.042 115.951  1.00  0.00     0.439 C
HETATM   24  F1  UNL     1      -9.533  12.328 115.724  1.00  0.00    -0.164 F
HETATM   25  F2  UNL     1      -8.372  11.021 117.178  1.00  0.00    -0.164 F
HETATM   26  F3  UNL     1     -10.131  10.182 116.026  1.00  0.00    -0.164 F
ENDBRANCH  20  23
BRANCH  22  27
HETATM   27  O6  UNL     1      -6.125  11.254 111.992  1.00  0.00    -0.346 OA
BRANCH  27  28
HETATM   28  C24 UNL     1      -5.753  12.584 111.770  1.00  0.00     0.201 C
BRANCH  28  29
HETATM   29  C25 UNL     1      -4.250  12.737 111.528  1.00  0.00     0.190 C
BRANCH  29  30
HETATM   30  O7  UNL     1      -3.981  13.957 110.946  1.00  0.00    -0.399 OA
ATOM     31  H7  UNL     1      -4.195  14.662 111.546  1.00  0.00     0.209 HD
ENDBRANCH  29  30
ENDBRANCH  28  29
ENDBRANCH  27  28
ENDBRANCH  22  27
ENDBRANCH  16  18
BRANCH   3  32
HETATM   32  C4  UNL     1       0.097   6.886 109.905  1.00  0.00    -0.002 A
HETATM   33  C5  UNL     1       0.837   8.029 109.898  1.00  0.00     0.154 A
HETATM   34  O1  UNL     1       2.075   7.735 109.492  1.00  0.00    -0.300 OA
HETATM   35  C6  UNL     1       2.203   6.472 109.231  1.00  0.00     0.183 A
HETATM   36  C7  UNL     1       0.952   5.887 109.484  1.00  0.00     0.075 A
BRANCH  35  37
HETATM   37  O2  UNL     1       3.306   5.736 108.781  1.00  0.00    -0.341 OA
ATOM     38  H2  UNL     1       4.060   5.997 108.266  1.00  0.00     0.220 HD
ENDBRANCH  35  37
ENDBRANCH   3  32
TORSDOF 8
ENDMDL