MODEL 1
REMARK VINA RESULT: -5.470750774      0.000      0.000
REMARK  5 active torsions:
REMARK  status: ('A' for Active; 'I' for Inactive)
REMARK    1  A    between atoms: N1_1  and  C1_5
REMARK    2  A    between atoms: C1_5  and  C2_6
REMARK    3  A    between atoms: C2_6  and  N2_7
REMARK    4  A    between atoms: N2_7  and  C3_9
REMARK    5  A    between atoms: N3_15  and  C9_16
ROOT
HETATM    1  C3  UNL     1       8.404  15.455  15.038  1.00  0.00     0.100 C
HETATM    2  C4  UNL     1       9.119  15.579  16.364  1.00  0.00     0.032 C
HETATM    3  C5  UNL     1       8.266  16.413  17.274  1.00  0.00    -0.006 C
HETATM    4  C6  UNL     1       8.747  17.817  17.507  1.00  0.00     0.012 C
HETATM    5  C7  UNL     1       7.663  18.308  16.570  1.00  0.00     0.010 C
HETATM    6  C8  UNL     1       8.209  18.600  15.191  1.00  0.00     0.130 C
HETATM    7  N3  UNL     1       7.566  17.636  14.309  1.00  0.00    -0.352 N
HETATM    8  C10 UNL     1       7.253  16.422  15.069  1.00  0.00     0.113 C
HETATM    9  C11 UNL     1       7.089  16.914  16.485  1.00  0.00     0.020 C
ENDROOT
BRANCH   1  10
HETATM   10  N2  UNL     1       8.051  14.083  14.855  1.00  0.00    -0.413 N
ATOM     11  H2  UNL     1       7.088  13.786  14.699  1.00  0.00     0.153 HD
BRANCH  10  12
HETATM   12  C2  UNL     1       9.151  13.142  14.905  1.00  0.00     0.141 C
BRANCH  12  13
HETATM   13  C1  UNL     1       8.497  11.757  15.034  1.00  0.00     0.248 C
BRANCH  13  14
HETATM   14  N1  UNL     1       7.521  11.856  16.079  1.00  0.00    -0.078 N
ATOM     15  H13 UNL     1       7.925  11.787  17.013  1.00  0.00     0.274 HD
ATOM     16  H12 UNL     1       7.131  12.793  16.176  1.00  0.00     0.274 HD
ATOM     17  H11 UNL     1       6.816  11.143  15.891  1.00  0.00     0.274 HD
ENDBRANCH  13  14
ENDBRANCH  12  13
ENDBRANCH  10  12
ENDBRANCH   1  10
BRANCH   7  18
HETATM   18  C9  UNL     1       7.310  17.874  12.939  1.00  0.00     0.351 C
HETATM   19  O1  UNL     1       6.157  18.204  12.564  1.00  0.00    -0.284 OA
ENDBRANCH   7  18
TORSDOF 5
ENDMDL