MODEL 5
REMARK VINA RESULT: -5.189832805      3.176      5.694
REMARK  4 active torsions:
REMARK  status: ('A' for Active; 'I' for Inactive)
REMARK       I    between atoms: C1_4  and  N3_6
REMARK    1  A    between atoms: N4_9  and  C4_10
REMARK    2  A    between atoms: C4_10  and  C5_11
REMARK    3  A    between atoms: C5_11  and  C6_12
REMARK    4  A    between atoms: C6_12  and  C7_13
ROOT
HETATM    1  N1  UNL     1       6.570  18.264  13.951  1.00  0.00    -0.374 N
ATOM      2  H11 UNL     1       7.328  18.752  13.475  1.00  0.00     0.158 HD
ATOM      3  H12 UNL     1       5.632  18.264  13.550  1.00  0.00     0.158 HD
HETATM    4  C1  UNL     1       6.908  17.680  15.056  1.00  0.00     0.185 C
HETATM    5  N2  UNL     1       5.844  16.994  15.725  1.00  0.00    -0.064 NA
HETATM    6  N3  UNL     1       8.193  17.679  15.605  1.00  0.00    -0.328 N
HETATM    7  C2  UNL     1       9.182  18.734  15.469  1.00  0.00     0.157 C
HETATM    8  C3  UNL     1      10.436  18.029  15.966  1.00  0.00     0.294 C
HETATM    9  N4  UNL     1       9.919  17.232  17.066  1.00  0.00     0.107 N
HETATM   10  C10 UNL     1       8.778  16.607  16.429  1.00  0.00     0.400 C
ENDROOT
BRANCH   9  11
HETATM   11  C4  UNL     1       9.462  18.055  18.156  1.00  0.00     0.274 C
BRANCH  11  12
HETATM   12  C5  UNL     1      10.536  18.442  19.119  1.00  0.00     0.031 C
BRANCH  12  13
HETATM   13  C6  UNL     1       9.972  18.739  20.508  1.00  0.00     0.006 C
BRANCH  13  14
HETATM   14  C7  UNL     1      11.083  19.280  21.342  1.00  0.00    -0.014 A
HETATM   15  C8  UNL     1      12.122  18.398  21.926  1.00  0.00     0.005 A
HETATM   16  C9  UNL     1      11.014  18.951  22.822  1.00  0.00     0.005 A
ENDBRANCH  13  14
ENDBRANCH  12  13
ENDBRANCH  11  12
ENDBRANCH   9  11
TORSDOF 4
ENDMDL