MODEL 4
REMARK VINA RESULT: -5.343227425      2.141      2.367
REMARK  6 active torsions:
REMARK  status: ('A' for Active; 'I' for Inactive)
REMARK    1  A    between atoms: C1_2  and  C2_3
REMARK    2  A    between atoms: C4_5  and  C5_6
REMARK    3  A    between atoms: C5_6  and  N1_7
REMARK    4  A    between atoms: N1_7  and  C6_9
REMARK    5  A    between atoms: C6_9  and  N2_11
REMARK    6  A    between atoms: N2_11  and  C7_13
ROOT
HETATM    1  N1  UNL     1       7.459  16.133  14.052  1.00  0.00    -0.367 N
ATOM      2  H1  UNL     1       7.571  15.662  13.154  1.00  0.00     0.161 HD
ENDROOT
BRANCH   1   3
HETATM    3  C5  UNL     1       7.336  15.275  15.201  1.00  0.00     0.127 C
BRANCH   3   4
HETATM    4  C4  UNL     1       8.434  14.208  15.200  1.00  0.00     0.015 A
HETATM    5  C2  UNL     1       8.097  12.838  15.705  1.00  0.00     0.053 A
HETATM    6  C3  UNL     1       8.826  13.735  16.606  1.00  0.00     0.019 A
BRANCH   5   7
HETATM    7  C1  UNL     1       8.830  11.663  15.188  1.00  0.00     0.236 C
HETATM    8  O1  UNL     1       8.821  11.370  14.013  1.00  0.00    -0.306 OA
ENDBRANCH   5   7
ENDBRANCH   3   4
ENDBRANCH   1   3
BRANCH   1   9
HETATM    9  C6  UNL     1       7.445  17.516  14.012  1.00  0.00     0.167 C
HETATM   10  S1  UNL     1       7.168  18.230  12.532  1.00  0.00    -0.041 SA
BRANCH   9  11
HETATM   11  N2  UNL     1       7.639  18.376  15.088  1.00  0.00    -0.363 N
ATOM     12  H2  UNL     1       6.817  18.901  15.384  1.00  0.00     0.162 HD
BRANCH  11  13
HETATM   13  C7  UNL     1       8.837  18.629  15.840  1.00  0.00     0.084 A
HETATM   14  C8  UNL     1       8.870  17.934  17.231  1.00  0.00     0.027 A
HETATM   15  C9  UNL     1       9.827  17.594  16.176  1.00  0.00     0.027 A
ENDBRANCH  11  13
ENDBRANCH   9  11
ENDBRANCH   1   9
TORSDOF 6
ENDMDL