MODEL 1
REMARK VINA RESULT: -5.457399951      0.000      0.000
REMARK  6 active torsions:
REMARK  status: ('A' for Active; 'I' for Inactive)
REMARK    1  A    between atoms: C2_2  and  N1_3
REMARK    2  A    between atoms: N1_3  and  C3_5
REMARK    3  A    between atoms: C3_5  and  N2_7
REMARK    4  A    between atoms: N2_7  and  C4_9
REMARK    5  A    between atoms: C4_9  and  C5_10
REMARK    6  A    between atoms: C5_10  and  N3_11
ROOT
HETATM    1  N2  UNL     1       7.487  15.577  15.766  1.00  0.00    -0.366 N
ATOM      2  H2  UNL     1       6.751  14.871  15.742  1.00  0.00     0.161 HD
ENDROOT
BRANCH   1   3
HETATM    3  C3  UNL     1       7.279  16.816  15.135  1.00  0.00     0.167 C
HETATM    4  S1  UNL     1       7.238  18.186  16.037  1.00  0.00    -0.041 SA
BRANCH   3   5
HETATM    5  N1  UNL     1       7.076  16.859  13.724  1.00  0.00    -0.368 N
ATOM      6  H1  UNL     1       6.992  16.000  13.181  1.00  0.00     0.161 HD
BRANCH   5   7
HETATM    7  C2  UNL     1       6.994  18.148  13.086  1.00  0.00     0.117 C
HETATM    8  C1  UNL     1       7.667  18.033  11.739  1.00  0.00     0.026 C
ENDBRANCH   5   7
ENDBRANCH   3   5
ENDBRANCH   1   3
BRANCH   1   9
HETATM    9  C4  UNL     1       8.722  15.288  16.445  1.00  0.00     0.152 C
BRANCH   9  10
HETATM   10  C5  UNL     1       8.724  13.816  16.794  1.00  0.00     0.292 C
BRANCH  10  11
HETATM   11  N3  UNL     1       8.307  13.079  15.606  1.00  0.00     0.090 N
HETATM   12  C6  UNL     1       9.478  12.725  14.805  1.00  0.00     0.272 C
HETATM   13  C7  UNL     1       8.889  11.607  13.952  1.00  0.00     0.032 C
HETATM   14  C8  UNL     1       8.351  10.729  15.095  1.00  0.00     0.032 C
HETATM   15  C9  UNL     1       7.696  11.808  15.959  1.00  0.00     0.272 C
ENDBRANCH  10  11
ENDBRANCH   9  10
ENDBRANCH   1   9
TORSDOF 6
ENDMDL