MODEL 2
REMARK VINA RESULT: -4.890497765      1.901      4.273
REMARK  5 active torsions:
REMARK  status: ('A' for Active; 'I' for Inactive)
REMARK    1  A    between atoms: C2_2  and  C3_3
REMARK    2  A    between atoms: C3_3  and  N1_4
REMARK    3  A    between atoms: N1_4  and  C4_5
REMARK    4  A    between atoms: C4_5  and  C5_6
REMARK    5  A    between atoms: C5_6  and  N2_7
ROOT
HETATM    1  N1  UNL     1      12.261  21.626  21.263  1.00  0.00    -0.059 N
HETATM    2  C6  UNL     1      11.270  21.169  22.187  1.00  0.00     0.270 C
HETATM    3  C7  UNL     1      11.622  19.970  22.999  1.00  0.00     0.212 C
HETATM    4  C8  UNL     1      11.593  18.658  22.283  1.00  0.00     0.037 C
HETATM    5  C9  UNL     1      13.050  18.390  21.970  1.00  0.00     0.037 C
HETATM    6  C10 UNL     1      13.649  19.772  22.146  1.00  0.00     0.212 C
HETATM    7  C11 UNL     1      13.310  20.662  21.019  1.00  0.00     0.270 C
HETATM    8  N3  UNL     1      13.024  20.136  23.418  1.00  0.00    -0.063 N
ATOM      9  H31 UNL     1      13.322  19.616  24.243  1.00  0.00     0.278 HD
ATOM     10  H32 UNL     1      13.282  21.038  23.817  1.00  0.00     0.278 HD
ENDROOT
BRANCH   1  11
HETATM   11  C3  UNL     1      12.945  22.778  21.905  1.00  0.00     0.264 C
BRANCH  11  12
HETATM   12  C2  UNL     1      11.963  23.765  22.404  1.00  0.00    -0.009 C
HETATM   13  C1  UNL     1      12.283  24.536  23.418  1.00  0.00     0.008 C
ENDBRANCH  11  12
ENDBRANCH   1  11
BRANCH   1  14
HETATM   14  C4  UNL     1      11.752  22.208  20.071  1.00  0.00     0.265 C
BRANCH  14  15
HETATM   15  C5  UNL     1      12.591  22.431  18.904  1.00  0.00     0.257 C
BRANCH  15  16
HETATM   16  N2  UNL     1      12.086  23.308  17.874  1.00  0.00    -0.078 N
ATOM     17  H23 UNL     1      11.344  22.832  17.362  1.00  0.00     0.274 HD
ATOM     18  H22 UNL     1      11.562  24.069  18.308  1.00  0.00     0.274 HD
ATOM     19  H21 UNL     1      12.758  23.697  17.212  1.00  0.00     0.274 HD
ENDBRANCH  15  16
ENDBRANCH  14  15
ENDBRANCH   1  14
TORSDOF 5
ENDMDL