MODEL 5
REMARK VINA RESULT: -4.877836889      3.783      5.038
REMARK  5 active torsions:
REMARK  status: ('A' for Active; 'I' for Inactive)
REMARK    1  A    between atoms: C1_2  and  N2_4
REMARK    2  A    between atoms: N2_4  and  C2_6
REMARK    3  A    between atoms: C2_6  and  C3_7
REMARK    4  A    between atoms: C3_7  and  C4_8
REMARK    5  A    between atoms: C4_8  and  N3_9
ROOT
HETATM    1  C3  UNL     1      10.342  18.012  16.300  1.00  0.00     0.050 C
ENDROOT
BRANCH   1   2
HETATM    2  C2  UNL     1      11.112  18.882  15.329  1.00  0.00     0.123 C
BRANCH   2   3
HETATM    3  N2  UNL     1      11.130  18.345  14.002  1.00  0.00    -0.369 N
ATOM      4  H2  UNL     1      10.336  17.797  13.672  1.00  0.00     0.161 HD
BRANCH   3   5
HETATM    5  C1  UNL     1      12.227  18.562  13.145  1.00  0.00     0.180 C
HETATM    6  N1  UNL     1      12.188  18.389  11.744  1.00  0.00    -0.070 NA
HETATM    7  S1  UNL     1      13.684  19.054  13.751  1.00  0.00    -0.044 SA
ENDBRANCH   3   5
ENDBRANCH   2   3
ENDBRANCH   1   2
BRANCH   1   8
HETATM    8  C4  UNL     1       8.870  18.349  16.217  1.00  0.00     0.274 C
BRANCH   8   9
HETATM    9  N3  UNL     1       8.001  17.256  16.553  1.00  0.00     0.088 N
HETATM   10  C5  UNL     1       6.835  17.135  15.739  1.00  0.00     0.272 C
HETATM   11  C6  UNL     1       6.939  15.904  14.899  1.00  0.00     0.032 C
HETATM   12  C7  UNL     1       8.016  15.100  15.557  1.00  0.00     0.032 C
HETATM   13  C8  UNL     1       8.691  15.985  16.561  1.00  0.00     0.272 C
ENDBRANCH   8   9
ENDBRANCH   1   8
TORSDOF 5
ENDMDL