MODEL 2
REMARK VINA RESULT: -6.024036986      2.770      5.716
REMARK  4 active torsions:
REMARK  status: ('A' for Active; 'I' for Inactive)
REMARK    1  A    between atoms: C2_2  and  C3_3
REMARK    2  A    between atoms: C3_3  and  N1_4
REMARK       I    between atoms: C4_6  and  N2_7
REMARK       I    between atoms: C4_6  and  N4_11
REMARK    3  A    between atoms: N4_11  and  C6_13
REMARK    4  A    between atoms: C6_13  and  C7_14
ROOT
HETATM    1  N1  UNL     1       9.447  16.872  15.538  1.00  0.00    -0.222 N
ATOM      2  H1  UNL     1      10.115  16.118  15.700  1.00  0.00     0.178 HD
HETATM    3  C4  UNL     1       8.323  16.610  14.995  1.00  0.00     0.683 C
HETATM    4  N2  UNL     1       7.403  17.652  14.773  1.00  0.00    -0.126 N
ATOM      5  H2  UNL     1       7.059  18.170  15.582  1.00  0.00     0.197 HD
HETATM    6  C5  UNL     1       6.933  18.019  13.510  1.00  0.00     0.196 C
HETATM    7  N3  UNL     1       6.537  18.305  12.455  1.00  0.00    -0.171 NA
HETATM    8  N4  UNL     1       8.009  15.300  14.623  1.00  0.00    -0.225 N
ATOM      9  H4  UNL     1       8.082  15.057  13.635  1.00  0.00     0.177 HD
ENDROOT
BRANCH   1  10
HETATM   10  C3  UNL     1       9.793  18.234  15.931  1.00  0.00     0.164 C
BRANCH  10  11
HETATM   11  C2  UNL     1      11.002  18.291  16.796  1.00  0.00    -0.017 C
HETATM   12  C1  UNL     1      10.948  17.895  18.058  1.00  0.00     0.008 C
ENDBRANCH  10  11
ENDBRANCH   1  10
BRANCH   8  13
HETATM   13  C6  UNL     1       7.589  14.262  15.542  1.00  0.00     0.147 C
BRANCH  13  14
HETATM   14  C7  UNL     1       8.696  13.376  15.969  1.00  0.00     0.062 C
HETATM   15  C8  UNL     1       8.541  11.914  15.969  1.00  0.00     0.132 C
HETATM   16  C9  UNL     1       8.522  11.905  14.487  1.00  0.00     0.065 C
HETATM   17  O1  UNL     1       9.936  11.872  15.836  1.00  0.00    -0.379 OA
HETATM   18  C10 UNL     1       9.580  12.841  14.894  1.00  0.00     0.132 C
ENDBRANCH  13  14
ENDBRANCH   8  13
TORSDOF 4
ENDMDL