MODEL 1
REMARK VINA RESULT: -5.969581835      0.000      0.000
REMARK  4 active torsions:
REMARK  status: ('A' for Active; 'I' for Inactive)
REMARK    1  A    between atoms: N3_4  and  C2_6
REMARK    2  A    between atoms: C2_6  and  C3_7
REMARK    3  A    between atoms: C3_7  and  S1_8
REMARK    4  A    between atoms: S1_8  and  C4_9
ROOT
HETATM    1  C3  UNL     1       8.635  16.767  15.948  1.00  0.00     0.118 C
ENDROOT
BRANCH   1   2
HETATM    2  C2  UNL     1       8.103  17.949  15.181  1.00  0.00     0.073 C
BRANCH   2   3
HETATM    3  N3  UNL     1       8.008  17.794  13.811  1.00  0.00    -0.346 N
HETATM    4  C1  UNL     1       7.228  17.956  12.876  1.00  0.00     0.200 C
HETATM    5  N1  UNL     1       5.915  18.454  12.943  1.00  0.00    -0.067 NA
HETATM    6  N2  UNL     1       7.706  17.612  11.545  1.00  0.00    -0.067 NA
ATOM      7  H3  UNL     1       8.887  17.417  13.454  1.00  0.00     0.167 HD
ENDBRANCH   2   3
ENDBRANCH   1   2
BRANCH   1   8
HETATM    8  S1  UNL     1       7.752  15.293  15.269  1.00  0.00    -0.159 SA
BRANCH   8   9
HETATM    9  C4  UNL     1       8.959  13.971  15.196  1.00  0.00     0.047 C
HETATM   10  C5  UNL     1       8.756  12.998  14.074  1.00  0.00     0.015 C
HETATM   11  C6  UNL     1       9.229  11.648  14.585  1.00  0.00     0.001 C
HETATM   12  C7  UNL     1       8.144  11.127  15.532  1.00  0.00     0.000 C
HETATM   13  C8  UNL     1       7.795  12.251  16.475  1.00  0.00     0.001 C
HETATM   14  C9  UNL     1       8.910  13.274  16.552  1.00  0.00     0.015 C
ENDBRANCH   8   9
ENDBRANCH   1   8
TORSDOF 4
ENDMDL