MODEL 1
REMARK VINA RESULT: -5.296850487      0.000      0.000
REMARK  5 active torsions:
REMARK  status: ('A' for Active; 'I' for Inactive)
REMARK    1  A    between atoms: N1_1  and  C1_5
REMARK    2  A    between atoms: C1_5  and  C2_6
REMARK    3  A    between atoms: C2_6  and  N2_7
REMARK    4  A    between atoms: N2_7  and  C3_9
REMARK    5  A    between atoms: C7_13  and  C8_14
ROOT
HETATM    1  C3  UNL     1       8.146  14.451  15.069  1.00  0.00     0.085 C
HETATM    2  C4  UNL     1       7.725  14.144  16.508  1.00  0.00     0.026 C
HETATM    3  C5  UNL     1       8.951  13.428  17.017  1.00  0.00     0.007 C
HETATM    4  C6  UNL     1       9.372  12.529  15.871  1.00  0.00    -0.001 A
HETATM    5  C7  UNL     1       8.293  11.836  15.105  1.00  0.00     0.025 A
HETATM    6  C9  UNL     1       8.813  13.162  14.677  1.00  0.00     0.019 A
ENDROOT
BRANCH   1   7
HETATM    7  N2  UNL     1       9.000  15.572  15.123  1.00  0.00    -0.396 N
ATOM      8  H2  UNL     1       9.990  15.451  14.908  1.00  0.00     0.159 HD
BRANCH   7   9
HETATM    9  C2  UNL     1       8.536  16.829  15.461  1.00  0.00     0.083 C
BRANCH   9  10
HETATM   10  C1  UNL     1       7.438  17.264  14.496  1.00  0.00     0.273 C
BRANCH  10  11
HETATM   11  N1  UNL     1       7.906  17.725  13.232  1.00  0.00    -0.075 N
ATOM     12  H13 UNL     1       7.132  18.098  12.682  1.00  0.00     0.274 HD
ATOM     13  H12 UNL     1       8.463  18.571  13.347  1.00  0.00     0.274 HD
ATOM     14  H11 UNL     1       8.423  17.032  12.691  1.00  0.00     0.274 HD
ENDBRANCH  10  11
ENDBRANCH   9  10
ENDBRANCH   7   9
ENDBRANCH   1   7
BRANCH   5  15
HETATM   15  C8  UNL     1       8.643  10.640  14.241  1.00  0.00     0.227 C
HETATM   16  F1  UNL     1       8.642  10.971  12.898  1.00  0.00    -0.255 F
ENDBRANCH   5  15
TORSDOF 5
ENDMDL