MODEL 2
REMARK VINA RESULT: -6.544591178      1.348      2.011
REMARK  3 active torsions:
REMARK  status: ('A' for Active; 'I' for Inactive)
REMARK       I    between atoms: C1_2  and  N3_7
REMARK    1  A    between atoms: N2_3  and  C2_5
REMARK    2  A    between atoms: N3_7  and  C3_9
REMARK    3  A    between atoms: C3_9  and  C4_10
ROOT
HETATM    1  N1  UNL     1       8.803  16.302  15.259  1.00  0.00    -0.064 NA
HETATM    2  C1  UNL     1       7.593  15.772  15.808  1.00  0.00     0.185 C
HETATM    3  N2  UNL     1       6.585  16.588  15.825  1.00  0.00    -0.339 N
ATOM      4  H2  UNL     1       5.706  16.243  16.209  1.00  0.00     0.164 HD
HETATM    5  N3  UNL     1       7.506  14.452  16.308  1.00  0.00    -0.364 N
ATOM      6  H3  UNL     1       6.600  13.991  16.395  1.00  0.00     0.162 HD
ENDROOT
BRANCH   5   7
HETATM    7  C3  UNL     1       8.697  13.776  16.690  1.00  0.00     0.126 C
BRANCH   7   8
HETATM    8  C4  UNL     1       8.919  12.429  16.115  1.00  0.00     0.003 C
HETATM    9  C5  UNL     1       9.326  12.648  14.648  1.00  0.00     0.006 C
HETATM   10  C6  UNL     1       8.901  11.375  13.938  1.00  0.00     0.000 C
HETATM   11  C7  UNL     1       8.248  10.503  15.005  1.00  0.00     0.000 C
HETATM   12  C8  UNL     1       7.681  11.593  15.923  1.00  0.00     0.006 C
ENDBRANCH   7   8
ENDBRANCH   5   7
BRANCH   3  13
HETATM   13  C2  UNL     1       6.615  17.939  15.344  1.00  0.00     0.347 C
HETATM   14  F1  UNL     1       6.465  18.004  13.967  1.00  0.00    -0.234 F
ENDBRANCH   3  13
TORSDOF 3
ENDMDL