MODEL 3
REMARK VINA RESULT: -4.645809549      2.482      3.738
REMARK  4 active torsions:
REMARK  status: ('A' for Active; 'I' for Inactive)
REMARK    1  A    between atoms: N1_2  and  C2_5
REMARK    2  A    between atoms: C2_5  and  C3_6
REMARK    3  A    between atoms: C7_10  and  C8_11
REMARK    4  A    between atoms: C9_13  and  N2_14
ROOT
HETATM    1  C3  UNL     1       8.282  17.067  16.963  1.00  0.00     0.042 C
HETATM    2  C4  UNL     1       7.538  18.005  16.080  1.00  0.00     0.008 C
HETATM    3  C5  UNL     1       7.568  17.655  14.627  1.00  0.00     0.001 C
HETATM    4  C6  UNL     1       7.173  16.200  14.400  1.00  0.00     0.009 C
HETATM    5  C7  UNL     1       8.204  15.382  15.189  1.00  0.00     0.045 C
HETATM    6  C9  UNL     1       7.930  15.635  16.638  1.00  0.00     0.195 C
ENDROOT
BRANCH   1   7
HETATM    7  C2  UNL     1       9.755  17.339  16.859  1.00  0.00     0.238 C
BRANCH   7   8
HETATM    8  N1  UNL     1      10.187  18.435  17.708  1.00  0.00    -0.079 N
HETATM    9  C1  UNL     1      11.293  17.929  18.505  1.00  0.00     0.267 C
ATOM     10  H12 UNL     1       9.434  18.833  18.268  1.00  0.00     0.276 HD
ATOM     11  H11 UNL     1      10.418  19.282  17.188  1.00  0.00     0.276 HD
ENDBRANCH   7   8
ENDBRANCH   1   7
BRANCH   6  12
HETATM   12  N2  UNL     1       8.509  14.688  17.534  1.00  0.00    -0.074 N
ATOM     13  H23 UNL     1       8.006  14.676  18.421  1.00  0.00     0.274 HD
ATOM     14  H22 UNL     1       8.324  13.735  17.220  1.00  0.00     0.274 HD
ATOM     15  H21 UNL     1       9.508  14.830  17.687  1.00  0.00     0.274 HD
ENDBRANCH   6  12
BRANCH   5  16
HETATM   16  C8  UNL     1       8.142  13.927  14.806  1.00  0.00     0.229 C
HETATM   17  F1  UNL     1       9.443  13.488  14.659  1.00  0.00    -0.255 F
ENDBRANCH   5  16
TORSDOF 4
ENDMDL