MODEL 2
REMARK VINA RESULT: -3.689726348      0.981      1.000
REMARK  4 active torsions:
REMARK  status: ('A' for Active; 'I' for Inactive)
REMARK    1  A    between atoms: N1_1  and  N2_4
REMARK    2  A    between atoms: N2_4  and  C1_5
REMARK    3  A    between atoms: C1_5  and  C2_6
REMARK    4  A    between atoms: C2_6  and  C3_7
ROOT
HETATM    1  N2  UNL     1       7.512  15.859  14.141  1.00  0.00    -0.148 NA
ENDROOT
BRANCH   1   2
HETATM    2  N1  UNL     1       6.627  16.905  13.923  1.00  0.00    -0.348 N
ATOM      3  H12 UNL     1       6.139  17.096  13.048  1.00  0.00     0.172 HD
ATOM      4  H11 UNL     1       6.561  17.436  14.792  1.00  0.00     0.172 HD
ENDBRANCH   1   2
BRANCH   1   5
HETATM    5  C1  UNL     1       7.179  15.271  15.418  1.00  0.00     0.135 C
BRANCH   5   6
HETATM    6  C2  UNL     1       8.468  14.986  16.138  1.00  0.00     0.028 C
BRANCH   6   7
HETATM    7  C3  UNL     1       8.466  13.487  16.420  1.00  0.00     0.086 C
HETATM    8 BR1  UNL     1       9.193  12.477  14.962  1.00  0.00    -0.096 Br
ENDBRANCH   6   7
ENDBRANCH   5   6
ENDBRANCH   1   5
TORSDOF 4
ENDMDL