MODEL 3
REMARK VINA RESULT: -4.929989910      1.871      2.920
REMARK  4 active torsions:
REMARK  status: ('A' for Active; 'I' for Inactive)
REMARK    1  A    between atoms: N1_1  and  C1_5
REMARK    2  A    between atoms: C1_5  and  C2_6
REMARK    3  A    between atoms: C2_6  and  N2_7
REMARK    4  A    between atoms: N2_7  and  C3_10
ROOT
HETATM    1  N2  UNL     1       6.393  16.071  14.422  1.00  0.00    -0.069 N
ATOM      2  H21 UNL     1       6.733  15.800  13.499  1.00  0.00     0.277 HD
ATOM      3  H22 UNL     1       5.391  15.939  14.285  1.00  0.00     0.277 HD
ENDROOT
BRANCH   1   4
HETATM    4  C2  UNL     1       6.685  17.451  14.677  1.00  0.00     0.260 C
BRANCH   4   5
HETATM    5  C1  UNL     1       6.823  18.161  13.340  1.00  0.00     0.257 C
BRANCH   5   6
HETATM    6  N1  UNL     1       7.768  17.489  12.476  1.00  0.00    -0.078 N
ATOM      7  H13 UNL     1       7.581  16.488  12.427  1.00  0.00     0.274 HD
ATOM      8  H12 UNL     1       7.611  17.728  11.496  1.00  0.00     0.274 HD
ATOM      9  H11 UNL     1       8.731  17.675  12.755  1.00  0.00     0.274 HD
ENDBRANCH   5   6
ENDBRANCH   4   5
ENDBRANCH   1   4
BRANCH   1  10
HETATM   10  C3  UNL     1       6.883  15.171  15.419  1.00  0.00     0.193 C
HETATM   11  C4  UNL     1       7.523  16.033  16.517  1.00  0.00     0.038 C
HETATM   12  C5  UNL     1       8.872  15.366  16.713  1.00  0.00    -0.009 C
HETATM   13  C6  UNL     1       8.695  13.956  17.202  1.00  0.00     0.042 C
HETATM   14  C9  UNL     1       9.221  15.103  15.240  1.00  0.00     0.014 C
HETATM   15  C7  UNL     1       8.157  13.179  15.990  1.00  0.00     0.176 C
HETATM   16  F1  UNL     1       9.132  12.326  15.539  1.00  0.00    -0.249 F
HETATM   17  C8  UNL     1       7.967  14.260  14.951  1.00  0.00     0.051 C
ENDBRANCH   1  10
TORSDOF 4
ENDMDL