MODEL 1
REMARK VINA RESULT: -5.119895366      0.000      0.000
REMARK  3 active torsions:
REMARK  status: ('A' for Active; 'I' for Inactive)
REMARK    1  A    between atoms: C2_2  and  C3_3
REMARK    2  A    between atoms: C3_3  and  C4_4
REMARK    3  A    between atoms: C4_4  and  N1_5
ROOT
HETATM    1  C4  UNL     1       8.518  15.452  16.059  1.00  0.00     0.225 C
HETATM    2  C6  UNL     1       8.374  14.728  14.763  1.00  0.00     0.071 C
HETATM    3  C7  UNL     1       9.014  13.345  14.803  1.00  0.00     0.044 C
HETATM    4  C8  UNL     1       8.336  12.550  15.904  1.00  0.00     0.194 C
HETATM    5  F1  UNL     1       8.975  11.376  16.171  1.00  0.00    -0.247 F
HETATM    6  C9  UNL     1       8.376  13.418  17.148  1.00  0.00     0.208 C
HETATM    7  O1  UNL     1       9.123  14.578  16.963  1.00  0.00    -0.351 OA
ENDROOT
BRANCH   1   8
HETATM    8  C3  UNL     1       9.213  16.759  15.998  1.00  0.00     0.068 C
BRANCH   8   9
HETATM    9  C2  UNL     1       9.226  17.594  17.218  1.00  0.00     0.000 C
HETATM   10  C1  UNL     1      10.558  17.797  17.863  1.00  0.00     0.005 C
ENDBRANCH   8   9
ENDBRANCH   1   8
BRANCH   1  11
HETATM   11  N1  UNL     1       7.182  15.699  16.608  1.00  0.00    -0.047 N
HETATM   12  C5  UNL     1       6.199  15.916  15.591  1.00  0.00     0.270 C
ATOM     13  H12 UNL     1       6.899  14.947  17.236  1.00  0.00     0.280 HD
ATOM     14  H11 UNL     1       7.196  16.471  17.274  1.00  0.00     0.280 HD
ENDBRANCH   1  11
TORSDOF 3
ENDMDL