MODEL 5
REMARK VINA RESULT: -4.366244634      1.755      3.109
REMARK  4 active torsions:
REMARK  status: ('A' for Active; 'I' for Inactive)
REMARK    1  A    between atoms: N1_2  and  C2_5
REMARK    2  A    between atoms: C2_5  and  C3_6
REMARK    3  A    between atoms: C3_6  and  C4_7
REMARK    4  A    between atoms: C4_7  and  N2_8
ROOT
HETATM    1  C3  UNL     1       8.007  17.153  15.269  1.00  0.00     0.017 C
HETATM    2  C5  UNL     1       6.886  16.605  16.187  1.00  0.00     0.001 C
HETATM    3  C6  UNL     1       6.466  15.323  15.566  1.00  0.00     0.043 C
HETATM    4  C7  UNL     1       7.846  14.754  15.255  1.00  0.00     0.175 C
HETATM    5  F1  UNL     1       8.014  14.309  14.001  1.00  0.00    -0.249 F
HETATM    6  C8  UNL     1       8.703  15.910  15.687  1.00  0.00     0.032 C
HETATM    7  C9  UNL     1       8.041  16.124  17.069  1.00  0.00     0.014 C
ENDROOT
BRANCH   1   8
HETATM    8  C2  UNL     1       8.550  18.443  15.820  1.00  0.00     0.243 C
BRANCH   8   9
HETATM    9  N1  UNL     1       9.888  18.642  15.279  1.00  0.00    -0.078 N
HETATM   10  C1  UNL     1      10.894  18.570  16.337  1.00  0.00     0.267 C
ATOM     11  H12 UNL     1       9.956  19.514  14.753  1.00  0.00     0.276 HD
ATOM     12  H11 UNL     1      10.088  17.989  14.522  1.00  0.00     0.276 HD
ENDBRANCH   8   9
ENDBRANCH   1   8
BRANCH   1  13
HETATM   13  C4  UNL     1       7.577  17.320  13.861  1.00  0.00     0.241 C
BRANCH  13  14
HETATM   14  N2  UNL     1       6.470  18.226  13.701  1.00  0.00    -0.079 N
ATOM     15  H23 UNL     1       5.740  18.027  14.386  1.00  0.00     0.274 HD
ATOM     16  H22 UNL     1       6.728  19.167  13.997  1.00  0.00     0.274 HD
ATOM     17  H21 UNL     1       6.085  18.237  12.756  1.00  0.00     0.274 HD
ENDBRANCH  13  14
ENDBRANCH   1  13
TORSDOF 4
ENDMDL