MODEL 4
REMARK VINA RESULT: -4.512243761      1.609      1.820
REMARK  4 active torsions:
REMARK  status: ('A' for Active; 'I' for Inactive)
REMARK    1  A    between atoms: N2_4  and  N3_6
REMARK    2  A    between atoms: N3_6  and  C2_8
REMARK    3  A    between atoms: C2_8  and  C3_9
REMARK    4  A    between atoms: C3_9  and  C4_10
ROOT
HETATM    1  N3  UNL     1       8.281  15.523  15.089  1.00  0.00    -0.322 N
ATOM      2  H3  UNL     1       8.886  16.229  15.508  1.00  0.00     0.181 HD
ENDROOT
BRANCH   1   3
HETATM    3  N2  UNL     1       7.519  15.863  13.985  1.00  0.00    -0.252 N
HETATM    4  N1  UNL     1       6.727  16.845  13.970  1.00  0.00    -0.327 N
HETATM    5  C1  UNL     1       6.613  17.650  15.166  1.00  0.00     0.169 C
ATOM      6  H1  UNL     1       6.181  17.064  13.137  1.00  0.00     0.181 HD
ATOM      7  H2  UNL     1       7.601  15.293  13.143  1.00  0.00     0.207 HD
ENDBRANCH   1   3
BRANCH   1   8
HETATM    8  C2  UNL     1       8.247  14.200  15.665  1.00  0.00     0.141 C
BRANCH   8   9
HETATM    9  C3  UNL     1       9.047  13.199  14.915  1.00  0.00     0.032 C
BRANCH   9  10
HETATM   10  C4  UNL     1       8.603  11.774  15.144  1.00  0.00     0.086 C
HETATM   11 BR1  UNL     1       8.652  10.716  13.556  1.00  0.00    -0.096 Br
ENDBRANCH   9  10
ENDBRANCH   8   9
ENDBRANCH   1   8
TORSDOF 4
ENDMDL