MODEL 4
REMARK VINA RESULT: -6.094529796      1.893      5.609
REMARK  11 active torsions:
REMARK  status: ('A' for Active; 'I' for Inactive)
REMARK    1  A    between atoms: O1_2  and  C2_3
REMARK    2  A    between atoms: C2_3  and  C3_5
REMARK    3  A    between atoms: C4_6  and  O3_7
REMARK    4  A    between atoms: C5_9  and  C6_10
REMARK    5  A    between atoms: C6_10  and  O5_12
REMARK    6  A    between atoms: O5_12  and  C7_13
REMARK    7  A    between atoms: C17_23  and  O6_24
REMARK    8  A    between atoms: O6_24  and  C18_25
REMARK    9  A    between atoms: C22_30  and  C24_32
REMARK   10  A    between atoms: C24_32  and  C25_33
REMARK   11  A    between atoms: C26_34  and  C27_35
ROOT
HETATM    1  C3  UNL     1      60.833   4.524   4.634  1.00  0.00     0.119 C
HETATM    2  C4  UNL     1      61.666   3.333   4.382  1.00  0.00     0.146 C
HETATM    3  C5  UNL     1      60.952   2.112   3.876  1.00  0.00     0.120 C
HETATM    4  C10 UNL     1      59.559   1.954   4.287  1.00  0.00     0.014 C
HETATM    5  C11 UNL     1      58.724   3.198   4.095  1.00  0.00     0.003 C
HETATM    6  C12 UNL     1      59.369   4.444   4.586  1.00  0.00     0.007 C
HETATM    7  C13 UNL     1      58.701   4.804   5.924  1.00  0.00     0.011 C
HETATM    8  C14 UNL     1      58.005   3.507   6.291  1.00  0.00    -0.002 C
HETATM    9  C15 UNL     1      59.090   2.554   6.689  1.00  0.00     0.006 C
HETATM   10  C16 UNL     1      59.172   1.489   5.630  1.00  0.00     0.032 C
HETATM   11  C17 UNL     1      57.644   1.429   5.370  1.00  0.00     0.079 C
HETATM   12  C20 UNL     1      56.853   1.161   6.584  1.00  0.00     0.040 C
HETATM   13  C21 UNL     1      57.576   0.942   7.850  1.00  0.00     0.013 C
HETATM   14  C22 UNL     1      58.750   1.834   8.014  1.00  0.00    -0.036 C
HETATM   15  C23 UNL     1      59.984   0.976   8.349  1.00  0.00     0.016 C
HETATM   16  C28 UNL     1      57.547   2.917   4.964  1.00  0.00     0.030 C
ENDROOT
BRANCH  14  17
HETATM   17  C24 UNL     1      58.629   2.855   9.109  1.00  0.00     0.036 C
BRANCH  17  18
HETATM   18  C25 UNL     1      57.307   3.199   9.602  1.00  0.00    -0.019 C
HETATM   19  C26 UNL     1      56.803   4.377   9.858  1.00  0.00     0.080 C
BRANCH  19  20
HETATM   20  C27 UNL     1      55.428   4.544  10.361  1.00  0.00     0.198 C
HETATM   21  O8  UNL     1      54.893   5.672  10.330  1.00  0.00    -0.645 OA
HETATM   22  O9  UNL     1      54.707   3.490  10.866  1.00  0.00    -0.645 OA
ENDBRANCH  19  20
ENDBRANCH  17  18
ENDBRANCH  14  17
BRANCH  11  23
HETATM   23  O6  UNL     1      57.359   0.567   4.330  1.00  0.00    -0.309 OA
BRANCH  23  24
HETATM   24  C18 UNL     1      56.115   0.148   3.988  1.00  0.00     0.255 C
HETATM   25  C19 UNL     1      55.817  -1.323   4.120  1.00  0.00     0.126 C
HETATM   26  O7  UNL     1      55.250   0.938   3.584  1.00  0.00    -0.266 OA
ENDBRANCH  23  24
ENDBRANCH  11  23
BRANCH   3  27
HETATM   27  C6  UNL     1      61.759   0.894   4.069  1.00  0.00     0.266 C
HETATM   28  O4  UNL     1      62.189   0.290   3.056  1.00  0.00    -0.265 OA
BRANCH  27  29
HETATM   29  O5  UNL     1      62.099   0.332   5.281  1.00  0.00    -0.316 OA
BRANCH  29  30
HETATM   30  C7  UNL     1      62.112  -1.053   5.540  1.00  0.00     0.123 C
HETATM   31  C8  UNL     1      60.745  -1.660   5.602  1.00  0.00     0.040 C
HETATM   32  C9  UNL     1      62.883  -1.394   6.780  1.00  0.00     0.040 C
ENDBRANCH  29  30
ENDBRANCH  27  29
ENDBRANCH   3  27
BRANCH   1  33
HETATM   33  C2  UNL     1      61.308   5.724   3.847  1.00  0.00     0.265 C
HETATM   34  O2  UNL     1      61.367   5.594   2.605  1.00  0.00    -0.265 OA
BRANCH  33  35
HETATM   35  O1  UNL     1      61.662   6.901   4.444  1.00  0.00    -0.326 OA
HETATM   36  C1  UNL     1      60.664   7.892   4.649  1.00  0.00     0.213 C
ENDBRANCH  33  35
ENDBRANCH   1  33
BRANCH   2  37
HETATM   37  O3  UNL     1      62.529   2.997   5.461  1.00  0.00    -0.394 OA
ATOM     38  H3  UNL     1      62.946   3.747   5.867  1.00  0.00     0.210 HD
ENDBRANCH   2  37
TORSDOF 11
ENDMDL