MODEL 4
REMARK VINA RESULT: -7.041519576      2.767      5.202
REMARK  7 active torsions:
REMARK  status: ('A' for Active; 'I' for Inactive)
REMARK    1  A    between atoms: O1_2  and  C2_3
REMARK    2  A    between atoms: C5_6  and  N1_7
REMARK       I    between atoms: N1_7  and  C6_9
REMARK    3  A    between atoms: C6_9  and  C7_11
REMARK       I    between atoms: N2_16  and  C11_17
REMARK    4  A    between atoms: C11_17  and  C12_19
REMARK    5  A    between atoms: C12_19  and  N3_21
REMARK       I    between atoms: N3_21  and  C14_23
REMARK    6  A    between atoms: C14_23  and  C15_25
REMARK    7  A    between atoms: C16_29  and  C17_30
ROOT
HETATM    1  C7  UNL     1      58.187   3.496   3.534  1.00  0.00     0.188 C
HETATM    2  C8  UNL     1      58.131   4.749   4.419  1.00  0.00     0.109 C
HETATM    3  S1  UNL     1      58.859   6.088   3.443  1.00  0.00    -0.165 SA
HETATM    4  C9  UNL     1      60.051   5.455   2.255  1.00  0.00     0.093 C
HETATM    5  C10 UNL     1      60.330   4.004   2.347  1.00  0.00     0.137 C
HETATM    6  N2  UNL     1      59.562   3.215   3.253  1.00  0.00    -0.335 N
HETATM    7  C11 UNL     1      60.198   2.103   3.868  1.00  0.00     0.243 C
HETATM    8  O3  UNL     1      61.447   1.958   3.614  1.00  0.00    -0.271 OA
ENDROOT
BRANCH   7   9
HETATM    9  C12 UNL     1      59.520   1.152   4.744  1.00  0.00     0.172 C
HETATM   10  C13 UNL     1      60.108  -0.256   4.619  1.00  0.00     0.042 C
BRANCH   9  11
HETATM   11  N3  UNL     1      59.790   1.561   6.117  1.00  0.00    -0.346 N
HETATM   12  C14 UNL     1      58.734   1.910   6.960  1.00  0.00     0.259 C
HETATM   13  O4  UNL     1      57.548   1.857   6.504  1.00  0.00    -0.270 OA
ATOM     14  H3  UNL     1      60.750   1.591   6.462  1.00  0.00     0.163 HD
BRANCH  12  15
HETATM   15  C15 UNL     1      58.932   2.342   8.374  1.00  0.00     0.339 C
HETATM   16  N4  UNL     1      57.973   3.349   8.693  1.00  0.00    -0.044 N
HETATM   17  C16 UNL     1      57.798   3.394  10.108  1.00  0.00     0.230 C
ATOM     18  H42 UNL     1      58.222   4.258   8.303  1.00  0.00     0.280 HD
ATOM     19  H41 UNL     1      57.093   3.216   8.197  1.00  0.00     0.280 HD
HETATM   20  C21 UNL     1      57.324   2.020  10.580  1.00  0.00     0.114 C
HETATM   21  S3  UNL     1      58.314   0.973   9.434  1.00  0.00    -0.124 SA
BRANCH  17  22
HETATM   22  C17 UNL     1      56.708   4.411  10.373  1.00  0.00    -0.020 A
HETATM   23  C18 UNL     1      55.461   4.037  10.736  1.00  0.00     0.017 A
HETATM   24  C19 UNL     1      54.553   5.038  10.948  1.00  0.00     0.050 A
HETATM   25  S2  UNL     1      55.452   6.452  10.640  1.00  0.00    -0.113 SA
HETATM   26  C20 UNL     1      56.954   5.746  10.250  1.00  0.00     0.058 A
ENDBRANCH  17  22
ENDBRANCH  12  15
ENDBRANCH   9  11
ENDBRANCH   7   9
BRANCH   1  27
HETATM   27  C6  UNL     1      57.386   3.665   2.305  1.00  0.00     0.241 C
HETATM   28  N1  UNL     1      57.884   3.267   1.038  1.00  0.00    -0.355 N
ATOM     29  H1  UNL     1      58.814   2.854   0.973  1.00  0.00     0.162 HD
HETATM   30  O2  UNL     1      56.245   4.167   2.380  1.00  0.00    -0.271 OA
BRANCH  28  31
HETATM   31  C5  UNL     1      57.099   3.436  -0.161  1.00  0.00     0.084 C
HETATM   32  C4  UNL     1      57.242   4.862  -0.623  1.00  0.00     0.028 C
HETATM   33  C3  UNL     1      56.459   5.179  -1.851  1.00  0.00     0.034 C
HETATM   34  C2  UNL     1      56.068   3.934  -2.631  1.00  0.00     0.120 C
HETATM   35  C23 UNL     1      57.171   2.912  -2.622  1.00  0.00     0.034 C
HETATM   36  C22 UNL     1      57.522   2.445  -1.231  1.00  0.00     0.028 C
BRANCH  34  37
HETATM   37  O1  UNL     1      55.834   4.286  -3.956  1.00  0.00    -0.391 OA
HETATM   38  C1  UNL     1      54.562   3.919  -4.361  1.00  0.00     0.202 C
ENDBRANCH  34  37
ENDBRANCH  28  31
ENDBRANCH   1  27
TORSDOF 7
ENDMDL