MODEL 5
REMARK VINA RESULT: -7.198469063      1.240      2.137
REMARK  10 active torsions:
REMARK  status: ('A' for Active; 'I' for Inactive)
REMARK    1  A    between atoms: C2_2  and  C4_4
REMARK    2  A    between atoms: C4_4  and  O1_5
REMARK    3  A    between atoms: C4_4  and  C25_35
REMARK    4  A    between atoms: O1_5  and  C5_6
REMARK    5  A    between atoms: C5_6  and  C6_8
REMARK    6  A    between atoms: C6_8  and  N1_9
REMARK       I    between atoms: N1_9  and  C7_11
REMARK    7  A    between atoms: C7_11  and  O4_13
REMARK    8  A    between atoms: O4_13  and  C8_14
REMARK    9  A    between atoms: C21_29  and  C22_30
REMARK   10  A    between atoms: C27_37  and  N2_38
ROOT
HETATM    1  C8  UNL     1      58.273   2.298   9.568  1.00  0.00     0.164 C
HETATM    2  C9  UNL     1      57.721   3.210   8.505  1.00  0.00     0.201 C
HETATM    3  O5  UNL     1      58.241   4.440   8.902  1.00  0.00    -0.382 OA
HETATM    4  C10 UNL     1      58.207   4.524  10.266  1.00  0.00     0.139 C
HETATM    5  C11 UNL     1      58.044   3.107  10.804  1.00  0.00     0.048 C
HETATM    6  C12 UNL     1      56.599   3.110  11.246  1.00  0.00     0.016 C
HETATM    7  C13 UNL     1      56.391   4.482  11.831  1.00  0.00     0.009 C
HETATM    8  C14 UNL     1      57.121   5.357  10.854  1.00  0.00     0.089 C
HETATM    9  C15 UNL     1      56.298   5.934   9.792  1.00  0.00     0.134 C
HETATM   10  O6  UNL     1      56.784   6.282   8.752  1.00  0.00    -0.297 OA
HETATM   11  C16 UNL     1      54.816   6.108   9.976  1.00  0.00     0.084 C
HETATM   12  C17 UNL     1      54.619   6.175  11.443  1.00  0.00     0.002 C
HETATM   13  C18 UNL     1      53.231   6.336  11.939  1.00  0.00     0.011 C
HETATM   14  C19 UNL     1      53.394   6.043  13.436  1.00  0.00    -0.003 C
HETATM   15  C20 UNL     1      53.583   7.395  14.101  1.00  0.00     0.011 C
HETATM   16  C21 UNL     1      54.727   5.288  13.558  1.00  0.00     0.099 C
HETATM   17  C23 UNL     1      54.997   4.848  12.131  1.00  0.00    -0.022 C
HETATM   18  C24 UNL     1      53.991   3.785  11.779  1.00  0.00     0.017 C
ENDROOT
BRANCH   1  19
HETATM   19  O4  UNL     1      57.684   1.031   9.590  1.00  0.00    -0.296 OA
BRANCH  19  20
HETATM   20  C7  UNL     1      58.217  -0.091  10.214  1.00  0.00     0.361 C
HETATM   21  N1  UNL     1      58.019  -0.388  11.586  1.00  0.00    -0.328 N
ATOM     22  H1  UNL     1      57.457   0.230  12.172  1.00  0.00     0.165 HD
HETATM   23  O3  UNL     1      58.899  -0.845   9.484  1.00  0.00    -0.238 OA
BRANCH  21  24
HETATM   24  C6  UNL     1      58.618  -1.571  12.141  1.00  0.00     0.235 C
BRANCH  24  25
HETATM   25  C5  UNL     1      59.579  -1.325  13.227  1.00  0.00     0.277 C
HETATM   26  O2  UNL     1      59.254  -0.709  14.245  1.00  0.00    -0.263 OA
BRANCH  25  27
HETATM   27  O1  UNL     1      60.886  -1.768  13.163  1.00  0.00    -0.314 OA
BRANCH  27  28
HETATM   28  C4  UNL     1      61.268  -3.136  13.107  1.00  0.00     0.141 C
BRANCH  28  29
HETATM   29  C2  UNL     1      62.130  -3.535  14.256  1.00  0.00     0.007 C
HETATM   30  C1  UNL     1      61.431  -3.788  15.537  1.00  0.00     0.012 C
HETATM   31  C3  UNL     1      63.310  -2.609  14.421  1.00  0.00     0.012 C
ENDBRANCH  28  29
BRANCH  28  32
HETATM   32  C25 UNL     1      61.766  -3.477  11.743  1.00  0.00     0.048 A
HETATM   33  C26 UNL     1      61.889  -4.802  11.167  1.00  0.00     0.042 A
HETATM   34  C27 UNL     1      60.765  -3.972  10.676  1.00  0.00     0.190 A
BRANCH  34  35
HETATM   35  N2  UNL     1      60.772  -3.375   9.380  1.00  0.00    -0.075 N
ATOM     36  H23 UNL     1      61.725  -3.091   9.157  1.00  0.00     0.274 HD
ATOM     37  H22 UNL     1      60.611  -4.104   8.685  1.00  0.00     0.274 HD
ATOM     38  H21 UNL     1      60.146  -2.593   9.186  1.00  0.00     0.274 HD
ENDBRANCH  34  35
ENDBRANCH  28  32
ENDBRANCH  27  28
ENDBRANCH  25  27
ENDBRANCH  24  25
ENDBRANCH  21  24
ENDBRANCH  19  20
ENDBRANCH   1  19
BRANCH  16  39
HETATM   39  C22 UNL     1      54.551   4.200  14.511  1.00  0.00     0.178 C
HETATM   40  O7  UNL     1      55.480   3.460  14.908  1.00  0.00    -0.648 OA
HETATM   41  O8  UNL     1      53.283   3.962  15.017  1.00  0.00    -0.648 OA
ENDBRANCH  16  39
TORSDOF 10
ENDMDL