MODEL 1
REMARK VINA RESULT: -8.355745347      0.000      0.000
REMARK  9 active torsions:
REMARK  status: ('A' for Active; 'I' for Inactive)
REMARK    1  A    between atoms: C2_2  and  C3_4
REMARK    2  A    between atoms: N1_8  and  C7_9
REMARK    3  A    between atoms: C8_12  and  N3_13
REMARK    4  A    between atoms: C13_20  and  N5_21
REMARK    5  A    between atoms: N5_21  and  C14_23
REMARK    6  A    between atoms: C17_26  and  N6_27
REMARK    7  A    between atoms: C21_36  and  C22_37
REMARK       I    between atoms: C22_37  and  N8_39
REMARK    8  A    between atoms: N8_39  and  C23_41
REMARK    9  A    between atoms: C23_41  and  C25_44
ROOT
HETATM    1  C23 UNL     1      55.644  -1.250   3.623  1.00  0.00     0.196 C
HETATM    2  C24 UNL     1      55.070  -2.467   4.180  1.00  0.00     0.085 C
HETATM    3  N9  UNL     1      54.590  -3.437   4.634  1.00  0.00    -0.195 NA
ENDROOT
BRANCH   1   4
HETATM    4  N8  UNL     1      56.533  -0.674   4.605  1.00  0.00    -0.343 N
HETATM    5  C22 UNL     1      56.524   0.692   4.944  1.00  0.00     0.225 C
HETATM    6  O2  UNL     1      55.718   1.465   4.379  1.00  0.00    -0.273 OA
ATOM      7  H8  UNL     1      57.199  -1.287   5.074  1.00  0.00     0.163 HD
BRANCH   5   8
HETATM    8  C21 UNL     1      57.453   1.215   5.960  1.00  0.00     0.108 C
HETATM    9  C3  UNL     1      58.698   1.843   5.366  1.00  0.00     0.071 C
HETATM   10  C4  UNL     1      59.977   1.276   5.863  1.00  0.00     0.038 C
HETATM   11  C5  UNL     1      60.040   1.008   7.355  1.00  0.00     0.099 C
HETATM   12  C6  UNL     1      60.699   2.118   8.099  1.00  0.00     0.033 C
HETATM   13  N1  UNL     1      58.759   0.620   7.842  1.00  0.00    -0.211 N
HETATM   14  C20 UNL     1      57.855   0.040   6.830  1.00  0.00     0.156 C
BRANCH   9  15
HETATM   15  C2  UNL     1      58.635   3.321   5.380  1.00  0.00     0.128 C
HETATM   16  C1  UNL     1      58.072   4.027   6.555  1.00  0.00     0.091 C
HETATM   17  O1  UNL     1      59.039   3.953   4.440  1.00  0.00    -0.298 OA
ENDBRANCH   9  15
BRANCH  13  18
HETATM   18  C7  UNL     1      58.356   0.732   9.187  1.00  0.00     0.709 A
HETATM   19  N2  UNL     1      58.653  -0.232  10.054  1.00  0.00    -0.021 N
HETATM   20  C8  UNL     1      58.322  -0.185  11.341  1.00  0.00     0.709 A
ATOM     21  H2  UNL     1      59.161  -1.049   9.715  1.00  0.00     0.203 HD
HETATM   22  N4  UNL     1      57.647   0.899  11.808  1.00  0.00    -0.021 N
HETATM   23  C13 UNL     1      57.324   1.895  10.981  1.00  0.00     0.707 A
ATOM     24  H4  UNL     1      57.387   0.952  12.792  1.00  0.00     0.203 HD
HETATM   25  N7  UNL     1      57.682   1.804   9.671  1.00  0.00    -0.021 N
ATOM     26  H7  UNL     1      57.437   2.564   9.036  1.00  0.00     0.203 HD
BRANCH  20  27
HETATM   27  N3  UNL     1      58.659  -1.255  12.226  1.00  0.00    -0.217 N
HETATM   28  C9  UNL     1      58.055  -2.542  12.201  1.00  0.00     0.141 C
HETATM   29  C10 UNL     1      58.942  -3.464  12.957  1.00  0.00     0.022 C
HETATM   30  C11 UNL     1      59.710  -2.547  13.881  1.00  0.00     0.022 C
HETATM   31  C12 UNL     1      59.652  -1.182  13.243  1.00  0.00     0.141 C
ENDBRANCH  20  27
BRANCH  23  32
HETATM   32  N5  UNL     1      56.686   2.951  11.348  1.00  0.00    -0.220 N
ATOM     33  H5  UNL     1      56.566   3.143  12.343  1.00  0.00     0.178 HD
BRANCH  32  34
HETATM   34  C14 UNL     1      56.127   3.883  10.358  1.00  0.00     0.099 C
HETATM   35  C15 UNL     1      54.667   4.016  10.663  1.00  0.00     0.027 C
HETATM   36  C16 UNL     1      54.545   5.048  11.793  1.00  0.00     0.035 C
HETATM   37  C17 UNL     1      54.832   6.381  11.137  1.00  0.00     0.183 C
HETATM   38  C18 UNL     1      56.156   6.411  10.444  1.00  0.00     0.035 C
HETATM   39  C19 UNL     1      56.916   5.140  10.437  1.00  0.00     0.027 C
BRANCH  37  40
HETATM   40  N6  UNL     1      54.650   7.432  12.112  1.00  0.00    -0.075 N
ATOM     41  H63 UNL     1      54.569   7.071  13.063  1.00  0.00     0.274 HD
ATOM     42  H62 UNL     1      55.493   7.992  12.243  1.00  0.00     0.274 HD
ATOM     43  H61 UNL     1      53.845   7.998  11.842  1.00  0.00     0.274 HD
ENDBRANCH  37  40
ENDBRANCH  32  34
ENDBRANCH  23  32
ENDBRANCH  13  18
ENDBRANCH   5   8
ENDBRANCH   1   4
BRANCH   1  44
HETATM   44  C25 UNL     1      56.423  -1.564   2.374  1.00  0.00     0.022 A
HETATM   45  C26 UNL     1      56.499  -0.482   1.308  1.00  0.00     0.008 A
HETATM   46  C27 UNL     1      55.649  -1.684   1.103  1.00  0.00     0.008 A
ENDBRANCH   1  44
TORSDOF 9
ENDMDL