MODEL 5
REMARK VINA RESULT: -7.108640275      1.693      2.899
REMARK  10 active torsions:
REMARK  status: ('A' for Active; 'I' for Inactive)
REMARK    1  A    between atoms: C2_2  and  C3_3
REMARK    2  A    between atoms: C2_2  and  C8_11
REMARK    3  A    between atoms: C3_3  and  N1_4
REMARK    4  A    between atoms: C10_13  and  C11_14
REMARK    5  A    between atoms: C11_14  and  O4_16
REMARK    6  A    between atoms: O4_16  and  C12_17
REMARK    7  A    between atoms: C18_23  and  C19_24
REMARK    8  A    between atoms: C19_24  and  O5_27
REMARK    9  A    between atoms: C25_32  and  O6_33
REMARK   10  A    between atoms: C28_37  and  O7_38
ROOT
HETATM    1  C12 UNL     1      58.096   2.330   7.663  1.00  0.00     0.097 C
HETATM    2  C13 UNL     1      58.292   0.852   7.710  1.00  0.00    -0.041 C
HETATM    3  C14 UNL     1      59.563   0.427   8.401  1.00  0.00     0.047 C
HETATM    4  C15 UNL     1      57.956   0.178   6.460  1.00  0.00    -0.004 C
HETATM    5  C16 UNL     1      58.454  -1.225   6.252  1.00  0.00     0.015 C
HETATM    6  C17 UNL     1      59.748  -0.986   5.524  1.00  0.00     0.009 C
HETATM    7  C18 UNL     1      59.310   0.123   4.552  1.00  0.00     0.032 C
HETATM    8  C22 UNL     1      58.181   0.853   5.150  1.00  0.00     0.012 C
HETATM    9  C23 UNL     1      56.776   0.370   4.791  1.00  0.00     0.015 C
HETATM   10  C24 UNL     1      56.433   0.140   6.264  1.00  0.00     0.016 C
HETATM   11  C25 UNL     1      58.181   2.340   5.170  1.00  0.00     0.104 C
HETATM   12  C26 UNL     1      59.353   3.083   4.591  1.00  0.00     0.046 C
HETATM   13  C27 UNL     1      59.919   3.131   6.001  1.00  0.00     0.051 C
HETATM   14  C28 UNL     1      58.521   3.028   6.442  1.00  0.00     0.138 C
ENDROOT
BRANCH   1  15
HETATM   15  O4  UNL     1      58.312   2.985   8.866  1.00  0.00    -0.279 OA
BRANCH  15  16
HETATM   16  C11 UNL     1      57.520   3.094   9.950  1.00  0.00     0.270 C
HETATM   17  O3  UNL     1      57.297   2.060  10.592  1.00  0.00    -0.264 OA
BRANCH  16  18
HETATM   18  C10 UNL     1      56.895   4.353  10.434  1.00  0.00     0.112 C
HETATM   19  C9  UNL     1      55.414   4.395  10.147  1.00  0.00     0.049 C
HETATM   20  C8  UNL     1      55.226   5.883   9.956  1.00  0.00     0.127 C
HETATM   21  O8  UNL     1      56.317   6.247   9.169  1.00  0.00    -0.385 OA
HETATM   22  C29 UNL     1      57.406   5.516   9.618  1.00  0.00     0.183 C
BRANCH  20  23
HETATM   23  C2  UNL     1      55.309   6.671  11.243  1.00  0.00     0.029 C
HETATM   24  C1  UNL     1      55.395   8.144  10.814  1.00  0.00     0.014 C
BRANCH  23  25
HETATM   25  C3  UNL     1      54.084   6.502  12.086  1.00  0.00     0.142 C
BRANCH  25  26
HETATM   26  N1  UNL     1      54.308   5.833  13.336  1.00  0.00    -0.281 N
HETATM   27  C4  UNL     1      54.285   4.396  13.475  1.00  0.00     0.250 A
HETATM   28  O1  UNL     1      54.081   3.553  12.558  1.00  0.00    -0.268 OA
HETATM   29  C5  UNL     1      54.543   4.102  14.877  1.00  0.00     0.080 A
HETATM   30  C6  UNL     1      54.711   5.202  15.563  1.00  0.00     0.080 A
HETATM   31  C7  UNL     1      54.572   6.322  14.627  1.00  0.00     0.250 A
HETATM   32  O2  UNL     1      54.669   7.551  14.920  1.00  0.00    -0.268 OA
ENDBRANCH  25  26
ENDBRANCH  23  25
ENDBRANCH  20  23
ENDBRANCH  16  18
ENDBRANCH  15  16
ENDBRANCH   1  15
BRANCH  14  33
HETATM   33  O7  UNL     1      57.974   4.344   6.481  1.00  0.00    -0.380 OA
ATOM     34  H7  UNL     1      57.996   4.693   5.598  1.00  0.00     0.211 HD
ENDBRANCH  14  33
BRANCH  11  35
HETATM   35  O6  UNL     1      56.998   2.919   4.632  1.00  0.00    -0.385 OA
ATOM     36  H6  UNL     1      56.437   3.319   5.287  1.00  0.00     0.210 HD
ENDBRANCH  11  35
BRANCH   7  37
HETATM   37  C19 UNL     1      59.226  -0.485   3.221  1.00  0.00     0.055 C
HETATM   38  C20 UNL     1      60.625  -1.062   2.912  1.00  0.00     0.045 C
HETATM   39  C21 UNL     1      58.866   0.351   2.065  1.00  0.00     0.045 C
BRANCH  37  40
HETATM   40  O5  UNL     1      58.424  -1.655   3.154  1.00  0.00    -0.390 OA
ATOM     41  H5  UNL     1      57.934  -1.753   2.346  1.00  0.00     0.210 HD
ENDBRANCH  37  40
ENDBRANCH   7  37
TORSDOF 10
ENDMDL