MODEL 2
REMARK VINA RESULT: -6.247295036      1.789      4.379
REMARK  13 active torsions:
REMARK  status: ('A' for Active; 'I' for Inactive)
REMARK    1  A    between atoms: C2_2  and  C3_3
REMARK    2  A    between atoms: C3_3  and  C4_4
REMARK    3  A    between atoms: C4_4  and  O1_5
REMARK    4  A    between atoms: O1_5  and  C5_6
REMARK    5  A    between atoms: C6_7  and  C7_8
REMARK       I    between atoms: C7_8  and  N1_10
REMARK    6  A    between atoms: N1_10  and  C8_12
REMARK    7  A    between atoms: C20_26  and  O4_27
REMARK    8  A    between atoms: O4_27  and  C21_28
REMARK       I    between atoms: C21_28  and  N3_30
REMARK    9  A    between atoms: N3_30  and  C22_32
REMARK   10  A    between atoms: C22_32  and  O6_33
REMARK   11  A    between atoms: C22_32  and  C23_35
REMARK   12  A    between atoms: C23_35  and  O7_36
REMARK   13  A    between atoms: O7_36  and  C24_37
ROOT
HETATM    1  C5  UNL     1      60.190   2.689   4.928  1.00  0.00     0.197 C
HETATM    2  C6  UNL     1      59.892   1.682   3.791  1.00  0.00     0.205 C
HETATM    3  N2  UNL     1      59.515   0.498   4.439  1.00  0.00    -0.394 N
HETATM    4  C12 UNL     1      60.334  -0.614   4.467  1.00  0.00     0.144 C
HETATM    5  C13 UNL     1      58.780   0.930   5.557  1.00  0.00     0.128 C
HETATM    6  C14 UNL     1      58.367  -0.095   6.536  1.00  0.00     0.077 C
HETATM    7  C15 UNL     1      57.044   0.291   7.171  1.00  0.00     0.020 C
HETATM    8  C16 UNL     1      59.411  -0.351   7.518  1.00  0.00     0.133 C
HETATM    9  O3  UNL     1      59.833  -1.454   7.751  1.00  0.00    -0.297 OA
HETATM   10  C17 UNL     1      59.929   0.820   8.217  1.00  0.00     0.086 C
HETATM   11  C18 UNL     1      60.278   1.968   7.320  1.00  0.00     0.028 C
HETATM   12  C19 UNL     1      61.764   1.919   7.074  1.00  0.00     0.014 C
HETATM   13  C20 UNL     1      59.418   2.205   6.119  1.00  0.00     0.126 C
ENDROOT
BRANCH  13  14
HETATM   14  O4  UNL     1      58.308   2.965   6.495  1.00  0.00    -0.287 OA
BRANCH  14  15
HETATM   15  C21 UNL     1      58.126   3.988   7.339  1.00  0.00     0.363 C
HETATM   16  O5  UNL     1      58.422   5.132   6.910  1.00  0.00    -0.238 OA
HETATM   17  N3  UNL     1      57.616   3.832   8.686  1.00  0.00    -0.308 N
ATOM     18  H3  UNL     1      57.382   2.895   9.013  1.00  0.00     0.167 HD
BRANCH  17  19
HETATM   19  C22 UNL     1      57.428   4.930   9.570  1.00  0.00     0.246 C
BRANCH  19  20
HETATM   20  O6  UNL     1      56.454   5.784   9.013  1.00  0.00    -0.374 OA
ATOM     21  H6  UNL     1      55.649   5.679   9.507  1.00  0.00     0.212 HD
ENDBRANCH  19  20
BRANCH  19  22
HETATM   22  C23 UNL     1      56.802   4.383  10.857  1.00  0.00     0.222 C
BRANCH  22  23
HETATM   23  O7  UNL     1      56.069   5.393  11.482  1.00  0.00    -0.377 OA
BRANCH  23  24
HETATM   24  C24 UNL     1      54.815   4.951  11.849  1.00  0.00     0.050 C
HETATM   25  C25 UNL     1      54.392   3.758  11.023  1.00  0.00     0.045 C
HETATM   26  C26 UNL     1      53.844   6.093  11.600  1.00  0.00     0.045 C
HETATM   27  C27 UNL     1      54.719   4.592  13.306  1.00  0.00     0.045 C
ENDBRANCH  23  24
ENDBRANCH  22  23
ENDBRANCH  19  22
ENDBRANCH  17  19
ENDBRANCH  14  15
ENDBRANCH  13  14
BRANCH   1  28
HETATM   28  O1  UNL     1      59.889   3.888   4.383  1.00  0.00    -0.352 OA
BRANCH  28  29
HETATM   29  C4  UNL     1      60.779   4.896   4.433  1.00  0.00     0.135 C
BRANCH  29  30
HETATM   30  C3  UNL     1      60.455   6.221   3.951  1.00  0.00     0.020 C
BRANCH  30  31
HETATM   31  C2  UNL     1      60.540   7.323   4.722  1.00  0.00    -0.029 C
HETATM   32  C1  UNL     1      61.854   7.951   5.023  1.00  0.00     0.036 C
ENDBRANCH  30  31
ENDBRANCH  29  30
ENDBRANCH  28  29
ENDBRANCH   1  28
BRANCH   2  33
HETATM   33  C7  UNL     1      58.814   2.111   2.888  1.00  0.00     0.243 C
HETATM   34  O2  UNL     1      57.616   1.694   2.934  1.00  0.00    -0.271 OA
HETATM   35  N1  UNL     1      59.035   3.078   1.838  1.00  0.00    -0.351 N
ATOM     36  H1  UNL     1      59.973   3.465   1.736  1.00  0.00     0.163 HD
BRANCH  35  37
HETATM   37  C8  UNL     1      58.027   3.527   0.932  1.00  0.00     0.022 C
HETATM   38  C9  UNL     1      56.852   4.177   1.642  1.00  0.00     0.037 C
HETATM   39  C10 UNL     1      58.570   4.587  -0.037  1.00  0.00     0.037 C
HETATM   40  C11 UNL     1      57.577   2.359   0.084  1.00  0.00     0.037 C
ENDBRANCH  35  37
ENDBRANCH   2  33
TORSDOF 13
ENDMDL