MODEL 4
REMARK VINA RESULT: -6.498038254      1.279      1.652
REMARK  11 active torsions:
REMARK  status: ('A' for Active; 'I' for Inactive)
REMARK    1  A    between atoms: C2_2  and  C3_3
REMARK    2  A    between atoms: C4_4  and  C5_5
REMARK    3  A    between atoms: N1_6  and  C6_8
REMARK    4  A    between atoms: C6_8  and  O1_9
REMARK    5  A    between atoms: C6_8  and  C7_11
REMARK    6  A    between atoms: C7_11  and  C9_13
REMARK    7  A    between atoms: C13_18  and  N2_19
REMARK       I    between atoms: N2_19  and  C14_21
REMARK    8  A    between atoms: C14_21  and  O4_23
REMARK    9  A    between atoms: O4_23  and  C15_24
REMARK   10  A    between atoms: C23_33  and  O6_34
REMARK   11  A    between atoms: C25_38  and  N3_39
ROOT
HETATM    1  C3  UNL     1      58.256   1.320   6.505  1.00  0.00     0.014 C
HETATM    2  C4  UNL     1      57.667   2.539   7.142  1.00  0.00     0.108 C
HETATM    3  C12 UNL     1      58.193   3.295   5.995  1.00  0.00     0.166 C
HETATM    4  O2  UNL     1      58.262   4.458   5.688  1.00  0.00    -0.294 OA
HETATM    5  C13 UNL     1      58.666   2.021   5.252  1.00  0.00     0.111 C
HETATM    6  C19 UNL     1      57.635   1.761   4.188  1.00  0.00     0.064 C
HETATM    7  C20 UNL     1      56.485   1.267   5.033  1.00  0.00     0.018 C
HETATM    8  C21 UNL     1      57.156   0.339   5.984  1.00  0.00     0.034 C
HETATM    9  C22 UNL     1      57.883  -0.783   5.386  1.00  0.00     0.201 A
HETATM   10  O5  UNL     1      57.678  -2.043   5.096  1.00  0.00    -0.335 OA
HETATM   11  C23 UNL     1      56.888  -1.281   4.307  1.00  0.00     0.255 A
HETATM   12  C24 UNL     1      57.166  -0.449   3.170  1.00  0.00     0.225 C
HETATM   13  O7  UNL     1      56.708  -0.789   2.112  1.00  0.00    -0.289 OA
HETATM   14  C25 UNL     1      57.970   0.838   3.073  1.00  0.00     0.303 C
ENDROOT
BRANCH   2  15
HETATM   15  C5  UNL     1      58.256   2.958   8.444  1.00  0.00     0.071 C
HETATM   16  N1  UNL     1      57.891   3.959   9.118  1.00  0.00    -0.376 N
ATOM     17  H1  UNL     1      58.392   4.116   9.992  1.00  0.00     0.161 HD
BRANCH  16  18
HETATM   18  C6  UNL     1      56.877   4.887   8.813  1.00  0.00     0.221 C
BRANCH  18  19
HETATM   19  O1  UNL     1      57.325   5.896   7.935  1.00  0.00    -0.377 OA
ATOM     20  H1  UNL     1      56.894   6.728   8.094  1.00  0.00     0.212 HD
ENDBRANCH  18  19
BRANCH  18  21
HETATM   21  C7  UNL     1      56.362   5.578  10.035  1.00  0.00     0.033 C
HETATM   22  C8  UNL     1      57.311   5.461  11.210  1.00  0.00     0.015 C
BRANCH  21  23
HETATM   23  C9  UNL     1      54.974   5.127  10.382  1.00  0.00    -0.015 C
HETATM   24  C10 UNL     1      54.863   3.714  10.854  1.00  0.00     0.010 C
HETATM   25  C11 UNL     1      54.342   6.079  11.401  1.00  0.00     0.010 C
ENDBRANCH  21  23
ENDBRANCH  18  21
ENDBRANCH  16  18
ENDBRANCH   2  15
BRANCH   1  26
HETATM   26  C2  UNL     1      59.273   0.581   7.304  1.00  0.00     0.009 C
HETATM   27  C1  UNL     1      58.608  -0.216   8.427  1.00  0.00     0.006 C
ENDBRANCH   1  26
BRANCH   5  28
HETATM   28  N2  UNL     1      60.000   2.141   4.831  1.00  0.00    -0.319 N
HETATM   29  C14 UNL     1      60.874   1.143   4.364  1.00  0.00     0.362 C
HETATM   30  O3  UNL     1      60.576  -0.044   4.270  1.00  0.00    -0.238 OA
ATOM     31  H2  UNL     1      60.389   3.083   4.868  1.00  0.00     0.166 HD
BRANCH  29  32
HETATM   32  O4  UNL     1      62.192   1.451   3.961  1.00  0.00    -0.294 OA
BRANCH  32  33
HETATM   33  C15 UNL     1      63.207   1.728   4.895  1.00  0.00     0.061 C
HETATM   34  C16 UNL     1      64.493   1.146   4.350  1.00  0.00     0.046 C
HETATM   35  C17 UNL     1      62.947   1.092   6.237  1.00  0.00     0.046 C
HETATM   36  C18 UNL     1      63.431   3.199   5.107  1.00  0.00     0.046 C
ENDBRANCH  32  33
ENDBRANCH  29  32
ENDBRANCH   5  28
BRANCH  14  37
HETATM   37  N3  UNL     1      57.850   1.444   1.768  1.00  0.00     0.092 N
HETATM   38  C26 UNL     1      57.204   2.721   1.846  1.00  0.00     0.310 C
HETATM   39  C27 UNL     1      59.088   1.474   1.041  1.00  0.00     0.310 C
ENDBRANCH  14  37
BRANCH  11  40
HETATM   40  O6  UNL     1      55.573  -1.556   4.700  1.00  0.00    -0.357 OA
ATOM     41  H6  UNL     1      55.237  -2.432   4.552  1.00  0.00     0.213 HD
ENDBRANCH  11  40
TORSDOF 11
ENDMDL