MODEL 2
REMARK VINA RESULT: -6.737560493      1.720      4.863
REMARK  11 active torsions:
REMARK  status: ('A' for Active; 'I' for Inactive)
REMARK    1  A    between atoms: C3_3  and  C4_4
REMARK    2  A    between atoms: C4_4  and  O1_5
REMARK    3  A    between atoms: C4_4  and  C10_15
REMARK    4  A    between atoms: O1_5  and  C5_6
REMARK       I    between atoms: C5_6  and  N1_8
REMARK    5  A    between atoms: N1_8  and  C6_10
REMARK    6  A    between atoms: C6_10  and  C7_11
REMARK    7  A    between atoms: C7_11  and  N2_12
REMARK    8  A    between atoms: C10_15  and  O3_16
REMARK    9  A    between atoms: C17_25  and  O5_26
REMARK   10  A    between atoms: O5_26  and  C18_27
REMARK   11  A    between atoms: C21_31  and  O7_32
ROOT
HETATM    1  C1  UNL     1      58.379  -0.413  11.123  1.00  0.00     0.012 C
HETATM    2  C2  UNL     1      58.088  -0.253   9.971  1.00  0.00    -0.115 C
HETATM    3  C3  UNL     1      57.708  -0.056   8.607  1.00  0.00     0.129 C
ENDROOT
BRANCH   3   4
HETATM    4  C4  UNL     1      58.337   1.086   7.866  1.00  0.00     0.183 C
BRANCH   4   5
HETATM    5  O1  UNL     1      58.557   2.224   8.608  1.00  0.00    -0.294 OA
BRANCH   5   6
HETATM    6  C5  UNL     1      57.802   3.352   8.710  1.00  0.00     0.361 C
HETATM    7  O2  UNL     1      57.768   4.042   7.695  1.00  0.00    -0.239 OA
HETATM    8  N1  UNL     1      57.092   3.755   9.861  1.00  0.00    -0.335 N
ATOM      9  H1  UNL     1      57.146   3.152  10.682  1.00  0.00     0.164 HD
BRANCH   8  10
HETATM   10  C6  UNL     1      56.296   4.951   9.968  1.00  0.00     0.155 C
BRANCH  10  11
HETATM   11  C7  UNL     1      54.928   4.703  10.550  1.00  0.00     0.291 C
BRANCH  11  12
HETATM   12  N2  UNL     1      54.400   5.870  11.215  1.00  0.00     0.081 N
HETATM   13  C8  UNL     1      55.214   7.049  11.011  1.00  0.00     0.309 C
HETATM   14  C9  UNL     1      54.131   5.644  12.612  1.00  0.00     0.309 C
ENDBRANCH  11  12
ENDBRANCH  10  11
ENDBRANCH   8  10
ENDBRANCH   5   6
ENDBRANCH   4   5
BRANCH   4  15
HETATM   15  C10 UNL     1      59.289   0.783   6.782  1.00  0.00     0.116 C
HETATM   16  C11 UNL     1      60.551   1.508   7.100  1.00  0.00     0.086 C
HETATM   17  C12 UNL     1      61.755   1.348   6.276  1.00  0.00     0.091 A
HETATM   18  C13 UNL     1      62.908   0.436   6.756  1.00  0.00     0.049 C
HETATM   19  O4  UNL     1      62.417   2.713   6.167  1.00  0.00    -0.365 OA
HETATM   20  C14 UNL     1      61.985   2.033   5.072  1.00  0.00     0.188 A
HETATM   21  C15 UNL     1      60.850   2.634   4.352  1.00  0.00    -0.024 C
HETATM   22  C16 UNL     1      61.113   2.844   3.067  1.00  0.00     0.020 C
HETATM   23  C17 UNL     1      59.471   3.068   4.676  1.00  0.00     0.195 C
HETATM   24  C20 UNL     1      58.593   1.854   4.501  1.00  0.00    -0.008 C
HETATM   25  C21 UNL     1      57.196   2.221   4.152  1.00  0.00     0.156 C
HETATM   26  C29 UNL     1      58.879   0.705   5.365  1.00  0.00    -0.011 C
HETATM   27  C22 UNL     1      56.225   1.124   4.041  1.00  0.00     0.035 C
HETATM   28  C23 UNL     1      56.226   0.278   2.813  1.00  0.00     0.042 C
HETATM   29  C26 UNL     1      56.544  -0.108   4.810  1.00  0.00     0.050 C
HETATM   30  C24 UNL     1      55.842  -0.863   3.728  1.00  0.00    -0.080 C
HETATM   31  C25 UNL     1      55.171  -1.996   3.560  1.00  0.00     0.015 C
HETATM   32  C27 UNL     1      58.022  -0.402   4.905  1.00  0.00    -0.065 C
HETATM   33  C28 UNL     1      58.166  -1.765   5.448  1.00  0.00     0.044 C
BRANCH  15  34
HETATM   34  O3  UNL     1      59.707  -0.609   6.986  1.00  0.00    -0.382 OA
ATOM     35  H3  UNL     1      60.334  -0.798   6.298  1.00  0.00     0.211 HD
ENDBRANCH  15  34
BRANCH  23  36
HETATM   36  O5  UNL     1      59.097   4.020   3.690  1.00  0.00    -0.307 OA
BRANCH  36  37
HETATM   37  C18 UNL     1      58.877   5.362   3.977  1.00  0.00     0.255 C
HETATM   38  C19 UNL     1      59.852   6.170   4.732  1.00  0.00     0.126 C
HETATM   39  O6  UNL     1      57.792   5.895   3.567  1.00  0.00    -0.266 OA
ENDBRANCH  36  37
ENDBRANCH  23  36
BRANCH  25  40
HETATM   40  O7  UNL     1      57.236   2.819   2.856  1.00  0.00    -0.391 OA
ATOM     41  H7  UNL     1      56.372   3.178   2.691  1.00  0.00     0.210 HD
ENDBRANCH  25  40
ENDBRANCH   4  15
ENDBRANCH   3   4
TORSDOF 11
ENDMDL