MODEL 1
REMARK VINA RESULT: -4.719771454      0.000      0.000
REMARK  1 active torsions:
REMARK  status: ('A' for Active; 'I' for Inactive)
REMARK    1  A    between atoms: N1_2  and  C2_4
ROOT
HETATM    1  C2  UNL     1     133.728   5.340  68.931  1.00  0.00     0.096 C
HETATM    2  C3  UNL     1     132.845   5.863  67.855  1.00  0.00     0.049 C
HETATM    3  C4  UNL     1     131.526   5.123  67.790  1.00  0.00     0.047 C
HETATM    4  C5  UNL     1     131.730   3.636  67.824  1.00  0.00     0.058 C
HETATM    5  N2  UNL     1     132.616   3.147  68.774  1.00  0.00    -0.389 N
HETATM    6  C6  UNL     1     132.276   2.026  69.544  1.00  0.00     0.149 C
HETATM    7  C7  UNL     1     133.769   3.868  69.109  1.00  0.00     0.130 C
HETATM    8  C8  UNL     1     134.953   3.512  68.218  1.00  0.00     0.105 C
HETATM    9  S1  UNL     1     135.439   5.229  68.270  1.00  0.00    -0.134 SA
ENDROOT
BRANCH   1  10
HETATM   10  N1  UNL     1     133.648   6.079  70.149  1.00  0.00    -0.407 N
HETATM   11  C1  UNL     1     134.484   5.662  71.214  1.00  0.00     0.141 C
ATOM     12  H1  UNL     1     133.016   6.874  70.248  1.00  0.00     0.154 HD
ENDBRANCH   1  10
TORSDOF 1
ENDMDL