MODEL 4
REMARK VINA RESULT: -4.590795487     14.954     15.501
REMARK  1 active torsions:
REMARK  status: ('A' for Active; 'I' for Inactive)
REMARK    1  A    between atoms: N1_3  and  C2_5
ROOT
HETATM    1  S1  UNL     1     132.126   6.039  67.443  1.00  0.00    -0.075 SA
HETATM    2  C1  UNL     1     133.216   5.667  68.543  1.00  0.00     0.166 C
HETATM    3  N1  UNL     1     134.203   5.513  69.308  1.00  0.00    -0.384 N
ATOM      4  H1  UNL     1     134.648   6.339  69.707  1.00  0.00     0.160 HD
ENDROOT
BRANCH   3   5
HETATM    5  C2  UNL     1     134.733   4.199  69.649  1.00  0.00     0.109 C
HETATM    6  C3  UNL     1     134.732   4.153  71.182  1.00  0.00     0.258 C
HETATM    7  N2  UNL     1     133.414   3.550  71.411  1.00  0.00    -0.064 N
HETATM    8  C4  UNL     1     133.446   2.440  70.504  1.00  0.00     0.128 A
ATOM      9  H22 UNL     1     133.206   3.314  72.381  1.00  0.00     0.278 HD
ATOM     10  H21 UNL     1     132.621   4.182  71.298  1.00  0.00     0.278 HD
HETATM   11  C5  UNL     1     132.280   1.526  70.485  1.00  0.00     0.039 A
HETATM   12  C7  UNL     1     134.368   1.366  70.999  1.00  0.00     0.039 A
HETATM   13  C8  UNL     1     133.829   3.090  69.198  1.00  0.00     0.065 C
HETATM   14  C6  UNL     1     133.196   0.407  70.962  1.00  0.00     0.005 A
ENDBRANCH   3   5
TORSDOF 1
ENDMDL