MODEL 2
REMARK VINA RESULT: -4.155294730      3.733      5.271
REMARK  3 active torsions:
REMARK  status: ('A' for Active; 'I' for Inactive)
REMARK    1  A    between atoms: C3_3  and  S1_4
REMARK    2  A    between atoms: S1_4  and  S2_5
REMARK    3  A    between atoms: S2_5  and  C4_6
ROOT
HETATM    1  C1  UNL     1     131.529   0.425  69.392  1.00  0.00     0.113 C
HETATM    2  C2  UNL     1     132.085   1.738  69.070  1.00  0.00    -0.098 C
HETATM    3  C3  UNL     1     132.524   2.831  68.809  1.00  0.00    -0.023 C
ENDROOT
BRANCH   3   4
HETATM    4  S1  UNL     1     133.140   4.442  68.434  1.00  0.00    -0.005 SA
BRANCH   4   5
HETATM    5  S2  UNL     1     131.638   5.633  67.549  1.00  0.00    -0.077 SA
BRANCH   5   6
HETATM    6  C4  UNL     1     130.131   4.707  67.223  1.00  0.00     0.086 C
HETATM    7  C5  UNL     1     130.059   4.411  65.744  1.00  0.00     0.045 C
HETATM    8  C6  UNL     1     128.900   5.287  65.257  1.00  0.00     0.233 C
HETATM    9  N1  UNL     1     127.986   5.162  66.389  1.00  0.00    -0.074 N
HETATM   10  C7  UNL     1     128.881   5.460  67.507  1.00  0.00     0.248 C
ATOM     11  H12 UNL     1     127.144   5.735  66.338  1.00  0.00     0.277 HD
ATOM     12  H11 UNL     1     127.486   4.276  66.453  1.00  0.00     0.277 HD
ENDBRANCH   5   6
ENDBRANCH   4   5
ENDBRANCH   3   4
TORSDOF 3
ENDMDL