MODEL 2
REMARK VINA RESULT: -5.410045618     10.877     12.218
REMARK  1 active torsions:
REMARK  status: ('A' for Active; 'I' for Inactive)
REMARK    1  A    between atoms: N2_3  and  C2_5
ROOT
HETATM    1  N1  UNL     1     119.293  12.019  71.565  1.00  0.00    -0.172 NA
HETATM    2  C1  UNL     1     120.086  12.551  70.912  1.00  0.00     0.178 C
HETATM    3  N2  UNL     1     121.052  13.220  70.128  1.00  0.00    -0.319 N
ATOM      4  H2  UNL     1     120.775  13.753  69.303  1.00  0.00     0.172 HD
ENDROOT
BRANCH   3   5
HETATM    5  C2  UNL     1     122.423  13.135  70.512  1.00  0.00     0.044 C
HETATM    6  C3  UNL     1     122.879  11.729  70.807  1.00  0.00     0.036 C
HETATM    7  C4  UNL     1     124.333  11.779  71.173  1.00  0.00    -0.007 C
HETATM    8  C5  UNL     1     125.197  12.343  70.057  1.00  0.00     0.037 C
HETATM    9  C9  UNL     1     124.601  12.631  72.386  1.00  0.00     0.037 C
HETATM   10  C6  UNL     1     124.688  13.763  69.808  1.00  0.00     0.124 C
HETATM   11  C7  UNL     1     123.264  13.646  69.365  1.00  0.00     0.063 C
HETATM   12  O1  UNL     1     124.865  14.498  70.959  1.00  0.00    -0.380 OA
HETATM   13  C8  UNL     1     124.152  14.043  72.045  1.00  0.00     0.124 C
HETATM   14  C10 UNL     1     122.696  13.980  71.704  1.00  0.00     0.063 C
ENDBRANCH   3   5
TORSDOF 1
ENDMDL