MODEL 4
REMARK VINA RESULT: -4.912287434      2.407      4.054
REMARK  2 active torsions:
REMARK  status: ('A' for Active; 'I' for Inactive)
REMARK    1  A    between atoms: C2_2  and  C3_3
REMARK    2  A    between atoms: C9_10  and  O2_11
ROOT
HETATM    1  C3  UNL     1     130.820   5.029  67.378  1.00  0.00     0.182 C
HETATM    2  C4  UNL     1     129.457   5.417  67.915  1.00  0.00     0.084 C
HETATM    3  O1  UNL     1     131.753   5.531  68.273  1.00  0.00    -0.346 OA
HETATM    4  C5  UNL     1     133.013   4.994  68.121  1.00  0.00     0.130 C
HETATM    5  C6  UNL     1     133.908   5.648  69.163  1.00  0.00     0.040 C
HETATM    6  C7  UNL     1     132.995   3.518  68.424  1.00  0.00     0.065 C
HETATM    7  C8  UNL     1     133.367   3.224  69.864  1.00  0.00     0.017 C
HETATM    8  C9  UNL     1     131.583   3.011  68.220  1.00  0.00     0.267 C
HETATM    9  O3  UNL     1     130.931   3.660  67.188  1.00  0.00    -0.322 OA
ENDROOT
BRANCH   1  10
HETATM   10  C2  UNL     1     130.940   5.657  66.032  1.00  0.00     0.030 C
HETATM   11  C1  UNL     1     130.177   5.199  65.057  1.00  0.00     0.012 C
ENDBRANCH   1  10
BRANCH   8  12
HETATM   12  O2  UNL     1     131.686   1.664  67.869  1.00  0.00    -0.371 OA
ATOM     13  H2  UNL     1     131.608   1.164  68.672  1.00  0.00     0.212 HD
ENDBRANCH   8  12
TORSDOF 2
ENDMDL