MODEL 4
REMARK VINA RESULT: -4.541183626     11.516     13.145
REMARK  1 active torsions:
REMARK  status: ('A' for Active; 'I' for Inactive)
REMARK    1  A    between atoms: C5_5  and  C7_7
ROOT
HETATM    1  C1  UNL     1     122.211  13.263  69.048  1.00  0.00     0.049 C
HETATM    2  C2  UNL     1     122.331  12.988  70.531  1.00  0.00     0.092 C
HETATM    3  C3  UNL     1     121.024  13.166  71.255  1.00  0.00     0.049 C
HETATM    4  C4  UNL     1     122.921  11.595  70.788  1.00  0.00     0.083 C
HETATM    5  C5  UNL     1     124.358  11.988  71.131  1.00  0.00     0.123 C
HETATM    6  C6  UNL     1     125.364  11.043  70.577  1.00  0.00     0.051 C
HETATM    7  O1  UNL     1     124.421  13.244  70.505  1.00  0.00    -0.227 OA
HETATM    8  O2  UNL     1     123.337  13.819  71.034  1.00  0.00    -0.230 OA
ENDROOT
BRANCH   5   9
HETATM    9  C7  UNL     1     124.512  12.231  72.611  1.00  0.00     0.224 C
HETATM   10  C8  UNL     1     125.598  11.321  73.166  1.00  0.00     0.063 C
HETATM   11  C9  UNL     1     124.678  11.298  74.388  1.00  0.00     0.235 C
HETATM   12  N1  UNL     1     123.585  11.551  73.466  1.00  0.00    -0.068 N
ATOM     13  H12 UNL     1     122.733  12.015  73.783  1.00  0.00     0.277 HD
ATOM     14  H11 UNL     1     123.017  10.782  73.109  1.00  0.00     0.277 HD
ENDBRANCH   5   9
TORSDOF 1
ENDMDL