MODEL 2
REMARK VINA RESULT: -4.272042506     13.532     14.398
REMARK  2 active torsions:
REMARK  status: ('A' for Active; 'I' for Inactive)
REMARK    1  A    between atoms: C2_2  and  S1_5
REMARK    2  A    between atoms: S1_5  and  C5_6
ROOT
HETATM    1  C5  UNL     1     122.309  12.343  71.468  1.00  0.00     0.089 C
HETATM    2  C6  UNL     1     121.358  11.676  70.505  1.00  0.00     0.133 C
HETATM    3  N1  UNL     1     120.043  11.597  71.070  1.00  0.00    -0.400 N
ATOM      4  H1  UNL     1     119.483  10.746  71.038  1.00  0.00     0.155 HD
HETATM    5  C7  UNL     1     119.575  12.805  71.682  1.00  0.00     0.285 C
HETATM    6  O1  UNL     1     120.511  13.463  72.449  1.00  0.00    -0.371 OA
HETATM    7  C8  UNL     1     121.709  13.703  71.807  1.00  0.00     0.186 C
ENDROOT
BRANCH   1   8
HETATM    8  S1  UNL     1     123.909  12.614  70.701  1.00  0.00    -0.152 SA
BRANCH   8   9
HETATM    9  C2  UNL     1     125.269  11.798  71.535  1.00  0.00    -0.003 C
HETATM   10  C1  UNL     1     125.660  10.580  70.706  1.00  0.00     0.026 C
HETATM   11  C3  UNL     1     126.501  12.640  71.674  1.00  0.00     0.026 C
HETATM   12  C4  UNL     1     124.804  11.379  72.921  1.00  0.00     0.026 C
ENDBRANCH   8   9
ENDBRANCH   1   8
TORSDOF 2
ENDMDL