MODEL 5
REMARK VINA RESULT: -4.634312075      1.906      3.848
REMARK  2 active torsions:
REMARK  status: ('A' for Active; 'I' for Inactive)
REMARK    1  A    between atoms: C2_2  and  C3_3
REMARK    2  A    between atoms: C3_3  and  O1_4
ROOT
HETATM    1  C3  UNL     1     122.108  13.147  70.763  1.00  0.00     0.069 C
HETATM    2  C4  UNL     1     122.703  13.527  69.441  1.00  0.00     0.076 C
HETATM    3  C5  UNL     1     124.178  13.622  69.605  1.00  0.00     0.196 C
HETATM    4  O2  UNL     1     124.871  12.458  69.858  1.00  0.00    -0.232 OA
HETATM    5  O3  UNL     1     125.408  12.796  71.033  1.00  0.00    -0.232 OA
HETATM    6  C6  UNL     1     124.418  13.803  71.077  1.00  0.00     0.203 C
HETATM    7  C7  UNL     1     123.190  13.238  71.765  1.00  0.00     0.015 C
HETATM    8  C8  UNL     1     122.790  14.278  72.816  1.00  0.00     0.021 C
HETATM    9  C9  UNL     1     123.506  11.977  72.500  1.00  0.00     0.021 C
ENDROOT
BRANCH   1  10
HETATM   10  C2  UNL     1     121.474  11.784  70.621  1.00  0.00     0.034 C
HETATM   11  C1  UNL     1     120.070  11.708  71.133  1.00  0.00     0.008 C
ENDBRANCH   1  10
BRANCH   1  12
HETATM   12  O1  UNL     1     121.041  14.027  71.068  1.00  0.00    -0.389 OA
ATOM     13  H1  UNL     1     120.695  14.304  70.228  1.00  0.00     0.210 HD
ENDBRANCH   1  12
TORSDOF 2
ENDMDL