MODEL 3
REMARK VINA RESULT: -4.840493114      9.748     11.566
REMARK  3 active torsions:
REMARK  status: ('A' for Active; 'I' for Inactive)
REMARK    1  A    between atoms: O1_2  and  C2_3
REMARK    2  A    between atoms: C2_3  and  O2_4
REMARK    3  A    between atoms: C4_7  and  C5_8
ROOT
HETATM    1  C2  UNL     1     123.791  15.209  69.441  1.00  0.00     0.280 C
HETATM    2  C3  UNL     1     123.806  13.686  69.385  1.00  0.00     0.109 C
HETATM    3  C4  UNL     1     124.000  13.463  70.870  1.00  0.00     0.024 C
HETATM    4  C9  UNL     1     122.980  14.445  71.384  1.00  0.00     0.179 C
HETATM    5  O3  UNL     1     123.227  15.567  70.640  1.00  0.00    -0.333 OA
ENDROOT
BRANCH   1   6
HETATM    6  O1  UNL     1     125.145  15.569  69.490  1.00  0.00    -0.338 OA
HETATM    7  C1  UNL     1     125.329  16.930  69.288  1.00  0.00     0.208 C
ENDBRANCH   1   6
BRANCH   1   8
HETATM    8  O2  UNL     1     123.152  15.755  68.340  1.00  0.00    -0.343 OA
ATOM      9  H2  UNL     1     122.295  15.367  68.201  1.00  0.00     0.215 HD
ENDBRANCH   1   8
BRANCH   3  10
HETATM   10  C5  UNL     1     123.768  12.060  71.302  1.00  0.00    -0.045 C
HETATM   11  C6  UNL     1     123.552  11.941  72.782  1.00  0.00     0.015 C
HETATM   12  C7  UNL     1     124.823  11.102  70.843  1.00  0.00     0.015 C
HETATM   13  C8  UNL     1     122.455  11.615  70.637  1.00  0.00     0.015 C
ENDBRANCH   3  10
TORSDOF 3
ENDMDL