MODEL 1
REMARK VINA RESULT: -4.397760090      0.000      0.000
REMARK  1 active torsions:
REMARK  status: ('A' for Active; 'I' for Inactive)
REMARK    1  A    between atoms: C3_3  and  C4_4
ROOT
HETATM    1  C4  UNL     1     122.740  12.372  71.684  1.00  0.00     0.047 C
HETATM    2  C5  UNL     1     122.009  11.864  70.476  1.00  0.00     0.091 C
HETATM    3  C6  UNL     1     121.981  13.071  69.584  1.00  0.00     0.250 C
HETATM    4  N1  UNL     1     122.481  14.196  70.356  1.00  0.00    -0.060 N
ATOM      5  H11 UNL     1     122.060  15.089  70.101  1.00  0.00     0.278 HD
ATOM      6  H12 UNL     1     123.443  14.451  70.136  1.00  0.00     0.278 HD
HETATM    7  C7  UNL     1     122.279  13.832  71.726  1.00  0.00     0.263 C
HETATM    8  S1  UNL     1     120.489  13.668  72.123  1.00  0.00    -0.063 SA
HETATM    9  S2  UNL     1     120.302  11.726  71.170  1.00  0.00    -0.088 SA
ENDROOT
BRANCH   1  10
HETATM   10  C3  UNL     1     124.219  12.271  71.613  1.00  0.00    -0.006 A
HETATM   11  C1  UNL     1     124.879  11.322  72.567  1.00  0.00     0.005 A
HETATM   12  C2  UNL     1     124.959  11.132  71.080  1.00  0.00     0.005 A
ENDBRANCH   1  10
TORSDOF 1
ENDMDL