MODEL 2
REMARK VINA RESULT: -7.064840205      0.984      1.274
REMARK  15 active torsions:
REMARK  status: ('A' for Active; 'I' for Inactive)
REMARK    1  A    between atoms: C2_2  and  C3_3
REMARK    2  A    between atoms: C2_2  and  C34_43
REMARK    3  A    between atoms: C3_3  and  C4_4
REMARK    4  A    between atoms: C4_4  and  C5_5
REMARK    5  A    between atoms: C5_5  and  O1_6
REMARK    6  A    between atoms: C6_8  and  O2_9
REMARK    7  A    between atoms: O2_9  and  C7_10
REMARK    8  A    between atoms: C14_19  and  C16_21
REMARK    9  A    between atoms: C17_22  and  C18_23
REMARK   10  A    between atoms: C22_27  and  O5_28
REMARK   11  A    between atoms: C22_27  and  C23_30
REMARK   12  A    between atoms: C23_30  and  O7_32
REMARK   13  A    between atoms: C26_35  and  C28_37
REMARK   14  A    between atoms: C28_37  and  C29_38
REMARK   15  A    between atoms: C29_38  and  C30_39
ROOT
HETATM    1  C5  UNL     1      14.947   0.103  29.991  1.00  0.00     0.097 C
HETATM    2  C6  UNL     1      15.940  -1.067  30.350  1.00  0.00     0.182 C
HETATM    3  C9  UNL     1      16.991  -1.297  29.336  1.00  0.00     0.043 C
HETATM    4  C10 UNL     1      16.960  -2.743  28.796  1.00  0.00     0.026 C
HETATM    5  C11 UNL     1      18.406  -1.085  29.808  1.00  0.00     0.026 C
HETATM    6  C12 UNL     1      16.800  -0.444  28.136  1.00  0.00     0.138 C
HETATM    7  O4  UNL     1      17.730   0.195  27.622  1.00  0.00    -0.297 OA
HETATM    8  C13 UNL     1      15.433  -0.415  27.605  1.00  0.00     0.095 C
HETATM    9  C14 UNL     1      14.364  -0.221  28.688  1.00  0.00     0.014 C
HETATM   10  C15 UNL     1      13.488  -1.443  28.645  1.00  0.00     0.023 C
ENDROOT
BRANCH   9  11
HETATM   11  C16 UNL     1      13.480   0.842  28.057  1.00  0.00    -0.017 C
HETATM   12  C17 UNL     1      12.276   0.452  27.720  1.00  0.00    -0.020 C
BRANCH  12  13
HETATM   13  C18 UNL     1      11.121   1.064  27.116  1.00  0.00     0.044 C
HETATM   14  C19 UNL     1      10.402   2.159  27.754  1.00  0.00    -0.076 C
HETATM   15  C20 UNL     1      10.665   2.830  29.033  1.00  0.00     0.044 C
HETATM   16  C21 UNL     1       9.336   2.633  27.059  1.00  0.00     0.024 C
HETATM   17  C22 UNL     1       9.002   2.020  25.757  1.00  0.00     0.164 C
HETATM   18  C25 UNL     1       9.061   0.514  25.802  1.00  0.00     0.062 C
HETATM   19  C26 UNL     1      10.098   0.001  26.756  1.00  0.00    -0.030 C
HETATM   20  C27 UNL     1       9.446  -0.475  28.014  1.00  0.00     0.016 C
BRANCH  17  21
HETATM   21  O5  UNL     1       9.738   2.569  24.708  1.00  0.00    -0.375 OA
ATOM     22  H5  UNL     1      10.675   2.504  24.851  1.00  0.00     0.211 HD
ENDBRANCH  17  21
BRANCH  17  23
HETATM   23  C23 UNL     1       7.566   2.379  25.473  1.00  0.00     0.297 C
HETATM   24  O6  UNL     1       6.746   2.631  26.386  1.00  0.00    -0.261 OA
BRANCH  23  25
HETATM   25  O7  UNL     1       7.094   2.444  24.168  1.00  0.00    -0.324 OA
HETATM   26  C24 UNL     1       6.127   1.543  23.668  1.00  0.00     0.213 C
ENDBRANCH  23  25
ENDBRANCH  17  23
BRANCH  19  27
HETATM   27  C28 UNL     1      10.726  -1.200  26.040  1.00  0.00     0.014 C
BRANCH  27  28
HETATM   28  C29 UNL     1      11.173  -0.710  24.703  1.00  0.00     0.028 C
BRANCH  28  29
HETATM   29  C30 UNL     1      12.578  -0.718  24.375  1.00  0.00    -0.025 C
HETATM   30  C31 UNL     1      13.388   0.202  24.011  1.00  0.00    -0.091 C
HETATM   31  C32 UNL     1      14.846  -0.222  23.751  1.00  0.00     0.042 C
HETATM   32  C33 UNL     1      13.111   1.623  23.795  1.00  0.00     0.042 C
ENDBRANCH  28  29
ENDBRANCH  27  28
ENDBRANCH  19  27
ENDBRANCH  12  13
ENDBRANCH   9  11
BRANCH   1  33
HETATM   33  C4  UNL     1      14.031   0.056  31.177  1.00  0.00     0.046 C
BRANCH  33  34
HETATM   34  C3  UNL     1      13.118   1.160  31.478  1.00  0.00     0.037 C
BRANCH  34  35
HETATM   35  C2  UNL     1      11.778   0.815  32.046  1.00  0.00    -0.086 C
HETATM   36  C1  UNL     1      10.956  -0.012  31.410  1.00  0.00     0.014 C
BRANCH  35  37
HETATM   37  C34 UNL     1      11.338   1.278  33.392  1.00  0.00     0.005 C
HETATM   38  C35 UNL     1      10.579   0.165  34.113  1.00  0.00     0.014 C
HETATM   39  C36 UNL     1      12.356   1.873  34.280  1.00  0.00     0.014 C
ENDBRANCH  35  37
ENDBRANCH  34  35
ENDBRANCH  33  34
ENDBRANCH   1  33
BRANCH   1  40
HETATM   40  O1  UNL     1      15.647   1.267  30.009  1.00  0.00    -0.386 OA
ATOM     41  H1  UNL     1      15.937   1.474  29.129  1.00  0.00     0.210 HD
ENDBRANCH   1  40
BRANCH   2  42
HETATM   42  O2  UNL     1      16.358  -1.073  31.654  1.00  0.00    -0.312 OA
BRANCH  42  43
HETATM   43  C7  UNL     1      16.457  -2.164  32.512  1.00  0.00     0.255 C
HETATM   44  C8  UNL     1      17.718  -2.280  33.278  1.00  0.00     0.126 C
HETATM   45  O3  UNL     1      15.494  -2.911  32.542  1.00  0.00    -0.266 OA
ENDBRANCH  42  43
ENDBRANCH   2  42
TORSDOF 15
ENDMDL