MODEL 2
REMARK VINA RESULT: -7.368461287      0.753      1.126
REMARK  14 active torsions:
REMARK  status: ('A' for Active; 'I' for Inactive)
REMARK    1  A    between atoms: C2_2  and  C4_4
REMARK    2  A    between atoms: C7_7  and  C8_8
REMARK    3  A    between atoms: C8_8  and  O2_10
REMARK    4  A    between atoms: O2_10  and  C9_11
REMARK    5  A    between atoms: C9_11  and  C10_12
REMARK    6  A    between atoms: C10_12  and  O3_13
REMARK    7  A    between atoms: O3_13  and  S1_14
REMARK    8  A    between atoms: C11_18  and  C12_19
REMARK    9  A    between atoms: C12_19  and  C13_20
REMARK   10  A    between atoms: C13_20  and  C14_21
REMARK   11  A    between atoms: C14_21  and  C15_22
REMARK   12  A    between atoms: C15_22  and  C16_23
REMARK   13  A    between atoms: C16_23  and  O7_24
REMARK   14  A    between atoms: C25_34  and  C26_35
ROOT
HETATM    1  C4  UNL     1      11.852  -1.005  28.886  1.00  0.00     0.019 C
HETATM    2  C5  UNL     1      10.601  -1.587  28.277  1.00  0.00     0.011 C
HETATM    3  C6  UNL     1       9.725  -0.393  27.850  1.00  0.00     0.025 C
HETATM    4  C7  UNL     1      10.735   0.663  27.665  1.00  0.00     0.076 C
HETATM    5  C11 UNL     1      10.338   2.093  27.625  1.00  0.00    -0.064 C
HETATM    6  C17 UNL     1      10.492   2.856  28.918  1.00  0.00     0.045 C
HETATM    7  C18 UNL     1      11.803   2.653  29.616  1.00  0.00    -0.032 C
HETATM    8  C19 UNL     1      11.464   2.211  31.045  1.00  0.00     0.016 C
HETATM    9  C20 UNL     1      12.721   3.803  29.621  1.00  0.00    -0.001 C
HETATM   10  C21 UNL     1      13.205   4.226  30.985  1.00  0.00     0.011 C
HETATM   11  C22 UNL     1      14.392   5.094  30.733  1.00  0.00    -0.002 C
HETATM   12  C23 UNL     1      15.627   4.527  31.403  1.00  0.00     0.032 C
HETATM   13  C24 UNL     1      16.676   4.758  30.395  1.00  0.00    -0.023 C
HETATM   14  C25 UNL     1      16.160   4.985  29.192  1.00  0.00    -0.075 C
HETATM   15  C29 UNL     1      14.705   4.942  29.249  1.00  0.00     0.023 C
HETATM   16  C30 UNL     1      14.021   3.663  28.873  1.00  0.00    -0.001 C
HETATM   17  C31 UNL     1      14.756   2.410  29.091  1.00  0.00     0.006 C
HETATM   18  C32 UNL     1      13.864   1.258  29.623  1.00  0.00     0.006 C
HETATM   19  C33 UNL     1      12.560   1.459  28.984  1.00  0.00     0.001 C
HETATM   20  C34 UNL     1      11.553   0.411  28.957  1.00  0.00     0.021 C
ENDROOT
BRANCH   4  21
HETATM   21  C8  UNL     1      11.524   0.308  26.455  1.00  0.00     0.272 C
HETATM   22  O1  UNL     1      11.005  -0.532  25.633  1.00  0.00    -0.264 OA
BRANCH  21  23
HETATM   23  O2  UNL     1      12.752   0.754  26.076  1.00  0.00    -0.318 OA
BRANCH  23  24
HETATM   24  C9  UNL     1      13.774   0.040  25.457  1.00  0.00     0.206 C
BRANCH  24  25
HETATM   25  C10 UNL     1      15.063   0.823  25.721  1.00  0.00     0.220 C
BRANCH  25  26
HETATM   26  O3  UNL     1      16.162   0.085  25.256  1.00  0.00    -0.255 OA
BRANCH  26  27
HETATM   27  S1  UNL     1      17.146  -0.398  26.502  1.00  0.00     0.251 S
HETATM   28  O4  UNL     1      16.356  -0.538  27.786  1.00  0.00    -0.572 OA
HETATM   29  O5  UNL     1      18.262   0.574  26.770  1.00  0.00    -0.572 OA
HETATM   30  O6  UNL     1      17.852  -1.880  26.131  1.00  0.00    -0.572 OA
ENDBRANCH  26  27
ENDBRANCH  25  26
ENDBRANCH  24  25
ENDBRANCH  23  24
ENDBRANCH  21  23
ENDBRANCH   4  21
BRANCH   5  31
HETATM   31  C12 UNL     1       9.138   2.450  26.868  1.00  0.00    -0.023 C
BRANCH  31  32
HETATM   32  C13 UNL     1       9.169   2.834  25.454  1.00  0.00     0.027 C
BRANCH  32  33
HETATM   33  C14 UNL     1       8.530   1.707  24.623  1.00  0.00     0.006 C
BRANCH  33  34
HETATM   34  C15 UNL     1       9.389   1.297  23.462  1.00  0.00     0.026 C
BRANCH  34  35
HETATM   35  C16 UNL     1      10.664   2.131  23.359  1.00  0.00     0.164 C
BRANCH  35  36
HETATM   36  O7  UNL     1      11.773   1.318  23.167  1.00  0.00    -0.401 OA
ATOM     37  H7  UNL     1      12.501   1.606  23.704  1.00  0.00     0.209 HD
ENDBRANCH  35  36
ENDBRANCH  34  35
ENDBRANCH  33  34
ENDBRANCH  32  33
ENDBRANCH  31  32
ENDBRANCH   5  31
BRANCH   1  38
HETATM   38  C2  UNL     1      12.010  -1.644  30.246  1.00  0.00    -0.088 C
HETATM   39  C1  UNL     1      13.095  -2.331  30.511  1.00  0.00     0.014 C
HETATM   40  C3  UNL     1      10.971  -1.520  31.298  1.00  0.00     0.043 C
ENDBRANCH   1  38
BRANCH  14  41
HETATM   41  C26 UNL     1      16.992   5.251  27.997  1.00  0.00     0.006 C
HETATM   42  C27 UNL     1      17.711   4.061  27.466  1.00  0.00     0.014 C
HETATM   43  C28 UNL     1      16.087   5.738  26.846  1.00  0.00     0.014 C
ENDBRANCH  14  41
TORSDOF 14
ENDMDL