MODEL 3
REMARK VINA RESULT: -8.482460640      1.458      2.021
REMARK  14 active torsions:
REMARK  status: ('A' for Active; 'I' for Inactive)
REMARK    1  A    between atoms: C2_2  and  C3_3
REMARK    2  A    between atoms: C3_3  and  C4_4
REMARK    3  A    between atoms: C6_7  and  C7_8
REMARK    4  A    between atoms: C7_8  and  C8_9
REMARK    5  A    between atoms: C8_9  and  C9_10
REMARK    6  A    between atoms: C9_10  and  C22_28
REMARK    7  A    between atoms: C10_11  and  C11_12
REMARK    8  A    between atoms: C11_12  and  C12_13
REMARK    9  A    between atoms: C12_13  and  C13_14
REMARK   10  A    between atoms: C13_14  and  C15_16
REMARK   11  A    between atoms: C18_19  and  O2_20
REMARK   12  A    between atoms: C19_22  and  O3_23
REMARK   13  A    between atoms: C22_28  and  C23_29
REMARK   14  A    between atoms: C23_29  and  C24_30
ROOT
HETATM    1  C9  UNL     1      12.579   0.680  28.039  1.00  0.00    -0.083 C
HETATM    2  C10 UNL     1      13.431   1.582  27.655  1.00  0.00    -0.021 C
ENDROOT
BRANCH   1   3
HETATM    3  C8  UNL     1      11.195   1.063  28.424  1.00  0.00     0.038 C
BRANCH   3   4
HETATM    4  C7  UNL     1      10.522   2.020  27.509  1.00  0.00     0.065 C
BRANCH   4   5
HETATM    5  C6  UNL     1       9.781   1.290  26.371  1.00  0.00     0.261 C
HETATM    6  O1  UNL     1      10.652   0.426  25.826  1.00  0.00    -0.350 OA
HETATM    7  C4  UNL     1      10.417   0.103  24.438  1.00  0.00     0.075 C
HETATM    8  C5  UNL     1      10.818  -1.380  24.454  1.00  0.00     0.047 C
HETATM    9  C35 UNL     1       8.966   0.303  24.282  1.00  0.00     0.149 C
HETATM   10  C28 UNL     1       8.684   1.781  24.396  1.00  0.00     0.141 C
HETATM   11  C34 UNL     1       8.259  -0.348  23.192  1.00  0.00     0.268 C
HETATM   12  O5  UNL     1       9.238   2.252  25.564  1.00  0.00    -0.355 OA
HETATM   13  C29 UNL     1       7.228   2.116  24.230  1.00  0.00     0.033 C
HETATM   14  C30 UNL     1       6.275   1.356  25.064  1.00  0.00     0.005 C
HETATM   15  C31 UNL     1       5.185   0.818  24.125  1.00  0.00     0.032 C
HETATM   16  C32 UNL     1       5.660  -0.508  23.631  1.00  0.00     0.127 C
HETATM   17  C33 UNL     1       4.635  -1.109  22.674  1.00  0.00     0.040 C
HETATM   18  O6  UNL     1       6.882  -0.467  22.940  1.00  0.00    -0.316 OA
HETATM   19  O7  UNL     1       8.887  -0.921  22.280  1.00  0.00    -0.265 OA
BRANCH   7  20
HETATM   20  C3  UNL     1      11.364   0.974  23.747  1.00  0.00     0.038 C
BRANCH  20  21
HETATM   21  C2  UNL     1      12.702   0.586  23.331  1.00  0.00    -0.002 C
HETATM   22  C1  UNL     1      13.823   1.461  23.839  1.00  0.00     0.005 C
ENDBRANCH  20  21
ENDBRANCH   7  20
ENDBRANCH   4   5
ENDBRANCH   3   4
ENDBRANCH   1   3
BRANCH   1  23
HETATM   23  C22 UNL     1      12.885  -0.761  28.068  1.00  0.00     0.037 C
BRANCH  23  24
HETATM   24  C23 UNL     1      12.482  -1.434  29.335  1.00  0.00     0.031 C
BRANCH  24  25
HETATM   25  C24 UNL     1      13.289  -1.173  30.536  1.00  0.00    -0.024 C
HETATM   26  C25 UNL     1      14.139  -2.063  31.041  1.00  0.00    -0.091 C
HETATM   27  C26 UNL     1      14.941  -1.776  32.248  1.00  0.00     0.042 C
HETATM   28  C27 UNL     1      14.262  -3.373  30.349  1.00  0.00     0.042 C
ENDBRANCH  24  25
ENDBRANCH  23  24
ENDBRANCH   1  23
BRANCH   2  29
HETATM   29  C11 UNL     1      14.825   1.481  27.238  1.00  0.00     0.066 C
BRANCH  29  30
HETATM   30  C12 UNL     1      15.865   1.968  28.222  1.00  0.00     0.070 C
HETATM   31  C17 UNL     1      17.181   2.112  27.508  1.00  0.00     0.073 C
HETATM   32  C18 UNL     1      17.821   3.460  27.587  1.00  0.00     0.152 C
HETATM   33  C19 UNL     1      16.847   4.584  27.657  1.00  0.00     0.175 C
HETATM   34  C20 UNL     1      15.861   4.276  28.731  1.00  0.00     0.149 C
HETATM   35  C21 UNL     1      16.388   4.906  30.030  1.00  0.00     0.042 C
HETATM   36  O4  UNL     1      15.406   3.032  28.879  1.00  0.00    -0.372 OA
BRANCH  30  37
HETATM   37  C13 UNL     1      16.080   0.840  29.224  1.00  0.00     0.016 C
HETATM   38  C14 UNL     1      16.122   1.373  30.641  1.00  0.00     0.013 C
BRANCH  37  39
HETATM   39  C15 UNL     1      17.235  -0.047  28.937  1.00  0.00     0.002 C
HETATM   40  C16 UNL     1      16.725  -1.426  28.478  1.00  0.00     0.005 C
ENDBRANCH  37  39
ENDBRANCH  30  37
BRANCH  32  41
HETATM   41  O2  UNL     1      18.652   3.690  26.474  1.00  0.00    -0.393 OA
ATOM     42  H2  UNL     1      19.563   3.529  26.691  1.00  0.00     0.210 HD
ENDBRANCH  32  41
BRANCH  33  43
HETATM   43  O3  UNL     1      16.243   4.859  26.427  1.00  0.00    -0.390 OA
ATOM     44  H3  UNL     1      15.972   4.076  25.964  1.00  0.00     0.210 HD
ENDBRANCH  33  43
ENDBRANCH  29  30
ENDBRANCH   2  29
TORSDOF 14
ENDMDL