MODEL 5
REMARK VINA RESULT: -6.811171357      1.891      2.315
REMARK  13 active torsions:
REMARK  status: ('A' for Active; 'I' for Inactive)
REMARK    1  A    between atoms: C2_2  and  O1_4
REMARK    2  A    between atoms: O1_4  and  C4_5
REMARK    3  A    between atoms: C4_5  and  C5_6
REMARK    4  A    between atoms: C11_12  and  O2_13
REMARK    5  A    between atoms: C13_17  and  C15_19
REMARK    6  A    between atoms: C15_19  and  C16_20
REMARK    7  A    between atoms: C16_20  and  C17_21
REMARK    8  A    between atoms: C17_21  and  C18_22
REMARK    9  A    between atoms: C18_22  and  O4_25
REMARK   10  A    between atoms: O4_25  and  C21_26
REMARK   11  A    between atoms: C21_26  and  C22_27
REMARK   12  A    between atoms: C27_33  and  C28_34
REMARK   13  A    between atoms: C28_34  and  O5_37
ROOT
HETATM    1  C22 UNL     1       7.866  -1.460  21.840  1.00  0.00     0.150 C
HETATM    2  C23 UNL     1       6.634  -2.089  22.260  1.00  0.00     0.061 C
HETATM    3  N1  UNL     1       5.647  -2.609  22.586  1.00  0.00    -0.197 NA
ENDROOT
BRANCH   1   4
HETATM    4  C21 UNL     1       8.726  -1.049  23.041  1.00  0.00     0.182 C
BRANCH   4   5
HETATM    5  O4  UNL     1       9.028   0.288  23.003  1.00  0.00    -0.380 OA
BRANCH   5   6
HETATM    6  C18 UNL     1       9.811   0.693  24.103  1.00  0.00     0.053 C
HETATM    7  C19 UNL     1      10.963  -0.257  24.152  1.00  0.00     0.045 C
HETATM    8  C20 UNL     1      10.428   2.060  23.722  1.00  0.00     0.045 C
BRANCH   6   9
HETATM    9  C17 UNL     1       9.039   0.798  25.346  1.00  0.00     0.037 C
BRANCH   9  10
HETATM   10  C16 UNL     1       9.670   1.210  26.627  1.00  0.00     0.006 C
BRANCH  10  11
HETATM   11  C15 UNL     1       9.760   0.207  27.728  1.00  0.00     0.038 C
BRANCH  11  12
HETATM   12  C13 UNL     1      11.127  -0.328  28.025  1.00  0.00     0.069 C
HETATM   13  O3  UNL     1      12.023   0.547  27.406  1.00  0.00    -0.369 OA
HETATM   14  C12 UNL     1      13.296   0.193  27.934  1.00  0.00     0.188 C
HETATM   15  C11 UNL     1      14.408   0.761  27.231  1.00  0.00     0.158 C
HETATM   16  C31 UNL     1      13.041   0.308  29.396  1.00  0.00     0.110 C
HETATM   17  C8  UNL     1      15.531   1.475  27.802  1.00  0.00    -0.019 C
HETATM   18  C7  UNL     1      15.622   1.640  29.284  1.00  0.00     0.012 C
HETATM   19  C9  UNL     1      16.852   0.755  27.437  1.00  0.00     0.017 C
HETATM   20  C10 UNL     1      15.763   2.854  27.141  1.00  0.00     0.017 C
HETATM   21  C6  UNL     1      14.475   2.320  29.885  1.00  0.00     0.016 C
HETATM   22  C5  UNL     1      13.128   1.705  29.915  1.00  0.00     0.019 C
HETATM   23  C34 UNL     1      12.625   1.756  31.331  1.00  0.00    -0.005 C
HETATM   24  C33 UNL     1      11.358   1.044  31.569  1.00  0.00     0.006 C
HETATM   25  C35 UNL     1      13.666   1.415  32.369  1.00  0.00     0.011 C
HETATM   26  C32 UNL     1      10.764   0.241  30.480  1.00  0.00     0.016 C
HETATM   27  C24 UNL     1      11.661  -0.333  29.426  1.00  0.00     0.025 C
HETATM   28  C25 UNL     1      11.713  -1.815  29.797  1.00  0.00     0.018 C
HETATM   29  C26 UNL     1      12.755  -2.095  30.892  1.00  0.00     0.036 C
HETATM   30  C27 UNL     1      14.029  -1.698  30.113  1.00  0.00     0.156 C
HETATM   31  O6  UNL     1      14.010  -0.383  30.080  1.00  0.00    -0.367 OA
HETATM   32  C14 UNL     1      11.124  -1.632  27.292  1.00  0.00     0.047 C
BRANCH  15  33
HETATM   33  O2  UNL     1      14.936  -0.174  26.280  1.00  0.00    -0.392 OA
ATOM     34  H2  UNL     1      14.980   0.269  25.441  1.00  0.00     0.210 HD
ENDBRANCH  15  33
BRANCH  22  35
HETATM   35  C4  UNL     1      12.271   2.713  29.166  1.00  0.00     0.181 C
BRANCH  35  36
HETATM   36  O1  UNL     1      12.622   3.991  29.681  1.00  0.00    -0.386 OA
BRANCH  36  37
HETATM   37  C2  UNL     1      11.539   4.830  29.733  1.00  0.00     0.113 C
HETATM   38  C1  UNL     1      11.244   5.098  31.207  1.00  0.00     0.039 C
HETATM   39  C3  UNL     1      10.279   4.167  29.178  1.00  0.00     0.039 C
ENDBRANCH  36  37
ENDBRANCH  35  36
ENDBRANCH  22  35
BRANCH  30  40
HETATM   40  C28 UNL     1      15.237  -2.311  30.735  1.00  0.00     0.076 C
HETATM   41  C29 UNL     1      16.248  -2.859  29.749  1.00  0.00     0.048 C
HETATM   42  C30 UNL     1      16.030  -1.237  31.530  1.00  0.00     0.048 C
BRANCH  40  43
HETATM   43  O5  UNL     1      14.989  -3.293  31.656  1.00  0.00    -0.388 OA
ATOM     44  H5  UNL     1      15.262  -3.097  32.544  1.00  0.00     0.210 HD
ENDBRANCH  40  43
ENDBRANCH  30  40
ENDBRANCH  11  12
ENDBRANCH  10  11
ENDBRANCH   9  10
ENDBRANCH   6   9
ENDBRANCH   5   6
ENDBRANCH   4   5
ENDBRANCH   1   4
TORSDOF 13
ENDMDL