MODEL 3
REMARK VINA RESULT: -7.534158858      0.690      1.870
REMARK  15 active torsions:
REMARK  status: ('A' for Active; 'I' for Inactive)
REMARK    1  A    between atoms: C2_2  and  O2_4
REMARK    2  A    between atoms: O2_4  and  C3_5
REMARK    3  A    between atoms: C3_5  and  C4_6
REMARK    4  A    between atoms: C3_5  and  C33_40
REMARK    5  A    between atoms: C4_6  and  C5_7
REMARK    6  A    between atoms: C5_7  and  C6_8
REMARK    7  A    between atoms: C10_12  and  O3_13
REMARK    8  A    between atoms: O3_13  and  C11_14
REMARK       I    between atoms: C11_14  and  N1_16
REMARK    9  A    between atoms: C14_19  and  O5_21
REMARK   10  A    between atoms: C21_28  and  C22_29
REMARK   11  A    between atoms: C23_30  and  C25_32
REMARK   12  A    between atoms: C26_33  and  C27_34
REMARK   13  A    between atoms: C27_34  and  C29_36
REMARK   14  A    between atoms: C29_36  and  C30_37
REMARK   15  A    between atoms: C33_40  and  O6_43
ROOT
HETATM    1  C6  UNL     1      10.674  -0.557  27.144  1.00  0.00     0.022 C
HETATM    2  C7  UNL     1      10.317  -0.402  28.561  1.00  0.00    -0.080 C
HETATM    3  C8  UNL     1      10.147  -1.565  29.481  1.00  0.00     0.043 C
HETATM    4  C9  UNL     1      10.104   0.790  29.140  1.00  0.00     0.009 C
HETATM    5  C10 UNL     1      10.256   1.959  28.231  1.00  0.00     0.165 C
HETATM    6  C18 UNL     1       9.410   1.637  27.053  1.00  0.00    -0.010 C
HETATM    7  C19 UNL     1       9.262   2.825  26.104  1.00  0.00     0.018 C
HETATM    8  C20 UNL     1       8.070   1.053  27.317  1.00  0.00     0.018 C
HETATM    9  C21 UNL     1      10.180   0.578  26.242  1.00  0.00     0.027 C
ENDROOT
BRANCH   1  10
HETATM   10  C5  UNL     1      12.099  -0.767  26.835  1.00  0.00     0.012 C
BRANCH  10  11
HETATM   11  C4  UNL     1      12.944   0.357  26.412  1.00  0.00     0.036 C
BRANCH  11  12
HETATM   12  C3  UNL     1      14.254   0.475  27.144  1.00  0.00     0.165 C
BRANCH  12  13
HETATM   13  O2  UNL     1      14.453  -0.502  28.143  1.00  0.00    -0.313 OA
BRANCH  13  14
HETATM   14  C2  UNL     1      14.020  -0.428  29.432  1.00  0.00     0.255 C
HETATM   15  C1  UNL     1      13.776  -1.611  30.303  1.00  0.00     0.126 C
HETATM   16  O1  UNL     1      13.809   0.687  29.933  1.00  0.00    -0.266 OA
ENDBRANCH  13  14
ENDBRANCH  12  13
BRANCH  12  17
HETATM   17  C33 UNL     1      15.427   0.511  26.175  1.00  0.00     0.077 C
HETATM   18  C34 UNL     1      16.522  -0.434  26.529  1.00  0.00     0.048 C
HETATM   19  C35 UNL     1      14.967   0.183  24.769  1.00  0.00     0.048 C
BRANCH  17  20
HETATM   20  O6  UNL     1      15.953   1.811  26.123  1.00  0.00    -0.388 OA
ATOM     21  H6  UNL     1      16.166   2.031  25.223  1.00  0.00     0.210 HD
ENDBRANCH  17  20
ENDBRANCH  12  17
ENDBRANCH  11  12
ENDBRANCH  10  11
ENDBRANCH   1  10
BRANCH   9  22
HETATM   22  C22 UNL     1       9.392   0.102  25.107  1.00  0.00    -0.014 C
HETATM   23  C23 UNL     1       9.795  -0.124  23.880  1.00  0.00    -0.066 C
HETATM   24  C24 UNL     1      11.180   0.074  23.416  1.00  0.00     0.048 C
BRANCH  23  25
HETATM   25  C25 UNL     1       8.831  -0.599  22.899  1.00  0.00     0.003 C
HETATM   26  C26 UNL     1       7.556  -0.546  23.180  1.00  0.00    -0.022 C
BRANCH  26  27
HETATM   27  C27 UNL     1       6.472  -1.009  22.237  1.00  0.00     0.004 C
HETATM   28  C28 UNL     1       6.499  -2.483  22.220  1.00  0.00     0.014 C
BRANCH  27  29
HETATM   29  C29 UNL     1       5.228  -0.340  22.654  1.00  0.00     0.012 C
BRANCH  29  30
HETATM   30  C30 UNL     1       5.094   0.077  24.066  1.00  0.00    -0.022 C
HETATM   31  C31 UNL     1       5.102   1.578  24.265  1.00  0.00     0.009 C
HETATM   32  C32 UNL     1       3.974  -0.589  24.832  1.00  0.00     0.009 C
ENDBRANCH  29  30
ENDBRANCH  27  29
ENDBRANCH  26  27
ENDBRANCH  23  25
ENDBRANCH   9  22
BRANCH   5  33
HETATM   33  O3  UNL     1      10.120   3.188  28.819  1.00  0.00    -0.294 OA
BRANCH  33  34
HETATM   34  C11 UNL     1      11.044   4.025  29.328  1.00  0.00     0.363 C
HETATM   35  O4  UNL     1      12.219   3.680  29.301  1.00  0.00    -0.238 OA
HETATM   36  N1  UNL     1      10.682   5.275  29.882  1.00  0.00    -0.328 N
HETATM   37  C12 UNL     1      11.691   6.184  30.426  1.00  0.00     0.131 C
HETATM   38  C17 UNL     1       9.304   5.722  29.946  1.00  0.00     0.131 C
HETATM   39  C13 UNL     1      11.567   7.524  29.688  1.00  0.00     0.057 C
HETATM   40  C14 UNL     1      10.149   8.008  29.968  1.00  0.00     0.057 C
HETATM   41  C15 UNL     1       9.931   9.419  29.535  1.00  0.00     0.046 C
HETATM   42  C16 UNL     1       9.222   7.052  29.231  1.00  0.00     0.057 C
BRANCH  40  43
HETATM   43  O5  UNL     1       9.930   7.899  31.324  1.00  0.00    -0.390 OA
ATOM     44  H5  UNL     1       9.329   7.177  31.463  1.00  0.00     0.210 HD
ENDBRANCH  40  43
ENDBRANCH  33  34
ENDBRANCH   5  33
TORSDOF 15
ENDMDL