MODEL 4
REMARK VINA RESULT: -6.754348127      2.497      6.917
REMARK  14 active torsions:
REMARK  status: ('A' for Active; 'I' for Inactive)
REMARK    1  A    between atoms: O1_2  and  C2_3
REMARK    2  A    between atoms: C2_3  and  C3_4
REMARK    3  A    between atoms: C3_4  and  C5_6
REMARK    4  A    between atoms: C5_6  and  O2_7
REMARK    5  A    between atoms: C5_6  and  C6_9
REMARK    6  A    between atoms: C6_9  and  C7_10
REMARK    7  A    between atoms: C7_10  and  O3_13
REMARK    8  A    between atoms: C25_32  and  C26_33
REMARK    9  A    between atoms: C26_33  and  C28_35
REMARK   10  A    between atoms: C28_35  and  C29_36
REMARK   11  A    between atoms: C29_36  and  C30_37
REMARK   12  A    between atoms: C30_37  and  C31_38
REMARK   13  A    between atoms: C31_38  and  O6_41
REMARK   14  A    between atoms: O6_41  and  C34_42
ROOT
HETATM    1  C2  UNL     1      13.633  -0.563  30.345  1.00  0.00     0.158 C
HETATM    2  C10 UNL     1      14.190   0.529  31.266  1.00  0.00     0.295 C
HETATM    3  O4  UNL     1      13.630   0.945  32.281  1.00  0.00    -0.262 OA
HETATM    4  O5  UNL     1      15.417   1.118  30.961  1.00  0.00    -0.312 OA
HETATM    5  C11 UNL     1      15.952   0.891  29.705  1.00  0.00     0.149 C
HETATM    6  C12 UNL     1      17.152   1.782  29.529  1.00  0.00    -0.012 C
HETATM    7  C13 UNL     1      16.925   3.145  30.026  1.00  0.00     0.018 C
HETATM    8  C14 UNL     1      18.189   1.159  30.511  1.00  0.00     0.012 C
HETATM    9  C15 UNL     1      19.553   1.677  30.326  1.00  0.00     0.002 C
HETATM   10  C16 UNL     1      19.782   2.641  29.233  1.00  0.00     0.009 C
HETATM   11  C17 UNL     1      19.029   2.326  27.952  1.00  0.00    -0.043 C
HETATM   12  C18 UNL     1      18.884   3.603  27.193  1.00  0.00     0.015 C
HETATM   13  C19 UNL     1      19.992   1.464  27.112  1.00  0.00     0.015 C
HETATM   14  C20 UNL     1      17.766   1.563  28.205  1.00  0.00     0.004 C
HETATM   15  C21 UNL     1      16.774   1.617  27.122  1.00  0.00     0.007 C
HETATM   16  C22 UNL     1      15.581   0.719  27.338  1.00  0.00     0.012 C
HETATM   17  C23 UNL     1      14.882   0.986  28.694  1.00  0.00    -0.009 C
HETATM   18  C24 UNL     1      14.313   2.345  28.483  1.00  0.00     0.018 C
HETATM   19  C25 UNL     1      13.883  -0.121  28.930  1.00  0.00     0.049 C
ENDROOT
BRANCH   1  20
HETATM   20  O1  UNL     1      12.295  -0.663  30.493  1.00  0.00    -0.374 OA
HETATM   21  C1  UNL     1      11.588  -1.590  31.090  1.00  0.00     0.203 C
ENDBRANCH   1  20
BRANCH   1  22
HETATM   22  C3  UNL     1      14.208  -1.874  30.779  1.00  0.00     0.056 C
HETATM   23  C4  UNL     1      14.645  -2.040  32.183  1.00  0.00     0.016 C
BRANCH  22  24
HETATM   24  C5  UNL     1      15.051  -2.627  29.802  1.00  0.00     0.128 C
BRANCH  24  25
HETATM   25  O2  UNL     1      14.534  -3.909  29.550  1.00  0.00    -0.395 OA
ATOM     26  H2  UNL     1      15.058  -4.586  29.962  1.00  0.00     0.210 HD
ENDBRANCH  24  25
BRANCH  24  27
HETATM   27  C6  UNL     1      16.485  -2.804  30.202  1.00  0.00     0.069 C
BRANCH  27  28
HETATM   28  C7  UNL     1      17.342  -3.246  29.044  1.00  0.00     0.053 C
HETATM   29  C8  UNL     1      17.285  -2.139  27.961  1.00  0.00     0.045 C
HETATM   30  C9  UNL     1      18.814  -3.365  29.364  1.00  0.00     0.045 C
BRANCH  28  31
HETATM   31  O3  UNL     1      16.945  -4.418  28.453  1.00  0.00    -0.391 OA
ATOM     32  H3  UNL     1      17.603  -5.103  28.448  1.00  0.00     0.210 HD
ENDBRANCH  28  31
ENDBRANCH  27  28
ENDBRANCH  24  27
ENDBRANCH  22  24
ENDBRANCH   1  22
BRANCH  19  33
HETATM   33  C26 UNL     1      12.678  -0.005  28.016  1.00  0.00     0.012 C
HETATM   34  C27 UNL     1      11.645   0.948  28.553  1.00  0.00     0.015 C
BRANCH  33  35
HETATM   35  C28 UNL     1      12.080  -1.269  27.540  1.00  0.00    -0.026 C
BRANCH  35  36
HETATM   36  C29 UNL     1      11.061  -1.301  26.472  1.00  0.00    -0.027 C
BRANCH  36  37
HETATM   37  C30 UNL     1      11.380  -1.523  25.065  1.00  0.00     0.065 C
BRANCH  37  38
HETATM   38  C31 UNL     1      10.627  -0.471  24.206  1.00  0.00     0.066 C
HETATM   39  C32 UNL     1      10.101   0.650  25.038  1.00  0.00     0.046 C
HETATM   40  C33 UNL     1       9.508  -1.110  23.444  1.00  0.00     0.046 C
BRANCH  38  41
HETATM   41  O6  UNL     1      11.630   0.037  23.317  1.00  0.00    -0.311 OA
BRANCH  41  42
HETATM   42  C34 UNL     1      12.260   1.253  23.610  1.00  0.00     0.255 C
HETATM   43  C35 UNL     1      13.565   1.287  24.337  1.00  0.00     0.126 C
HETATM   44  O7  UNL     1      11.668   2.297  23.231  1.00  0.00    -0.266 OA
ENDBRANCH  41  42
ENDBRANCH  38  41
ENDBRANCH  37  38
ENDBRANCH  36  37
ENDBRANCH  35  36
ENDBRANCH  33  35
ENDBRANCH  19  33
TORSDOF 14
ENDMDL