MODEL 3
REMARK VINA RESULT: -8.289890335      2.482      8.271
REMARK  14 active torsions:
REMARK  status: ('A' for Active; 'I' for Inactive)
REMARK    1  A    between atoms: C3_3  and  C5_5
REMARK    2  A    between atoms: C5_5  and  O2_7
REMARK    3  A    between atoms: O2_7  and  C6_8
REMARK    4  A    between atoms: C9_11  and  C11_13
REMARK    5  A    between atoms: C11_13  and  C12_14
REMARK    6  A    between atoms: C12_14  and  C13_15
REMARK    7  A    between atoms: C14_16  and  C16_18
REMARK    8  A    between atoms: C16_18  and  C17_19
REMARK    9  A    between atoms: C17_19  and  C18_20
REMARK   10  A    between atoms: C19_21  and  C21_23
REMARK   11  A    between atoms: C21_23  and  C22_24
REMARK   12  A    between atoms: C22_24  and  C23_25
REMARK   13  A    between atoms: C32_37  and  O6_38
REMARK   14  A    between atoms: C33_40  and  O7_41
ROOT
HETATM    1  C6  UNL     1       7.879   1.620  24.610  1.00  0.00     0.141 C
HETATM    2  C7  UNL     1       7.022   1.401  25.849  1.00  0.00     0.034 C
HETATM    3  C8  UNL     1       7.749   1.521  27.138  1.00  0.00     0.012 C
HETATM    4  C9  UNL     1       9.067   2.221  27.022  1.00  0.00    -0.039 C
HETATM    5  C10 UNL     1       8.723   3.721  26.918  1.00  0.00     0.015 C
HETATM    6  C27 UNL     1       9.943   1.792  25.897  1.00  0.00     0.005 C
HETATM    7  C28 UNL     1      11.135   0.978  26.270  1.00  0.00     0.024 C
HETATM    8  C29 UNL     1      12.408   1.564  25.632  1.00  0.00     0.133 C
HETATM    9  C30 UNL     1      13.478   0.662  26.115  1.00  0.00     0.274 C
HETATM   10  O3  UNL     1      14.215   0.853  27.086  1.00  0.00    -0.264 OA
HETATM   11  O4  UNL     1      13.489  -0.431  25.274  1.00  0.00    -0.242 OA
HETATM   12  C31 UNL     1      12.706  -0.169  24.145  1.00  0.00     0.304 C
HETATM   13  O5  UNL     1      12.352  -1.026  23.321  1.00  0.00    -0.261 OA
HETATM   14  C32 UNL     1      12.427   1.253  24.172  1.00  0.00     0.184 C
HETATM   15  C33 UNL     1      11.303   1.687  23.352  1.00  0.00     0.164 C
HETATM   16  C34 UNL     1       9.977   1.038  23.499  1.00  0.00     0.047 C
HETATM   17  C35 UNL     1       9.259   1.047  24.778  1.00  0.00    -0.010 C
HETATM   18  C36 UNL     1       9.018  -0.423  25.187  1.00  0.00     0.018 C
ENDROOT
BRANCH   4  19
HETATM   19  C11 UNL     1       9.788   2.075  28.337  1.00  0.00     0.013 C
BRANCH  19  20
HETATM   20  C12 UNL     1      10.580   3.294  28.748  1.00  0.00     0.028 C
BRANCH  20  21
HETATM   21  C13 UNL     1      11.890   2.867  29.375  1.00  0.00    -0.024 C
HETATM   22  C14 UNL     1      12.845   3.710  29.675  1.00  0.00    -0.087 C
HETATM   23  C15 UNL     1      12.670   5.194  29.404  1.00  0.00     0.043 C
BRANCH  22  24
HETATM   24  C16 UNL     1      14.148   3.325  30.239  1.00  0.00     0.037 C
BRANCH  24  25
HETATM   25  C17 UNL     1      14.205   2.927  31.665  1.00  0.00     0.031 C
BRANCH  25  26
HETATM   26  C18 UNL     1      14.562   1.493  31.790  1.00  0.00    -0.024 C
HETATM   27  C19 UNL     1      13.716   0.532  31.991  1.00  0.00    -0.087 C
HETATM   28  C20 UNL     1      14.237  -0.888  32.095  1.00  0.00     0.043 C
BRANCH  27  29
HETATM   29  C21 UNL     1      12.211   0.656  32.150  1.00  0.00     0.037 C
BRANCH  29  30
HETATM   30  C22 UNL     1      11.567  -0.672  32.043  1.00  0.00     0.031 C
BRANCH  30  31
HETATM   31  C23 UNL     1      10.751  -0.927  30.876  1.00  0.00    -0.024 C
HETATM   32  C24 UNL     1      10.962  -1.198  29.639  1.00  0.00    -0.091 C
HETATM   33  C25 UNL     1      12.259  -1.347  28.979  1.00  0.00     0.042 C
HETATM   34  C26 UNL     1       9.745  -1.393  28.737  1.00  0.00     0.042 C
ENDBRANCH  30  31
ENDBRANCH  29  30
ENDBRANCH  27  29
ENDBRANCH  25  26
ENDBRANCH  24  25
ENDBRANCH  22  24
ENDBRANCH  20  21
ENDBRANCH  19  20
ENDBRANCH   4  19
BRANCH   1  35
HETATM   35  O2  UNL     1       7.306   0.894  23.506  1.00  0.00    -0.311 OA
BRANCH  35  36
HETATM   36  C5  UNL     1       5.959   0.755  23.308  1.00  0.00     0.289 C
HETATM   37  O1  UNL     1       5.291   1.793  23.139  1.00  0.00    -0.260 OA
BRANCH  36  38
HETATM   38  C3  UNL     1       5.390  -0.581  23.302  1.00  0.00     0.009 C
HETATM   39  C2  UNL     1       5.869  -1.548  22.536  1.00  0.00    -0.018 C
HETATM   40  C1  UNL     1       5.275  -2.916  22.536  1.00  0.00     0.036 C
HETATM   41  C4  UNL     1       4.236  -0.881  24.174  1.00  0.00     0.054 C
ENDBRANCH  36  38
ENDBRANCH  35  36
ENDBRANCH   1  35
BRANCH  14  42
HETATM   42  O6  UNL     1      13.590   1.894  23.664  1.00  0.00    -0.376 OA
ATOM     43  H6  UNL     1      13.313   2.324  22.864  1.00  0.00     0.211 HD
ENDBRANCH  14  42
BRANCH  15  44
HETATM   44  O7  UNL     1      11.246   3.097  23.221  1.00  0.00    -0.392 OA
ATOM     45  H7  UNL     1      10.644   3.372  22.540  1.00  0.00     0.210 HD
ENDBRANCH  15  44
TORSDOF 14
ENDMDL