MODEL 5
REMARK VINA RESULT: -8.301001778      2.714      9.363
REMARK  12 active torsions:
REMARK  status: ('A' for Active; 'I' for Inactive)
REMARK    1  A    between atoms: C2_2  and  C4_4
REMARK    2  A    between atoms: C4_4  and  C5_5
REMARK    3  A    between atoms: C5_5  and  O1_7
REMARK    4  A    between atoms: C5_5  and  C7_9
REMARK    5  A    between atoms: C8_10  and  C9_11
REMARK    6  A    between atoms: C16_19  and  C17_20
REMARK    7  A    between atoms: C17_20  and  C18_21
REMARK    8  A    between atoms: C18_21  and  C19_22
REMARK    9  A    between atoms: C19_22  and  O3_24
REMARK   10  A    between atoms: C19_22  and  C21_26
REMARK   11  A    between atoms: C21_26  and  C22_27
REMARK   12  A    between atoms: C22_27  and  N1_29
ROOT
HETATM    1  C19 UNL     1      15.388   0.313  28.251  1.00  0.00     0.073 C
HETATM    2  C20 UNL     1      15.127   1.441  29.315  1.00  0.00     0.050 C
ENDROOT
BRANCH   1   3
HETATM    3  C18 UNL     1      14.053  -0.082  27.797  1.00  0.00     0.011 C
BRANCH   3   4
HETATM    4  C17 UNL     1      13.022   0.888  27.345  1.00  0.00     0.011 C
BRANCH   4   5
HETATM    5  C16 UNL     1      12.625   1.150  26.001  1.00  0.00    -0.000 C
HETATM    6  C9  UNL     1      11.075   0.807  25.738  1.00  0.00     0.007 C
HETATM    7  C10 UNL     1      10.914   1.698  24.480  1.00  0.00     0.025 C
HETATM    8  C11 UNL     1      10.932  -0.578  25.312  1.00  0.00    -0.002 C
HETATM    9  C12 UNL     1      11.151  -1.667  26.327  1.00  0.00     0.011 C
HETATM   10  C13 UNL     1      11.745  -0.977  24.106  1.00  0.00     0.013 C
HETATM   11  C14 UNL     1      13.197  -0.620  24.273  1.00  0.00     0.084 C
HETATM   12  C15 UNL     1      13.310   0.791  24.789  1.00  0.00     0.156 C
HETATM   13  O2  UNL     1      14.005   1.545  24.089  1.00  0.00    -0.293 OA
BRANCH   6  14
HETATM   14  C8  UNL     1      10.307   1.341  26.871  1.00  0.00    -0.013 C
HETATM   15  C7  UNL     1       9.351   2.412  26.828  1.00  0.00     0.007 C
BRANCH  15  16
HETATM   16  C5  UNL     1       8.110   2.572  26.104  1.00  0.00     0.072 C
HETATM   17  C6  UNL     1       7.107   3.210  27.143  1.00  0.00     0.050 C
BRANCH  16  18
HETATM   18  C4  UNL     1       7.408   1.392  25.588  1.00  0.00     0.045 C
BRANCH  18  19
HETATM   19  C2  UNL     1       7.160   1.236  24.143  1.00  0.00    -0.020 C
HETATM   20  C1  UNL     1       7.747   0.126  23.380  1.00  0.00     0.009 C
HETATM   21  C3  UNL     1       5.675   1.319  23.786  1.00  0.00     0.009 C
ENDBRANCH  18  19
ENDBRANCH  16  18
BRANCH  16  22
HETATM   22  O1  UNL     1       8.117   3.562  25.121  1.00  0.00    -0.386 OA
ATOM     23  H1  UNL     1       8.861   4.136  25.265  1.00  0.00     0.211 HD
ENDBRANCH  16  22
ENDBRANCH  15  16
ENDBRANCH   6  14
ENDBRANCH   4   5
ENDBRANCH   3   4
ENDBRANCH   1   3
BRANCH   1  24
HETATM   24  O3  UNL     1      16.184  -0.590  28.895  1.00  0.00    -0.386 OA
ATOM     25  H3  UNL     1      17.053  -0.336  29.182  1.00  0.00     0.211 HD
ENDBRANCH   1  24
BRANCH   1  26
HETATM   26  C21 UNL     1      16.216   1.071  27.228  1.00  0.00     0.063 C
BRANCH  26  27
HETATM   27  C22 UNL     1      17.534   1.591  27.559  1.00  0.00     0.085 C
HETATM   28  C23 UNL     1      17.826   3.030  27.506  1.00  0.00     0.029 C
BRANCH  27  29
HETATM   29  N1  UNL     1      18.608   0.808  26.874  1.00  0.00    -0.189 NA
HETATM   30  C24 UNL     1      19.838   1.133  27.494  1.00  0.00     0.127 C
HETATM   31  C25 UNL     1      19.942   0.032  28.539  1.00  0.00     0.090 C
HETATM   32  C26 UNL     1      19.338  -1.102  27.788  1.00  0.00     0.221 C
HETATM   33  O4  UNL     1      18.801  -1.976  28.738  1.00  0.00    -0.198 OA
HETATM   34  C34 UNL     1      20.277  -1.799  26.848  1.00  0.00     0.053 C
HETATM   35  O6  UNL     1      18.363  -0.494  27.027  1.00  0.00    -0.260 OA
HETATM   36  O5  UNL     1      19.803  -2.372  29.493  1.00  0.00    -0.227 OA
HETATM   37  C27 UNL     1      20.205  -3.626  29.037  1.00  0.00     0.097 C
HETATM   38  C28 UNL     1      20.501  -4.466  30.274  1.00  0.00     0.050 C
HETATM   39  C29 UNL     1      19.116  -4.282  28.235  1.00  0.00     0.046 C
HETATM   40  C32 UNL     1      21.442  -3.573  28.205  1.00  0.00     0.024 C
HETATM   41  C30 UNL     1      19.679  -4.250  26.843  1.00  0.00    -0.011 C
HETATM   42  C31 UNL     1      21.142  -4.623  27.124  1.00  0.00     0.012 C
HETATM   43  C35 UNL     1      19.562  -2.921  26.170  1.00  0.00     0.015 C
HETATM   44  C33 UNL     1      21.563  -2.255  27.430  1.00  0.00     0.018 C
ENDBRANCH  27  29
ENDBRANCH  26  27
ENDBRANCH   1  26
TORSDOF 12
ENDMDL