MODEL 2
REMARK VINA RESULT: -7.580830526      1.970      6.840
REMARK  14 active torsions:
REMARK  status: ('A' for Active; 'I' for Inactive)
REMARK    1  A    between atoms: C2_2  and  C3_3
REMARK    2  A    between atoms: C3_3  and  C4_4
REMARK    3  A    between atoms: C3_3  and  O6_36
REMARK    4  A    between atoms: C4_4  and  C5_5
REMARK    5  A    between atoms: C6_6  and  C8_8
REMARK    6  A    between atoms: C8_8  and  C11_11
REMARK    7  A    between atoms: C11_11  and  C12_12
REMARK    8  A    between atoms: C12_12  and  O2_14
REMARK    9  A    between atoms: O2_14  and  C13_15
REMARK   10  A    between atoms: C16_18  and  O3_19
REMARK   11  A    between atoms: C20_24  and  C22_26
REMARK   12  A    between atoms: O6_36  and  C29_37
REMARK   13  A    between atoms: C29_37  and  C30_39
REMARK   14  A    between atoms: C30_39  and  C31_40
ROOT
HETATM    1  C13 UNL     1      15.079  -0.161  26.187  1.00  0.00     0.135 C
HETATM    2  C14 UNL     1      13.731  -0.114  26.843  1.00  0.00     0.042 C
HETATM    3  C15 UNL     1      12.906   0.580  25.806  1.00  0.00     0.041 C
HETATM    4  C16 UNL     1      13.582   0.388  24.502  1.00  0.00     0.065 C
HETATM    5  C17 UNL     1      13.038   1.349  23.513  1.00  0.00     0.039 C
HETATM    6  C18 UNL     1      11.630   1.777  23.886  1.00  0.00     0.010 C
HETATM    7  C19 UNL     1      10.854   0.632  24.558  1.00  0.00     0.023 C
HETATM    8  C20 UNL     1       9.395   0.797  24.461  1.00  0.00     0.050 C
HETATM    9  C21 UNL     1       9.043   2.050  23.637  1.00  0.00     0.027 C
HETATM   10  C23 UNL     1       8.629   0.897  25.730  1.00  0.00     0.021 C
HETATM   11  C24 UNL     1       8.595   2.287  26.329  1.00  0.00     0.012 C
HETATM   12  C25 UNL     1       9.735   2.377  27.277  1.00  0.00     0.075 C
HETATM   13  S1  UNL     1      10.861   1.051  27.320  1.00  0.00    -0.159 SA
HETATM   14  C26 UNL     1      11.432   0.257  25.871  1.00  0.00     0.016 C
HETATM   15  C27 UNL     1      11.235  -1.254  26.055  1.00  0.00     0.028 C
HETATM   16  C28 UNL     1      15.023   0.724  24.948  1.00  0.00     0.071 C
ENDROOT
BRANCH   1  17
HETATM   17  O2  UNL     1      16.143   0.121  27.044  1.00  0.00    -0.316 OA
BRANCH  17  18
HETATM   18  C12 UNL     1      16.782   1.362  27.124  1.00  0.00     0.260 C
HETATM   19  O1  UNL     1      17.943   1.408  26.702  1.00  0.00    -0.265 OA
BRANCH  18  20
HETATM   20  C11 UNL     1      15.990   2.456  27.702  1.00  0.00     0.124 C
BRANCH  20  21
HETATM   21  C8  UNL     1      15.905   2.284  29.186  1.00  0.00    -0.016 C
HETATM   22  C9  UNL     1      16.880   1.307  29.754  1.00  0.00     0.020 C
HETATM   23  C10 UNL     1      16.131   3.648  29.854  1.00  0.00     0.020 C
BRANCH  21  24
HETATM   24  C6  UNL     1      14.536   1.867  29.635  1.00  0.00    -0.079 C
HETATM   25  C5  UNL     1      14.261   0.709  30.189  1.00  0.00    -0.021 C
HETATM   26  C7  UNL     1      13.433   2.847  29.434  1.00  0.00     0.044 C
BRANCH  25  27
HETATM   27  C4  UNL     1      12.887   0.356  30.615  1.00  0.00     0.060 C
BRANCH  27  28
HETATM   28  C3  UNL     1      12.753  -1.117  30.973  1.00  0.00     0.135 C
BRANCH  28  29
HETATM   29  C2  UNL     1      11.310  -1.474  31.244  1.00  0.00     0.028 C
HETATM   30  C1  UNL     1      10.541  -1.472  29.939  1.00  0.00     0.007 C
ENDBRANCH  28  29
BRANCH  28  31
HETATM   31  O6  UNL     1      13.384  -1.944  30.043  1.00  0.00    -0.316 OA
BRANCH  31  32
HETATM   32  C29 UNL     1      14.164  -3.025  30.416  1.00  0.00     0.259 C
HETATM   33  O7  UNL     1      13.864  -3.620  31.481  1.00  0.00    -0.265 OA
BRANCH  32  34
HETATM   34  C30 UNL     1      15.287  -3.399  29.537  1.00  0.00     0.115 C
BRANCH  34  35
HETATM   35  C31 UNL     1      16.403  -2.398  29.518  1.00  0.00    -0.013 C
HETATM   36  C32 UNL     1      17.472  -2.755  28.515  1.00  0.00     0.010 C
HETATM   37  C33 UNL     1      17.002  -2.202  30.886  1.00  0.00     0.010 C
ENDBRANCH  34  35
ENDBRANCH  32  34
ENDBRANCH  31  32
ENDBRANCH  28  31
ENDBRANCH  27  28
ENDBRANCH  25  27
ENDBRANCH  21  24
ENDBRANCH  20  21
ENDBRANCH  18  20
ENDBRANCH  17  18
ENDBRANCH   1  17
BRANCH   4  38
HETATM   38  O3  UNL     1      13.664  -0.915  24.050  1.00  0.00    -0.389 OA
ATOM     39  H3  UNL     1      14.295  -1.075  23.359  1.00  0.00     0.210 HD
ENDBRANCH   4  38
BRANCH   8  40
HETATM   40  C22 UNL     1       8.735  -0.314  23.664  1.00  0.00     0.181 C
HETATM   41  O4  UNL     1       9.345  -1.325  23.281  1.00  0.00    -0.647 OA
HETATM   42  O5  UNL     1       7.380  -0.215  23.334  1.00  0.00    -0.647 OA
ENDBRANCH   8  40
TORSDOF 14
ENDMDL