MODEL 4
REMARK VINA RESULT: -8.760215609      2.278      2.776
REMARK  11 active torsions:
REMARK  status: ('A' for Active; 'I' for Inactive)
REMARK    1  A    between atoms: C2_2  and  C4_4
REMARK    2  A    between atoms: C4_4  and  C5_5
REMARK    3  A    between atoms: C4_4  and  C9_11
REMARK    4  A    between atoms: C5_5  and  C6_6
REMARK    5  A    between atoms: C7_7  and  C8_8
REMARK    6  A    between atoms: C9_11  and  C10_12
REMARK    7  A    between atoms: C14_16  and  C15_17
REMARK    8  A    between atoms: C17_19  and  N1_20
REMARK    9  A    between atoms: C25_34  and  C27_36
REMARK   10  A    between atoms: C27_36  and  C28_37
REMARK   11  A    between atoms: C28_37  and  C29_38
ROOT
HETATM    1  C9  UNL     1      11.020   0.471  26.677  1.00  0.00    -0.020 C
HETATM    2  C19 UNL     1      11.075   1.860  27.292  1.00  0.00     0.012 C
HETATM    3  C20 UNL     1      10.049   2.723  26.541  1.00  0.00     0.012 C
HETATM    4  C21 UNL     1       9.593   1.985  25.390  1.00  0.00    -0.024 A
HETATM    5  C22 UNL     1       9.925   2.628  24.117  1.00  0.00     0.017 C
HETATM    6  C23 UNL     1       8.861   0.799  25.042  1.00  0.00     0.005 A
HETATM    7  C24 UNL     1       8.541   0.426  23.632  1.00  0.00     0.180 C
HETATM    8  O6  UNL     1       7.354   0.992  23.282  1.00  0.00    -0.379 OA
HETATM    9  C25 UNL     1       6.498   0.834  24.342  1.00  0.00     0.062 C
HETATM   10  C26 UNL     1       5.736   2.138  24.495  1.00  0.00     0.046 C
HETATM   11  C30 UNL     1       7.389   0.511  25.450  1.00  0.00     0.032 C
HETATM   12  C31 UNL     1       7.360   1.400  26.608  1.00  0.00     0.009 C
HETATM   13  C32 UNL     1       8.627   0.770  27.249  1.00  0.00     0.012 C
HETATM   14  C33 UNL     1       9.664   0.681  26.066  1.00  0.00    -0.013 A
ENDROOT
BRANCH   1  15
HETATM   15  C4  UNL     1      12.138  -0.036  25.905  1.00  0.00     0.002 C
BRANCH  15  16
HETATM   16  C2  UNL     1      12.418  -0.617  24.589  1.00  0.00    -0.018 C
HETATM   17  C1  UNL     1      11.204  -1.482  24.176  1.00  0.00     0.010 C
HETATM   18  C3  UNL     1      12.320   0.372  23.408  1.00  0.00     0.010 C
ENDBRANCH  15  16
BRANCH  15  19
HETATM   19  C5  UNL     1      13.102   1.276  25.634  1.00  0.00     0.033 C
BRANCH  19  20
HETATM   20  C6  UNL     1      14.504   0.977  25.976  1.00  0.00    -0.019 C
HETATM   21  C7  UNL     1      15.074   1.583  27.004  1.00  0.00     0.080 C
BRANCH  21  22
HETATM   22  C8  UNL     1      16.453   1.274  27.325  1.00  0.00     0.198 C
HETATM   23  O1  UNL     1      17.393   1.883  26.776  1.00  0.00    -0.645 OA
HETATM   24  O2  UNL     1      16.706   0.285  28.258  1.00  0.00    -0.645 OA
ENDBRANCH  21  22
ENDBRANCH  19  20
ENDBRANCH  15  19
ENDBRANCH   1  15
BRANCH   1  25
HETATM   25  C10 UNL     1      11.020  -0.376  27.986  1.00  0.00    -0.035 C
HETATM   26  C11 UNL     1      10.451  -1.780  27.505  1.00  0.00     0.016 C
HETATM   27  C12 UNL     1      10.373  -0.136  29.207  1.00  0.00     0.011 C
HETATM   28  C13 UNL     1      11.163  -0.868  30.344  1.00  0.00     0.011 C
HETATM   29  C14 UNL     1      11.993  -1.813  29.593  1.00  0.00     0.038 C
HETATM   30  C18 UNL     1      12.360  -0.758  28.478  1.00  0.00     0.020 C
BRANCH  29  31
HETATM   31  C15 UNL     1      13.232  -2.117  30.354  1.00  0.00     0.041 A
HETATM   32  C16 UNL     1      14.317  -1.276  30.464  1.00  0.00     0.092 A
HETATM   33  C17 UNL     1      15.256  -1.920  31.246  1.00  0.00     0.237 A
HETATM   34  O5  UNL     1      14.730  -3.072  31.565  1.00  0.00    -0.213 OA
HETATM   35  N2  UNL     1      13.544  -3.217  31.056  1.00  0.00    -0.263 N
ATOM     36  H2  UNL     1      12.945  -4.036  31.173  1.00  0.00     0.194 HD
BRANCH  33  37
HETATM   37  N1  UNL     1      16.513  -1.372  31.589  1.00  0.00    -0.088 N
HETATM   38  O3  UNL     1      16.716  -0.149  31.611  1.00  0.00    -0.530 OA
HETATM   39  O4  UNL     1      17.542  -2.214  31.905  1.00  0.00    -0.530 OA
ENDBRANCH  33  37
ENDBRANCH  29  31
ENDBRANCH   1  25
BRANCH   9  40
HETATM   40  C27 UNL     1       5.469  -0.232  24.140  1.00  0.00     0.048 C
BRANCH  40  41
HETATM   41  C28 UNL     1       5.213  -0.641  22.735  1.00  0.00     0.116 C
BRANCH  41  42
HETATM   42  C29 UNL     1       5.623  -2.082  22.601  1.00  0.00     0.172 C
HETATM   43  O7  UNL     1       4.780  -3.010  22.581  1.00  0.00    -0.648 OA
HETATM   44  O8  UNL     1       6.957  -2.440  22.495  1.00  0.00    -0.648 OA
ENDBRANCH  41  42
ENDBRANCH  40  41
ENDBRANCH   9  40
TORSDOF 11
ENDMDL