MODEL 1
REMARK VINA RESULT: -9.551305066      0.000      0.000
REMARK  13 active torsions:
REMARK  status: ('A' for Active; 'I' for Inactive)
REMARK    1  A    between atoms: C4_5  and  C5_6
REMARK    2  A    between atoms: C5_6  and  C6_7
REMARK    3  A    between atoms: C6_7  and  C7_8
REMARK    4  A    between atoms: C7_8  and  C8_9
REMARK    5  A    between atoms: C9_11  and  N2_12
REMARK    6  A    between atoms: C12_17  and  N4_18
REMARK    7  A    between atoms: C18_31  and  O3_32
REMARK    8  A    between atoms: C19_34  and  C20_35
REMARK    9  A    between atoms: C20_35  and  C21_36
REMARK   10  A    between atoms: C21_36  and  N7_37
REMARK   11  A    between atoms: C21_36  and  C22_41
REMARK   12  A    between atoms: C22_41  and  O4_42
REMARK   13  A    between atoms: C22_41  and  O5_44
ROOT
HETATM    1  C8  UNL     1     -16.589   2.582  -0.325  1.00  0.00     0.142 C
HETATM    2  O1  UNL     1     -15.193   2.560  -0.154  1.00  0.00    -0.357 OA
HETATM    3  C9  UNL     1     -14.772   3.898  -0.135  1.00  0.00     0.260 C
HETATM    4  C15 UNL     1     -15.969   4.757   0.022  1.00  0.00     0.185 C
HETATM    5  O2  UNL     1     -15.916   5.762   0.979  1.00  0.00    -0.340 OA
HETATM    6  C16 UNL     1     -17.144   6.290   1.382  1.00  0.00     0.078 A
HETATM    7  C17 UNL     1     -17.247   7.466   2.064  1.00  0.00     0.074 A
HETATM    8  C18 UNL     1     -18.471   8.011   2.476  1.00  0.00     0.074 A
HETATM    9  C19 UNL     1     -19.626   7.332   2.183  1.00  0.00    -0.022 A
HETATM   10  C23 UNL     1     -19.547   6.122   1.485  1.00  0.00     0.020 A
HETATM   11  C24 UNL     1     -18.321   5.618   1.094  1.00  0.00    -0.024 A
HETATM   12  C25 UNL     1     -18.324   4.307   0.345  1.00  0.00     0.051 C
HETATM   13  C26 UNL     1     -16.979   3.720   0.552  1.00  0.00     0.054 C
ENDROOT
BRANCH   3  14
HETATM   14  N2  UNL     1     -13.731   4.145   0.815  1.00  0.00    -0.297 N
HETATM   15  C10 UNL     1     -12.964   5.237   0.968  1.00  0.00     0.188 A
HETATM   16  N3  UNL     1     -12.094   5.080   1.981  1.00  0.00    -0.346 N
HETATM   17  C11 UNL     1     -12.282   3.875   2.507  1.00  0.00     0.122 A
ATOM     18  H3  UNL     1     -11.409   5.768   2.292  1.00  0.00     0.167 HD
HETATM   19  C12 UNL     1     -11.674   3.196   3.556  1.00  0.00     0.131 A
HETATM   20  C14 UNL     1     -13.299   3.292   1.784  1.00  0.00     0.142 A
HETATM   21  N5  UNL     1     -12.106   1.957   3.846  1.00  0.00    -0.337 N
HETATM   22  C13 UNL     1     -13.099   1.380   3.146  1.00  0.00     0.183 A
ATOM     23  H5  UNL     1     -11.672   1.444   4.613  1.00  0.00     0.168 HD
HETATM   24  N6  UNL     1     -13.680   2.044   2.132  1.00  0.00    -0.336 N
ATOM     25  H6  UNL     1     -14.431   1.591   1.611  1.00  0.00     0.168 HD
BRANCH  19  26
HETATM   26  N4  UNL     1     -10.725   3.763   4.218  1.00  0.00    -0.383 N
ATOM     27  H42 UNL     1     -10.740   4.758   4.442  1.00  0.00     0.157 HD
ATOM     28  H41 UNL     1      -9.929   3.209   4.532  1.00  0.00     0.157 HD
ENDBRANCH  19  26
ENDBRANCH   3  14
BRANCH   1  29
HETATM   29  C7  UNL     1     -17.229   1.291  -0.000  1.00  0.00     0.127 C
BRANCH  29  30
HETATM   30  C6  UNL     1     -16.779   0.296  -0.976  1.00  0.00    -0.097 C
BRANCH  30  31
HETATM   31  C5  UNL     1     -16.416  -0.513  -1.799  1.00  0.00    -0.049 C
BRANCH  31  32
HETATM   32  C4  UNL     1     -15.997  -1.491  -2.764  1.00  0.00     0.088 A
HETATM   33  C3  UNL     1     -16.435  -1.499  -4.073  1.00  0.00     0.056 A
HETATM   34  C2  UNL     1     -16.014  -2.454  -4.985  1.00  0.00     0.094 A
HETATM   35  N1  UNL     1     -15.152  -3.413  -4.607  1.00  0.00    -0.357 N
HETATM   36  C1  UNL     1     -14.691  -4.436  -5.555  1.00  0.00     0.156 C
HETATM   37  C27 UNL     1     -14.724  -3.407  -3.332  1.00  0.00     0.183 A
HETATM   38  N8  UNL     1     -15.127  -2.484  -2.438  1.00  0.00    -0.345 N
ATOM     39  H8  UNL     1     -14.767  -2.531  -1.484  1.00  0.00     0.167 HD
ENDBRANCH  31  32
ENDBRANCH  30  31
ENDBRANCH  29  30
ENDBRANCH   1  29
BRANCH   8  40
HETATM   40  O3  UNL     1     -18.526   9.206   3.162  1.00  0.00    -0.360 OA
ATOM     41  H3  UNL     1     -18.570   9.226   4.111  1.00  0.00     0.217 HD
ENDBRANCH   8  40
BRANCH   9  42
HETATM   42  C20 UNL     1     -20.936   7.834   2.600  1.00  0.00     0.079 C
BRANCH  42  43
HETATM   43  C21 UNL     1     -21.457   8.987   1.807  1.00  0.00     0.242 C
BRANCH  43  44
HETATM   44  N7  UNL     1     -22.813   8.662   1.341  1.00  0.00    -0.070 N
ATOM     45  H73 UNL     1     -22.919   7.674   1.110  1.00  0.00     0.274 HD
ATOM     46  H72 UNL     1     -23.504   8.706   2.090  1.00  0.00     0.274 HD
ATOM     47  H71 UNL     1     -23.044   9.275   0.559  1.00  0.00     0.274 HD
ENDBRANCH  43  44
BRANCH  43  48
HETATM   48  C22 UNL     1     -21.657  10.227   2.694  1.00  0.00     0.284 C
BRANCH  48  49
HETATM   49  O4  UNL     1     -22.995  10.605   2.672  1.00  0.00    -0.369 OA
ATOM     50  H4  UNL     1     -23.058  11.553   2.666  1.00  0.00     0.212 HD
ENDBRANCH  48  49
BRANCH  48  51
HETATM   51  O5  UNL     1     -21.312   9.979   4.008  1.00  0.00    -0.369 OA
ATOM     52  H5  UNL     1     -20.938  10.746   4.425  1.00  0.00     0.212 HD
ENDBRANCH  48  51
ENDBRANCH  43  48
ENDBRANCH  42  43
ENDBRANCH   9  42
TORSDOF 13
ENDMDL