MODEL 2
REMARK VINA RESULT: -8.665056737      1.340      1.938
REMARK  8 active torsions:
REMARK  status: ('A' for Active; 'I' for Inactive)
REMARK    1  A    between atoms: N1_1  and  C1_5
REMARK    2  A    between atoms: C3_7  and  N2_8
REMARK    3  A    between atoms: N3_13  and  C5_14
REMARK    4  A    between atoms: C6_17  and  N5_18
REMARK    5  A    between atoms: N5_18  and  C7_20
REMARK    6  A    between atoms: N8_30  and  C13_32
REMARK    7  A    between atoms: C16_35  and  C17_36
REMARK    8  A    between atoms: C21_44  and  N10_45
ROOT
HETATM    1  C5  UNL     1     -12.585   3.427   1.084  1.00  0.00     0.709 A
HETATM    2  N4  UNL     1     -13.616   4.233   1.423  1.00  0.00    -0.021 N
ATOM      3  H4  UNL     1     -14.246   3.930   2.165  1.00  0.00     0.203 HD
HETATM    4  C6  UNL     1     -13.851   5.423   0.825  1.00  0.00     0.711 A
HETATM    5  N9  UNL     1     -13.011   5.800  -0.147  1.00  0.00    -0.021 N
ATOM      6  H9  UNL     1     -13.170   6.693  -0.615  1.00  0.00     0.203 HD
HETATM    7  C21 UNL     1     -11.964   5.043  -0.532  1.00  0.00     0.709 A
HETATM    8  N12 UNL     1     -11.784   3.861   0.109  1.00  0.00    -0.021 N
ATOM      9  H12 UNL     1     -10.997   3.275  -0.168  1.00  0.00     0.203 HD
ENDROOT
BRANCH   4  10
HETATM   10  N5  UNL     1     -14.864   6.089   1.240  1.00  0.00    -0.191 N
ATOM     11  H5  UNL     1     -14.699   6.983   1.700  1.00  0.00     0.184 HD
BRANCH  10  12
HETATM   12  C7  UNL     1     -16.200   5.646   1.092  1.00  0.00     0.050 A
HETATM   13  C8  UNL     1     -17.295   6.343   1.563  1.00  0.00     0.032 A
HETATM   14  C9  UNL     1     -18.589   5.900   1.402  1.00  0.00     0.033 A
HETATM   15  C10 UNL     1     -18.798   4.705   0.740  1.00  0.00     0.047 A
HETATM   16  N6  UNL     1     -20.026   4.213   0.547  1.00  0.00    -0.352 N
HETATM   17  C19 UNL     1     -17.720   3.970   0.249  1.00  0.00     0.037 A
HETATM   18  C11 UNL     1     -20.222   3.055  -0.095  1.00  0.00     0.182 A
ATOM     19  H6  UNL     1     -20.831   4.732   0.896  1.00  0.00     0.166 HD
HETATM   20  N7  UNL     1     -19.165   2.340  -0.573  1.00  0.00    -0.338 N
HETATM   21  C12 UNL     1     -17.901   2.761  -0.422  1.00  0.00     0.115 A
ATOM     22  H7  UNL     1     -19.341   1.460  -1.059  1.00  0.00     0.168 HD
HETATM   23  N8  UNL     1     -16.852   2.160  -0.837  1.00  0.00    -0.371 N
ATOM     24  H8  UNL     1     -15.937   2.577  -0.664  1.00  0.00     0.161 HD
HETATM   25  C20 UNL     1     -16.442   4.452   0.434  1.00  0.00     0.047 A
BRANCH  23  26
HETATM   26  C13 UNL     1     -16.932   0.921  -1.536  1.00  0.00     0.084 C
HETATM   27  C14 UNL     1     -16.213  -0.218  -0.832  1.00  0.00     0.026 C
HETATM   28  C15 UNL     1     -15.775  -1.186  -1.878  1.00  0.00     0.017 C
HETATM   29  C16 UNL     1     -15.744  -0.409  -3.148  1.00  0.00     0.089 C
HETATM   30  C18 UNL     1     -16.244   0.982  -2.894  1.00  0.00     0.040 C
BRANCH  29  31
HETATM   31  C17 UNL     1     -16.576  -1.092  -4.175  1.00  0.00     0.177 C
HETATM   32  O1  UNL     1     -16.951  -2.302  -4.057  1.00  0.00    -0.648 OA
HETATM   33  O2  UNL     1     -16.946  -0.364  -5.294  1.00  0.00    -0.648 OA
ENDBRANCH  29  31
ENDBRANCH  23  26
ENDBRANCH  10  12
ENDBRANCH   4  10
BRANCH   1  34
HETATM   34  N3  UNL     1     -12.440   2.198   1.785  1.00  0.00    -0.213 N
HETATM   35  C4  UNL     1     -13.307   1.110   1.486  1.00  0.00     0.174 C
HETATM   36  C3  UNL     1     -13.528   0.107   2.563  1.00  0.00     0.204 C
HETATM   37  C2  UNL     1     -12.413  -0.114   3.515  1.00  0.00     0.069 C
HETATM   38  C1  UNL     1     -11.194   0.716   3.318  1.00  0.00     0.204 C
HETATM   39  C26 UNL     1     -11.412   2.080   2.779  1.00  0.00     0.174 C
BRANCH  36  40
HETATM   40  N2  UNL     1     -13.925  -1.143   1.886  1.00  0.00    -0.073 N
ATOM     41  H23 UNL     1     -13.960  -1.926   2.540  1.00  0.00     0.274 HD
ATOM     42  H22 UNL     1     -14.908  -1.122   1.612  1.00  0.00     0.274 HD
ATOM     43  H21 UNL     1     -13.322  -1.350   1.090  1.00  0.00     0.274 HD
ENDBRANCH  36  40
BRANCH  38  44
HETATM   44  N1  UNL     1     -10.222  -0.016   2.507  1.00  0.00    -0.073 N
ATOM     45  H13 UNL     1      -9.318   0.457   2.473  1.00  0.00     0.274 HD
ATOM     46  H12 UNL     1      -9.920  -0.879   2.958  1.00  0.00     0.274 HD
ATOM     47  H11 UNL     1     -10.604  -0.182   1.576  1.00  0.00     0.274 HD
ENDBRANCH  38  44
ENDBRANCH   1  34
BRANCH   7  48
HETATM   48  N10 UNL     1     -11.064   5.428  -1.562  1.00  0.00    -0.213 N
HETATM   49  C22 UNL     1     -11.211   6.715  -2.233  1.00  0.00     0.168 C
HETATM   50  C23 UNL     1     -10.075   6.863  -3.215  1.00  0.00     0.252 C
HETATM   51  N11 UNL     1     -10.004   5.748  -4.133  1.00  0.00    -0.072 N
HETATM   52  C24 UNL     1      -9.861   4.477  -3.474  1.00  0.00     0.252 C
ATOM     53 2H11 UNL     1     -10.808   5.742  -4.760  1.00  0.00     0.277 HD
ATOM     54 1H11 UNL     1      -9.259   5.887  -4.815  1.00  0.00     0.277 HD
HETATM   55  C25 UNL     1     -10.000   4.564  -1.967  1.00  0.00     0.168 C
ENDBRANCH   7  48
TORSDOF 8
ENDMDL