MODEL 2
REMARK VINA RESULT: -7.889479042      1.692      2.139
REMARK  11 active torsions:
REMARK  status: ('A' for Active; 'I' for Inactive)
REMARK    1  A    between atoms: C2_2  and  O1_3
REMARK    2  A    between atoms: C2_2  and  C3_5
REMARK    3  A    between atoms: C3_5  and  O2_6
REMARK    4  A    between atoms: C3_5  and  N1_8
REMARK    5  A    between atoms: C6_11  and  N2_12
REMARK    6  A    between atoms: N3_15  and  C8_16
REMARK    7  A    between atoms: C9_18  and  C10_19
REMARK       I    between atoms: C10_19  and  N4_21
REMARK    8  A    between atoms: N4_21  and  C11_23
REMARK    9  A    between atoms: C17_29  and  O5_30
REMARK   10  A    between atoms: C18_32  and  O6_33
REMARK   11  A    between atoms: C21_41  and  N7_42
ROOT
HETATM    1  N2  UNL     1     -12.545   0.832   1.963  1.00  0.00    -0.264 N
HETATM    2  C7  UNL     1     -13.079   2.066   2.231  1.00  0.00     0.336 A
HETATM    3  O3  UNL     1     -12.423   2.936   2.892  1.00  0.00    -0.246 OA
HETATM    4  N3  UNL     1     -14.302   2.194   1.723  1.00  0.00    -0.266 N
HETATM    5  C19 UNL     1     -14.596   1.051   1.114  1.00  0.00     0.145 A
HETATM    6  N5  UNL     1     -15.674   0.616   0.438  1.00  0.00    -0.336 N
ATOM      7  H5  UNL     1     -16.480   1.232   0.324  1.00  0.00     0.168 HD
HETATM    8  C20 UNL     1     -15.703  -0.607  -0.083  1.00  0.00     0.183 A
HETATM    9  N6  UNL     1     -14.678  -1.463   0.031  1.00  0.00    -0.337 N
ATOM     10  H6  UNL     1     -14.732  -2.394  -0.382  1.00  0.00     0.168 HD
HETATM   11  C21 UNL     1     -13.565  -1.068   0.706  1.00  0.00     0.131 A
HETATM   12  C22 UNL     1     -13.505   0.191   1.256  1.00  0.00     0.132 A
ENDROOT
BRANCH   4  13
HETATM   13  C8  UNL     1     -15.104   3.354   1.839  1.00  0.00     0.190 C
HETATM   14  S1  UNL     1     -16.338   3.297   0.467  1.00  0.00    -0.123 SA
HETATM   15  C9  UNL     1     -16.628   5.111   0.406  1.00  0.00     0.172 C
HETATM   16  C17 UNL     1     -15.462   5.679   1.129  1.00  0.00     0.172 C
HETATM   17  C18 UNL     1     -14.498   4.652   1.555  1.00  0.00     0.181 C
BRANCH  15  18
HETATM   18  C10 UNL     1     -17.926   5.447   1.041  1.00  0.00     0.234 C
HETATM   19  O4  UNL     1     -18.830   4.588   1.026  1.00  0.00    -0.272 OA
HETATM   20  N4  UNL     1     -18.071   6.729   1.632  1.00  0.00    -0.355 N
ATOM     21  H4  UNL     1     -17.277   7.369   1.597  1.00  0.00     0.162 HD
BRANCH  20  22
HETATM   22  C11 UNL     1     -19.285   7.179   2.284  1.00  0.00     0.084 C
HETATM   23  C12 UNL     1     -20.507   6.921   1.429  1.00  0.00     0.025 C
HETATM   24  C13 UNL     1     -21.717   7.193   2.325  1.00  0.00     0.002 C
HETATM   25  C14 UNL     1     -21.741   8.643   2.749  1.00  0.00     0.000 C
HETATM   26  C15 UNL     1     -20.449   8.992   3.429  1.00  0.00     0.002 C
HETATM   27  C16 UNL     1     -19.229   8.658   2.606  1.00  0.00     0.025 C
ENDBRANCH  20  22
ENDBRANCH  15  18
BRANCH  16  28
HETATM   28  O5  UNL     1     -14.879   6.742   0.430  1.00  0.00    -0.391 OA
ATOM     29  H5  UNL     1     -13.963   6.582   0.237  1.00  0.00     0.210 HD
ENDBRANCH  16  28
BRANCH  17  30
HETATM   30  O6  UNL     1     -13.913   5.100   2.773  1.00  0.00    -0.390 OA
ATOM     31  H6  UNL     1     -14.454   4.756   3.475  1.00  0.00     0.210 HD
ENDBRANCH  17  30
ENDBRANCH   4  13
BRANCH   1  32
HETATM   32  C6  UNL     1     -11.259   0.322   2.350  1.00  0.00     0.003 C
HETATM   33  C5  UNL     1     -10.968   0.030   3.765  1.00  0.00     0.073 C
HETATM   34  C4  UNL     1     -10.136  -1.291   3.818  1.00  0.00     0.130 C
HETATM   35  N1  UNL     1      -8.927  -0.868   3.007  1.00  0.00    -0.359 N
HETATM   36  C24 UNL     1      -9.153  -0.567   1.645  1.00  0.00     0.130 C
HETATM   37  C23 UNL     1     -10.065   0.705   1.536  1.00  0.00     0.073 C
BRANCH  35  38
HETATM   38  C3  UNL     1      -7.726  -0.857   3.689  1.00  0.00     0.171 C
BRANCH  38  39
HETATM   39  C2  UNL     1      -6.747  -1.840   4.009  1.00  0.00     0.106 C
HETATM   40  C1  UNL     1      -5.986  -2.482   3.191  1.00  0.00     0.055 C
BRANCH  39  41
HETATM   41  O1  UNL     1      -6.592  -2.162   5.427  1.00  0.00    -0.357 OA
ATOM     42  H1  UNL     1      -7.386  -2.389   5.896  1.00  0.00     0.217 HD
ENDBRANCH  39  41
ENDBRANCH  38  39
BRANCH  38  43
HETATM   43  O2  UNL     1      -7.356   0.348   4.180  1.00  0.00    -0.344 OA
ATOM     44  H2  UNL     1      -8.014   0.672   4.786  1.00  0.00     0.219 HD
ENDBRANCH  38  43
ENDBRANCH  35  38
ENDBRANCH   1  32
BRANCH  11  45
HETATM   45  N7  UNL     1     -12.573  -1.863   0.828  1.00  0.00    -0.383 N
ATOM     46  H72 UNL     1     -11.877  -1.925   0.085  1.00  0.00     0.157 HD
ATOM     47  H71 UNL     1     -12.477  -2.437   1.666  1.00  0.00     0.157 HD
ENDBRANCH  11  45
TORSDOF 11
ENDMDL