MODEL 2
REMARK VINA RESULT: -6.662177746      3.297      7.575
REMARK  10 active torsions:
REMARK  status: ('A' for Active; 'I' for Inactive)
REMARK    1  A    between atoms: C2_2  and  S1_3
REMARK    2  A    between atoms: C2_2  and  C12_19
REMARK    3  A    between atoms: S1_3  and  C3_4
REMARK    4  A    between atoms: C3_4  and  O1_5
REMARK    5  A    between atoms: C3_4  and  N1_7
REMARK    6  A    between atoms: N2_10  and  S2_11
REMARK    7  A    between atoms: S2_11  and  C6_13
REMARK       I    between atoms: C12_19  and  N3_21
REMARK    8  A    between atoms: N3_21  and  C13_23
REMARK    9  A    between atoms: C15_25  and  N4_26
REMARK   10  A    between atoms: C18_34  and  N7_35
ROOT
HETATM    1  C12 UNL     1     -12.612   2.621   2.124  1.00  0.00     0.236 C
HETATM    2  O3  UNL     1     -12.600   3.859   2.252  1.00  0.00    -0.272 OA
HETATM    3  N3  UNL     1     -13.439   1.986   1.197  1.00  0.00    -0.323 N
ATOM      4  H3  UNL     1     -13.363   0.970   1.178  1.00  0.00     0.169 HD
ENDROOT
BRANCH   3   5
HETATM    5  C13 UNL     1     -14.364   2.532   0.283  1.00  0.00     0.079 A
HETATM    6  C14 UNL     1     -15.682   2.815   0.565  1.00  0.00     0.071 A
HETATM    7  C15 UNL     1     -16.503   3.345  -0.397  1.00  0.00     0.144 A
HETATM    8  C19 UNL     1     -16.027   3.598  -1.648  1.00  0.00     0.276 A
HETATM    9  O5  UNL     1     -16.790   4.091  -2.544  1.00  0.00    -0.266 OA
HETATM   10  N8  UNL     1     -14.755   3.316  -1.895  1.00  0.00    -0.308 N
HETATM   11  C20 UNL     1     -13.906   2.801  -1.005  1.00  0.00     0.146 A
ATOM     12  H8  UNL     1     -14.402   3.506  -2.833  1.00  0.00     0.170 HD
HETATM   13  N9  UNL     1     -12.539   2.531  -1.370  1.00  0.00    -0.080 NA
BRANCH   7  14
HETATM   14  N4  UNL     1     -17.871   3.632  -0.081  1.00  0.00    -0.081 N
HETATM   15  N5  UNL     1     -18.845   2.844  -0.517  1.00  0.00    -0.285 N
HETATM   16  C16 UNL     1     -20.126   3.117  -0.220  1.00  0.00     0.183 A
ATOM     17  H5  UNL     1     -18.620   2.026  -1.083  1.00  0.00     0.187 HD
HETATM   18  C17 UNL     1     -20.418   4.226   0.543  1.00  0.00     0.276 A
HETATM   19  O4  UNL     1     -21.606   4.488   0.823  1.00  0.00    -0.266 OA
HETATM   20  N6  UNL     1     -19.431   5.025   0.984  1.00  0.00    -0.153 N
HETATM   21  C18 UNL     1     -18.145   4.715   0.664  1.00  0.00     0.700 A
ATOM     22  H6  UNL     1     -19.642   5.848   1.549  1.00  0.00     0.187 HD
BRANCH  21  23
HETATM   23  N7  UNL     1     -17.186   5.479   1.086  1.00  0.00    -0.233 N
ATOM     24  H72 UNL     1     -16.315   5.055   1.404  1.00  0.00     0.174 HD
ATOM     25  H71 UNL     1     -17.302   6.492   1.100  1.00  0.00     0.174 HD
ENDBRANCH  21  23
ENDBRANCH   7  14
ENDBRANCH   3   5
BRANCH   1  26
HETATM   26  C2  UNL     1     -11.682   1.843   3.024  1.00  0.00     0.144 C
HETATM   27  C1  UNL     1     -10.564   2.796   3.440  1.00  0.00     0.032 C
BRANCH  26  28
HETATM   28  S1  UNL     1     -10.932   0.479   2.165  1.00  0.00    -0.073 SA
BRANCH  28  29
HETATM   29  C3  UNL     1     -11.848  -1.005   2.216  1.00  0.00     0.178 C
BRANCH  29  30
HETATM   30  O1  UNL     1     -11.597  -1.738   3.281  1.00  0.00    -0.341 OA
ATOM     31  H1  UNL     1     -12.224  -2.439   3.413  1.00  0.00     0.220 HD
ENDBRANCH  29  30
BRANCH  29  32
HETATM   32  N1  UNL     1     -12.789  -1.523   1.328  1.00  0.00    -0.353 N
HETATM   33  C4  UNL     1     -12.288  -2.092   0.057  1.00  0.00     0.146 C
HETATM   34  C5  UNL     1     -12.792  -1.198  -1.047  1.00  0.00     0.152 C
HETATM   35  N2  UNL     1     -14.197  -1.002  -0.897  1.00  0.00    -0.328 N
HETATM   36  C10 UNL     1     -14.851  -1.801   0.063  1.00  0.00     0.152 C
HETATM   37  C11 UNL     1     -14.206  -1.537   1.462  1.00  0.00     0.146 C
BRANCH  35  38
HETATM   38  S2  UNL     1     -15.060  -0.520  -2.259  1.00  0.00     0.120 S
HETATM   39  O2  UNL     1     -16.583   0.081  -1.880  1.00  0.00    -0.235 OA
BRANCH  38  40
HETATM   40  C6  UNL     1     -15.100  -1.691  -3.562  1.00  0.00     0.046 C
HETATM   41  C7  UNL     1     -14.739  -3.096  -3.135  1.00  0.00     0.030 C
HETATM   42  C8  UNL     1     -16.504  -1.765  -4.155  1.00  0.00     0.030 C
HETATM   43  C9  UNL     1     -14.171  -1.265  -4.657  1.00  0.00     0.030 C
ENDBRANCH  38  40
ENDBRANCH  35  38
ENDBRANCH  29  32
ENDBRANCH  28  29
ENDBRANCH  26  28
ENDBRANCH   1  26
TORSDOF 10
ENDMDL