MODEL 4
REMARK VINA RESULT: -6.361552964      2.143      3.470
REMARK  12 active torsions:
REMARK  status: ('A' for Active; 'I' for Inactive)
REMARK    1  A    between atoms: C4_6  and  N2_7
REMARK    2  A    between atoms: N2_7  and  C5_8
REMARK    3  A    between atoms: C8_11  and  C9_12
REMARK    4  A    between atoms: C9_12  and  N3_13
REMARK    5  A    between atoms: C16_25  and  N6_26
REMARK    6  A    between atoms: N8_32  and  C18_33
REMARK    7  A    between atoms: C19_35  and  C20_36
REMARK    8  A    between atoms: C20_36  and  O2_37
REMARK    9  A    between atoms: C21_39  and  O3_40
REMARK   10  A    between atoms: O3_40  and  C22_41
REMARK   11  A    between atoms: C22_41  and  N9_43
REMARK   12  A    between atoms: C25_46  and  O4_47
ROOT
HETATM    1  C1  UNL     1     -17.220   1.217  -0.612  1.00  0.00     0.089 C
HETATM    2  C2  UNL     1     -16.104   0.253  -0.754  1.00  0.00     0.083 A
HETATM    3  N1  UNL     1     -15.268   0.020   0.301  1.00  0.00    -0.339 N
ATOM      4  H1  UNL     1     -15.328   0.445   1.225  1.00  0.00     0.167 HD
HETATM    5  C3  UNL     1     -14.356  -0.868  -0.106  1.00  0.00     0.138 A
HETATM    6  C4  UNL     1     -13.270  -1.450   0.564  1.00  0.00     0.218 A
HETATM    7  N5  UNL     1     -12.528  -2.322  -0.150  1.00  0.00    -0.163 N
ATOM      8  H5  UNL     1     -11.730  -2.763   0.307  1.00  0.00     0.187 HD
HETATM    9  C16 UNL     1     -12.779  -2.637  -1.411  1.00  0.00     0.679 A
HETATM   10  N7  UNL     1     -13.823  -2.071  -2.036  1.00  0.00    -0.174 N
ATOM     11  H7  UNL     1     -14.014  -2.314  -3.008  1.00  0.00     0.186 HD
HETATM   12  C17 UNL     1     -14.628  -1.183  -1.404  1.00  0.00     0.158 A
HETATM   13  N8  UNL     1     -15.731  -0.478  -1.813  1.00  0.00    -0.290 N
ENDROOT
BRANCH   6  14
HETATM   14  N2  UNL     1     -13.006  -1.186   1.690  1.00  0.00    -0.422 NA
BRANCH  14  15
HETATM   15  C5  UNL     1     -12.691  -0.861   2.947  1.00  0.00     0.165 C
HETATM   16  C6  UNL     1     -13.457   0.292   3.585  1.00  0.00     0.040 C
HETATM   17  C7  UNL     1     -13.254   1.581   2.883  1.00  0.00     0.009 C
HETATM   18  C8  UNL     1     -11.849   1.873   2.483  1.00  0.00     0.014 C
HETATM   19  C14 UNL     1     -11.010   0.699   2.119  1.00  0.00     0.009 C
HETATM   20  C15 UNL     1     -11.212  -0.442   3.072  1.00  0.00     0.040 C
BRANCH  18  21
HETATM   21  C9  UNL     1     -11.105   2.704   3.506  1.00  0.00     0.277 C
BRANCH  21  22
HETATM   22  N3  UNL     1      -9.999   3.416   2.950  1.00  0.00     0.092 N
HETATM   23  C10 UNL     1      -8.766   3.310   3.666  1.00  0.00     0.300 C
HETATM   24  C11 UNL     1      -7.730   4.116   2.873  1.00  0.00     0.262 C
HETATM   25  N4  UNL     1      -8.046   5.512   2.841  1.00  0.00    -0.072 N
HETATM   26  C12 UNL     1      -9.394   5.777   3.257  1.00  0.00     0.262 C
ATOM     27  H42 UNL     1      -7.378   6.053   3.392  1.00  0.00     0.277 HD
ATOM     28  H41 UNL     1      -7.859   5.911   1.921  1.00  0.00     0.277 HD
HETATM   29  C13 UNL     1     -10.398   4.792   2.724  1.00  0.00     0.300 C
ENDBRANCH  21  22
ENDBRANCH  18  21
ENDBRANCH  14  15
ENDBRANCH   6  14
BRANCH   9  30
HETATM   30  N6  UNL     1     -12.033  -3.474  -2.034  1.00  0.00    -0.234 N
ATOM     31  H62 UNL     1     -11.545  -4.206  -1.518  1.00  0.00     0.174 HD
ATOM     32  H61 UNL     1     -11.923  -3.415  -3.046  1.00  0.00     0.174 HD
ENDBRANCH   9  30
BRANCH  13  33
HETATM   33  C18 UNL     1     -16.283  -0.582  -3.125  1.00  0.00     0.263 C
HETATM   34  O1  UNL     1     -15.784   0.483  -3.893  1.00  0.00    -0.353 OA
HETATM   35  C19 UNL     1     -14.881  -0.032  -4.804  1.00  0.00     0.180 C
HETATM   36  C21 UNL     1     -15.662  -1.259  -5.287  1.00  0.00     0.195 C
HETATM   37  C25 UNL     1     -16.025  -1.826  -3.888  1.00  0.00     0.199 C
BRANCH  35  38
HETATM   38  C20 UNL     1     -14.722   0.883  -5.991  1.00  0.00     0.198 C
BRANCH  38  39
HETATM   39  O2  UNL     1     -15.205   0.287  -7.150  1.00  0.00    -0.398 OA
ATOM     40  H2  UNL     1     -14.618   0.436  -7.881  1.00  0.00     0.209 HD
ENDBRANCH  38  39
ENDBRANCH  35  38
BRANCH  36  41
HETATM   41  O3  UNL     1     -14.851  -2.134  -6.006  1.00  0.00    -0.316 OA
BRANCH  41  42
HETATM   42  C22 UNL     1     -15.409  -3.284  -6.566  1.00  0.00     0.212 C
HETATM   43  S1  UNL     1     -16.569  -3.110  -7.706  1.00  0.00    -0.033 SA
BRANCH  42  44
HETATM   44  N9  UNL     1     -15.012  -4.585  -6.187  1.00  0.00    -0.361 N
HETATM   45  C23 UNL     1     -14.181  -4.835  -5.025  1.00  0.00     0.152 C
HETATM   46  C24 UNL     1     -15.432  -5.725  -6.969  1.00  0.00     0.152 C
ENDBRANCH  42  44
ENDBRANCH  41  42
ENDBRANCH  36  41
BRANCH  37  47
HETATM   47  O4  UNL     1     -17.207  -2.554  -4.147  1.00  0.00    -0.388 OA
ATOM     48  H4  UNL     1     -17.256  -2.858  -5.046  1.00  0.00     0.210 HD
ENDBRANCH  37  47
ENDBRANCH  13  33
TORSDOF 12
ENDMDL