MODEL 3
REMARK VINA RESULT: -8.062514659      1.433      1.971
REMARK  8 active torsions:
REMARK  status: ('A' for Active; 'I' for Inactive)
REMARK    1  A    between atoms: C2_3  and  C3_4
REMARK       I    between atoms: C3_4  and  N2_6
REMARK    2  A    between atoms: N2_6  and  C4_8
REMARK    3  A    between atoms: C5_9  and  N3_10
REMARK    4  A    between atoms: N3_10  and  N4_12
REMARK    5  A    between atoms: N4_12  and  C6_14
REMARK    6  A    between atoms: C11_28  and  C12_29
REMARK    7  A    between atoms: C12_29  and  O2_30
REMARK    8  A    between atoms: O2_30  and  C13_31
REMARK       I    between atoms: C13_31  and  N10_33
ROOT
HETATM    1  C4  UNL     1     -16.348   0.179  -1.010  1.00  0.00     0.186 C
HETATM    2  C5  UNL     1     -16.915   1.281  -1.891  1.00  0.00     0.121 C
HETATM    3  N9  UNL     1     -16.164   0.821  -3.018  1.00  0.00    -0.344 N
HETATM    4  C11 UNL     1     -15.469   0.751  -4.288  1.00  0.00     0.120 C
HETATM    5  C18 UNL     1     -14.053   0.269  -3.997  1.00  0.00     0.103 C
HETATM    6  S1  UNL     1     -14.379  -0.921  -2.661  1.00  0.00    -0.139 SA
HETATM    7  C19 UNL     1     -16.116  -0.469  -2.324  1.00  0.00     0.178 C
ENDROOT
BRANCH   2   8
HETATM    8  N3  UNL     1     -17.762   2.177  -1.552  1.00  0.00    -0.286 N
ATOM      9  H3  UNL     1     -17.842   3.018  -2.123  1.00  0.00     0.188 HD
BRANCH   8  10
HETATM   10  N4  UNL     1     -18.568   2.051  -0.450  1.00  0.00    -0.282 N
ATOM     11  H4  UNL     1     -18.723   1.141  -0.016  1.00  0.00     0.188 HD
BRANCH  10  12
HETATM   12  C6  UNL     1     -19.126   3.122   0.024  1.00  0.00     0.152 A
HETATM   13  N5  UNL     1     -20.475   3.252   0.069  1.00  0.00    -0.336 N
HETATM   14  C7  UNL     1     -21.065   4.344   0.562  1.00  0.00     0.183 A
ATOM     15  H5  UNL     1     -21.057   2.493  -0.284  1.00  0.00     0.168 HD
HETATM   16  N6  UNL     1     -20.310   5.356   1.035  1.00  0.00    -0.337 N
HETATM   17  C8  UNL     1     -18.978   5.270   1.010  1.00  0.00     0.138 A
ATOM     18  H6  UNL     1     -20.758   6.191   1.413  1.00  0.00     0.168 HD
HETATM   19  N7  UNL     1     -18.022   6.137   1.422  1.00  0.00    -0.337 N
HETATM   20  C10 UNL     1     -18.341   4.145   0.501  1.00  0.00     0.123 A
HETATM   21  C9  UNL     1     -16.853   5.551   1.167  1.00  0.00     0.182 A
ATOM     22  H7  UNL     1     -18.167   7.055   1.842  1.00  0.00     0.168 HD
HETATM   23  N8  UNL     1     -17.006   4.344   0.610  1.00  0.00    -0.346 N
ATOM     24  H8  UNL     1     -16.265   3.703   0.326  1.00  0.00     0.167 HD
ENDBRANCH  10  12
ENDBRANCH   8  10
ENDBRANCH   2   8
BRANCH   1  25
HETATM   25  N2  UNL     1     -15.193   0.736  -0.340  1.00  0.00    -0.341 N
HETATM   26  C3  UNL     1     -15.334   1.282   0.974  1.00  0.00     0.269 C
HETATM   27  O1  UNL     1     -16.491   1.253   1.491  1.00  0.00    -0.266 OA
ATOM     28  H2  UNL     1     -14.284   0.740  -0.802  1.00  0.00     0.163 HD
BRANCH  26  29
HETATM   29  C2  UNL     1     -14.160   1.827   1.622  1.00  0.00     0.104 A
HETATM   30  N1  UNL     1     -13.331   1.021   2.341  1.00  0.00    -0.332 N
HETATM   31  C1  UNL     1     -13.686  -0.365   2.511  1.00  0.00     0.158 C
HETATM   32  C23 UNL     1     -12.198   1.492   2.928  1.00  0.00     0.126 A
HETATM   33  C22 UNL     1     -11.833   2.848   2.817  1.00  0.00     0.090 A
HETATM   34  N12 UNL     1     -11.372   0.798   3.599  1.00  0.00    -0.384 N
HETATM   35  C21 UNL     1     -12.644   3.669   2.108  1.00  0.00     0.033 A
HETATM   36  N11 UNL     1     -10.656   3.359   3.417  1.00  0.00    -0.098 NA
HETATM   37  C20 UNL     1     -13.797   3.154   1.518  1.00  0.00     0.037 A
ATOM     38 2H12 UNL     1     -11.637  -0.183   3.680  1.00  0.00     0.157 HD
ATOM     39 1H12 UNL     1     -10.522   1.152   4.040  1.00  0.00     0.157 HD
ENDBRANCH  26  29
ENDBRANCH   1  25
BRANCH   4  40
HETATM   40  C12 UNL     1     -15.308   2.144  -4.837  1.00  0.00     0.206 C
BRANCH  40  41
HETATM   41  O2  UNL     1     -14.544   2.905  -3.940  1.00  0.00    -0.302 OA
BRANCH  41  42
HETATM   42  C13 UNL     1     -14.967   4.044  -3.288  1.00  0.00     0.362 C
HETATM   43  O3  UNL     1     -16.174   4.377  -3.362  1.00  0.00    -0.238 OA
HETATM   44  N10 UNL     1     -14.080   4.866  -2.524  1.00  0.00    -0.328 N
HETATM   45  C14 UNL     1     -12.678   4.608  -2.370  1.00  0.00     0.128 C
HETATM   46  C17 UNL     1     -14.450   6.050  -1.806  1.00  0.00     0.128 C
HETATM   47  C15 UNL     1     -12.180   5.666  -1.404  1.00  0.00     0.022 C
HETATM   48  C16 UNL     1     -13.456   6.115  -0.679  1.00  0.00     0.022 C
ENDBRANCH  41  42
ENDBRANCH  40  41
ENDBRANCH   4  40
TORSDOF 8
ENDMDL