MODEL 1
REMARK VINA RESULT: -10.332365390      0.000      0.000
REMARK  8 active torsions:
REMARK  status: ('A' for Active; 'I' for Inactive)
REMARK       I    between atoms: C2_2  and  N1_4
REMARK    1  A    between atoms: N1_4  and  C3_6
REMARK    2  A    between atoms: C5_8  and  N2_9
REMARK    3  A    between atoms: C8_17  and  N5_18
REMARK    4  A    between atoms: N5_18  and  C9_20
REMARK    5  A    between atoms: C10_23  and  N7_24
REMARK    6  A    between atoms: N7_24  and  C11_25
REMARK    7  A    between atoms: C14_28  and  N8_29
REMARK    8  A    between atoms: C17_36  and  N10_37
ROOT
HETATM    1  C9  UNL     1     -17.315   1.839  -0.407  1.00  0.00     0.715 A
HETATM    2  N6  UNL     1     -18.265   2.641  -0.011  1.00  0.00    -0.147 N
ATOM      3  H6  UNL     1     -19.219   2.281   0.019  1.00  0.00     0.188 HD
HETATM    4  C10 UNL     1     -18.051   3.936   0.367  1.00  0.00     0.288 A
HETATM    5  N9  UNL     1     -16.730   4.351   0.301  1.00  0.00    -0.148 N
ATOM      6  H9  UNL     1     -16.507   5.309   0.572  1.00  0.00     0.188 HD
HETATM    7  C17 UNL     1     -15.736   3.555  -0.100  1.00  0.00     0.698 A
HETATM    8  N12 UNL     1     -16.061   2.298  -0.450  1.00  0.00    -0.021 N
ATOM      9  H12 UNL     1     -15.320   1.669  -0.761  1.00  0.00     0.203 HD
ENDROOT
BRANCH   1  10
HETATM   10  N5  UNL     1     -17.603   0.462  -0.801  1.00  0.00    -0.021 N
ATOM     11  H5  UNL     1     -18.558   0.113  -0.882  1.00  0.00     0.203 HD
BRANCH  10  12
HETATM   12  C8  UNL     1     -16.559  -0.305  -1.046  1.00  0.00     0.712 A
HETATM   13  N4  UNL     1     -16.469  -0.999  -2.182  1.00  0.00    -0.186 N
HETATM   14  C7  UNL     1     -15.424  -1.778  -2.419  1.00  0.00     0.215 A
ATOM     15  H4  UNL     1     -17.213  -0.929  -2.876  1.00  0.00     0.185 HD
HETATM   16  N3  UNL     1     -14.441  -1.885  -1.528  1.00  0.00    -0.186 N
HETATM   17  C6  UNL     1     -14.468  -1.193  -0.326  1.00  0.00     0.699 A
ATOM     18  H3  UNL     1     -13.648  -2.491  -1.735  1.00  0.00     0.185 HD
HETATM   19  N2  UNL     1     -13.516  -1.363   0.427  1.00  0.00    -0.175 N
HETATM   20  N13 UNL     1     -15.566  -0.415  -0.151  1.00  0.00    -0.021 N
ATOM     21  H2  UNL     1     -12.895  -2.014  -0.054  1.00  0.00     0.186 HD
ATOM     22  H13 UNL     1     -15.641   0.119   0.715  1.00  0.00     0.203 HD
BRANCH  19  23
HETATM   23  C5  UNL     1     -12.917  -1.084   1.595  1.00  0.00     0.139 A
HETATM   24  C4  UNL     1     -11.636  -1.233   2.068  1.00  0.00     0.100 A
HETATM   25  C3  UNL     1     -11.538  -0.784   3.387  1.00  0.00     0.126 A
HETATM   26  N15 UNL     1     -12.782  -0.371   3.672  1.00  0.00    -0.284 N
HETATM   27  N14 UNL     1     -13.594  -0.529   2.672  1.00  0.00    -0.283 N
ATOM     28  H15 UNL     1     -13.059   0.022   4.572  1.00  0.00     0.188 HD
ATOM     29  H14 UNL     1     -14.583  -0.282   2.676  1.00  0.00     0.188 HD
BRANCH  25  30
HETATM   30  N1  UNL     1     -10.492  -0.772   4.158  1.00  0.00    -0.312 N
HETATM   31  C2  UNL     1      -9.270  -0.314   3.578  1.00  0.00     0.219 C
HETATM   32  C1  UNL     1      -9.131   1.143   3.292  1.00  0.00     0.117 C
HETATM   33  O1  UNL     1      -8.351  -1.118   3.322  1.00  0.00    -0.274 OA
ATOM     34  H1  UNL     1     -10.541  -1.077   5.130  1.00  0.00     0.170 HD
ENDBRANCH  25  30
ENDBRANCH  19  23
ENDBRANCH  10  12
ENDBRANCH   1  10
BRANCH   4  35
HETATM   35  N7  UNL     1     -18.947   4.639   0.703  1.00  0.00    -0.370 NA
BRANCH  35  36
HETATM   36  C11 UNL     1     -19.921   5.409   1.070  1.00  0.00     0.111 A
HETATM   37  C12 UNL     1     -21.264   4.980   0.943  1.00  0.00     0.047 A
HETATM   38  C13 UNL     1     -22.303   5.767   1.329  1.00  0.00     0.039 A
HETATM   39  C14 UNL     1     -22.097   7.009   1.860  1.00  0.00     0.103 A
HETATM   40  C15 UNL     1     -20.807   7.456   1.997  1.00  0.00     0.039 A
HETATM   41  C16 UNL     1     -19.737   6.712   1.628  1.00  0.00     0.047 A
BRANCH  39  42
HETATM   42  N8  UNL     1     -23.220   7.775   2.247  1.00  0.00    -0.116 N
HETATM   43  O2  UNL     1     -24.356   7.284   2.308  1.00  0.00    -0.532 OA
HETATM   44  O3  UNL     1     -23.048   9.094   2.565  1.00  0.00    -0.532 OA
ENDBRANCH  39  42
ENDBRANCH  35  36
ENDBRANCH   4  35
BRANCH   7  45
HETATM   45  N10 UNL     1     -14.406   4.081  -0.118  1.00  0.00    -0.213 N
HETATM   46  C18 UNL     1     -13.338   3.410   0.633  1.00  0.00     0.168 C
HETATM   47  C19 UNL     1     -12.818   4.369   1.663  1.00  0.00     0.253 C
HETATM   48  N11 UNL     1     -13.407   5.687   1.521  1.00  0.00    -0.068 N
HETATM   49  C20 UNL     1     -13.379   6.199   0.178  1.00  0.00     0.200 C
ATOM     50 2H11 UNL     1     -14.360   5.695   1.887  1.00  0.00     0.277 HD
ATOM     51 1H11 UNL     1     -12.970   6.346   2.166  1.00  0.00     0.277 HD
HETATM   52  C21 UNL     1     -11.942   6.506  -0.202  1.00  0.00     0.041 C
HETATM   53  C22 UNL     1     -14.006   5.265  -0.834  1.00  0.00     0.173 C
ENDBRANCH   7  45
TORSDOF 8
ENDMDL