MODEL 2
REMARK VINA RESULT: -10.042263651      3.500     10.231
REMARK  7 active torsions:
REMARK  status: ('A' for Active; 'I' for Inactive)
REMARK    1  A    between atoms: C1_2  and  C2_4
REMARK    2  A    between atoms: C6_10  and  N3_11
REMARK    3  A    between atoms: N3_11  and  C7_13
REMARK    4  A    between atoms: C8_16  and  C9_17
REMARK    5  A    between atoms: C12_20  and  N5_21
REMARK    6  A    between atoms: N5_21  and  C13_23
REMARK    7  A    between atoms: C19_39  and  C20_40
ROOT
HETATM    1  C7  UNL     1     -18.161   2.641  -0.143  1.00  0.00     0.686 A
HETATM    2  N4  UNL     1     -17.103   2.650   0.666  1.00  0.00    -0.190 N
ATOM      3  H4  UNL     1     -17.197   3.095   1.579  1.00  0.00     0.184 HD
HETATM    4  C8  UNL     1     -15.889   2.090   0.337  1.00  0.00     0.081 A
HETATM    5  C19 UNL     1     -15.768   1.498  -0.885  1.00  0.00     0.125 A
HETATM    6  C21 UNL     1     -16.879   1.483  -1.741  1.00  0.00     0.277 A
HETATM    7  O3  UNL     1     -16.756   0.929  -2.867  1.00  0.00    -0.267 OA
HETATM    8  N12 UNL     1     -18.022   2.050  -1.342  1.00  0.00    -0.155 N
ATOM      9  H12 UNL     1     -18.822   2.032  -1.974  1.00  0.00     0.187 HD
ENDROOT
BRANCH   4  10
HETATM   10  C9  UNL     1     -14.827   2.207   1.326  1.00  0.00     0.008 A
HETATM   11  C10 UNL     1     -14.334   1.225   2.134  1.00  0.00     0.019 A
HETATM   12  C11 UNL     1     -13.248   1.418   2.961  1.00  0.00     0.049 A
HETATM   13  C12 UNL     1     -12.579   2.659   3.020  1.00  0.00     0.106 A
HETATM   14  N10 UNL     1     -13.096   3.596   2.215  1.00  0.00    -0.351 N
HETATM   15  C18 UNL     1     -14.145   3.440   1.403  1.00  0.00     0.103 A
ATOM     16  H10 UNL     1     -12.649   4.513   2.223  1.00  0.00     0.166 HD
BRANCH  13  17
HETATM   17  N5  UNL     1     -11.482   2.829   3.828  1.00  0.00    -0.327 N
ATOM     18  H5  UNL     1     -11.759   2.703   4.801  1.00  0.00     0.169 HD
BRANCH  17  19
HETATM   19  C13 UNL     1     -10.281   3.082   3.779  1.00  0.00     0.138 A
HETATM   20  N6  UNL     1      -9.437   1.989   3.861  1.00  0.00    -0.337 N
HETATM   21  C14 UNL     1      -8.111   2.095   3.821  1.00  0.00     0.183 A
ATOM     22  H6  UNL     1      -9.849   1.060   3.956  1.00  0.00     0.168 HD
HETATM   23  N7  UNL     1      -7.513   3.295   3.698  1.00  0.00    -0.337 N
HETATM   24  C15 UNL     1      -8.242   4.420   3.612  1.00  0.00     0.138 A
ATOM     25  H7  UNL     1      -6.495   3.351   3.670  1.00  0.00     0.168 HD
HETATM   26  N8  UNL     1      -7.943   5.736   3.486  1.00  0.00    -0.337 N
HETATM   27  C17 UNL     1      -9.626   4.288   3.654  1.00  0.00     0.122 A
HETATM   28  C16 UNL     1      -9.095   6.396   3.451  1.00  0.00     0.182 A
ATOM     29  H8  UNL     1      -7.009   6.142   3.428  1.00  0.00     0.168 HD
HETATM   30  N9  UNL     1     -10.114   5.534   3.552  1.00  0.00    -0.346 N
ATOM     31  H9  UNL     1     -11.102   5.784   3.552  1.00  0.00     0.167 HD
ENDBRANCH  17  19
ENDBRANCH  13  17
ENDBRANCH   4  10
BRANCH   5  32
HETATM   32  C20 UNL     1     -14.536   1.026  -1.501  1.00  0.00     0.272 C
HETATM   33  N11 UNL     1     -13.629   1.729  -2.297  1.00  0.00    -0.057 NA
HETATM   34  O2  UNL     1     -14.258  -0.197  -1.295  1.00  0.00    -0.271 OA
ENDBRANCH   5  32
BRANCH   1  35
HETATM   35  N3  UNL     1     -19.319   3.129   0.136  1.00  0.00    -0.192 N
ATOM     36  H3  UNL     1     -20.141   2.552  -0.042  1.00  0.00     0.184 HD
BRANCH  35  37
HETATM   37  C6  UNL     1     -19.514   4.414   0.673  1.00  0.00     0.050 A
HETATM   38  C5  UNL     1     -18.530   5.305   1.017  1.00  0.00     0.032 A
HETATM   39  C4  UNL     1     -18.735   6.538   1.537  1.00  0.00     0.033 A
HETATM   40  C3  UNL     1     -20.051   6.994   1.764  1.00  0.00     0.050 A
HETATM   41  N2  UNL     1     -20.397   8.148   2.256  1.00  0.00    -0.345 N
HETATM   42  C23 UNL     1     -21.057   6.124   1.429  1.00  0.00     0.036 A
HETATM   43  C2  UNL     1     -21.671   8.448   2.418  1.00  0.00     0.141 A
ATOM     44  H2  UNL     1     -19.679   8.823   2.517  1.00  0.00     0.167 HD
HETATM   45  S1  UNL     1     -22.447   7.037   1.851  1.00  0.00    -0.065 SA
HETATM   46  C22 UNL     1     -20.810   4.852   0.892  1.00  0.00     0.051 A
BRANCH  43  47
HETATM   47  C1  UNL     1     -22.245   9.696   2.951  1.00  0.00     0.288 C
HETATM   48  N1  UNL     1     -22.875  10.643   2.114  1.00  0.00    -0.055 NA
HETATM   49  O1  UNL     1     -22.139   9.860   4.194  1.00  0.00    -0.269 OA
ENDBRANCH  43  47
ENDBRANCH  35  37
ENDBRANCH   1  35
TORSDOF 7
ENDMDL