MODEL 3
REMARK VINA RESULT: -9.790238157      1.683      1.883
REMARK  8 active torsions:
REMARK  status: ('A' for Active; 'I' for Inactive)
REMARK    1  A    between atoms: C3_4  and  N2_5
REMARK       I    between atoms: N2_5  and  C4_7
REMARK    2  A    between atoms: C4_7  and  C5_9
REMARK    3  A    between atoms: N3_10  and  N4_12
REMARK    4  A    between atoms: C9_21  and  C10_22
REMARK       I    between atoms: C10_22  and  N6_24
REMARK    5  A    between atoms: N6_24  and  N7_26
REMARK    6  A    between atoms: C19_39  and  N10_40
REMARK    7  A    between atoms: N10_40  and  C20_42
REMARK    8  A    between atoms: C22_44  and  N11_45
ROOT
HETATM    1  N1  UNL     1     -12.037  -1.383   2.385  1.00  0.00    -0.191 NA
HETATM    2  C1  UNL     1     -12.864  -0.772   1.866  1.00  0.00     0.106 C
HETATM    3  C2  UNL     1     -13.894  -0.031   1.201  1.00  0.00     0.123 A
HETATM    4  C3  UNL     1     -14.445  -0.628   0.064  1.00  0.00     0.174 A
HETATM    5  O2  UNL     1     -15.389   0.042  -0.553  1.00  0.00    -0.291 OA
HETATM    6  C6  UNL     1     -15.836   1.202  -0.182  1.00  0.00     0.090 A
HETATM    7  C7  UNL     1     -16.848   1.825  -0.917  1.00  0.00     0.039 A
HETATM    8  C8  UNL     1     -17.298   3.055  -0.494  1.00  0.00     0.020 A
HETATM    9  C9  UNL     1     -16.790   3.692   0.621  1.00  0.00     0.034 A
HETATM   10  C17 UNL     1     -15.798   3.061   1.326  1.00  0.00     0.033 A
HETATM   11  C18 UNL     1     -15.318   1.805   0.919  1.00  0.00     0.027 A
HETATM   12  C19 UNL     1     -14.305   1.196   1.669  1.00  0.00     0.072 A
ENDROOT
BRANCH   4  13
HETATM   13  N2  UNL     1     -13.999  -1.898  -0.393  1.00  0.00    -0.301 N
HETATM   14  C4  UNL     1     -13.091  -1.975  -1.472  1.00  0.00     0.264 C
HETATM   15  O1  UNL     1     -12.677  -0.926  -2.028  1.00  0.00    -0.267 OA
ATOM     16  H2  UNL     1     -14.333  -2.751   0.056  1.00  0.00     0.171 HD
BRANCH  14  17
HETATM   17  C5  UNL     1     -12.611  -3.252  -1.969  1.00  0.00     0.182 C
HETATM   18  N3  UNL     1     -11.552  -3.824  -1.481  1.00  0.00    -0.293 N
ATOM     19  H3  UNL     1     -11.051  -3.355  -0.727  1.00  0.00     0.187 HD
BRANCH  18  20
HETATM   20  N4  UNL     1     -11.072  -5.038  -1.936  1.00  0.00    -0.250 N
HETATM   21  N5  UNL     1      -9.921  -5.474  -1.608  1.00  0.00    -0.331 N
ATOM     22  H52 UNL     1      -9.350  -4.897  -0.992  1.00  0.00     0.178 HD
ATOM     23  H51 UNL     1      -9.568  -6.370  -1.943  1.00  0.00     0.178 HD
ATOM     24  H4  UNL     1     -11.658  -5.602  -2.552  1.00  0.00     0.207 HD
ENDBRANCH  18  20
ENDBRANCH  14  17
ENDBRANCH   4  13
BRANCH  12  25
HETATM   25  N10 UNL     1     -13.884   1.815   2.663  1.00  0.00    -0.339 N
ATOM     26  H10 UNL     1     -14.558   1.765   3.427  1.00  0.00     0.167 HD
BRANCH  25  27
HETATM   27  C20 UNL     1     -12.789   2.541   3.037  1.00  0.00     0.124 A
HETATM   28  C21 UNL     1     -12.342   3.711   2.411  1.00  0.00     0.099 A
HETATM   29  C22 UNL     1     -11.232   4.170   3.065  1.00  0.00     0.117 A
HETATM   30  N12 UNL     1     -11.001   3.301   4.075  1.00  0.00    -0.284 N
HETATM   31  N13 UNL     1     -11.909   2.344   4.064  1.00  0.00    -0.284 N
ATOM     32  H12 UNL     1     -10.237   3.375   4.747  1.00  0.00     0.188 HD
ATOM     33  H13 UNL     1     -11.949   1.568   4.725  1.00  0.00     0.188 HD
BRANCH  29  34
HETATM   34  N11 UNL     1     -10.567   5.231   2.746  1.00  0.00    -0.384 N
ATOM     35 2H11 UNL     1     -10.582   6.148   3.191  1.00  0.00     0.157 HD
ATOM     36 1H11 UNL     1      -9.907   5.298   1.972  1.00  0.00     0.157 HD
ENDBRANCH  29  34
ENDBRANCH  25  27
ENDBRANCH  12  25
BRANCH   9  37
HETATM   37  C10 UNL     1     -17.317   5.026   1.010  1.00  0.00     0.270 C
HETATM   38  O3  UNL     1     -16.452   5.944   1.180  1.00  0.00    -0.266 OA
HETATM   39  N6  UNL     1     -18.695   5.170   1.158  1.00  0.00    -0.253 N
ATOM     40  H6  UNL     1     -19.245   4.329   0.980  1.00  0.00     0.191 HD
BRANCH  39  41
HETATM   41  N7  UNL     1     -19.424   6.294   1.513  1.00  0.00    -0.172 N
HETATM   42  C11 UNL     1     -20.776   6.359   1.431  1.00  0.00     0.223 A
HETATM   43  S1  UNL     1     -21.772   5.194   0.927  1.00  0.00    -0.037 SA
HETATM   44  N8  UNL     1     -21.207   7.567   1.840  1.00  0.00    -0.234 N
HETATM   45  N9  UNL     1     -20.164   8.274   2.180  1.00  0.00    -0.232 N
HETATM   46  C16 UNL     1     -22.519   8.141   1.947  1.00  0.00     0.115 A
HETATM   47  C12 UNL     1     -19.055   7.477   1.975  1.00  0.00     0.365 A
HETATM   48  C13 UNL     1     -20.223   9.631   2.672  1.00  0.00     0.158 A
HETATM   49  O4  UNL     1     -17.926   7.916   2.223  1.00  0.00    -0.243 OA
HETATM   50  C14 UNL     1     -21.570  10.210   2.779  1.00  0.00     0.050 A
HETATM   51  C15 UNL     1     -22.694   9.366   2.382  1.00  0.00    -0.006 A
ENDBRANCH  39  41
ENDBRANCH   9  37
TORSDOF 8
ENDMDL