MODEL 2
REMARK VINA RESULT: -7.479309314      1.145      1.348
REMARK  11 active torsions:
REMARK  status: ('A' for Active; 'I' for Inactive)
REMARK    1  A    between atoms: N1_2  and  C3_4
REMARK    2  A    between atoms: C8_10  and  O2_11
REMARK    3  A    between atoms: O2_11  and  C9_12
REMARK    4  A    between atoms: C10_13  and  O3_14
REMARK    5  A    between atoms: C11_16  and  O4_17
REMARK    6  A    between atoms: C17_24  and  O5_25
REMARK    7  A    between atoms: O5_25  and  C18_26
REMARK    8  A    between atoms: C20_29  and  O7_31
REMARK    9  A    between atoms: C22_33  and  O8_34
REMARK   10  A    between atoms: C23_36  and  O9_37
REMARK   11  A    between atoms: C27_42  and  O10_43
ROOT
HETATM    1  C9  UNL     1     -13.718   1.212   1.408  1.00  0.00     0.166 C
HETATM    2  C10 UNL     1     -14.924   1.892   1.926  1.00  0.00     0.183 C
HETATM    3  C11 UNL     1     -15.933   2.275   0.908  1.00  0.00     0.096 C
HETATM    4  C12 UNL     1     -16.492   3.645   1.024  1.00  0.00     0.041 C
HETATM    5  C13 UNL     1     -16.980   3.951  -0.361  1.00  0.00     0.004 C
HETATM    6  C14 UNL     1     -16.548   2.767  -1.241  1.00  0.00     0.015 C
HETATM    7  C15 UNL     1     -15.330   2.306  -0.479  1.00  0.00     0.017 C
HETATM    8  C16 UNL     1     -14.275   3.369  -0.624  1.00  0.00     0.021 C
HETATM    9  C17 UNL     1     -14.762   1.004  -0.879  1.00  0.00     0.146 C
HETATM   10  C24 UNL     1     -13.921   0.354   0.193  1.00  0.00     0.008 C
HETATM   11  C25 UNL     1     -12.548   0.075  -0.381  1.00  0.00     0.020 C
HETATM   12  C26 UNL     1     -14.512  -0.984   0.579  1.00  0.00     0.020 C
ENDROOT
BRANCH   1  13
HETATM   13  O2  UNL     1     -13.196   0.375   2.394  1.00  0.00    -0.350 OA
BRANCH  13  14
HETATM   14  C8  UNL     1     -12.060   0.857   2.996  1.00  0.00     0.292 C
HETATM   15  O1  UNL     1     -11.556   1.868   2.169  1.00  0.00    -0.348 OA
HETATM   16  C5  UNL     1     -10.428   2.469   2.702  1.00  0.00     0.059 C
HETATM   17  C4  UNL     1      -9.397   1.476   3.181  1.00  0.00     0.076 C
HETATM   18  C6  UNL     1      -9.784   3.273   1.585  1.00  0.00     0.045 C
HETATM   19  C7  UNL     1     -10.807   3.395   3.842  1.00  0.00     0.045 C
HETATM   20  C3  UNL     1      -9.699   0.150   2.564  1.00  0.00     0.258 C
HETATM   21  C27 UNL     1     -11.064  -0.283   3.061  1.00  0.00     0.206 C
BRANCH  20  22
HETATM   22  N1  UNL     1      -8.709  -0.859   2.886  1.00  0.00     0.087 N
HETATM   23  C1  UNL     1      -7.766  -0.363   3.868  1.00  0.00     0.310 C
HETATM   24  C2  UNL     1      -7.939  -1.169   1.694  1.00  0.00     0.310 C
ENDBRANCH  20  22
BRANCH  21  25
HETATM   25  O10 UNL     1     -10.976  -0.808   4.361  1.00  0.00    -0.388 OA
ATOM     26  H10 UNL     1     -10.954  -0.110   5.005  1.00  0.00     0.210 HD
ENDBRANCH  21  25
ENDBRANCH  13  14
ENDBRANCH   1  13
BRANCH   2  27
HETATM   27  O3  UNL     1     -14.558   3.068   2.614  1.00  0.00    -0.390 OA
ATOM     28  H3  UNL     1     -14.830   3.832   2.120  1.00  0.00     0.210 HD
ENDBRANCH   2  27
BRANCH   3  29
HETATM   29  O4  UNL     1     -17.026   1.396   0.868  1.00  0.00    -0.386 OA
ATOM     30  H4  UNL     1     -17.552   1.425   1.658  1.00  0.00     0.210 HD
ENDBRANCH   3  29
BRANCH   9  31
HETATM   31  O5  UNL     1     -15.799   0.153  -1.290  1.00  0.00    -0.352 OA
BRANCH  31  32
HETATM   32  C18 UNL     1     -15.829  -0.068  -2.647  1.00  0.00     0.291 C
HETATM   33  O6  UNL     1     -14.467  -0.062  -3.079  1.00  0.00    -0.355 OA
HETATM   34  C19 UNL     1     -14.491   0.158  -4.439  1.00  0.00     0.211 C
HETATM   35  C20 UNL     1     -15.217  -0.892  -5.214  1.00  0.00     0.104 C
HETATM   36  C21 UNL     1     -15.460  -0.375  -6.616  1.00  0.00     0.051 C
HETATM   37  C22 UNL     1     -16.537  -1.275  -4.626  1.00  0.00     0.187 C
HETATM   38  C23 UNL     1     -16.366  -1.373  -3.103  1.00  0.00     0.205 C
BRANCH  35  39
HETATM   39  O7  UNL     1     -14.373  -2.005  -5.328  1.00  0.00    -0.385 OA
ATOM     40  H7  UNL     1     -14.665  -2.658  -4.704  1.00  0.00     0.210 HD
ENDBRANCH  35  39
BRANCH  37  41
HETATM   41  O8  UNL     1     -16.944  -2.506  -5.143  1.00  0.00    -0.390 OA
ATOM     42  H8  UNL     1     -16.309  -3.175  -4.917  1.00  0.00     0.210 HD
ENDBRANCH  37  41
BRANCH  38  43
HETATM   43  O9  UNL     1     -15.410  -2.369  -2.902  1.00  0.00    -0.388 OA
ATOM     44  H9  UNL     1     -15.622  -2.860  -2.117  1.00  0.00     0.210 HD
ENDBRANCH  38  43
ENDBRANCH  31  32
ENDBRANCH   9  31
TORSDOF 11
ENDMDL