MODEL 5
REMARK VINA RESULT: -5.545416885      1.719      2.412
REMARK  4 active torsions:
REMARK  status: ('A' for Active; 'I' for Inactive)
REMARK       I    between atoms: C1_4  and  N2_5
REMARK       I    between atoms: C1_4  and  N3_13
REMARK    1  A    between atoms: N2_5  and  C2_7
REMARK    2  A    between atoms: C10_16  and  N4_17
REMARK       I    between atoms: N4_17  and  C11_19
REMARK    3  A    between atoms: C11_19  and  C12_21
REMARK    4  A    between atoms: C13_22  and  C14_23
ROOT
HETATM    1  N1  UNL     1       9.513  12.204   3.423  1.00  0.00    -0.235 N
ATOM      2  H11 UNL     1       8.642  11.756   3.708  1.00  0.00     0.174 HD
ATOM      3  H12 UNL     1      10.192  12.460   4.139  1.00  0.00     0.174 HD
HETATM    4  C1  UNL     1       9.687  12.412   2.167  1.00  0.00     0.670 C
HETATM    5  N2  UNL     1      10.899  13.035   1.770  1.00  0.00    -0.222 N
ATOM      6  H2  UNL     1      11.605  12.477   1.291  1.00  0.00     0.178 HD
HETATM    7  N3  UNL     1       8.743  12.055   1.172  1.00  0.00    -0.216 N
HETATM    8  C8  UNL     1       8.945  11.286  -0.043  1.00  0.00     0.143 C
HETATM    9  C9  UNL     1       7.803  11.762  -0.944  1.00  0.00     0.047 C
HETATM   10  C10 UNL     1       6.673  11.866   0.040  1.00  0.00     0.104 C
HETATM   11  C15 UNL     1       7.336  12.457   1.265  1.00  0.00     0.166 C
ENDROOT
BRANCH   5  12
HETATM   12  C2  UNL     1      11.168  14.437   2.023  1.00  0.00     0.099 C
HETATM   13  C3  UNL     1      12.661  14.669   1.827  1.00  0.00     0.026 C
HETATM   14  C4  UNL     1      12.966  15.993   2.534  1.00  0.00     0.002 C
HETATM   15  C5  UNL     1      11.926  17.007   2.189  1.00  0.00     0.000 C
HETATM   16  C6  UNL     1      11.134  16.672   0.955  1.00  0.00     0.002 C
HETATM   17  C7  UNL     1      10.486  15.330   0.994  1.00  0.00     0.026 C
ENDBRANCH   5  12
BRANCH  10  18
HETATM   18  N4  UNL     1       6.218  10.527   0.336  1.00  0.00    -0.351 N
HETATM   19  C11 UNL     1       4.941  10.272   0.903  1.00  0.00     0.241 C
HETATM   20  O1  UNL     1       4.169  11.253   1.160  1.00  0.00    -0.269 OA
ATOM     21  H4  UNL     1       6.834   9.741   0.133  1.00  0.00     0.163 HD
BRANCH  19  22
HETATM   22  C12 UNL     1       4.490   8.934   1.198  1.00  0.00     0.081 C
HETATM   23  C13 UNL     1       5.289   7.947   1.546  1.00  0.00     0.090 C
BRANCH  23  24
HETATM   24  C14 UNL     1       4.754   6.620   1.829  1.00  0.00     0.198 C
HETATM   25  O2  UNL     1       5.443   5.574   1.753  1.00  0.00    -0.645 OA
HETATM   26  O3  UNL     1       3.417   6.465   2.203  1.00  0.00    -0.645 OA
ENDBRANCH  23  24
ENDBRANCH  19  22
ENDBRANCH  10  18
TORSDOF 4
ENDMDL