MODEL 1
REMARK VINA RESULT: -5.843561495      0.000      0.000
REMARK  3 active torsions:
REMARK  status: ('A' for Active; 'I' for Inactive)
REMARK    1  A    between atoms: C5_5  and  C6_6
REMARK    2  A    between atoms: C6_6  and  C7_7
REMARK       I    between atoms: N1_8  and  C8_10
REMARK       I    between atoms: C8_10  and  N2_12
REMARK    3  A    between atoms: N2_12  and  C9_14
ROOT
HETATM    1  C6  UNL     1       9.172  12.690  -1.912  1.00  0.00     0.069 C
ENDROOT
BRANCH   1   2
HETATM    2  C5  UNL     1       9.086  11.439  -1.028  1.00  0.00     0.085 C
HETATM    3  C4  UNL     1       9.732  11.651   0.296  1.00  0.00     0.054 C
HETATM    4  C2  UNL     1       9.087  10.774   1.364  1.00  0.00     0.022 C
HETATM    5  C1  UNL     1       9.739  11.191   2.687  1.00  0.00     0.037 C
HETATM    6  C3  UNL     1       9.388   9.325   1.162  1.00  0.00     0.037 C
HETATM    7  N4  UNL     1       7.712  11.108   1.433  1.00  0.00    -0.389 N
HETATM    8  C15 UNL     1       7.022  11.232   0.201  1.00  0.00     0.088 C
ATOM      9  H4  UNL     1       7.240  11.252   2.327  1.00  0.00     0.156 HD
HETATM   10  N3  UNL     1       7.757  10.933  -0.973  1.00  0.00    -0.393 N
HETATM   11  C16 UNL     1       5.826  10.268   0.249  1.00  0.00     0.062 C
HETATM   12  C17 UNL     1       6.396  12.629   0.162  1.00  0.00     0.062 C
ATOM     13  H3  UNL     1       7.357  10.386  -1.735  1.00  0.00     0.156 HD
ENDBRANCH   1   2
BRANCH   1  14
HETATM   14  C7  UNL     1       9.583  13.846  -1.067  1.00  0.00     0.067 C
HETATM   15  N1  UNL     1       9.768  15.005  -1.571  1.00  0.00    -0.323 N
HETATM   16  C8  UNL     1      10.154  16.086  -0.767  1.00  0.00     0.320 C
ATOM     17  H1  UNL     1       9.633  15.145  -2.572  1.00  0.00     0.169 HD
HETATM   18  O1  UNL     1       9.805  17.257  -1.053  1.00  0.00    -0.247 OA
HETATM   19  N2  UNL     1      10.947  15.907   0.390  1.00  0.00    -0.338 N
ATOM     20  H2  UNL     1      11.240  14.961   0.637  1.00  0.00     0.164 HD
BRANCH  19  21
HETATM   21  C9  UNL     1      11.361  16.996   1.236  1.00  0.00     0.086 C
HETATM   22  C10 UNL     1      10.392  17.199   2.376  1.00  0.00     0.025 C
HETATM   23  C11 UNL     1      10.507  16.032   3.312  1.00  0.00     0.002 C
HETATM   24  C12 UNL     1      11.898  16.004   3.897  1.00  0.00     0.000 C
HETATM   25  C13 UNL     1      12.962  15.903   2.835  1.00  0.00     0.002 C
HETATM   26  C14 UNL     1      12.770  16.888   1.720  1.00  0.00     0.025 C
ENDBRANCH  19  21
ENDBRANCH   1  14
TORSDOF 3
ENDMDL