MODEL 5
REMARK VINA RESULT: -5.759235403      0.961      1.013
REMARK  4 active torsions:
REMARK  status: ('A' for Active; 'I' for Inactive)
REMARK    1  A    between atoms: C2_2  and  C3_3
REMARK       I    between atoms: N1_6  and  C6_7
REMARK       I    between atoms: C6_7  and  N5_15
REMARK       I    between atoms: N2_8  and  C7_10
REMARK    2  A    between atoms: N5_15  and  C8_17
REMARK    3  A    between atoms: C8_17  and  C9_18
REMARK    4  A    between atoms: C9_18  and  C10_19
ROOT
HETATM    1  C3  UNL     1       0.722  11.547   2.468  1.00  0.00    -0.012 C
HETATM    2  C4  UNL     1       1.461  11.732   1.182  1.00  0.00     0.025 C
HETATM    3  C5  UNL     1       2.968  11.489   1.330  1.00  0.00     0.141 C
HETATM    4  N1  UNL     1       3.133  10.156   1.809  1.00  0.00    -0.218 N
HETATM    5  C6  UNL     1       3.948   9.145   1.228  1.00  0.00     0.678 C
HETATM    6  N2  UNL     1       5.112   9.367   0.787  1.00  0.00    -0.164 N
ATOM      7  H2  UNL     1       5.589   8.554   0.396  1.00  0.00     0.187 HD
HETATM    8  C7  UNL     1       5.843  10.553   0.755  1.00  0.00     0.200 C
HETATM    9  N3  UNL     1       6.128  11.155   1.858  1.00  0.00    -0.373 N
ATOM     10  H31 UNL     1       6.663  12.023   1.836  1.00  0.00     0.158 HD
ATOM     11  H32 UNL     1       5.804  10.745   2.734  1.00  0.00     0.158 HD
HETATM   12  N4  UNL     1       6.295  11.125  -0.466  1.00  0.00    -0.063 NA
HETATM   13  N5  UNL     1       3.433   7.816   1.137  1.00  0.00    -0.226 N
ATOM     14  H5  UNL     1       2.532   7.690   0.675  1.00  0.00     0.177 HD
HETATM   15  C15 UNL     1       2.403   9.765   3.007  1.00  0.00     0.141 C
HETATM   16  C16 UNL     1       1.565  10.892   3.534  1.00  0.00     0.025 C
ENDROOT
BRANCH  13  17
HETATM   17  C8  UNL     1       4.089   6.643   1.648  1.00  0.00     0.138 C
BRANCH  17  18
HETATM   18  C9  UNL     1       3.945   5.424   0.792  1.00  0.00     0.025 C
BRANCH  18  19
HETATM   19  C10 UNL     1       3.439   4.231   1.590  1.00  0.00    -0.010 C
HETATM   20  C11 UNL     1       4.594   3.273   1.743  1.00  0.00     0.032 C
HETATM   21  C12 UNL     1       4.925   2.580   0.449  1.00  0.00     0.232 C
HETATM   22  N6  UNL     1       3.744   1.998  -0.111  1.00  0.00    -0.075 N
HETATM   23  C13 UNL     1       2.606   2.050   0.765  1.00  0.00     0.232 C
ATOM     24  H62 UNL     1       3.524   2.423  -1.013  1.00  0.00     0.277 HD
ATOM     25  H61 UNL     1       3.923   1.041  -0.414  1.00  0.00     0.277 HD
HETATM   26  C14 UNL     1       2.285   3.536   0.952  1.00  0.00     0.032 C
ENDBRANCH  18  19
ENDBRANCH  17  18
ENDBRANCH  13  17
BRANCH   1  27
HETATM   27  C2  UNL     1      -0.498  10.655   2.246  1.00  0.00     0.000 C
HETATM   28  C1  UNL     1      -1.707  11.495   1.892  1.00  0.00     0.005 C
ENDBRANCH   1  27
TORSDOF 4
ENDMDL