MODEL 3
REMARK VINA RESULT: -7.356552927      1.564      8.290
REMARK  6 active torsions:
REMARK  status: ('A' for Active; 'I' for Inactive)
REMARK    1  A    between atoms: C6_6  and  C7_7
REMARK    2  A    between atoms: C7_7  and  N1_8
REMARK    3  A    between atoms: N1_8  and  C8_10
REMARK    4  A    between atoms: C9_13  and  N3_14
REMARK    5  A    between atoms: N3_14  and  C10_16
REMARK    6  A    between atoms: C10_16  and  C11_17
ROOT
HETATM    1  C1  UNL     1       0.873   1.800  -1.769  1.00  0.00     0.012 C
HETATM    2  C2  UNL     1       1.577   1.565  -0.822  1.00  0.00    -0.113 C
HETATM    3  C3  UNL     1       2.455   1.258   0.331  1.00  0.00     0.064 C
HETATM    4  C4  UNL     1       2.060   2.243   1.424  1.00  0.00     0.017 C
HETATM    5  C5  UNL     1       2.399   3.624   0.901  1.00  0.00     0.007 C
HETATM    6  C6  UNL     1       3.858   3.773   0.564  1.00  0.00     0.004 C
HETATM    7  C16 UNL     1       4.549   2.457   0.842  1.00  0.00     0.007 C
HETATM    8  C17 UNL     1       3.899   1.408  -0.048  1.00  0.00     0.017 C
ENDROOT
BRANCH   6   9
HETATM    9  C7  UNL     1       4.510   4.918   1.307  1.00  0.00     0.142 C
BRANCH   9  10
HETATM   10  N1  UNL     1       3.574   5.972   1.570  1.00  0.00    -0.226 N
ATOM     11  H1  UNL     1       2.584   5.761   1.704  1.00  0.00     0.177 HD
BRANCH  10  12
HETATM   12  C8  UNL     1       3.995   7.191   1.634  1.00  0.00     0.681 A
HETATM   13  N2  UNL     1       5.304   7.468   1.733  1.00  0.00    -0.175 N
HETATM   14  C9  UNL     1       5.790   8.717   1.803  1.00  0.00     0.149 A
ATOM     15  H2  UNL     1       5.963   6.690   1.757  1.00  0.00     0.186 HD
HETATM   16  C14 UNL     1       4.895   9.759   1.770  1.00  0.00     0.138 A
HETATM   17  N4  UNL     1       4.570  11.045   1.785  1.00  0.00    -0.292 N
HETATM   18  C15 UNL     1       3.536   9.509   1.669  1.00  0.00     0.167 A
HETATM   19  N5  UNL     1       3.271  10.824   1.687  1.00  0.00    -0.282 N
ATOM     20  H4  UNL     1       5.124  11.899   1.848  1.00  0.00     0.187 HD
ATOM     21  H5  UNL     1       2.431  11.402   1.645  1.00  0.00     0.188 HD
HETATM   22  N6  UNL     1       3.138   8.229   1.604  1.00  0.00    -0.173 N
ATOM     23  H6  UNL     1       2.140   8.033   1.528  1.00  0.00     0.186 HD
BRANCH  14  24
HETATM   24  N3  UNL     1       7.037   8.888   1.895  1.00  0.00    -0.373 N
ATOM     25  H3  UNL     1       7.510   8.271   2.555  1.00  0.00     0.161 HD
BRANCH  24  26
HETATM   26  C10 UNL     1       7.879   9.806   1.222  1.00  0.00     0.126 C
BRANCH  26  27
HETATM   27  C11 UNL     1       9.335   9.383   1.423  1.00  0.00     0.003 A
HETATM   28  C12 UNL     1      10.156   9.118   0.175  1.00  0.00     0.007 A
HETATM   29  C13 UNL     1      10.443  10.265   1.066  1.00  0.00     0.007 A
ENDBRANCH  26  27
ENDBRANCH  24  26
ENDBRANCH  14  24
ENDBRANCH  10  12
ENDBRANCH   9  10
ENDBRANCH   6   9
TORSDOF 6
ENDMDL