MODEL 1
REMARK VINA RESULT: -6.802992581      0.000      0.000
REMARK  7 active torsions:
REMARK  status: ('A' for Active; 'I' for Inactive)
REMARK    1  A    between atoms: C2_2  and  C3_3
REMARK    2  A    between atoms: C3_3  and  N1_5
REMARK    3  A    between atoms: C3_3  and  N2_9
REMARK    4  A    between atoms: N2_9  and  C5_11
REMARK    5  A    between atoms: C6_16  and  N5_17
REMARK    6  A    between atoms: N5_17  and  C7_19
REMARK    7  A    between atoms: C7_19  and  C8_20
ROOT
HETATM    1  C5  UNL     1       4.580   5.917   1.808  1.00  0.00     0.709 A
HETATM    2  N3  UNL     1       3.516   6.711   1.669  1.00  0.00    -0.117 N
ATOM      3  H3  UNL     1       2.548   6.400   1.601  1.00  0.00     0.206 HD
HETATM    4  N4  UNL     1       3.926   7.968   1.633  1.00  0.00    -0.117 N
ATOM      5  H4  UNL     1       3.313   8.778   1.533  1.00  0.00     0.206 HD
HETATM    6  C6  UNL     1       5.260   8.028   1.747  1.00  0.00     0.707 A
HETATM    7  N6  UNL     1       5.658   6.729   1.856  1.00  0.00    -0.020 N
ATOM      8  H6  UNL     1       6.624   6.418   1.958  1.00  0.00     0.203 HD
ENDROOT
BRANCH   6   9
HETATM    9  N5  UNL     1       5.999   9.077   1.754  1.00  0.00    -0.224 N
ATOM     10  H5  UNL     1       5.626   9.934   1.345  1.00  0.00     0.177 HD
BRANCH   9  11
HETATM   11  C7  UNL     1       7.311   9.106   2.301  1.00  0.00     0.148 C
BRANCH  11  12
HETATM   12  C8  UNL     1       8.231  10.093   1.657  1.00  0.00    -0.019 C
HETATM   13  C9  UNL     1       7.824  10.423   0.229  1.00  0.00     0.016 C
HETATM   14  C10 UNL     1       9.202  10.807  -0.336  1.00  0.00    -0.013 C
HETATM   15  C11 UNL     1       9.728  12.000   0.392  1.00  0.00     0.009 C
HETATM   16  C15 UNL     1       9.988   9.551   0.069  1.00  0.00     0.010 C
HETATM   17  C12 UNL     1       9.775  11.817   1.873  1.00  0.00    -0.013 C
HETATM   18  C13 UNL     1      10.556  10.538   2.212  1.00  0.00     0.010 C
HETATM   19  C16 UNL     1       8.390  11.390   2.386  1.00  0.00     0.016 C
HETATM   20  C14 UNL     1       9.624   9.508   1.559  1.00  0.00    -0.004 C
ENDBRANCH  11  12
ENDBRANCH   9  11
ENDBRANCH   6   9
BRANCH   1  21
HETATM   21  N2  UNL     1       4.577   4.646   1.879  1.00  0.00    -0.190 N
ATOM     22  H2  UNL     1       5.044   4.206   2.672  1.00  0.00     0.180 HD
BRANCH  21  23
HETATM   23  C3  UNL     1       3.956   3.802   0.911  1.00  0.00     0.206 C
HETATM   24  C4  UNL     1       2.466   3.715   1.234  1.00  0.00     0.071 C
BRANCH  23  25
HETATM   25  C2  UNL     1       4.514   2.396   0.965  1.00  0.00     0.057 C
HETATM   26  C1  UNL     1       3.816   1.457   0.032  1.00  0.00     0.009 C
ENDBRANCH  23  25
BRANCH  23  27
HETATM   27  N1  UNL     1       4.175   4.281  -0.447  1.00  0.00    -0.053 N
ATOM     28  H13 UNL     1       4.989   3.861  -0.897  1.00  0.00     0.277 HD
ATOM     29  H12 UNL     1       3.477   3.945  -1.111  1.00  0.00     0.277 HD
ATOM     30  H11 UNL     1       4.224   5.298  -0.390  1.00  0.00     0.277 HD
ENDBRANCH  23  27
ENDBRANCH  21  23
ENDBRANCH   1  21
TORSDOF 7
ENDMDL