MODEL 5
REMARK VINA RESULT: -4.813636475      1.805      2.126
REMARK  8 active torsions:
REMARK  status: ('A' for Active; 'I' for Inactive)
REMARK    1  A    between atoms: C2_2  and  N1_3
REMARK    2  A    between atoms: N1_3  and  C3_5
REMARK    3  A    between atoms: C3_5  and  N2_7
REMARK    4  A    between atoms: N2_7  and  C4_9
REMARK    5  A    between atoms: C4_9  and  N3_11
REMARK    6  A    between atoms: N3_11  and  C5_13
REMARK    7  A    between atoms: C5_13  and  C6_14
REMARK    8  A    between atoms: C5_13  and  C8_19
REMARK       I    between atoms: C6_14  and  N4_16
ROOT
HETATM    1  N3  UNL     1       6.818  11.451   0.437  1.00  0.00    -0.353 N
ATOM      2  H3  UNL     1       6.029  12.098   0.443  1.00  0.00     0.162 HD
ENDROOT
BRANCH   1   3
HETATM    3  C4  UNL     1       7.976  11.881  -0.250  1.00  0.00     0.174 C
HETATM    4  S2  UNL     1       8.443  11.190  -1.647  1.00  0.00    -0.041 SA
BRANCH   3   5
HETATM    5  N2  UNL     1       8.765  12.909   0.293  1.00  0.00    -0.310 N
ATOM      6  H2  UNL     1       8.276  13.711   0.691  1.00  0.00     0.170 HD
BRANCH   5   7
HETATM    7  C3  UNL     1      10.173  12.926   0.335  1.00  0.00     0.173 C
HETATM    8  S1  UNL     1      11.055  11.954   1.306  1.00  0.00    -0.041 SA
BRANCH   7   9
HETATM    9  N1  UNL     1      10.927  13.825  -0.498  1.00  0.00    -0.367 N
ATOM     10  H1  UNL     1      11.941  13.905  -0.412  1.00  0.00     0.161 HD
BRANCH   9  11
HETATM   11  C2  UNL     1      10.192  14.605  -1.457  1.00  0.00     0.117 C
HETATM   12  C1  UNL     1      10.199  16.085  -1.154  1.00  0.00     0.026 C
ENDBRANCH   9  11
ENDBRANCH   7   9
ENDBRANCH   5   7
ENDBRANCH   3   5
ENDBRANCH   1   3
BRANCH   1  13
HETATM   13  C5  UNL     1       6.623  10.195   1.136  1.00  0.00     0.180 C
BRANCH  13  14
HETATM   14  C6  UNL     1       7.674  10.164   2.170  1.00  0.00     0.240 C
HETATM   15  O1  UNL     1       7.990  11.095   2.930  1.00  0.00    -0.271 OA
HETATM   16  N4  UNL     1       8.399   8.969   2.318  1.00  0.00    -0.364 N
HETATM   17  C7  UNL     1       9.454   8.812   3.309  1.00  0.00     0.149 C
ATOM     18  H4  UNL     1       8.178   8.181   1.709  1.00  0.00     0.161 HD
ENDBRANCH  13  14
BRANCH  13  19
HETATM   19  C8  UNL     1       5.228  10.275   1.670  1.00  0.00     0.017 C
HETATM   20  C9  UNL     1       4.334   9.251   0.932  1.00  0.00     0.007 C
HETATM   21  C10 UNL     1       3.139   8.977   1.810  1.00  0.00     0.000 C
HETATM   22  C11 UNL     1       2.497  10.289   2.285  1.00  0.00     0.000 C
HETATM   23  C12 UNL     1       3.012  11.364   1.349  1.00  0.00     0.000 C
HETATM   24  C13 UNL     1       4.508  11.545   1.688  1.00  0.00     0.007 C
ENDBRANCH  13  19
ENDBRANCH   1  13
TORSDOF 8
ENDMDL