MODEL 1
REMARK VINA RESULT: -6.022486921      0.000      0.000
REMARK  5 active torsions:
REMARK  status: ('A' for Active; 'I' for Inactive)
REMARK       I    between atoms: C1_4  and  N2_5
REMARK       I    between atoms: C1_4  and  N5_10
REMARK    1  A    between atoms: N5_10  and  O1_12
REMARK    2  A    between atoms: O1_12  and  C3_13
REMARK    3  A    between atoms: C3_13  and  C4_14
REMARK    4  A    between atoms: C4_14  and  C15_25
REMARK    5  A    between atoms: C11_21  and  C13_23
ROOT
HETATM    1  C4  UNL     1       8.841  12.131   0.146  1.00  0.00    -0.012 C
HETATM    2  C5  UNL     1       8.196  12.671   1.365  1.00  0.00     0.017 C
HETATM    3  C6  UNL     1       9.044  12.865   2.560  1.00  0.00    -0.013 C
HETATM    4  C7  UNL     1       9.271  11.621   3.381  1.00  0.00     0.005 C
HETATM    5  C8  UNL     1       9.972  10.518   2.749  1.00  0.00     0.005 C
HETATM    6  C9  UNL     1      10.579  10.768   1.388  1.00  0.00    -0.013 C
HETATM    7  C10 UNL     1      11.621  11.805   1.388  1.00  0.00     0.010 C
HETATM    8  C11 UNL     1      11.214  13.223   1.316  1.00  0.00    -0.009 C
HETATM    9  C12 UNL     1      10.264  13.681   2.358  1.00  0.00     0.010 C
HETATM   10  C16 UNL     1       9.552  10.832   0.336  1.00  0.00     0.017 C
ENDROOT
BRANCH   1  11
HETATM   11  C3  UNL     1       7.649  11.743  -0.767  1.00  0.00     0.211 C
BRANCH  11  12
HETATM   12  O1  UNL     1       7.322  10.451  -0.444  1.00  0.00    -0.266 OA
BRANCH  12  13
HETATM   13  N5  UNL     1       6.064  10.274  -0.064  1.00  0.00    -0.097 N
HETATM   14  C1  UNL     1       5.773   9.807   1.237  1.00  0.00     0.697 C
HETATM   15  N1  UNL     1       6.621   9.223   2.009  1.00  0.00    -0.233 N
HETATM   16  N2  UNL     1       4.450   9.974   1.775  1.00  0.00    -0.164 N
ATOM     17  H12 UNL     1       6.410   8.885   2.948  1.00  0.00     0.174 HD
ATOM     18  H11 UNL     1       7.559   9.104   1.627  1.00  0.00     0.174 HD
HETATM   19  C2  UNL     1       3.642   8.962   1.650  1.00  0.00     0.215 C
ATOM     20  H2  UNL     1       4.161  10.839   2.231  1.00  0.00     0.186 HD
HETATM   21  N3  UNL     1       2.328   9.137   2.189  1.00  0.00    -0.066 NA
HETATM   22  N4  UNL     1       4.019   7.748   1.022  1.00  0.00    -0.066 NA
ATOM     23  H5  UNL     1       5.304  10.476  -0.714  1.00  0.00     0.213 HD
ENDBRANCH  12  13
ENDBRANCH  11  12
ENDBRANCH   1  11
BRANCH   1  24
HETATM   24  C15 UNL     1       9.605  13.155  -0.622  1.00  0.00     0.001 A
HETATM   25  C13 UNL     1       9.426  13.233  -2.047  1.00  0.00    -0.005 A
HETATM   26  C14 UNL     1       8.924  14.352  -1.206  1.00  0.00     0.011 A
ENDBRANCH   1  24
TORSDOF 5
ENDMDL