MODEL 1
REMARK VINA RESULT: -5.904287274      0.000      0.000
REMARK  5 active torsions:
REMARK  status: ('A' for Active; 'I' for Inactive)
REMARK    1  A    between atoms: C2_2  and  C5_5
REMARK    2  A    between atoms: C5_5  and  N1_6
REMARK    3  A    between atoms: C6_7  and  C7_8
REMARK    4  A    between atoms: C7_8  and  C8_9
REMARK    5  A    between atoms: C8_9  and  N2_10
REMARK       I    between atoms: N2_10  and  C9_12
ROOT
HETATM    1  N1  UNL     1       7.157  11.157   0.646  1.00  0.00    -0.366 N
HETATM    2  C6  UNL     1       8.112  11.221   1.643  1.00  0.00     0.095 C
HETATM    3  C10 UNL     1       7.896  10.403   2.892  1.00  0.00     0.128 C
HETATM    4  C11 UNL     1       7.226   9.134   2.534  1.00  0.00     0.223 C
HETATM    5  O1  UNL     1       7.632   8.003   2.971  1.00  0.00    -0.273 OA
HETATM    6  N5  UNL     1       6.111   9.232   1.682  1.00  0.00    -0.331 N
HETATM    7  C12 UNL     1       5.100   8.214   1.639  1.00  0.00     0.128 C
HETATM    8  C13 UNL     1       3.754   8.858   1.484  1.00  0.00     0.020 C
HETATM    9  C14 UNL     1       3.707  10.303   1.876  1.00  0.00     0.005 C
HETATM   10  C15 UNL     1       4.768  11.154   1.277  1.00  0.00     0.047 C
HETATM   11  C16 UNL     1       5.988  10.381   0.832  1.00  0.00     0.188 C
ENDROOT
BRANCH   2  12
HETATM   12  C7  UNL     1       8.535  12.585   2.105  1.00  0.00     0.045 C
BRANCH  12  13
HETATM   13  C8  UNL     1      10.039  12.684   2.213  1.00  0.00     0.124 C
BRANCH  13  14
HETATM   14  N2  UNL     1      10.508  14.021   1.888  1.00  0.00    -0.365 N
HETATM   15  C9  UNL     1      11.837  14.137   1.426  1.00  0.00     0.181 C
HETATM   16  N3  UNL     1      12.198  13.503   0.380  1.00  0.00    -0.374 N
HETATM   17  N4  UNL     1      12.740  14.963   2.145  1.00  0.00    -0.064 NA
ATOM     18  H32 UNL     1      11.549  12.910  -0.137  1.00  0.00     0.158 HD
ATOM     19  H31 UNL     1      13.158  13.587   0.046  1.00  0.00     0.158 HD
ATOM     20  H2  UNL     1       9.906  14.837   1.988  1.00  0.00     0.162 HD
ENDBRANCH  13  14
ENDBRANCH  12  13
ENDBRANCH   2  12
BRANCH   1  21
HETATM   21  C5  UNL     1       7.294  11.684  -0.627  1.00  0.00     0.069 C
BRANCH  21  22
HETATM   22  C2  UNL     1       8.545  11.435  -1.406  1.00  0.00    -0.019 C
HETATM   23  C1  UNL     1       8.278  11.032  -2.842  1.00  0.00     0.020 C
HETATM   24  C3  UNL     1       9.545  10.508  -0.836  1.00  0.00     0.020 C
HETATM   25  C4  UNL     1       9.235  12.817  -1.510  1.00  0.00     0.020 C
ENDBRANCH  21  22
ENDBRANCH   1  21
TORSDOF 5
ENDMDL