MODEL 5
REMARK VINA RESULT: -6.155219966      4.954      8.988
REMARK  4 active torsions:
REMARK  status: ('A' for Active; 'I' for Inactive)
REMARK       I    between atoms: N1_2  and  C2_4
REMARK    1  A    between atoms: N3_6  and  C3_8
REMARK    2  A    between atoms: C3_8  and  C4_9
REMARK    3  A    between atoms: C4_9  and  C5_10
REMARK       I    between atoms: N4_13  and  C8_14
REMARK       I    between atoms: C8_14  and  N6_18
REMARK    4  A    between atoms: N6_18  and  C9_20
ROOT
HETATM    1  C5  UNL     1       3.956   9.969   1.791  1.00  0.00    -0.010 C
HETATM    2  C6  UNL     1       3.068   8.754   1.894  1.00  0.00     0.025 C
HETATM    3  C7  UNL     1       1.924   8.991   2.851  1.00  0.00     0.141 C
HETATM    4  N4  UNL     1       1.631  10.380   3.045  1.00  0.00    -0.218 N
HETATM    5  C8  UNL     1       1.149  10.834   4.300  1.00  0.00     0.670 C
HETATM    6  N5  UNL     1       1.560  11.984   4.711  1.00  0.00    -0.235 N
ATOM      7  H51 UNL     1       1.214  12.311   5.614  1.00  0.00     0.174 HD
ATOM      8  H52 UNL     1       2.205  12.524   4.134  1.00  0.00     0.174 HD
HETATM    9  N6  UNL     1       0.265  10.094   5.092  1.00  0.00    -0.222 N
ATOM     10  H6  UNL     1       0.635   9.663   5.939  1.00  0.00     0.178 HD
HETATM   11  C15 UNL     1       1.827  11.291   1.966  1.00  0.00     0.141 C
HETATM   12  C16 UNL     1       3.204  11.213   1.399  1.00  0.00     0.025 C
ENDROOT
BRANCH   9  13
HETATM   13  C9  UNL     1      -1.137   9.896   4.797  1.00  0.00     0.099 C
HETATM   14  C10 UNL     1      -2.058  10.610   5.724  1.00  0.00     0.026 C
HETATM   15  C11 UNL     1      -3.324   9.761   5.858  1.00  0.00     0.002 C
HETATM   16  C12 UNL     1      -2.990   8.517   6.668  1.00  0.00     0.000 C
HETATM   17  C13 UNL     1      -1.822   7.830   6.024  1.00  0.00     0.002 C
HETATM   18  C14 UNL     1      -1.479   8.430   4.691  1.00  0.00     0.026 C
ENDBRANCH   9  13
BRANCH   1  19
HETATM   19  C4  UNL     1       5.060   9.767   0.816  1.00  0.00     0.024 C
BRANCH  19  20
HETATM   20  C3  UNL     1       6.385  10.326   1.248  1.00  0.00     0.122 C
BRANCH  20  21
HETATM   21  N3  UNL     1       6.973   9.428   2.223  1.00  0.00    -0.365 N
HETATM   22  C2  UNL     1       8.238   9.301   2.374  1.00  0.00     0.183 C
HETATM   23  N1  UNL     1       9.109  10.060   1.564  1.00  0.00    -0.369 N
HETATM   24  N2  UNL     1       8.752   8.411   3.340  1.00  0.00    -0.064 NA
HETATM   25  C1  UNL     1       9.718   9.570   0.342  1.00  0.00     0.148 C
ATOM     26  H1  UNL     1       9.324  11.014   1.857  1.00  0.00     0.161 HD
ATOM     27  H3  UNL     1       6.352   8.873   2.813  1.00  0.00     0.162 HD
ENDBRANCH  20  21
ENDBRANCH  19  20
ENDBRANCH   1  19
TORSDOF 4
ENDMDL