MODEL 4
REMARK VINA RESULT: -6.236411572      0.366      1.451
REMARK  4 active torsions:
REMARK  status: ('A' for Active; 'I' for Inactive)
REMARK    1  A    between atoms: C5_10  and  C6_11
REMARK       I    between atoms: C6_11  and  N3_13
REMARK    2  A    between atoms: N3_13  and  C7_15
REMARK    3  A    between atoms: C7_15  and  C8_16
REMARK    4  A    between atoms: C8_16  and  C9_17
ROOT
HETATM    1  C6  UNL     1       6.913  10.374   0.628  1.00  0.00     0.256 C
HETATM    2  O1  UNL     1       6.541  10.504  -0.565  1.00  0.00    -0.271 OA
HETATM    3  N3  UNL     1       5.921  10.050   1.592  1.00  0.00    -0.359 N
ATOM      4  H3  UNL     1       6.200   9.940   2.567  1.00  0.00     0.162 HD
ENDROOT
BRANCH   1   5
HETATM    5  C5  UNL     1       8.327  10.555   1.000  1.00  0.00     0.343 C
HETATM    6  C4  UNL     1       9.256  10.261  -0.091  1.00  0.00     0.111 C
HETATM    7  N1  UNL     1       9.590  11.286  -1.020  1.00  0.00    -0.376 N
HETATM    8  N2  UNL     1       9.764   9.087  -0.207  1.00  0.00    -0.387 N
HETATM    9  C3  UNL     1       9.321  12.658  -0.586  1.00  0.00     0.153 C
ATOM     10  H1  UNL     1       9.993  11.078  -1.934  1.00  0.00     0.160 HD
HETATM   11  C2  UNL     1       9.497  12.662   0.918  1.00  0.00     0.201 C
HETATM   12  C1  UNL     1      10.900  12.251   1.278  1.00  0.00     0.041 C
HETATM   13  N4  UNL     1       8.511  11.869   1.584  1.00  0.00    -0.050 N
ATOM     14  H42 UNL     1       8.722  11.794   2.579  1.00  0.00     0.279 HD
ATOM     15  H41 UNL     1       7.622  12.367   1.636  1.00  0.00     0.279 HD
ATOM     16  H22 UNL     1      10.412   8.882  -0.968  1.00  0.00     0.157 HD
ATOM     17  H21 UNL     1       9.525   8.352   0.458  1.00  0.00     0.157 HD
ENDBRANCH   1   5
BRANCH   3  18
HETATM   18  C7  UNL     1       4.525   9.870   1.238  1.00  0.00     0.123 C
BRANCH  18  19
HETATM   19  C8  UNL     1       3.789  11.156   1.508  1.00  0.00     0.029 C
BRANCH  19  20
HETATM   20  C9  UNL     1       2.417  10.965   2.031  1.00  0.00    -0.038 C
HETATM   21  C10 UNL     1       1.344  11.506   1.149  1.00  0.00     0.014 C
HETATM   22  C11 UNL     1      -0.024  11.167   1.657  1.00  0.00    -0.013 C
HETATM   23  C12 UNL     1      -0.164   9.670   1.955  1.00  0.00     0.010 C
HETATM   24  C16 UNL     1      -0.175  11.714   3.081  1.00  0.00     0.010 C
HETATM   25  C13 UNL     1       0.887   9.536   3.066  1.00  0.00    -0.009 C
HETATM   26  C14 UNL     1       2.229   9.475   2.321  1.00  0.00     0.014 C
HETATM   27  C15 UNL     1       0.886  10.865   3.790  1.00  0.00    -0.009 C
HETATM   28  C17 UNL     1       2.221  11.530   3.428  1.00  0.00     0.014 C
ENDBRANCH  19  20
ENDBRANCH  18  19
ENDBRANCH   3  18
TORSDOF 4
ENDMDL