MODEL 3
REMARK VINA RESULT: -5.793108585      1.094      1.233
REMARK  10 active torsions:
REMARK  status: ('A' for Active; 'I' for Inactive)
REMARK    1  A    between atoms: C2_2  and  C4_4
REMARK    2  A    between atoms: C4_4  and  C5_5
REMARK    3  A    between atoms: C5_5  and  C6_6
REMARK    4  A    between atoms: C7_7  and  S1_8
REMARK    5  A    between atoms: S1_8  and  N1_9
REMARK    6  A    between atoms: N1_9  and  C8_10
REMARK    7  A    between atoms: C8_10  and  C9_11
REMARK    8  A    between atoms: C13_15  and  O1_16
REMARK    9  A    between atoms: C18_22  and  O2_23
REMARK   10  A    between atoms: C19_25  and  O3_27
ROOT
HETATM    1  C6  UNL     1       7.598  10.278   1.814  1.00  0.00     0.037 C
HETATM    2  C7  UNL     1       8.579  11.312   1.334  1.00  0.00     0.075 C
HETATM    3  C15 UNL     1       9.986  10.809   1.159  1.00  0.00    -0.001 C
HETATM    4  C16 UNL     1      10.122   9.707   0.166  1.00  0.00     0.011 C
HETATM    5  C17 UNL     1      10.418  10.381   2.568  1.00  0.00     0.040 C
HETATM    6  C18 UNL     1       9.639   9.136   2.803  1.00  0.00     0.153 C
HETATM    7  C19 UNL     1       8.153   9.310   2.803  1.00  0.00     0.085 C
HETATM    8  C20 UNL     1       7.597   7.926   2.526  1.00  0.00     0.049 C
ENDROOT
BRANCH   2   9
HETATM    9  S1  UNL     1       8.617  12.840   2.241  1.00  0.00    -0.060 SA
BRANCH   9  10
HETATM   10  N1  UNL     1       9.054  14.219   1.236  1.00  0.00    -0.178 NA
BRANCH  10  11
HETATM   11  C8  UNL     1       9.866  15.168   2.015  1.00  0.00     0.127 C
BRANCH  11  12
HETATM   12  C9  UNL     1      11.129  14.436   2.422  1.00  0.00     0.003 C
HETATM   13  C10 UNL     1      11.734  15.103   3.651  1.00  0.00     0.006 C
HETATM   14  C11 UNL     1      12.407  16.413   3.272  1.00  0.00     0.003 C
HETATM   15  C12 UNL     1      13.410  16.198   2.152  1.00  0.00     0.032 C
HETATM   16  C13 UNL     1      13.474  14.726   1.775  1.00  0.00     0.118 C
HETATM   17  C14 UNL     1      12.103  14.322   1.291  1.00  0.00     0.037 C
BRANCH  16  18
HETATM   18  O1  UNL     1      14.414  14.583   0.758  1.00  0.00    -0.396 OA
ATOM     19  H1  UNL     1      15.276  14.707   1.136  1.00  0.00     0.210 HD
ENDBRANCH  16  18
ENDBRANCH  11  12
ENDBRANCH  10  11
ENDBRANCH   9  10
ENDBRANCH   2   9
BRANCH   1  20
HETATM   20  C5  UNL     1       6.347  10.957   2.206  1.00  0.00     0.009 C
BRANCH  20  21
HETATM   21  C4  UNL     1       5.144  10.722   1.343  1.00  0.00     0.004 C
BRANCH  21  22
HETATM   22  C2  UNL     1       4.267   9.712   2.113  1.00  0.00    -0.023 C
HETATM   23  C1  UNL     1       4.178   8.431   1.281  1.00  0.00     0.009 C
HETATM   24  C3  UNL     1       2.868  10.263   2.254  1.00  0.00     0.009 C
ENDBRANCH  21  22
ENDBRANCH  20  21
ENDBRANCH   1  20
BRANCH   7  25
HETATM   25  O3  UNL     1       7.834   9.622   4.127  1.00  0.00    -0.387 OA
ATOM     26  H3  UNL     1       7.978  10.534   4.346  1.00  0.00     0.210 HD
ENDBRANCH   7  25
BRANCH   6  27
HETATM   27  O2  UNL     1      10.016   8.516   4.003  1.00  0.00    -0.393 OA
ATOM     28  H2  UNL     1      10.759   7.937   3.875  1.00  0.00     0.210 HD
ENDBRANCH   6  27
TORSDOF 10
ENDMDL