MODEL 5
REMARK VINA RESULT: -6.149143183      3.468      5.356
REMARK  11 active torsions:
REMARK  status: ('A' for Active; 'I' for Inactive)
REMARK    1  A    between atoms: C5_5  and  O1_6
REMARK    2  A    between atoms: C8_10  and  N1_11
REMARK    3  A    between atoms: N1_11  and  C9_13
REMARK    4  A    between atoms: C9_13  and  C10_14
REMARK    5  A    between atoms: C10_14  and  C11_15
REMARK    6  A    between atoms: C11_15  and  C12_16
REMARK    7  A    between atoms: C12_16  and  C13_17
REMARK    8  A    between atoms: C13_17  and  N2_18
REMARK       I    between atoms: N2_18  and  C14_19
REMARK    9  A    between atoms: C14_19  and  O3_21
REMARK   10  A    between atoms: O3_21  and  C15_22
REMARK   11  A    between atoms: C20_27  and  O4_28
ROOT
HETATM    1  N1  UNL     1       7.102   9.004   1.518  1.00  0.00    -0.417 N
ATOM      2  H1  UNL     1       7.583   9.263   0.657  1.00  0.00     0.153 HD
ENDROOT
BRANCH   1   3
HETATM    3  C8  UNL     1       5.861   9.661   1.951  1.00  0.00     0.079 C
HETATM    4  C7  UNL     1       4.704   9.078   1.219  1.00  0.00     0.028 C
HETATM    5  C6  UNL     1       3.705   8.337   2.118  1.00  0.00     0.037 C
HETATM    6  C5  UNL     1       2.637   9.249   2.658  1.00  0.00     0.140 C
HETATM    7  C4  UNL     1       2.189  10.198   1.600  1.00  0.00     0.001 C
HETATM    8  C3  UNL     1       2.718  11.378   1.574  1.00  0.00    -0.021 C
HETATM    9  C2  UNL     1       3.740  11.915   2.475  1.00  0.00     0.033 C
HETATM   10  C1  UNL     1       3.185  13.302   2.880  1.00  0.00     0.017 C
HETATM   11  C20 UNL     1       5.093  12.128   1.843  1.00  0.00     0.127 C
HETATM   12  C19 UNL     1       6.098  11.087   2.003  1.00  0.00     0.057 C
BRANCH   6  13
HETATM   13  O1  UNL     1       1.524   8.412   2.937  1.00  0.00    -0.392 OA
ATOM     14  H1  UNL     1       1.203   8.108   2.096  1.00  0.00     0.210 HD
ENDBRANCH   6  13
BRANCH  11  15
HETATM   15  O4  UNL     1       4.985  12.609   0.515  1.00  0.00    -0.395 OA
ATOM     16  H4  UNL     1       5.673  13.231   0.308  1.00  0.00     0.210 HD
ENDBRANCH  11  15
ENDBRANCH   1   3
BRANCH   1  17
HETATM   17  C9  UNL     1       7.589   7.980   2.380  1.00  0.00     0.114 C
BRANCH  17  18
HETATM   18  C10 UNL     1       9.019   8.290   2.733  1.00  0.00     0.019 C
BRANCH  18  19
HETATM   19  C11 UNL     1       9.197   9.476   3.622  1.00  0.00     0.004 C
BRANCH  19  20
HETATM   20  C12 UNL     1       9.740  10.732   2.960  1.00  0.00     0.034 C
BRANCH  20  21
HETATM   21  C13 UNL     1      10.807  10.384   1.896  1.00  0.00     0.224 C
BRANCH  21  22
HETATM   22  N2  UNL     1      10.088  10.547   0.646  1.00  0.00    -0.391 NA
HETATM   23  C14 UNL     1       9.445  10.690  -0.470  1.00  0.00     0.435 C
HETATM   24  O2  UNL     1       8.506   9.996  -1.027  1.00  0.00    -0.221 OA
BRANCH  23  25
HETATM   25  O3  UNL     1       9.727  11.830  -1.344  1.00  0.00    -0.283 OA
BRANCH  25  26
HETATM   26  C15 UNL     1       9.685  13.111  -0.781  1.00  0.00     0.062 C
HETATM   27  C16 UNL     1       8.591  13.287   0.264  1.00  0.00     0.046 C
HETATM   28  C17 UNL     1      11.037  13.510  -0.206  1.00  0.00     0.046 C
HETATM   29  C18 UNL     1       9.399  14.078  -1.936  1.00  0.00     0.046 C
ENDBRANCH  25  26
ENDBRANCH  23  25
ENDBRANCH  21  22
ENDBRANCH  20  21
ENDBRANCH  19  20
ENDBRANCH  18  19
ENDBRANCH  17  18
ENDBRANCH   1  17
TORSDOF 11
ENDMDL