MODEL 1
REMARK VINA RESULT: -6.939624984      0.000      0.000
REMARK  10 active torsions:
REMARK  status: ('A' for Active; 'I' for Inactive)
REMARK    1  A    between atoms: C2_2  and  C3_3
REMARK    2  A    between atoms: C3_3  and  C4_4
REMARK    3  A    between atoms: C4_4  and  C5_5
REMARK    4  A    between atoms: C6_6  and  C7_7
REMARK    5  A    between atoms: C7_7  and  C8_8
REMARK    6  A    between atoms: C8_8  and  N1_9
REMARK    7  A    between atoms: C8_8  and  N2_12
REMARK    8  A    between atoms: N2_12  and  C9_14
REMARK    9  A    between atoms: C13_27  and  C14_28
REMARK   10  A    between atoms: N8_35  and  C18_36
ROOT
HETATM    1  C9  UNL     1       4.069   8.090   1.350  1.00  0.00     0.153 A
HETATM    2  N3  UNL     1       2.897   8.435   1.911  1.00  0.00    -0.174 N
ATOM      3  H3  UNL     1       2.148   7.743   1.936  1.00  0.00     0.186 HD
HETATM    4  C10 UNL     1       2.662   9.653   2.444  1.00  0.00     0.679 A
HETATM    5  N4  UNL     1       1.502   9.940   2.979  1.00  0.00    -0.234 N
ATOM      6  H41 UNL     1       1.324  10.860   3.382  1.00  0.00     0.174 HD
ATOM      7  H42 UNL     1       0.749   9.251   3.005  1.00  0.00     0.174 HD
HETATM    8  N5  UNL     1       3.654  10.561   2.410  1.00  0.00    -0.174 N
ATOM      9  H5  UNL     1       3.487  11.484   2.810  1.00  0.00     0.186 HD
HETATM   10  C11 UNL     1       4.855  10.300   1.870  1.00  0.00     0.155 A
HETATM   11  C12 UNL     1       5.071   9.037   1.326  1.00  0.00     0.124 A
HETATM   12  N6  UNL     1       6.330   9.013   0.851  1.00  0.00    -0.338 N
ATOM     13  H6  UNL     1       6.773   8.214   0.395  1.00  0.00     0.167 HD
HETATM   14  C13 UNL     1       6.921  10.214   1.073  1.00  0.00     0.117 A
HETATM   15  N8  UNL     1       6.010  10.967   1.686  1.00  0.00    -0.314 N
ENDROOT
BRANCH   1  16
HETATM   16  N2  UNL     1       4.328   6.942   0.834  1.00  0.00    -0.330 N
ATOM     17  H2  UNL     1       4.173   6.830  -0.168  1.00  0.00     0.168 HD
BRANCH  16  18
HETATM   18  C8  UNL     1       4.808   5.830   1.546  1.00  0.00     0.079 C
BRANCH  18  19
HETATM   19  C7  UNL     1       3.925   4.610   1.578  1.00  0.00     0.103 C
BRANCH  19  20
HETATM   20  C6  UNL     1       4.716   3.375   1.648  1.00  0.00    -0.023 C
HETATM   21  C5  UNL     1       4.588   2.311   0.890  1.00  0.00    -0.030 C
BRANCH  21  22
HETATM   22  C4  UNL     1       3.606   2.143  -0.205  1.00  0.00     0.027 C
BRANCH  22  23
HETATM   23  C3  UNL     1       2.348   1.524   0.384  1.00  0.00     0.003 C
BRANCH  23  24
HETATM   24  C2  UNL     1       1.464   1.129  -0.781  1.00  0.00    -0.004 C
HETATM   25  C1  UNL     1       2.227   1.422  -2.053  1.00  0.00     0.005 C
ENDBRANCH  23  24
ENDBRANCH  22  23
ENDBRANCH  21  22
ENDBRANCH  19  20
ENDBRANCH  18  19
BRANCH  18  26
HETATM   26  N1  UNL     1       5.942   5.856   2.138  1.00  0.00    -0.389 N
ATOM     27  H12 UNL     1       6.118   5.298   2.973  1.00  0.00     0.157 HD
ATOM     28  H11 UNL     1       6.711   6.433   1.799  1.00  0.00     0.157 HD
ENDBRANCH  18  26
ENDBRANCH  16  18
ENDBRANCH   1  16
BRANCH  15  29
HETATM   29  C18 UNL     1       6.194  12.335   2.121  1.00  0.00     0.093 A
HETATM   30  C19 UNL     1       5.299  13.406   1.425  1.00  0.00     0.028 A
HETATM   31  C20 UNL     1       6.713  13.293   1.016  1.00  0.00     0.028 A
ENDBRANCH  15  29
BRANCH  14  32
HETATM   32  C14 UNL     1       8.312  10.555   0.683  1.00  0.00     0.253 C
HETATM   33  C15 UNL     1       9.235  10.367   1.890  1.00  0.00     0.042 C
HETATM   34  C16 UNL     1       9.843   8.997   1.559  1.00  0.00     0.030 C
HETATM   35  C17 UNL     1      10.074   9.151   0.071  1.00  0.00     0.233 C
HETATM   36  N7  UNL     1       8.818   9.733  -0.367  1.00  0.00    -0.064 N
ATOM     37  H72 UNL     1       8.146   9.030  -0.673  1.00  0.00     0.278 HD
ATOM     38  H71 UNL     1       8.907  10.236  -1.250  1.00  0.00     0.278 HD
ENDBRANCH  14  32
TORSDOF 10
ENDMDL