MODEL 2
REMARK VINA RESULT: -7.153605806      1.153      1.435
REMARK  10 active torsions:
REMARK  status: ('A' for Active; 'I' for Inactive)
REMARK    1  A    between atoms: C2_2  and  C3_3
REMARK    2  A    between atoms: C3_3  and  C4_4
REMARK    3  A    between atoms: C4_4  and  C5_5
REMARK    4  A    between atoms: C5_5  and  C6_6
REMARK    5  A    between atoms: C6_6  and  N1_7
REMARK       I    between atoms: N1_7  and  C7_9
REMARK    6  A    between atoms: C7_9  and  C8_11
REMARK    7  A    between atoms: C9_14  and  O2_15
REMARK    8  A    between atoms: C10_17  and  S1_18
REMARK    9  A    between atoms: S1_18  and  N3_21
REMARK   10  A    between atoms: C16_27  and  O5_28
ROOT
HETATM    1  C8  UNL     1       5.666   6.773   1.887  1.00  0.00     0.138 A
HETATM    2  N2  UNL     1       5.305   7.953   1.364  1.00  0.00    -0.329 N
ATOM      3  H2  UNL     1       4.432   8.129   0.867  1.00  0.00     0.168 HD
HETATM    4  C9  UNL     1       6.261   8.875   1.590  1.00  0.00     0.167 A
HETATM    5  C10 UNL     1       7.295   8.288   2.287  1.00  0.00     0.160 A
HETATM    6  C16 UNL     1       6.894   6.955   2.463  1.00  0.00     0.125 A
ENDROOT
BRANCH   1   7
HETATM    7  C7  UNL     1       4.881   5.520   1.842  1.00  0.00     0.271 C
HETATM    8  N1  UNL     1       5.544   4.294   1.706  1.00  0.00    -0.356 N
ATOM      9  H1  UNL     1       6.562   4.298   1.636  1.00  0.00     0.162 HD
HETATM   10  O1  UNL     1       3.631   5.548   1.922  1.00  0.00    -0.266 OA
BRANCH   8  11
HETATM   11  C6  UNL     1       4.861   3.028   1.659  1.00  0.00     0.123 C
BRANCH  11  12
HETATM   12  C5  UNL     1       4.142   2.799   0.355  1.00  0.00     0.020 C
BRANCH  12  13
HETATM   13  C4  UNL     1       2.720   2.368   0.616  1.00  0.00     0.002 C
BRANCH  13  14
HETATM   14  C3  UNL     1       2.355   1.118  -0.112  1.00  0.00    -0.000 C
BRANCH  14  15
HETATM   15  C2  UNL     1       1.562   1.420  -1.377  1.00  0.00    -0.005 C
HETATM   16  C1  UNL     1       2.536   1.380  -2.536  1.00  0.00     0.005 C
ENDBRANCH  14  15
ENDBRANCH  13  14
ENDBRANCH  12  13
ENDBRANCH  11  12
ENDBRANCH   8  11
ENDBRANCH   1   7
BRANCH   6  17
HETATM   17  O5  UNL     1       7.677   6.053   3.122  1.00  0.00    -0.357 OA
ATOM     18  H5  UNL     1       8.242   6.186   3.873  1.00  0.00     0.218 HD
ENDBRANCH   6  17
BRANCH   4  19
HETATM   19  O2  UNL     1       6.196  10.204   1.177  1.00  0.00    -0.345 OA
ATOM     20  H2  UNL     1       6.778  10.893   1.476  1.00  0.00     0.219 HD
ENDBRANCH   4  19
BRANCH   5  21
HETATM   21  S1  UNL     1       8.786   9.027   2.840  1.00  0.00     0.250 S
HETATM   22  O3  UNL     1       9.836   7.929   2.923  1.00  0.00    -0.205 OA
HETATM   23  O4  UNL     1       8.665   9.605   4.205  1.00  0.00    -0.205 OA
BRANCH  21  24
HETATM   24  N3  UNL     1       9.376  10.197   1.720  1.00  0.00    -0.206 NA
HETATM   25  C11 UNL     1       9.599   9.546   0.447  1.00  0.00     0.107 C
HETATM   26  C12 UNL     1       9.796  10.614  -0.606  1.00  0.00     0.015 C
HETATM   27  C13 UNL     1      10.044  11.948   0.059  1.00  0.00     0.002 C
HETATM   28  C14 UNL     1      11.090  11.751   1.133  1.00  0.00     0.015 C
HETATM   29  C15 UNL     1      10.575  10.824   2.199  1.00  0.00     0.107 C
ENDBRANCH  21  24
ENDBRANCH   5  21
TORSDOF 10
ENDMDL