MODEL 1
REMARK VINA RESULT: -7.494613710      0.000      0.000
REMARK  10 active torsions:
REMARK  status: ('A' for Active; 'I' for Inactive)
REMARK    1  A    between atoms: C5_5  and  O1_6
REMARK    2  A    between atoms: C6_8  and  C7_9
REMARK    3  A    between atoms: C7_9  and  O2_11
REMARK    4  A    between atoms: C11_15  and  C12_16
REMARK    5  A    between atoms: C12_16  and  C13_17
REMARK    6  A    between atoms: C14_18  and  C15_19
REMARK    7  A    between atoms: C15_19  and  C16_20
REMARK    8  A    between atoms: C17_21  and  C18_22
REMARK    9  A    between atoms: C18_22  and  C19_23
REMARK   10  A    between atoms: C19_23  and  O3_24
ROOT
HETATM    1  C12 UNL     1       5.780   9.944   1.247  1.00  0.00     0.032 C
ENDROOT
BRANCH   1   2
HETATM    2  C11 UNL     1       6.841  10.240   2.253  1.00  0.00     0.000 C
HETATM    3  C4  UNL     1       7.291  11.664   2.150  1.00  0.00     0.020 C
HETATM    4  C3  UNL     1       8.192  11.930   3.364  1.00  0.00     0.012 C
HETATM    5  C5  UNL     1       8.170  11.616   0.884  1.00  0.00     0.129 C
HETATM    6  C2  UNL     1       8.501  10.699   4.148  1.00  0.00    -0.018 C
HETATM    7  C1  UNL     1       9.690  11.045   5.052  1.00  0.00     0.010 C
HETATM    8  C10 UNL     1       8.978   9.605   3.208  1.00  0.00     0.010 C
HETATM    9  C9  UNL     1       8.163   9.513   1.966  1.00  0.00    -0.000 C
HETATM   10  C6  UNL     1       8.656  10.226   0.770  1.00  0.00     0.048 C
BRANCH  10  11
HETATM   11  C7  UNL     1      10.092  10.073   0.401  1.00  0.00     0.121 C
HETATM   12  C8  UNL     1      10.505   8.684   0.042  1.00  0.00     0.040 C
BRANCH  11  13
HETATM   13  O2  UNL     1      11.018  10.625   1.241  1.00  0.00    -0.395 OA
ATOM     14  H2  UNL     1      11.101  10.246   2.108  1.00  0.00     0.210 HD
ENDBRANCH  11  13
ENDBRANCH  10  11
BRANCH   5  15
HETATM   15  O1  UNL     1       9.150  12.572   1.068  1.00  0.00    -0.395 OA
ATOM     16  H1  UNL     1       9.971  12.152   0.837  1.00  0.00     0.210 HD
ENDBRANCH   5  15
ENDBRANCH   1   2
BRANCH   1  17
HETATM   17  C13 UNL     1       4.481   9.656   1.909  1.00  0.00    -0.030 C
HETATM   18  C14 UNL     1       3.780   8.566   1.784  1.00  0.00    -0.027 C
BRANCH  18  19
HETATM   19  C15 UNL     1       4.171   7.418   0.952  1.00  0.00     0.053 C
BRANCH  19  20
HETATM   20  C16 UNL     1       4.978   6.434   1.754  1.00  0.00    -0.027 C
HETATM   21  C17 UNL     1       4.995   5.152   1.557  1.00  0.00    -0.027 C
BRANCH  21  22
HETATM   22  C18 UNL     1       4.243   4.409   0.528  1.00  0.00     0.066 C
BRANCH  22  23
HETATM   23  C19 UNL     1       3.935   3.018   1.061  1.00  0.00     0.086 C
HETATM   24  C20 UNL     1       4.082   2.053  -0.103  1.00  0.00     0.067 C
HETATM   25  C21 UNL     1       2.645   1.759  -0.457  1.00  0.00     0.235 C
HETATM   26  N1  UNL     1       2.035   1.630   0.874  1.00  0.00    -0.072 N
HETATM   27  C22 UNL     1       2.481   2.908   1.458  1.00  0.00     0.270 C
ATOM     28  H12 UNL     1       1.031   1.450   0.895  1.00  0.00     0.277 HD
ATOM     29  H11 UNL     1       2.272   0.788   1.398  1.00  0.00     0.277 HD
BRANCH  23  30
HETATM   30  O3  UNL     1       4.807   2.658   2.069  1.00  0.00    -0.388 OA
ATOM     31  H3  UNL     1       5.038   1.738   2.018  1.00  0.00     0.210 HD
ENDBRANCH  23  30
ENDBRANCH  22  23
ENDBRANCH  21  22
ENDBRANCH  19  20
ENDBRANCH  18  19
ENDBRANCH   1  17
TORSDOF 10
ENDMDL