MODEL 2
REMARK VINA RESULT: -6.412192490      2.861      4.007
REMARK  9 active torsions:
REMARK  status: ('A' for Active; 'I' for Inactive)
REMARK    1  A    between atoms: C2_2  and  C3_3
REMARK    2  A    between atoms: C3_3  and  C4_4
REMARK    3  A    between atoms: C4_4  and  O1_5
REMARK    4  A    between atoms: C5_8  and  C6_9
REMARK    5  A    between atoms: C7_10  and  C8_11
REMARK    6  A    between atoms: C8_11  and  O3_12
REMARK    7  A    between atoms: C8_11  and  C9_14
REMARK    8  A    between atoms: C10_15  and  C11_16
REMARK    9  A    between atoms: C12_17  and  C13_18
ROOT
HETATM    1  C8  UNL     1       1.382  10.124   2.867  1.00  0.00     0.164 C
ENDROOT
BRANCH   1   2
HETATM    2  C7  UNL     1       1.794  10.566   4.219  1.00  0.00     0.011 C
HETATM    3  C6  UNL     1       1.003  10.477   5.251  1.00  0.00     0.035 C
BRANCH   3   4
HETATM    4  C5  UNL     1      -0.351   9.952   5.233  1.00  0.00     0.067 C
HETATM    5  O2  UNL     1      -0.751   8.673   5.568  1.00  0.00    -0.337 OA
HETATM    6  C3  UNL     1      -2.044   8.387   5.048  1.00  0.00     0.099 C
HETATM    7  C20 UNL     1      -2.634   9.745   4.998  1.00  0.00     0.006 C
HETATM    8  C19 UNL     1      -1.458  10.644   4.880  1.00  0.00     0.022 C
HETATM    9  C21 UNL     1      -3.310  10.076   6.311  1.00  0.00     0.022 C
HETATM   10  C22 UNL     1      -3.528  10.010   3.823  1.00  0.00     0.022 C
BRANCH   6  11
HETATM   11  C2  UNL     1      -2.696   7.453   6.011  1.00  0.00     0.037 C
HETATM   12  C1  UNL     1      -1.804   6.837   7.015  1.00  0.00     0.008 C
ENDBRANCH   6  11
BRANCH   6  13
HETATM   13  C4  UNL     1      -1.824   7.765   3.689  1.00  0.00     0.203 C
BRANCH  13  14
HETATM   14  O1  UNL     1      -2.636   6.667   3.470  1.00  0.00    -0.398 OA
ATOM     15  H1  UNL     1      -2.822   6.185   4.269  1.00  0.00     0.209 HD
ENDBRANCH  13  14
ENDBRANCH   6  13
ENDBRANCH   3   4
ENDBRANCH   1   2
BRANCH   1  16
HETATM   16  O3  UNL     1       1.778  11.042   1.889  1.00  0.00    -0.388 OA
ATOM     17  H3  UNL     1       1.034  11.353   1.386  1.00  0.00     0.210 HD
ENDBRANCH   1  16
BRANCH   1  18
HETATM   18  C9  UNL     1       2.142   8.876   2.573  1.00  0.00     0.008 C
HETATM   19  C10 UNL     1       3.359   9.024   2.021  1.00  0.00    -0.001 C
BRANCH  19  20
HETATM   20  C11 UNL     1       4.168   7.864   1.701  1.00  0.00    -0.003 C
HETATM   21  C12 UNL     1       5.470   7.912   1.695  1.00  0.00    -0.016 C
BRANCH  21  22
HETATM   22  C13 UNL     1       6.298   9.084   1.994  1.00  0.00     0.063 C
HETATM   23  C14 UNL     1       6.751   9.772   0.747  1.00  0.00    -0.016 C
HETATM   24  C15 UNL     1       8.013   9.802   0.352  1.00  0.00     0.031 C
HETATM   25  C16 UNL     1       9.067   9.135   1.151  1.00  0.00     0.406 C
HETATM   26  N1  UNL     1       9.433   9.904   2.319  1.00  0.00    -0.041 N
HETATM   27  N2  UNL     1       8.425   7.962   1.753  1.00  0.00    -0.036 N
HETATM   28  C17 UNL     1       8.322   9.789   3.231  1.00  0.00     0.269 C
ATOM     29  H12 UNL     1      10.325   9.626   2.727  1.00  0.00     0.280 HD
ATOM     30  H11 UNL     1       9.689  10.869   2.108  1.00  0.00     0.280 HD
HETATM   31  C18 UNL     1       7.556   8.587   2.714  1.00  0.00     0.225 C
ATOM     32  H22 UNL     1       7.969   7.327   1.098  1.00  0.00     0.280 HD
ATOM     33  H21 UNL     1       9.061   7.258   2.129  1.00  0.00     0.280 HD
ENDBRANCH  21  22
ENDBRANCH  19  20
ENDBRANCH   1  18
TORSDOF 9
ENDMDL