MODEL 4
REMARK VINA RESULT: -5.686028111      2.749      5.021
REMARK  9 active torsions:
REMARK  status: ('A' for Active; 'I' for Inactive)
REMARK    1  A    between atoms: C2_2  and  C3_3
REMARK    2  A    between atoms: C3_3  and  C4_4
REMARK    3  A    between atoms: C4_4  and  C5_5
REMARK    4  A    between atoms: C5_5  and  C6_6
REMARK    5  A    between atoms: C5_5  and  N1_8
REMARK    6  A    between atoms: C10_11  and  N2_12
REMARK    7  A    between atoms: C12_14  and  C13_15
REMARK    8  A    between atoms: C14_18  and  N4_19
REMARK    9  A    between atoms: C15_24  and  N6_25
ROOT
HETATM    1  N2  UNL     1       9.857  11.521   2.185  1.00  0.00    -0.187 N
HETATM    2  C11 UNL     1       9.068  10.432   2.448  1.00  0.00     0.130 A
HETATM    3  C12 UNL     1       9.137   9.245   1.759  1.00  0.00     0.089 A
HETATM    4  C14 UNL     1      10.061   9.171   0.752  1.00  0.00     0.131 A
HETATM    5  N5  UNL     1      10.848  10.285   0.507  1.00  0.00    -0.176 N
ATOM      6  H5  UNL     1      11.538  10.233  -0.243  1.00  0.00     0.186 HD
HETATM    7  C15 UNL     1      10.750  11.422   1.198  1.00  0.00     0.679 A
ENDROOT
BRANCH   1   8
HETATM    8  C10 UNL     1       9.690  12.676   2.964  1.00  0.00     0.118 C
HETATM    9  C9  UNL     1       9.426  12.477   4.419  1.00  0.00     0.046 C
HETATM   10  C8  UNL     1       9.619  13.783   5.215  1.00  0.00     0.119 C
HETATM   11  N1  UNL     1       9.711  14.905   4.404  1.00  0.00    -0.407 N
HETATM   12  C19 UNL     1       8.757  14.904   3.363  1.00  0.00     0.128 C
HETATM   13  C16 UNL     1       8.666  13.688   2.496  1.00  0.00    -0.010 C
HETATM   14  C17 UNL     1       7.269  13.076   2.459  1.00  0.00     0.018 C
HETATM   15  C18 UNL     1       8.889  14.180   1.097  1.00  0.00     0.018 C
BRANCH  11  16
HETATM   16  C5  UNL     1      10.717  15.840   4.443  1.00  0.00     0.078 C
BRANCH  16  17
HETATM   17  C4  UNL     1      11.984  15.482   3.753  1.00  0.00     0.025 C
BRANCH  17  18
HETATM   18  C3  UNL     1      12.120  15.880   2.339  1.00  0.00     0.002 C
BRANCH  18  19
HETATM   19  C2  UNL     1      13.611  16.180   2.076  1.00  0.00    -0.004 C
HETATM   20  C1  UNL     1      14.289  14.854   1.889  1.00  0.00     0.005 C
ENDBRANCH  18  19
ENDBRANCH  17  18
ENDBRANCH  16  17
BRANCH  16  21
HETATM   21  C6  UNL     1      11.128  16.264   5.860  1.00  0.00     0.020 C
HETATM   22  C7  UNL     1      12.654  16.438   5.797  1.00  0.00     0.007 C
ENDBRANCH  16  21
ENDBRANCH  11  16
ENDBRANCH   1   8
BRANCH   7  23
HETATM   23  N6  UNL     1      11.556  12.402   0.862  1.00  0.00    -0.234 N
ATOM     24  H62 UNL     1      11.141  13.323   0.722  1.00  0.00     0.174 HD
ATOM     25  H61 UNL     1      12.561  12.279   0.740  1.00  0.00     0.174 HD
ENDBRANCH   7  23
BRANCH   3  26
HETATM   26  C13 UNL     1       8.255   8.162   2.118  1.00  0.00     0.270 C
HETATM   27  N3  UNL     1       8.731   7.132   2.965  1.00  0.00    -0.057 NA
HETATM   28  O1  UNL     1       7.091   8.076   1.725  1.00  0.00    -0.271 OA
ENDBRANCH   3  26
BRANCH   4  29
HETATM   29  N4  UNL     1      10.246   8.168   0.040  1.00  0.00    -0.384 N
ATOM     30  H42 UNL     1      10.702   8.308  -0.861  1.00  0.00     0.157 HD
ATOM     31  H41 UNL     1       9.976   7.219   0.297  1.00  0.00     0.157 HD
ENDBRANCH   4  29
TORSDOF 9
ENDMDL