MODEL 3
REMARK VINA RESULT: -5.213494596      1.644      3.951
REMARK  11 active torsions:
REMARK  status: ('A' for Active; 'I' for Inactive)
REMARK    1  A    between atoms: C2_2  and  C4_4
REMARK    2  A    between atoms: C4_4  and  C7_7
REMARK    3  A    between atoms: C7_7  and  C9_9
REMARK    4  A    between atoms: C7_7  and  C12_14
REMARK    5  A    between atoms: C9_9  and  O1_10
REMARK    6  A    between atoms: O1_10  and  C10_11
REMARK    7  A    between atoms: C13_15  and  C14_16
REMARK    8  A    between atoms: C14_16  and  O3_17
REMARK    9  A    between atoms: C14_16  and  C15_19
REMARK   10  A    between atoms: C15_19  and  C18_22
REMARK   11  A    between atoms: C18_22  and  O4_23
ROOT
HETATM    1  C12 UNL     1       9.277  13.358  -0.062  1.00  0.00     0.049 A
HETATM    2  C13 UNL     1       9.475  11.991  -0.304  1.00  0.00     0.068 A
HETATM    3  N1  UNL     1      10.213  11.931  -1.437  1.00  0.00    -0.299 N
ATOM      4  H1  UNL     1      10.528  11.064  -1.871  1.00  0.00     0.186 HD
HETATM    5  N2  UNL     1      10.470  13.124  -1.905  1.00  0.00    -0.266 N
ATOM      6  H2  UNL     1      11.008  13.314  -2.751  1.00  0.00     0.190 HD
HETATM    7  C19 UNL     1       9.933  14.056  -1.124  1.00  0.00     0.269 A
HETATM    8  O5  UNL     1      10.053  15.268  -1.380  1.00  0.00    -0.266 OA
ENDROOT
BRANCH   1   9
HETATM    9  C7  UNL     1       8.764  14.124   1.036  1.00  0.00     0.024 C
HETATM   10  C8  UNL     1       8.092  15.407   0.457  1.00  0.00     0.024 C
BRANCH   9  11
HETATM   11  C4  UNL     1       9.640  14.448   2.201  1.00  0.00    -0.012 C
HETATM   12  C5  UNL     1       9.799  13.285   3.186  1.00  0.00     0.021 C
HETATM   13  C6  UNL     1       9.083  15.567   3.080  1.00  0.00     0.021 C
BRANCH  11  14
HETATM   14  C2  UNL     1      11.014  14.948   1.891  1.00  0.00    -0.084 C
HETATM   15  C1  UNL     1      11.249  16.223   1.734  1.00  0.00     0.015 C
HETATM   16  C3  UNL     1      12.221  14.110   1.733  1.00  0.00     0.043 C
ENDBRANCH  11  14
ENDBRANCH   9  11
BRANCH   9  17
HETATM   17  C9  UNL     1       7.477  13.527   1.682  1.00  0.00     0.194 C
BRANCH  17  18
HETATM   18  O1  UNL     1       6.378  13.386   0.937  1.00  0.00    -0.321 OA
BRANCH  18  19
HETATM   19  C10 UNL     1       5.383  12.488   1.215  1.00  0.00     0.254 C
HETATM   20  C11 UNL     1       5.725  11.272   1.999  1.00  0.00     0.126 C
HETATM   21  O2  UNL     1       4.194  12.675   0.822  1.00  0.00    -0.266 OA
ENDBRANCH  18  19
ENDBRANCH  17  18
ENDBRANCH   9  17
ENDBRANCH   1   9
BRANCH   2  22
HETATM   22  C14 UNL     1       8.927  10.824   0.344  1.00  0.00     0.179 C
BRANCH  22  23
HETATM   23  O3  UNL     1       8.607   9.796  -0.631  1.00  0.00    -0.389 OA
ATOM     24  H3  UNL     1       9.269   9.759  -1.311  1.00  0.00     0.210 HD
ENDBRANCH  22  23
BRANCH  22  25
HETATM   25  C15 UNL     1       9.980  10.019   1.124  1.00  0.00     0.005 C
HETATM   26  C16 UNL     1      10.366   8.920   0.054  1.00  0.00     0.020 C
HETATM   27  C17 UNL     1      11.277  10.706   1.337  1.00  0.00     0.020 C
BRANCH  25  28
HETATM   28  C18 UNL     1       9.423   9.226   2.242  1.00  0.00     0.175 C
BRANCH  28  29
HETATM   29  O4  UNL     1       8.838   8.015   1.797  1.00  0.00    -0.400 OA
ATOM     30  H4  UNL     1       8.135   7.726   2.368  1.00  0.00     0.209 HD
ENDBRANCH  28  29
ENDBRANCH  25  28
ENDBRANCH  22  25
ENDBRANCH   2  22
TORSDOF 11
ENDMDL