MODEL 4
REMARK VINA RESULT: -6.731450922      1.567      2.324
REMARK  9 active torsions:
REMARK  status: ('A' for Active; 'I' for Inactive)
REMARK    1  A    between atoms: C2_2  and  O1_3
REMARK    2  A    between atoms: O1_3  and  C3_4
REMARK       I    between atoms: C3_4  and  N1_6
REMARK    3  A    between atoms: N1_6  and  N2_8
REMARK    4  A    between atoms: C4_10  and  C6_12
REMARK    5  A    between atoms: C6_12  and  C7_13
REMARK    6  A    between atoms: C7_13  and  C8_14
REMARK    7  A    between atoms: C8_14  and  C11_17
REMARK    8  A    between atoms: C11_17  and  C12_18
REMARK    9  A    between atoms: C13_20  and  N3_21
REMARK       I    between atoms: N3_21  and  C14_23
ROOT
HETATM    1  C8  UNL     1       7.719   9.535   1.614  1.00  0.00    -0.043 C
HETATM    2  C9  UNL     1       7.836   8.160   2.388  1.00  0.00     0.015 C
HETATM    3  C10 UNL     1       8.843   9.504   0.617  1.00  0.00     0.015 C
ENDROOT
BRANCH   1   4
HETATM    4  C7  UNL     1       6.415   9.403   0.919  1.00  0.00     0.014 C
BRANCH   4   5
HETATM    5  C6  UNL     1       5.215   9.681   1.802  1.00  0.00     0.054 C
BRANCH   5   6
HETATM    6  C4  UNL     1       4.294   8.520   1.804  1.00  0.00    -0.000 C
HETATM    7  N2  UNL     1       4.641   7.395   1.295  1.00  0.00    -0.305 N
ATOM      8  H2  UNL     1       5.569   7.311   0.880  1.00  0.00     0.186 HD
HETATM    9  C5  UNL     1       2.955   8.661   2.408  1.00  0.00     0.065 C
BRANCH   7  10
HETATM   10  N1  UNL     1       3.803   6.282   1.286  1.00  0.00    -0.245 N
HETATM   11  C3  UNL     1       4.376   5.001   1.470  1.00  0.00     0.379 C
HETATM   12  O2  UNL     1       5.606   4.815   1.642  1.00  0.00    -0.237 OA
ATOM     13  H1  UNL     1       2.798   6.389   1.149  1.00  0.00     0.192 HD
BRANCH  11  14
HETATM   14  O1  UNL     1       3.517   3.907   1.458  1.00  0.00    -0.303 OA
BRANCH  14  15
HETATM   15  C2  UNL     1       3.835   2.674   0.865  1.00  0.00     0.176 C
HETATM   16  C1  UNL     1       2.574   1.914   0.486  1.00  0.00     0.034 C
ENDBRANCH  14  15
ENDBRANCH  11  14
ENDBRANCH   7  10
ENDBRANCH   5   6
ENDBRANCH   4   5
ENDBRANCH   1   4
BRANCH   1  17
HETATM   17  C11 UNL     1       7.944  10.594   2.607  1.00  0.00     0.057 C
BRANCH  17  18
HETATM   18  C12 UNL     1       8.610  11.845   2.124  1.00  0.00     0.009 A
HETATM   19  S1  UNL     1      10.326  12.155   2.362  1.00  0.00    -0.057 SA
HETATM   20  C13 UNL     1      10.385  13.730   1.663  1.00  0.00     0.151 A
HETATM   21  N6  UNL     1       9.132  13.916   1.302  1.00  0.00    -0.339 N
HETATM   22  C15 UNL     1       8.236  12.985   1.524  1.00  0.00     0.020 A
ATOM     23  H6  UNL     1       8.858  14.787   0.848  1.00  0.00     0.168 HD
HETATM   24  C16 UNL     1       6.799  13.188   1.040  1.00  0.00     0.069 C
BRANCH  20  25
HETATM   25  N3  UNL     1      11.461  14.430   1.588  1.00  0.00    -0.311 N
HETATM   26  C14 UNL     1      12.531  14.304   0.729  1.00  0.00     0.187 C
HETATM   27  N4  UNL     1      12.517  13.585  -0.333  1.00  0.00    -0.373 N
HETATM   28  N5  UNL     1      13.772  14.996   0.973  1.00  0.00    -0.064 NA
ATOM     29  H42 UNL     1      11.639  13.095  -0.505  1.00  0.00     0.158 HD
ATOM     30  H41 UNL     1      13.309  13.492  -0.969  1.00  0.00     0.158 HD
ATOM     31  H3  UNL     1      11.534  15.190   2.264  1.00  0.00     0.170 HD
ENDBRANCH  20  25
ENDBRANCH  17  18
ENDBRANCH   1  17
TORSDOF 9
ENDMDL