MODEL 1
REMARK VINA RESULT: -5.564375251      0.000      0.000
REMARK  10 active torsions:
REMARK  status: ('A' for Active; 'I' for Inactive)
REMARK    1  A    between atoms: C2_2  and  C3_3
REMARK    2  A    between atoms: C3_3  and  C4_4
REMARK    3  A    between atoms: C4_4  and  C5_5
REMARK    4  A    between atoms: C5_5  and  C6_6
REMARK    5  A    between atoms: C6_6  and  O1_7
REMARK    6  A    between atoms: C14_16  and  C15_17
REMARK    7  A    between atoms: C16_18  and  O2_19
REMARK    8  A    between atoms: C16_18  and  C17_21
REMARK    9  A    between atoms: N2_23  and  O3_25
REMARK   10  A    between atoms: C18_27  and  C19_28
ROOT
HETATM    1  C5  UNL     1       8.875   9.708   1.312  1.00  0.00    -0.018 C
HETATM    2  C7  UNL     1       8.766   8.921   2.574  1.00  0.00     0.012 C
HETATM    3  C8  UNL     1       9.648   9.374   3.706  1.00  0.00     0.010 C
HETATM    4  C9  UNL     1       9.696  10.813   3.977  1.00  0.00     0.024 C
HETATM    5  C10 UNL     1       9.141  11.266   5.275  1.00  0.00    -0.024 C
HETATM    6  C11 UNL     1       9.326  12.582   5.523  1.00  0.00    -0.025 C
HETATM    7  C12 UNL     1      10.034  13.355   4.494  1.00  0.00     0.012 C
HETATM    8  C13 UNL     1       9.871  14.855   4.690  1.00  0.00     0.015 C
HETATM    9  C14 UNL     1       9.654  13.048   3.076  1.00  0.00     0.034 C
HETATM   10  C18 UNL     1       9.055  11.669   2.912  1.00  0.00     0.028 C
HETATM   11  C20 UNL     1       9.275  11.156   1.538  1.00  0.00     0.029 C
ENDROOT
BRANCH   9  12
HETATM   12  C15 UNL     1      10.882  13.244   2.267  1.00  0.00     0.020 C
HETATM   13  C16 UNL     1      10.980  14.109   1.289  1.00  0.00     0.105 C
BRANCH  13  14
HETATM   14  O2  UNL     1       9.928  14.932   0.915  1.00  0.00    -0.358 OA
ATOM     15  H2  UNL     1       9.093  14.590   0.620  1.00  0.00     0.217 HD
ENDBRANCH  13  14
BRANCH  13  16
HETATM   16  C17 UNL     1      12.228  14.230   0.550  1.00  0.00     0.168 C
HETATM   17  N1  UNL     1      12.282  14.148  -0.873  1.00  0.00    -0.078 NA
HETATM   18  N2  UNL     1      13.355  14.421   1.180  1.00  0.00    -0.253 N
ATOM     19  H2  UNL     1      13.349  14.484   2.198  1.00  0.00     0.195 HD
BRANCH  18  20
HETATM   20  O3  UNL     1      14.540  14.539   0.515  1.00  0.00    -0.288 OA
ATOM     21  H3  UNL     1      15.280  15.001   0.890  1.00  0.00     0.244 HD
ENDBRANCH  18  20
ENDBRANCH  13  16
ENDBRANCH   9  12
BRANCH  10  22
HETATM   22  C19 UNL     1       7.596  11.837   3.118  1.00  0.00     0.242 C
HETATM   23  O4  UNL     1       6.890  12.626   2.567  1.00  0.00    -0.306 OA
ENDBRANCH  10  22
BRANCH   1  24
HETATM   24  C4  UNL     1       7.626   9.685   0.559  1.00  0.00     0.012 C
BRANCH  24  25
HETATM   25  C3  UNL     1       6.419   8.973   0.936  1.00  0.00     0.000 C
BRANCH  25  26
HETATM   26  C2  UNL     1       5.289   9.678   1.591  1.00  0.00    -0.005 C
HETATM   27  C1  UNL     1       4.068   8.727   1.680  1.00  0.00     0.005 C
ENDBRANCH  25  26
ENDBRANCH  24  25
ENDBRANCH   1  24
BRANCH   1  28
HETATM   28  C6  UNL     1      10.079   9.114   0.566  1.00  0.00     0.173 C
BRANCH  28  29
HETATM   29  O1  UNL     1       9.757   8.006  -0.164  1.00  0.00    -0.400 OA
ATOM     30  H1  UNL     1       9.457   8.216  -1.040  1.00  0.00     0.209 HD
ENDBRANCH  28  29
ENDBRANCH   1  28
TORSDOF 10
ENDMDL