MODEL 4
REMARK VINA RESULT: -6.654837542      1.551      2.126
REMARK  9 active torsions:
REMARK  status: ('A' for Active; 'I' for Inactive)
REMARK    1  A    between atoms: C2_2  and  C3_3
REMARK    2  A    between atoms: C3_3  and  C4_4
REMARK    3  A    between atoms: C4_4  and  C5_5
REMARK    4  A    between atoms: C5_5  and  C6_6
REMARK    5  A    between atoms: C6_6  and  C7_7
REMARK    6  A    between atoms: C11_12  and  O2_13
REMARK    7  A    between atoms: C19_22  and  O3_23
REMARK    8  A    between atoms: C20_25  and  O4_26
REMARK    9  A    between atoms: C21_28  and  O5_29
ROOT
HETATM    1  C7  UNL     1       9.686  11.247   4.343  1.00  0.00     0.132 C
HETATM    2  O1  UNL     1      10.269  10.351   3.493  1.00  0.00    -0.373 OA
HETATM    3  C8  UNL     1       9.626  10.235   2.286  1.00  0.00     0.081 C
HETATM    4  C9  UNL     1      10.701  10.558   1.132  1.00  0.00     0.081 C
HETATM    5  C10 UNL     1      10.753  12.054   1.253  1.00  0.00    -0.014 A
HETATM    6  C11 UNL     1      11.409  13.225   0.814  1.00  0.00     0.072 A
HETATM    7  C12 UNL     1      11.121  14.457   1.437  1.00  0.00     0.037 A
HETATM    8  C13 UNL     1      10.189  14.504   2.493  1.00  0.00     0.011 A
HETATM    9  C14 UNL     1       9.541  13.332   2.931  1.00  0.00    -0.042 A
HETATM   10  C15 UNL     1       9.957  12.367   2.210  1.00  0.00    -0.029 A
HETATM   11  C16 UNL     1       8.774  11.408   2.298  1.00  0.00     0.035 C
HETATM   12  C17 UNL     1       7.676  11.693   1.428  1.00  0.00     0.030 C
HETATM   13  C18 UNL     1       6.342  11.971   2.184  1.00  0.00     0.014 C
HETATM   14  C19 UNL     1       7.413  10.945   0.183  1.00  0.00     0.154 C
HETATM   15  C20 UNL     1       7.621   9.495   0.117  1.00  0.00     0.176 C
HETATM   16  C21 UNL     1       7.802   8.752   1.397  1.00  0.00     0.152 C
HETATM   17  C22 UNL     1       9.146   8.906   2.034  1.00  0.00     0.074 C
HETATM   18  C23 UNL     1       8.747  12.192   3.594  1.00  0.00     0.065 C
ENDROOT
BRANCH   1  19
HETATM   19  C6  UNL     1       9.141  10.717   5.605  1.00  0.00     0.033 C
BRANCH  19  20
HETATM   20  C5  UNL     1       9.621  11.314   6.877  1.00  0.00     0.002 C
BRANCH  20  21
HETATM   21  C4  UNL     1       9.316  10.423   8.067  1.00  0.00     0.000 C
BRANCH  21  22
HETATM   22  C3  UNL     1       8.299  10.981   9.003  1.00  0.00    -0.000 C
BRANCH  22  23
HETATM   23  C2  UNL     1       7.147  10.008   9.230  1.00  0.00    -0.005 C
HETATM   24  C1  UNL     1       7.626   8.667   9.680  1.00  0.00     0.005 C
ENDBRANCH  22  23
ENDBRANCH  21  22
ENDBRANCH  20  21
ENDBRANCH  19  20
ENDBRANCH   1  19
BRANCH  16  25
HETATM   25  O5  UNL     1       7.541   7.405   1.126  1.00  0.00    -0.393 OA
ATOM     26  H5  UNL     1       6.669   7.220   1.456  1.00  0.00     0.210 HD
ENDBRANCH  16  25
BRANCH  14  27
HETATM   27  O3  UNL     1       8.117  11.516  -0.920  1.00  0.00    -0.393 OA
ATOM     28  H3  UNL     1       7.516  11.888  -1.555  1.00  0.00     0.210 HD
ENDBRANCH  14  27
BRANCH   6  29
HETATM   29  O2  UNL     1      12.289  13.043  -0.208  1.00  0.00    -0.360 OA
ATOM     30  H2  UNL     1      12.847  13.788  -0.395  1.00  0.00     0.217 HD
ENDBRANCH   6  29
BRANCH  15  31
HETATM   31  O4  UNL     1       6.433   8.933  -0.435  1.00  0.00    -0.390 OA
ATOM     32  H4  UNL     1       5.921   9.657  -0.777  1.00  0.00     0.210 HD
ENDBRANCH  15  31
TORSDOF 9
ENDMDL