MODEL 3
REMARK VINA RESULT: -6.532452106      1.710      3.318
REMARK  8 active torsions:
REMARK  status: ('A' for Active; 'I' for Inactive)
REMARK    1  A    between atoms: C2_2  and  C3_3
REMARK    2  A    between atoms: C3_3  and  N1_4
REMARK    3  A    between atoms: N1_4  and  C4_6
REMARK    4  A    between atoms: C6_10  and  C7_11
REMARK    5  A    between atoms: C9_13  and  O1_14
REMARK    6  A    between atoms: O1_14  and  C10_15
REMARK    7  A    between atoms: C13_18  and  O2_19
REMARK    8  A    between atoms: C19_25  and  N3_26
ROOT
HETATM    1  C4  UNL     1       5.290   7.175   1.508  1.00  0.00     0.129 A
HETATM    2  N2  UNL     1       6.556   6.844   1.215  1.00  0.00    -0.350 N
ATOM      3  H2  UNL     1       6.800   5.861   1.097  1.00  0.00     0.166 HD
HETATM    4  C5  UNL     1       7.498   7.770   1.075  1.00  0.00     0.103 A
HETATM    5  C6  UNL     1       7.213   9.139   1.225  1.00  0.00     0.006 A
HETATM    6  C18 UNL     1       5.950   9.524   1.516  1.00  0.00     0.051 A
HETATM    7  C19 UNL     1       5.586  10.837   1.637  1.00  0.00     0.116 A
HETATM    8  N4  UNL     1       4.284  11.133   1.903  1.00  0.00    -0.294 N
ATOM      9  H4  UNL     1       4.000  12.108   1.998  1.00  0.00     0.172 HD
HETATM   10  C20 UNL     1       3.369  10.164   2.043  1.00  0.00     0.326 A
HETATM   11  O3  UNL     1       2.159  10.490   2.293  1.00  0.00    -0.247 OA
HETATM   12  N5  UNL     1       3.704   8.868   1.923  1.00  0.00    -0.304 N
ATOM     13  H5  UNL     1       2.987   8.149   2.032  1.00  0.00     0.171 HD
HETATM   14  C21 UNL     1       4.977   8.508   1.660  1.00  0.00     0.095 A
ENDROOT
BRANCH   5  15
HETATM   15  C7  UNL     1       8.339  10.074   1.208  1.00  0.00    -0.015 A
HETATM   16  C8  UNL     1       8.682  10.759   0.078  1.00  0.00     0.052 A
HETATM   17  C9  UNL     1       9.683  11.777   0.083  1.00  0.00     0.103 A
HETATM   18  C13 UNL     1      10.320  12.072   1.259  1.00  0.00     0.102 A
HETATM   19  C15 UNL     1       9.942  11.348   2.398  1.00  0.00     0.047 A
HETATM   20  C16 UNL     1       8.978  10.372   2.387  1.00  0.00    -0.048 A
HETATM   21  C17 UNL     1       8.687   9.674   3.681  1.00  0.00     0.049 C
BRANCH  17  22
HETATM   22  O1  UNL     1       9.951  12.401  -1.084  1.00  0.00    -0.344 OA
BRANCH  22  23
HETATM   23  C10 UNL     1       9.512  13.483  -1.730  1.00  0.00     0.121 C
HETATM   24  C11 UNL     1       8.424  14.267  -0.966  1.00  0.00     0.040 C
HETATM   25  C12 UNL     1      10.614  14.551  -1.941  1.00  0.00     0.040 C
ENDBRANCH  22  23
ENDBRANCH  17  22
BRANCH  18  26
HETATM   26  O2  UNL     1      11.288  13.034   1.337  1.00  0.00    -0.353 OA
HETATM   27  C14 UNL     1      11.170  14.344   1.784  1.00  0.00     0.210 C
ENDBRANCH  18  26
ENDBRANCH   5  15
BRANCH   7  28
HETATM   28  N3  UNL     1       6.428  11.777   1.450  1.00  0.00    -0.385 N
ATOM     29  H32 UNL     1       7.010  11.780   0.613  1.00  0.00     0.157 HD
ATOM     30  H31 UNL     1       6.567  12.511   2.145  1.00  0.00     0.157 HD
ENDBRANCH   7  28
BRANCH   1  31
HETATM   31  N1  UNL     1       4.348   6.325   1.649  1.00  0.00    -0.374 N
ATOM     32  H1  UNL     1       3.838   6.353   2.532  1.00  0.00     0.161 HD
BRANCH  31  33
HETATM   33  C3  UNL     1       3.933   5.342   0.707  1.00  0.00     0.121 C
BRANCH  33  34
HETATM   34  C2  UNL     1       3.909   3.993   1.435  1.00  0.00     0.015 C
HETATM   35  C1  UNL     1       5.282   3.388   1.406  1.00  0.00     0.006 C
ENDBRANCH  33  34
ENDBRANCH  31  33
ENDBRANCH   1  31
TORSDOF 8
ENDMDL