MODEL 1
REMARK VINA RESULT: -7.024708522      0.000      0.000
REMARK  9 active torsions:
REMARK  status: ('A' for Active; 'I' for Inactive)
REMARK    1  A    between atoms: C2_2  and  C3_3
REMARK    2  A    between atoms: C7_7  and  C8_8
REMARK    3  A    between atoms: C10_10  and  C11_11
REMARK    4  A    between atoms: C11_11  and  O1_12
REMARK    5  A    between atoms: C11_11  and  C12_14
REMARK    6  A    between atoms: C12_14  and  O2_16
REMARK    7  A    between atoms: C12_14  and  C14_18
REMARK    8  A    between atoms: N1_23  and  O3_25
REMARK    9  A    between atoms: C23_31  and  O4_32
ROOT
HETATM    1  C12 UNL     1       9.359  11.618  -0.379  1.00  0.00     0.086 C
HETATM    2  C13 UNL     1       8.234  12.583  -0.442  1.00  0.00     0.049 C
ENDROOT
BRANCH   1   3
HETATM    3  C11 UNL     1      10.614  12.184   0.250  1.00  0.00     0.158 C
BRANCH   3   4
HETATM    4  C10 UNL     1      10.598  13.581   0.695  1.00  0.00     0.033 C
HETATM    5  C3  UNL     1      11.397  14.655   0.148  1.00  0.00    -0.021 C
HETATM    6  C4  UNL     1      12.733  14.455  -0.440  1.00  0.00     0.020 C
HETATM    7  C5  UNL     1      11.657  15.645   1.332  1.00  0.00     0.014 C
HETATM    8  C6  UNL     1      11.789  14.715   2.511  1.00  0.00     0.006 C
HETATM    9  C7  UNL     1      10.691  13.707   2.225  1.00  0.00    -0.007 C
BRANCH   5  10
HETATM   10  C2  UNL     1      10.602  15.491  -0.804  1.00  0.00    -0.027 C
HETATM   11  C1  UNL     1      10.357  15.188  -2.041  1.00  0.00     0.007 C
ENDBRANCH   5  10
BRANCH   9  12
HETATM   12  C8  UNL     1       9.385  14.147   2.850  1.00  0.00     0.000 C
HETATM   13  C9  UNL     1       9.016  13.285   4.035  1.00  0.00     0.005 C
ENDBRANCH   9  12
ENDBRANCH   3   4
BRANCH   3  14
HETATM   14  O1  UNL     1      10.882  11.404   1.439  1.00  0.00    -0.392 OA
ATOM     15  H1  UNL     1      11.745  11.028   1.304  1.00  0.00     0.210 HD
ENDBRANCH   3  14
ENDBRANCH   1   3
BRANCH   1  16
HETATM   16  O2  UNL     1       9.658  11.267  -1.696  1.00  0.00    -0.387 OA
ATOM     17  H2  UNL     1       8.934  10.753  -2.034  1.00  0.00     0.210 HD
ENDBRANCH   1  16
BRANCH   1  18
HETATM   18  C14 UNL     1       8.955  10.316   0.348  1.00  0.00     0.051 C
HETATM   19  C15 UNL     1       8.326  10.592   1.654  1.00  0.00     0.016 C
HETATM   20  C16 UNL     1       7.385   9.512   2.132  1.00  0.00     0.000 C
HETATM   21  C17 UNL     1       7.999   8.241   2.534  1.00  0.00     0.065 C
HETATM   22  C21 UNL     1       6.352   9.246   1.104  1.00  0.00     0.027 C
HETATM   23  C18 UNL     1       6.969   7.234   2.119  1.00  0.00     0.038 C
HETATM   24  N1  UNL     1       7.093   5.959   2.222  1.00  0.00    -0.273 N
HETATM   25  C19 UNL     1       5.805   7.927   1.579  1.00  0.00    -0.038 C
ATOM     26  H1  UNL     1       7.953   5.581   2.617  1.00  0.00     0.194 HD
HETATM   27  C20 UNL     1       4.556   7.544   1.499  1.00  0.00     0.021 C
HETATM   28  C22 UNL     1       6.818   9.147  -0.306  1.00  0.00     0.042 C
HETATM   29  C23 UNL     1       8.308   9.296  -0.482  1.00  0.00     0.126 C
BRANCH  24  30
HETATM   30  O3  UNL     1       6.115   5.093   1.824  1.00  0.00    -0.290 OA
ATOM     31  H3  UNL     1       5.638   4.545   2.436  1.00  0.00     0.244 HD
ENDBRANCH  24  30
BRANCH  29  32
HETATM   32  O4  UNL     1       8.526   9.346  -1.849  1.00  0.00    -0.395 OA
ATOM     33  H4  UNL     1       8.948   8.598  -2.256  1.00  0.00     0.210 HD
ENDBRANCH  29  32
ENDBRANCH   1  18
TORSDOF 9
ENDMDL