MODEL 4
REMARK VINA RESULT: -5.397861905      0.783      1.766
REMARK  11 active torsions:
REMARK  status: ('A' for Active; 'I' for Inactive)
REMARK    1  A    between atoms: C2_2  and  C4_4
REMARK    2  A    between atoms: C7_7  and  O1_8
REMARK    3  A    between atoms: C7_7  and  C8_10
REMARK    4  A    between atoms: C9_11  and  C10_12
REMARK    5  A    between atoms: C13_15  and  O2_16
REMARK    6  A    between atoms: C14_18  and  O3_19
REMARK    7  A    between atoms: C15_21  and  O4_22
REMARK    8  A    between atoms: O4_22  and  C16_23
REMARK    9  A    between atoms: C16_23  and  C19_26
REMARK   10  A    between atoms: C19_26  and  C20_27
REMARK   11  A    between atoms: C20_27  and  O5_29
ROOT
HETATM    1  C10 UNL     1       8.817  12.550  -0.022  1.00  0.00     0.040 C
HETATM    2  C11 UNL     1       9.468  12.578  -1.384  1.00  0.00     0.013 C
HETATM    3  C12 UNL     1      10.212  13.884  -1.601  1.00  0.00     0.035 C
HETATM    4  C13 UNL     1      11.321  13.978  -0.594  1.00  0.00     0.149 C
HETATM    5  C14 UNL     1      11.174  12.881   0.429  1.00  0.00     0.176 C
HETATM    6  C15 UNL     1       9.787  12.908   1.093  1.00  0.00     0.161 C
ENDROOT
BRANCH   1   7
HETATM    7  C9  UNL     1       8.222  11.214   0.176  1.00  0.00    -0.021 C
HETATM    8  C8  UNL     1       8.721  10.224   0.881  1.00  0.00     0.007 C
BRANCH   8   9
HETATM    9  C7  UNL     1       7.907   8.946   0.926  1.00  0.00     0.075 C
HETATM   10  C6  UNL     1       7.904   8.356   2.292  1.00  0.00     0.043 C
HETATM   11  C5  UNL     1       7.105   7.077   2.287  1.00  0.00     0.012 C
HETATM   12  C4  UNL     1       6.060   7.053   1.214  1.00  0.00     0.013 C
HETATM   13  C23 UNL     1       5.454   8.467   1.191  1.00  0.00     0.012 C
HETATM   14  C22 UNL     1       6.522   9.330   0.520  1.00  0.00     0.043 C
BRANCH  12  15
HETATM   15  C2  UNL     1       5.000   6.035   1.421  1.00  0.00    -0.089 C
HETATM   16  C1  UNL     1       3.756   6.387   1.574  1.00  0.00     0.014 C
HETATM   17  C3  UNL     1       5.360   4.572   1.448  1.00  0.00     0.043 C
ENDBRANCH  12  15
BRANCH   9  18
HETATM   18  O1  UNL     1       8.553   8.107   0.002  1.00  0.00    -0.386 OA
ATOM     19  H1  UNL     1       9.474   8.001   0.212  1.00  0.00     0.211 HD
ENDBRANCH   9  18
ENDBRANCH   8   9
ENDBRANCH   1   7
BRANCH   6  20
HETATM   20  O4  UNL     1       9.623  14.137   1.605  1.00  0.00    -0.372 OA
BRANCH  20  21
HETATM   21  C16 UNL     1       9.261  14.357   2.882  1.00  0.00     0.056 C
HETATM   22  C17 UNL     1      10.281  14.973   3.800  1.00  0.00     0.045 C
HETATM   23  C18 UNL     1       8.701  13.066   3.458  1.00  0.00     0.045 C
BRANCH  21  24
HETATM   24  C19 UNL     1       8.107  15.340   2.836  1.00  0.00     0.068 C
BRANCH  24  25
HETATM   25  C20 UNL     1       7.816  15.914   1.500  1.00  0.00     0.117 C
HETATM   26  C21 UNL     1       6.646  16.914   1.576  1.00  0.00     0.039 C
BRANCH  25  27
HETATM   27  O5  UNL     1       8.875  16.668   0.997  1.00  0.00    -0.396 OA
ATOM     28  H5  UNL     1       9.444  16.166   0.426  1.00  0.00     0.210 HD
ENDBRANCH  25  27
ENDBRANCH  24  25
ENDBRANCH  21  24
ENDBRANCH  20  21
ENDBRANCH   6  20
BRANCH   5  29
HETATM   29  O3  UNL     1      12.175  13.099   1.378  1.00  0.00    -0.390 OA
ATOM     30  H3  UNL     1      11.727  13.295   2.193  1.00  0.00     0.210 HD
ENDBRANCH   5  29
BRANCH   4  31
HETATM   31  O2  UNL     1      11.344  15.218   0.049  1.00  0.00    -0.393 OA
ATOM     32  H2  UNL     1      12.207  15.432   0.384  1.00  0.00     0.210 HD
ENDBRANCH   4  31
TORSDOF 11
ENDMDL