MODEL 5
REMARK VINA RESULT: -6.346657727      1.934      2.554
REMARK  10 active torsions:
REMARK  status: ('A' for Active; 'I' for Inactive)
REMARK    1  A    between atoms: C2_2  and  C3_4
REMARK    2  A    between atoms: C3_4  and  O2_5
REMARK    3  A    between atoms: C3_4  and  O3_7
REMARK    4  A    between atoms: C3_4  and  C4_9
REMARK    5  A    between atoms: C6_11  and  C7_12
REMARK    6  A    between atoms: C7_12  and  C9_14
REMARK    7  A    between atoms: C10_15  and  C11_16
REMARK    8  A    between atoms: C12_17  and  C14_19
REMARK    9  A    between atoms: C16_21  and  O4_22
REMARK   10  A    between atoms: C18_25  and  O5_27
ROOT
HETATM    1  C7  UNL     1       2.145   9.825   2.528  1.00  0.00     0.012 C
HETATM    2  C8  UNL     1       2.400   8.331   2.781  1.00  0.00     0.015 C
ENDROOT
BRANCH   1   3
HETATM    3  C6  UNL     1       1.674  10.394   3.807  1.00  0.00     0.019 C
HETATM    4  C5  UNL     1       0.616   9.512   4.377  1.00  0.00    -0.012 C
HETATM    5  C4  UNL     1      -0.621   9.654   3.922  1.00  0.00    -0.014 C
HETATM    6  C23 UNL     1      -0.966  10.641   2.872  1.00  0.00     0.040 C
HETATM    7  C22 UNL     1      -0.108  11.847   2.819  1.00  0.00     0.009 C
HETATM    8  C20 UNL     1       1.045  11.756   3.759  1.00  0.00    -0.010 C
HETATM    9  C21 UNL     1       2.022  12.886   3.628  1.00  0.00     0.010 C
BRANCH   5  10
HETATM   10  C3  UNL     1      -1.727   8.767   4.487  1.00  0.00     0.248 C
BRANCH  10  11
HETATM   11  C2  UNL     1      -2.362   8.025   3.377  1.00  0.00     0.189 C
HETATM   12  C1  UNL     1      -3.791   8.213   3.098  1.00  0.00     0.097 C
HETATM   13  O1  UNL     1      -1.699   7.262   2.701  1.00  0.00    -0.292 OA
ENDBRANCH  10  11
BRANCH  10  14
HETATM   14  O2  UNL     1      -2.639   9.610   5.117  1.00  0.00    -0.356 OA
ATOM     15  H2  UNL     1      -2.221  10.114   5.806  1.00  0.00     0.214 HD
ENDBRANCH  10  14
BRANCH  10  16
HETATM   16  O3  UNL     1      -1.208   7.925   5.457  1.00  0.00    -0.356 OA
ATOM     17  H3  UNL     1      -0.279   7.767   5.340  1.00  0.00     0.214 HD
ENDBRANCH  10  16
ENDBRANCH   5  10
ENDBRANCH   1   3
BRANCH   1  18
HETATM   18  C9  UNL     1       3.381  10.382   1.981  1.00  0.00    -0.022 C
HETATM   19  C10 UNL     1       4.486   9.702   1.769  1.00  0.00    -0.003 C
BRANCH  19  20
HETATM   20  C11 UNL     1       5.676  10.311   1.224  1.00  0.00     0.003 C
HETATM   21  C12 UNL     1       6.845   9.700   1.341  1.00  0.00    -0.077 C
HETATM   22  C13 UNL     1       6.913   8.399   2.028  1.00  0.00     0.044 C
BRANCH  21  23
HETATM   23  C14 UNL     1       8.019  10.388   0.756  1.00  0.00     0.050 C
HETATM   24  C15 UNL     1       7.585  11.727   0.195  1.00  0.00     0.044 C
HETATM   25  C16 UNL     1       8.817  12.133  -0.597  1.00  0.00     0.121 C
HETATM   26  C17 UNL     1       9.454  10.852  -1.041  1.00  0.00     0.069 C
HETATM   27  C18 UNL     1       8.606   9.722  -0.440  1.00  0.00     0.064 C
HETATM   28  C19 UNL     1       9.483   8.539  -0.086  1.00  0.00     0.046 C
BRANCH  25  29
HETATM   29  O4  UNL     1       8.404  12.917  -1.665  1.00  0.00    -0.395 OA
ATOM     30  H4  UNL     1       9.144  13.438  -1.952  1.00  0.00     0.210 HD
ENDBRANCH  25  29
BRANCH  27  31
HETATM   31  O5  UNL     1       7.624   9.326  -1.316  1.00  0.00    -0.389 OA
ATOM     32  H5  UNL     1       7.913   8.589  -1.840  1.00  0.00     0.210 HD
ENDBRANCH  27  31
ENDBRANCH  21  23
ENDBRANCH  19  20
ENDBRANCH   1  18
TORSDOF 10
ENDMDL