MODEL 3
REMARK VINA RESULT: -6.783910749      3.080      9.459
REMARK  10 active torsions:
REMARK  status: ('A' for Active; 'I' for Inactive)
REMARK    1  A    between atoms: C2_2  and  C13_15
REMARK    2  A    between atoms: C3_3  and  C4_4
REMARK    3  A    between atoms: C11_11  and  C12_12
REMARK    4  A    between atoms: C12_12  and  O1_13
REMARK    5  A    between atoms: C13_15  and  C14_16
REMARK    6  A    between atoms: C14_16  and  C15_17
REMARK    7  A    between atoms: C15_17  and  C16_18
REMARK    8  A    between atoms: C18_21  and  C19_22
REMARK    9  A    between atoms: C19_22  and  O3_23
REMARK   10  A    between atoms: C20_25  and  O4_26
ROOT
HETATM    1  C14 UNL     1       4.568  10.271   1.720  1.00  0.00     0.002 C
ENDROOT
BRANCH   1   2
HETATM    2  C13 UNL     1       3.184  10.335   2.048  1.00  0.00     0.006 C
BRANCH   2   3
HETATM    3  C2  UNL     1       2.491   9.445   2.782  1.00  0.00    -0.062 C
HETATM    4  C1  UNL     1       2.650   8.045   2.421  1.00  0.00     0.048 C
HETATM    5  C3  UNL     1       1.644   9.939   3.809  1.00  0.00     0.007 C
BRANCH   5   6
HETATM    6  C4  UNL     1       0.875   9.522   4.701  1.00  0.00     0.008 C
HETATM    7  C5  UNL     1      -0.409   8.948   5.004  1.00  0.00    -0.052 C
HETATM    8  C6  UNL     1      -1.225   8.242   4.042  1.00  0.00     0.010 C
HETATM    9  C11 UNL     1      -1.292   9.867   5.845  1.00  0.00     0.042 C
HETATM   10  C7  UNL     1      -2.285   7.559   4.567  1.00  0.00    -0.083 C
HETATM   11  C8  UNL     1      -3.206   6.792   3.704  1.00  0.00     0.043 C
HETATM   12  C9  UNL     1      -2.426   7.650   6.023  1.00  0.00     0.034 C
HETATM   13  C10 UNL     1      -2.320   9.034   6.556  1.00  0.00     0.016 C
BRANCH   9  14
HETATM   14  C12 UNL     1      -0.503  10.694   6.839  1.00  0.00     0.173 C
BRANCH  14  15
HETATM   15  O1  UNL     1      -0.968  10.624   8.126  1.00  0.00    -0.400 OA
ATOM     16  H1  UNL     1      -0.954  11.451   8.592  1.00  0.00     0.209 HD
ENDBRANCH  14  15
ENDBRANCH   9  14
ENDBRANCH   5   6
ENDBRANCH   2   3
ENDBRANCH   1   2
BRANCH   1  17
HETATM   17  C15 UNL     1       5.343  11.376   1.709  1.00  0.00     0.040 C
BRANCH  17  18
HETATM   18  C16 UNL     1       6.815  11.247   1.683  1.00  0.00     0.181 C
HETATM   19  C17 UNL     1       7.362  12.479   2.414  1.00  0.00     0.084 C
HETATM   20  O2  UNL     1       7.244  11.323   0.393  1.00  0.00    -0.342 OA
HETATM   21  C18 UNL     1       8.321  10.570   0.040  1.00  0.00     0.180 C
HETATM   22  C20 UNL     1       9.235  10.186   1.154  1.00  0.00     0.183 C
HETATM   23  C21 UNL     1       8.461   9.755   2.362  1.00  0.00     0.086 C
HETATM   24  C22 UNL     1       8.545   8.224   2.453  1.00  0.00     0.048 C
HETATM   25  C23 UNL     1       9.192  10.276   3.585  1.00  0.00     0.048 C
HETATM   26  O5  UNL     1       7.138  10.082   2.344  1.00  0.00    -0.339 OA
BRANCH  21  27
HETATM   27  C19 UNL     1       7.827   9.388  -0.773  1.00  0.00     0.199 C
BRANCH  27  28
HETATM   28  O3  UNL     1       8.464   9.283  -2.000  1.00  0.00    -0.398 OA
ATOM     29  H3  UNL     1       9.226   8.716  -1.968  1.00  0.00     0.209 HD
ENDBRANCH  27  28
ENDBRANCH  21  27
BRANCH  22  30
HETATM   30  O4  UNL     1      10.094   9.166   0.752  1.00  0.00    -0.390 OA
ATOM     31  H4  UNL     1      10.605   8.849   1.488  1.00  0.00     0.210 HD
ENDBRANCH  22  30
ENDBRANCH  17  18
ENDBRANCH   1  17
TORSDOF 10
ENDMDL