MODEL 3
REMARK VINA RESULT: -7.095088300      2.843      5.650
REMARK  10 active torsions:
REMARK  status: ('A' for Active; 'I' for Inactive)
REMARK    1  A    between atoms: C4_4  and  C5_5
REMARK    2  A    between atoms: C5_5  and  C6_6
REMARK    3  A    between atoms: C6_6  and  C7_7
REMARK    4  A    between atoms: C9_9  and  C10_10
REMARK    5  A    between atoms: C11_11  and  C12_12
REMARK    6  A    between atoms: C14_14  and  C15_15
REMARK    7  A    between atoms: C16_17  and  O2_18
REMARK    8  A    between atoms: C17_20  and  O3_21
REMARK    9  A    between atoms: C18_23  and  O4_24
REMARK   10  A    between atoms: C19_26  and  O5_27
ROOT
HETATM    1  C12 UNL     1       8.775  11.337   0.602  1.00  0.00    -0.030 A
HETATM    2  C13 UNL     1       8.529  12.340  -0.335  1.00  0.00     0.021 A
HETATM    3  C14 UNL     1       9.428  13.301  -0.718  1.00  0.00    -0.026 A
HETATM    4  C20 UNL     1      10.667  13.270  -0.129  1.00  0.00     0.010 A
HETATM    5  C21 UNL     1      10.968  12.308   0.798  1.00  0.00     0.008 A
HETATM    6  C22 UNL     1      10.014  11.342   1.158  1.00  0.00    -0.052 A
HETATM    7  C23 UNL     1      10.437  10.336   2.131  1.00  0.00     0.049 C
ENDROOT
BRANCH   3   8
HETATM    8  C15 UNL     1       9.070  14.328  -1.725  1.00  0.00     0.189 C
HETATM    9  O1  UNL     1      10.243  14.782  -2.316  1.00  0.00    -0.346 OA
HETATM   10  C16 UNL     1      10.059  15.944  -3.042  1.00  0.00     0.289 C
HETATM   11  C17 UNL     1       8.656  16.149  -3.510  1.00  0.00     0.204 C
HETATM   12  C18 UNL     1       7.911  14.888  -3.790  1.00  0.00     0.183 C
HETATM   13  C19 UNL     1       8.139  13.788  -2.781  1.00  0.00     0.183 C
BRANCH  10  14
HETATM   14  O2  UNL     1      10.910  15.941  -4.140  1.00  0.00    -0.368 OA
ATOM     15  H2  UNL     1      10.664  16.643  -4.732  1.00  0.00     0.212 HD
ENDBRANCH  10  14
BRANCH  11  16
HETATM   16  O3  UNL     1       7.930  17.033  -2.677  1.00  0.00    -0.388 OA
ATOM     17  H3  UNL     1       7.854  17.904  -3.048  1.00  0.00     0.210 HD
ENDBRANCH  11  16
BRANCH  12  18
HETATM   18  O4  UNL     1       8.126  14.439  -5.097  1.00  0.00    -0.390 OA
ATOM     19  H4  UNL     1       8.380  13.524  -5.117  1.00  0.00     0.210 HD
ENDBRANCH  12  18
BRANCH  13  20
HETATM   20  O5  UNL     1       8.685  12.679  -3.429  1.00  0.00    -0.390 OA
ATOM     21  H5  UNL     1       9.574  12.846  -3.720  1.00  0.00     0.210 HD
ENDBRANCH  13  20
ENDBRANCH   3   8
BRANCH   1  22
HETATM   22  C11 UNL     1       7.722  10.410   0.860  1.00  0.00     0.012 C
HETATM   23  C10 UNL     1       6.539  10.562   1.358  1.00  0.00     0.001 C
BRANCH  23  24
HETATM   24  C9  UNL     1       5.675   9.340   1.490  1.00  0.00     0.002 C
HETATM   25  C7  UNL     1       4.404   9.404   1.743  1.00  0.00    -0.084 C
HETATM   26  C8  UNL     1       3.763  10.719   1.911  1.00  0.00     0.043 C
BRANCH  25  27
HETATM   27  C6  UNL     1       3.625   8.108   1.856  1.00  0.00     0.037 C
BRANCH  27  28
HETATM   28  C5  UNL     1       4.545   7.038   1.424  1.00  0.00     0.031 C
BRANCH  28  29
HETATM   29  C4  UNL     1       3.970   5.721   1.266  1.00  0.00    -0.024 C
HETATM   30  C2  UNL     1       4.478   4.540   1.252  1.00  0.00    -0.091 C
HETATM   31  C1  UNL     1       5.879   4.161   1.402  1.00  0.00     0.042 C
HETATM   32  C3  UNL     1       3.510   3.367   1.055  1.00  0.00     0.042 C
ENDBRANCH  28  29
ENDBRANCH  27  28
ENDBRANCH  25  27
ENDBRANCH  23  24
ENDBRANCH   1  22
TORSDOF 10
ENDMDL