MODEL 2
REMARK VINA RESULT: -6.298911168      2.453      3.168
REMARK  10 active torsions:
REMARK  status: ('A' for Active; 'I' for Inactive)
REMARK    1  A    between atoms: C2_2  and  C3_3
REMARK    2  A    between atoms: C3_3  and  N1_4
REMARK    3  A    between atoms: N1_4  and  C4_5
REMARK    4  A    between atoms: N1_4  and  C17_28
REMARK    5  A    between atoms: C4_5  and  C5_6
REMARK    6  A    between atoms: C6_7  and  C7_8
REMARK    7  A    between atoms: C11_14  and  N3_15
REMARK    8  A    between atoms: C12_20  and  N5_21
REMARK    9  A    between atoms: C14_25  and  C15_26
REMARK   10  A    between atoms: C17_28  and  C18_29
ROOT
HETATM    1  C7  UNL     1       5.407   8.776   1.740  1.00  0.00     0.025 A
HETATM    2  C8  UNL     1       4.040   8.907   1.804  1.00  0.00     0.023 A
HETATM    3  C9  UNL     1       3.248   7.810   1.740  1.00  0.00     0.032 A
HETATM    4  C10 UNL     1       3.813   6.563   1.611  1.00  0.00     0.063 A
HETATM    5  N2  UNL     1       2.993   5.490   1.555  1.00  0.00    -0.191 N
ATOM      6  H2  UNL     1       1.982   5.616   1.603  1.00  0.00     0.184 HD
HETATM    7  C11 UNL     1       3.510   4.264   1.437  1.00  0.00     0.677 A
HETATM    8  N4  UNL     1       4.838   4.123   1.375  1.00  0.00    -0.176 N
ATOM      9  H4  UNL     1       5.229   3.186   1.285  1.00  0.00     0.186 HD
HETATM   10  C12 UNL     1       5.678   5.177   1.427  1.00  0.00     0.127 A
HETATM   11  C13 UNL     1       5.192   6.455   1.548  1.00  0.00     0.043 A
HETATM   12  C14 UNL     1       6.060   7.534   1.607  1.00  0.00    -0.024 A
ENDROOT
BRANCH   1  13
HETATM   13  C6  UNL     1       6.252   9.952   1.807  1.00  0.00    -0.065 C
HETATM   14  C5  UNL     1       6.957  10.936   1.887  1.00  0.00    -0.082 C
BRANCH  14  15
HETATM   15  C4  UNL     1       7.826  12.127   2.009  1.00  0.00     0.212 C
BRANCH  15  16
HETATM   16  N1  UNL     1       9.027  11.702   2.637  1.00  0.00    -0.397 N
BRANCH  16  17
HETATM   17  C3  UNL     1      10.206  11.710   1.840  1.00  0.00     0.118 C
BRANCH  17  18
HETATM   18  C2  UNL     1      10.718  10.325   1.513  1.00  0.00     0.015 C
HETATM   19  C1  UNL     1      10.188   9.827   0.190  1.00  0.00     0.006 C
ENDBRANCH  17  18
ENDBRANCH  16  17
BRANCH  16  20
HETATM   20  C17 UNL     1       8.929  10.616   3.551  1.00  0.00     0.175 C
BRANCH  20  21
HETATM   21  C18 UNL     1       9.218  11.117   4.962  1.00  0.00     0.034 A
HETATM   22  C19 UNL     1       9.492  12.444   5.198  1.00  0.00     0.078 A
HETATM   23  S1  UNL     1       9.735  12.450   6.885  1.00  0.00    -0.087 SA
HETATM   24  C20 UNL     1       9.478  10.791   7.191  1.00  0.00     0.047 A
HETATM   25  C21 UNL     1       9.529  10.038   8.500  1.00  0.00     0.076 C
HETATM   26  N6  UNL     1       9.219  10.316   5.984  1.00  0.00    -0.356 N
ATOM     27  H6  UNL     1       9.020   9.323   5.857  1.00  0.00     0.166 HD
ENDBRANCH  20  21
ENDBRANCH  16  20
ENDBRANCH  15  16
ENDBRANCH  14  15
ENDBRANCH   1  13
BRANCH  12  28
HETATM   28  C15 UNL     1       7.516   7.434   1.545  1.00  0.00     0.036 C
HETATM   29  C16 UNL     1       8.231   7.533   2.871  1.00  0.00     0.010 C
ENDBRANCH  12  28
BRANCH  10  30
HETATM   30  N5  UNL     1       6.942   5.018   1.380  1.00  0.00    -0.384 N
ATOM     31  H52 UNL     1       7.394   4.529   2.153  1.00  0.00     0.157 HD
ATOM     32  H51 UNL     1       7.488   5.357   0.588  1.00  0.00     0.157 HD
ENDBRANCH  10  30
BRANCH   7  33
HETATM   33  N3  UNL     1       2.751   3.196   1.380  1.00  0.00    -0.234 N
ATOM     34  H32 UNL     1       2.899   2.445   2.054  1.00  0.00     0.174 HD
ATOM     35  H31 UNL     1       2.016   3.096   0.680  1.00  0.00     0.174 HD
ENDBRANCH   7  33
TORSDOF 10
ENDMDL