MODEL 5
REMARK VINA RESULT: -5.679715339      1.793      2.200
REMARK  9 active torsions:
REMARK  status: ('A' for Active; 'I' for Inactive)
REMARK    1  A    between atoms: C2_2  and  C3_3
REMARK    2  A    between atoms: C2_2  and  C4_5
REMARK    3  A    between atoms: C4_5  and  C5_6
REMARK    4  A    between atoms: C11_12  and  C12_13
REMARK    5  A    between atoms: C12_13  and  O1_14
REMARK    6  A    between atoms: C14_17  and  O2_18
REMARK    7  A    between atoms: C15_20  and  C17_22
REMARK    8  A    between atoms: C17_22  and  C18_23
REMARK    9  A    between atoms: C18_23  and  O3_24
ROOT
HETATM    1  C5  UNL     1       7.368   9.286   1.885  1.00  0.00     0.056 C
HETATM    2  C6  UNL     1       8.428   9.663   2.850  1.00  0.00     0.021 C
HETATM    3  C7  UNL     1       9.137  10.961   2.568  1.00  0.00    -0.039 C
HETATM    4  C8  UNL     1       9.162  11.713   3.910  1.00  0.00     0.015 C
HETATM    5  C9  UNL     1      10.547  10.735   2.157  1.00  0.00     0.010 C
HETATM    6  C10 UNL     1      10.997  11.366   0.889  1.00  0.00     0.013 C
HETATM    7  C11 UNL     1      10.625  12.831   0.921  1.00  0.00    -0.012 C
HETATM    8  C13 UNL     1      10.597  13.473  -0.433  1.00  0.00     0.044 C
HETATM    9  C14 UNL     1       9.571  14.600  -0.340  1.00  0.00     0.127 C
HETATM   10  C15 UNL     1       8.675  14.302   0.824  1.00  0.00    -0.011 C
HETATM   11  C16 UNL     1       7.297  14.067   0.219  1.00  0.00     0.018 C
HETATM   12  C19 UNL     1       9.257  13.095   1.476  1.00  0.00     0.012 C
HETATM   13  C20 UNL     1       8.388  11.889   1.613  1.00  0.00     0.006 C
HETATM   14  C21 UNL     1       7.939  11.199   0.376  1.00  0.00     0.084 C
HETATM   15  C22 UNL     1       7.886   9.722   0.554  1.00  0.00     0.131 C
HETATM   16  O4  UNL     1       8.245   9.008  -0.338  1.00  0.00    -0.298 OA
ENDROOT
BRANCH   1  17
HETATM   17  C4  UNL     1       7.021   7.848   1.821  1.00  0.00     0.017 C
BRANCH  17  18
HETATM   18  C2  UNL     1       5.736   7.429   1.222  1.00  0.00    -0.008 C
HETATM   19  C1  UNL     1       4.486   8.103   1.683  1.00  0.00     0.011 C
BRANCH  18  20
HETATM   20  C3  UNL     1       5.551   5.929   1.552  1.00  0.00     0.090 C
HETATM   21  S1  UNL     1       3.831   5.519   1.159  1.00  0.00    -0.097 SA
ENDBRANCH  18  20
ENDBRANCH  17  18
ENDBRANCH   1  17
BRANCH   7  22
HETATM   22  C12 UNL     1      11.737  13.514   1.730  1.00  0.00     0.174 C
BRANCH  22  23
HETATM   23  O1  UNL     1      12.660  14.116   0.880  1.00  0.00    -0.400 OA
ATOM     24  H1  UNL     1      12.731  15.044   1.070  1.00  0.00     0.209 HD
ENDBRANCH  22  23
ENDBRANCH   7  22
BRANCH  10  25
HETATM   25  C17 UNL     1       8.510  15.409   1.814  1.00  0.00     0.038 C
BRANCH  25  26
HETATM   26  C18 UNL     1       7.439  16.395   1.601  1.00  0.00     0.165 C
BRANCH  26  27
HETATM   27  O3  UNL     1       8.041  17.516   0.958  1.00  0.00    -0.401 OA
ATOM     28  H3  UNL     1       8.372  17.204   0.123  1.00  0.00     0.209 HD
ENDBRANCH  26  27
ENDBRANCH  25  26
ENDBRANCH  10  25
BRANCH   9  29
HETATM   29  O2  UNL     1      10.230  15.788  -0.324  1.00  0.00    -0.395 OA
ATOM     30  H2  UNL     1      10.146  16.171   0.542  1.00  0.00     0.210 HD
ENDBRANCH   9  29
TORSDOF 9
ENDMDL