MODEL 5
REMARK VINA RESULT: -5.517800876      2.518      6.137
REMARK  8 active torsions:
REMARK  status: ('A' for Active; 'I' for Inactive)
REMARK    1  A    between atoms: C2_2  and  C4_4
REMARK    2  A    between atoms: C4_4  and  C5_5
REMARK    3  A    between atoms: C15_15  and  O1_17
REMARK    4  A    between atoms: C18_21  and  C19_22
REMARK    5  A    between atoms: C19_22  and  N1_23
REMARK    6  A    between atoms: C21_26  and  C22_27
REMARK    7  A    between atoms: C22_27  and  O3_28
REMARK    8  A    between atoms: C23_30  and  O4_31
ROOT
HETATM    1  C5  UNL     1      10.758  14.864  -0.262  1.00  0.00    -0.036 C
HETATM    2  C6  UNL     1      12.045  14.421  -0.872  1.00  0.00     0.016 C
HETATM    3  C7  UNL     1      11.182  15.607   1.029  1.00  0.00     0.010 C
HETATM    4  C8  UNL     1      11.515  14.674   2.146  1.00  0.00     0.002 C
HETATM    5  C9  UNL     1      10.358  13.701   2.423  1.00  0.00     0.013 C
HETATM    6  C10 UNL     1      10.170  12.872   1.203  1.00  0.00    -0.003 C
HETATM    7  C11 UNL     1      11.413  12.053   1.026  1.00  0.00     0.019 C
HETATM    8  C12 UNL     1       9.777  13.770   0.080  1.00  0.00     0.005 C
HETATM    9  C13 UNL     1       8.489  14.454   0.485  1.00  0.00     0.009 C
HETATM   10  C14 UNL     1       7.469  13.674   1.184  1.00  0.00     0.041 C
HETATM   11  C15 UNL     1       7.851  12.440   1.908  1.00  0.00     0.088 C
HETATM   12  C16 UNL     1       6.651  11.524   1.986  1.00  0.00     0.049 C
HETATM   13  C17 UNL     1       9.063  11.820   1.298  1.00  0.00     0.126 C
HETATM   14  O2  UNL     1       9.505  10.808   2.149  1.00  0.00    -0.366 OA
HETATM   15  C18 UNL     1       9.506   9.613   1.485  1.00  0.00     0.148 C
HETATM   16  C21 UNL     1       8.571   9.721   0.322  1.00  0.00     0.072 C
HETATM   17  C23 UNL     1       8.788  11.203  -0.026  1.00  0.00     0.165 C
ENDROOT
BRANCH  11  18
HETATM   18  O1  UNL     1       8.125  12.630   3.288  1.00  0.00    -0.387 OA
ATOM     19  H1  UNL     1       8.049  11.844   3.815  1.00  0.00     0.210 HD
ENDBRANCH  11  18
BRANCH  17  20
HETATM   20  O4  UNL     1       7.705  11.673  -0.731  1.00  0.00    -0.392 OA
ATOM     21  H4  UNL     1       7.200  11.040  -1.230  1.00  0.00     0.210 HD
ENDBRANCH  17  20
BRANCH  15  22
HETATM   22  C19 UNL     1       9.194   8.425   2.388  1.00  0.00     0.145 C
BRANCH  22  23
HETATM   23  N1  UNL     1       7.766   8.318   2.521  1.00  0.00    -0.423 N
HETATM   24  C20 UNL     1       7.209   7.059   2.141  1.00  0.00     0.139 C
ATOM     25  H1  UNL     1       7.191   9.087   2.863  1.00  0.00     0.152 HD
ENDBRANCH  22  23
ENDBRANCH  15  22
BRANCH  16  26
HETATM   26  C22 UNL     1       8.992   8.853  -0.860  1.00  0.00     0.174 C
BRANCH  26  27
HETATM   27  O3  UNL     1       8.358   9.243  -2.017  1.00  0.00    -0.400 OA
ATOM     28  H3  UNL     1       8.594   8.681  -2.746  1.00  0.00     0.209 HD
ENDBRANCH  26  27
ENDBRANCH  16  26
BRANCH   1  29
HETATM   29  C4  UNL     1      10.157  15.905  -1.142  1.00  0.00     0.042 C
BRANCH  29  30
HETATM   30  C2  UNL     1       9.747  15.561  -2.488  1.00  0.00    -0.092 C
HETATM   31  C1  UNL     1       8.807  14.776  -2.930  1.00  0.00     0.014 C
HETATM   32  C3  UNL     1      10.559  16.257  -3.585  1.00  0.00     0.042 C
ENDBRANCH  29  30
ENDBRANCH   1  29
TORSDOF 8
ENDMDL