MODEL 2
REMARK VINA RESULT: -5.845590572      0.838      1.030
REMARK  5 active torsions:
REMARK  status: ('A' for Active; 'I' for Inactive)
REMARK    1  A    between atoms: C2_2  and  N1_3
REMARK    2  A    between atoms: N1_3  and  C5_6
REMARK    3  A    between atoms: C5_6  and  C6_7
REMARK    4  A    between atoms: C8_9  and  C9_10
REMARK    5  A    between atoms: C9_10  and  C10_11
ROOT
HETATM    1  C6  UNL     1       7.240  48.921  72.686  1.00  0.00     0.106 C
HETATM    2  C7  UNL     1       6.508  49.356  73.911  1.00  0.00     0.041 C
HETATM    3  C8  UNL     1       6.279  50.870  73.744  1.00  0.00     0.085 C
HETATM    4  N2  UNL     1       7.342  51.261  72.872  1.00  0.00    -0.356 N
ATOM      5  H2  UNL     1       7.563  52.230  72.644  1.00  0.00     0.162 HD
HETATM    6  C17 UNL     1       8.058  50.146  72.357  1.00  0.00     0.223 C
HETATM    7  O1  UNL     1       9.161  50.171  71.744  1.00  0.00    -0.273 OA
ENDROOT
BRANCH   3   8
HETATM    8  C9  UNL     1       4.910  51.034  73.204  1.00  0.00     0.029 C
BRANCH   8   9
HETATM    9  C10 UNL     1       4.417  52.425  73.041  1.00  0.00    -0.013 C
HETATM   10  C11 UNL     1       3.475  52.868  74.134  1.00  0.00     0.005 C
HETATM   11  C12 UNL     1       2.301  53.629  73.624  1.00  0.00     0.000 C
HETATM   12  C13 UNL     1       2.586  54.487  72.433  1.00  0.00     0.000 C
HETATM   13  C14 UNL     1       3.865  55.247  72.504  1.00  0.00     0.000 C
HETATM   14  C15 UNL     1       5.020  54.478  71.850  1.00  0.00     0.000 C
HETATM   15  C16 UNL     1       5.475  53.467  72.887  1.00  0.00     0.005 C
ENDBRANCH   8   9
ENDBRANCH   3   8
BRANCH   1  16
HETATM   16  C5  UNL     1       8.197  47.799  72.852  1.00  0.00     0.250 C
BRANCH  16  17
HETATM   17  N1  UNL     1       8.090  46.699  71.967  1.00  0.00    -0.074 N
HETATM   18  C3  UNL     1       8.753  45.529  72.573  1.00  0.00     0.272 C
HETATM   19  C4  UNL     1       8.684  46.878  70.679  1.00  0.00     0.272 C
BRANCH  17  20
HETATM   20  C2  UNL     1       6.709  46.309  71.750  1.00  0.00     0.232 C
HETATM   21  C1  UNL     1       6.471  45.604  70.460  1.00  0.00     0.034 C
ENDBRANCH  17  20
ENDBRANCH  16  17
ENDBRANCH   1  16
TORSDOF 5
ENDMDL