MODEL 3
REMARK VINA RESULT: -6.719173289      1.162      1.875
REMARK  5 active torsions:
REMARK  status: ('A' for Active; 'I' for Inactive)
REMARK       I    between atoms: C1_2  and  N3_13
REMARK    1  A    between atoms: N2_3  and  C2_5
REMARK    2  A    between atoms: C2_5  and  C3_6
REMARK    3  A    between atoms: C3_6  and  C4_7
REMARK    4  A    between atoms: C4_7  and  C5_8
REMARK    5  A    between atoms: N3_13  and  C10_15
ROOT
HETATM    1  N1  UNL     1       6.819  52.515  71.913  1.00  0.00    -0.064 NA
HETATM    2  C1  UNL     1       6.220  51.815  72.982  1.00  0.00     0.184 C
HETATM    3  N2  UNL     1       6.719  50.702  73.364  1.00  0.00    -0.365 N
ATOM      4  H2  UNL     1       6.262  50.224  74.140  1.00  0.00     0.162 HD
HETATM    5  N3  UNL     1       5.085  52.353  73.612  1.00  0.00    -0.355 N
ATOM      6  H3  UNL     1       4.960  52.145  74.603  1.00  0.00     0.163 HD
ENDROOT
BRANCH   3   7
HETATM    7  C2  UNL     1       7.870  50.074  72.786  1.00  0.00     0.122 C
BRANCH   7   8
HETATM    8  C3  UNL     1       8.028  48.648  73.244  1.00  0.00     0.020 C
BRANCH   8   9
HETATM    9  C4  UNL     1       7.368  47.727  72.263  1.00  0.00     0.006 C
BRANCH   9  10
HETATM   10  C5  UNL     1       8.340  46.826  71.547  1.00  0.00    -0.014 C
HETATM   11  C6  UNL     1       7.891  46.409  70.190  1.00  0.00     0.004 C
HETATM   12  C7  UNL     1       6.734  45.482  70.475  1.00  0.00     0.000 C
HETATM   13  C8  UNL     1       7.022  44.884  71.812  1.00  0.00     0.000 C
HETATM   14  C9  UNL     1       8.325  45.491  72.304  1.00  0.00     0.004 C
ENDBRANCH   9  10
ENDBRANCH   8   9
ENDBRANCH   7   8
ENDBRANCH   3   7
BRANCH   5  15
HETATM   15  C10 UNL     1       4.095  53.161  72.986  1.00  0.00     0.037 C
HETATM   16  C11 UNL     1       3.318  52.411  71.896  1.00  0.00     0.036 C
HETATM   17  C12 UNL     1       2.875  53.613  71.048  1.00  0.00    -0.011 C
HETATM   18  C13 UNL     1       1.968  54.499  71.836  1.00  0.00     0.009 C
HETATM   19  C17 UNL     1       4.244  54.285  70.859  1.00  0.00     0.012 C
HETATM   20  C14 UNL     1       2.545  54.898  73.160  1.00  0.00    -0.011 C
HETATM   21  C15 UNL     1       3.889  55.576  72.887  1.00  0.00     0.012 C
HETATM   22  C18 UNL     1       3.034  53.674  73.946  1.00  0.00     0.036 C
HETATM   23  C16 UNL     1       4.671  54.378  72.332  1.00  0.00     0.014 C
ENDBRANCH   5  15
TORSDOF 5
ENDMDL