MODEL 5
REMARK VINA RESULT: -6.488012141      2.389      3.365
REMARK  5 active torsions:
REMARK  status: ('A' for Active; 'I' for Inactive)
REMARK       I    between atoms: C1_2  and  N1_3
REMARK       I    between atoms: C1_2  and  N2_11
REMARK    1  A    between atoms: N1_3  and  C2_5
REMARK    2  A    between atoms: C2_5  and  C3_6
REMARK    3  A    between atoms: C3_6  and  C4_7
REMARK    4  A    between atoms: C4_7  and  C5_8
REMARK    5  A    between atoms: N2_11  and  C8_13
ROOT
HETATM    1  C8  UNL     1       5.177  53.186  72.772  1.00  0.00     0.108 C
HETATM    2  C9  UNL     1       4.712  51.899  73.300  1.00  0.00     0.032 C
HETATM    3  C10 UNL     1       3.245  51.705  73.436  1.00  0.00    -0.010 C
HETATM    4  C11 UNL     1       2.526  52.788  74.165  1.00  0.00     0.009 C
HETATM    5  C12 UNL     1       2.087  53.941  73.332  1.00  0.00    -0.010 C
HETATM    6  C13 UNL     1       1.348  53.518  72.078  1.00  0.00     0.029 C
HETATM    7  C14 UNL     1       2.284  52.616  71.308  1.00  0.00     0.077 C
HETATM    8  C15 UNL     1       2.559  51.384  72.126  1.00  0.00     0.029 C
HETATM    9  N3  UNL     1       3.516  53.221  70.951  1.00  0.00    -0.411 N
ATOM     10  H3  UNL     1       3.906  53.124  70.014  1.00  0.00     0.154 HD
HETATM   11  C16 UNL     1       4.181  53.965  71.957  1.00  0.00     0.100 C
HETATM   12  C17 UNL     1       3.293  54.723  72.892  1.00  0.00     0.031 C
ENDROOT
BRANCH   1  13
HETATM   13  N2  UNL     1       6.372  53.035  71.948  1.00  0.00    -0.337 N
HETATM   14  C1  UNL     1       7.344  52.033  72.208  1.00  0.00     0.316 C
HETATM   15  O1  UNL     1       7.135  51.259  73.200  1.00  0.00    -0.247 OA
HETATM   16  N1  UNL     1       8.500  51.905  71.394  1.00  0.00    -0.343 N
ATOM     17  H1  UNL     1       8.658  52.529  70.603  1.00  0.00     0.164 HD
ATOM     18  H2  UNL     1       6.514  53.669  71.162  1.00  0.00     0.164 HD
BRANCH  16  19
HETATM   19  C2  UNL     1       9.444  50.862  71.721  1.00  0.00     0.124 C
BRANCH  19  20
HETATM   20  C3  UNL     1       9.229  49.602  70.941  1.00  0.00     0.020 C
BRANCH  20  21
HETATM   21  C4  UNL     1       8.747  48.448  71.774  1.00  0.00     0.006 C
BRANCH  21  22
HETATM   22  C5  UNL     1       8.962  47.116  71.147  1.00  0.00    -0.014 A
HETATM   23  C6  UNL     1       7.973  46.404  70.357  1.00  0.00     0.005 A
HETATM   24  C7  UNL     1       8.190  45.938  71.772  1.00  0.00     0.005 A
ENDBRANCH  21  22
ENDBRANCH  20  21
ENDBRANCH  19  20
ENDBRANCH  16  19
ENDBRANCH   1  13
TORSDOF 5
ENDMDL