MODEL 5
REMARK VINA RESULT: -5.430100583      1.786      3.601
REMARK  8 active torsions:
REMARK  status: ('A' for Active; 'I' for Inactive)
REMARK    1  A    between atoms: C3_3  and  C4_4
REMARK    2  A    between atoms: C4_4  and  N1_5
REMARK       I    between atoms: N1_5  and  C5_7
REMARK    3  A    between atoms: N3_9  and  C6_11
REMARK    4  A    between atoms: C6_11  and  C7_12
REMARK    5  A    between atoms: C7_12  and  C8_13
REMARK    6  A    between atoms: N4_15  and  C10_17
REMARK    7  A    between atoms: C10_17  and  C11_18
REMARK    8  A    between atoms: C11_18  and  C14_21
ROOT
HETATM    1  C1  UNL     1       8.853  50.323  71.755  1.00  0.00     0.012 C
HETATM    2  C2  UNL     1       7.987  50.421  72.581  1.00  0.00    -0.116 C
HETATM    3  C3  UNL     1       6.939  50.565  73.572  1.00  0.00     0.112 C
ENDROOT
BRANCH   3   4
HETATM    4  C4  UNL     1       5.828  51.415  73.051  1.00  0.00     0.134 C
BRANCH   4   5
HETATM    5  N1  UNL     1       6.313  52.662  72.513  1.00  0.00    -0.364 N
HETATM    6  C5  UNL     1       5.444  53.646  71.995  1.00  0.00     0.189 C
HETATM    7  N2  UNL     1       4.971  54.663  72.867  1.00  0.00    -0.064 NA
HETATM    8  N3  UNL     1       5.081  53.642  70.788  1.00  0.00    -0.321 N
ATOM      9  H3  UNL     1       5.452  52.887  70.211  1.00  0.00     0.169 HD
ATOM     10  H1  UNL     1       7.317  52.839  72.507  1.00  0.00     0.162 HD
BRANCH   8  11
HETATM   11  C6  UNL     1       4.231  54.549  70.147  1.00  0.00     0.079 C
HETATM   12  N4  UNL     1       4.636  55.774  70.107  1.00  0.00    -0.379 N
ATOM     13  H4  UNL     1       5.533  56.001  70.536  1.00  0.00     0.160 HD
BRANCH  11  14
HETATM   14  C7  UNL     1       2.949  54.214  69.533  1.00  0.00     0.076 C
BRANCH  14  15
HETATM   15  C8  UNL     1       2.110  53.253  70.332  1.00  0.00     0.003 C
HETATM   16  C9  UNL     1       1.517  53.848  71.565  1.00  0.00     0.005 C
ENDBRANCH  14  15
ENDBRANCH  11  14
BRANCH  12  17
HETATM   17  C10 UNL     1       3.888  56.832  69.488  1.00  0.00     0.130 C
BRANCH  17  18
HETATM   18  C11 UNL     1       3.730  58.031  70.395  1.00  0.00    -0.025 C
HETATM   19  C12 UNL     1       3.791  59.279  69.538  1.00  0.00     0.017 C
HETATM   20  C13 UNL     1       4.868  58.054  71.378  1.00  0.00     0.017 C
BRANCH  18  21
HETATM   21  C14 UNL     1       2.428  58.027  71.129  1.00  0.00    -0.043 C
HETATM   22  C15 UNL     1       2.494  57.313  72.449  1.00  0.00     0.015 C
HETATM   23  C16 UNL     1       2.036  59.472  71.387  1.00  0.00     0.015 C
HETATM   24  C17 UNL     1       1.335  57.374  70.307  1.00  0.00     0.015 C
ENDBRANCH  18  21
ENDBRANCH  17  18
ENDBRANCH  12  17
ENDBRANCH   8  11
ENDBRANCH   4   5
ENDBRANCH   3   4
TORSDOF 8
ENDMDL