MODEL 3
REMARK VINA RESULT: -5.792866313      0.094      1.710
REMARK  7 active torsions:
REMARK  status: ('A' for Active; 'I' for Inactive)
REMARK    1  A    between atoms: C2_2  and  C3_3
REMARK    2  A    between atoms: C3_3  and  C4_4
REMARK    3  A    between atoms: C4_4  and  N1_5
REMARK    4  A    between atoms: N1_5  and  C5_7
REMARK    5  A    between atoms: C5_7  and  N2_9
REMARK    6  A    between atoms: N2_9  and  C6_11
REMARK    7  A    between atoms: C6_11  and  C7_12
ROOT
HETATM    1  C6  UNL     1       5.739  51.123  74.318  1.00  0.00     0.131 C
ENDROOT
BRANCH   1   2
HETATM    2  N2  UNL     1       5.718  49.773  73.824  1.00  0.00    -0.367 N
ATOM      3  H2  UNL     1       4.860  49.225  73.871  1.00  0.00     0.161 HD
BRANCH   2   4
HETATM    4  C5  UNL     1       6.889  49.212  73.274  1.00  0.00     0.167 C
HETATM    5  S1  UNL     1       8.029  50.234  72.658  1.00  0.00    -0.041 SA
BRANCH   4   6
HETATM    6  N1  UNL     1       7.151  47.825  73.204  1.00  0.00    -0.367 N
ATOM      7  H1  UNL     1       6.406  47.175  73.454  1.00  0.00     0.161 HD
BRANCH   6   8
HETATM    8  C4  UNL     1       8.435  47.285  72.790  1.00  0.00     0.122 C
BRANCH   8   9
HETATM    9  C3  UNL     1       8.300  46.062  71.942  1.00  0.00     0.019 C
BRANCH   9  10
HETATM   10  C2  UNL     1       8.014  46.399  70.493  1.00  0.00    -0.003 C
HETATM   11  C1  UNL     1       6.761  45.693  70.022  1.00  0.00     0.005 C
ENDBRANCH   9  10
ENDBRANCH   8   9
ENDBRANCH   6   8
ENDBRANCH   4   6
ENDBRANCH   2   4
ENDBRANCH   1   2
BRANCH   1  12
HETATM   12  C7  UNL     1       4.639  51.968  73.755  1.00  0.00    -0.023 C
HETATM   13  C8  UNL     1       5.212  53.089  72.891  1.00  0.00     0.015 C
HETATM   14  C9  UNL     1       4.098  53.852  72.259  1.00  0.00    -0.013 C
HETATM   15  C10 UNL     1       3.144  54.443  73.266  1.00  0.00     0.009 C
HETATM   16  C14 UNL     1       3.289  52.947  71.363  1.00  0.00     0.009 C
HETATM   17  C11 UNL     1       2.646  53.356  74.204  1.00  0.00    -0.013 C
HETATM   18  C12 UNL     1       1.817  52.430  73.303  1.00  0.00     0.009 C
HETATM   19  C16 UNL     1       3.789  52.599  74.813  1.00  0.00     0.015 C
HETATM   20  C13 UNL     1       2.697  51.841  72.227  1.00  0.00    -0.013 C
HETATM   21  C15 UNL     1       3.830  51.072  72.831  1.00  0.00     0.015 C
ENDBRANCH   1  12
TORSDOF 7
ENDMDL