MODEL 4
REMARK VINA RESULT: -6.369819497      2.155      3.535
REMARK  6 active torsions:
REMARK  status: ('A' for Active; 'I' for Inactive)
REMARK    1  A    between atoms: C2_2  and  C3_3
REMARK    2  A    between atoms: C3_3  and  N1_4
REMARK    3  A    between atoms: N1_4  and  C4_6
REMARK    4  A    between atoms: C5_9  and  N3_10
REMARK    5  A    between atoms: C6_12  and  C7_13
REMARK    6  A    between atoms: C7_13  and  C8_14
ROOT
HETATM    1  C4  UNL     1       3.350  51.765  72.640  1.00  0.00     0.125 A
HETATM    2  N2  UNL     1       4.183  50.816  73.016  1.00  0.00    -0.176 N
ATOM      3  H2  UNL     1       3.790  49.891  73.191  1.00  0.00     0.186 HD
HETATM    4  C5  UNL     1       5.547  50.969  73.195  1.00  0.00     0.683 A
HETATM    5  N4  UNL     1       6.018  52.193  72.957  1.00  0.00    -0.195 N
ATOM      6  H4  UNL     1       7.016  52.369  73.071  1.00  0.00     0.184 HD
HETATM    7  C10 UNL     1       5.203  53.221  72.563  1.00  0.00     0.037 A
HETATM    8  C11 UNL     1       3.864  53.040  72.397  1.00  0.00     0.014 A
HETATM    9  C12 UNL     1       3.203  54.282  71.976  1.00  0.00     0.029 C
HETATM   10  C13 UNL     1       2.752  54.286  70.533  1.00  0.00     0.010 C
HETATM   11  C14 UNL     1       2.913  55.774  70.193  1.00  0.00     0.001 C
HETATM   12  C15 UNL     1       4.245  56.118  70.773  1.00  0.00     0.005 C
HETATM   13  C16 UNL     1       4.279  55.327  72.085  1.00  0.00    -0.000 C
HETATM   14  C17 UNL     1       5.569  54.625  72.260  1.00  0.00     0.063 C
ENDROOT
BRANCH   4  15
HETATM   15  N3  UNL     1       6.177  49.974  73.550  1.00  0.00    -0.205 N
HETATM   16  C6  UNL     1       7.355  49.318  73.386  1.00  0.00     0.079 C
ATOM     17  H3  UNL     1       5.605  49.450  74.211  1.00  0.00     0.183 HD
BRANCH  16  18
HETATM   18  C7  UNL     1       8.372  49.830  72.385  1.00  0.00     0.045 C
BRANCH  18  19
HETATM   19  C8  UNL     1       8.882  48.595  71.640  1.00  0.00     0.001 C
HETATM   20  C9  UNL     1       8.592  47.366  72.458  1.00  0.00     0.005 C
ENDBRANCH  18  19
ENDBRANCH  16  18
ENDBRANCH   4  15
BRANCH   1  21
HETATM   21  N1  UNL     1       2.082  51.608  72.478  1.00  0.00    -0.372 N
ATOM     22  H1  UNL     1       1.464  52.329  72.852  1.00  0.00     0.161 HD
BRANCH  21  23
HETATM   23  C3  UNL     1       1.478  50.498  71.812  1.00  0.00     0.147 C
BRANCH  23  24
HETATM   24  C2  UNL     1       1.814  50.613  70.344  1.00  0.00    -0.018 C
HETATM   25  C1  UNL     1       0.949  51.144  69.496  1.00  0.00     0.008 C
ENDBRANCH  23  24
ENDBRANCH  21  23
ENDBRANCH   1  21
TORSDOF 6
ENDMDL