MODEL 5
REMARK VINA RESULT: -6.315295848      0.181      1.699
REMARK  5 active torsions:
REMARK  status: ('A' for Active; 'I' for Inactive)
REMARK    1  A    between atoms: C3_3  and  C4_4
REMARK    2  A    between atoms: C4_4  and  C5_5
REMARK    3  A    between atoms: C5_5  and  C6_6
REMARK    4  A    between atoms: C6_6  and  N1_7
REMARK       I    between atoms: N1_7  and  C7_9
REMARK       I    between atoms: C7_9  and  N2_11
REMARK    5  A    between atoms: N2_11  and  C8_13
ROOT
HETATM    1  C1  UNL     1       7.277  45.925  69.883  1.00  0.00     0.012 C
HETATM    2  C2  UNL     1       8.001  46.384  70.743  1.00  0.00    -0.117 C
HETATM    3  C3  UNL     1       8.867  46.959  71.771  1.00  0.00     0.093 C
ENDROOT
BRANCH   3   4
HETATM    4  C4  UNL     1       8.763  48.479  71.784  1.00  0.00     0.014 C
BRANCH   4   5
HETATM    5  C5  UNL     1       7.774  48.941  72.839  1.00  0.00     0.021 C
BRANCH   5   6
HETATM    6  C6  UNL     1       7.870  50.447  72.935  1.00  0.00     0.124 C
BRANCH   6   7
HETATM    7  N1  UNL     1       6.606  51.069  73.176  1.00  0.00    -0.343 N
HETATM    8  C7  UNL     1       6.220  52.285  72.554  1.00  0.00     0.316 C
HETATM    9  O1  UNL     1       7.021  52.830  71.762  1.00  0.00    -0.247 OA
HETATM   10  N2  UNL     1       4.957  52.840  72.846  1.00  0.00    -0.334 N
ATOM     11  H2  UNL     1       4.359  52.340  73.504  1.00  0.00     0.165 HD
ATOM     12  H1  UNL     1       5.955  50.622  73.820  1.00  0.00     0.164 HD
BRANCH  10  13
HETATM   13  C8  UNL     1       4.455  54.059  72.281  1.00  0.00     0.035 C
HETATM   14  C9  UNL     1       3.313  54.579  73.090  1.00  0.00     0.035 C
HETATM   15  C10 UNL     1       2.906  55.939  72.565  1.00  0.00    -0.012 C
HETATM   16  C11 UNL     1       4.086  56.880  72.604  1.00  0.00     0.009 C
HETATM   17  C15 UNL     1       2.403  55.813  71.141  1.00  0.00     0.009 C
HETATM   18  C12 UNL     1       5.159  56.362  71.664  1.00  0.00    -0.012 C
HETATM   19  C13 UNL     1       4.644  56.148  70.264  1.00  0.00     0.009 C
HETATM   20  C17 UNL     1       5.615  55.036  72.226  1.00  0.00     0.035 C
HETATM   21  C14 UNL     1       3.488  55.189  70.300  1.00  0.00    -0.012 C
HETATM   22  C16 UNL     1       3.983  53.878  70.851  1.00  0.00     0.035 C
ENDBRANCH  10  13
ENDBRANCH   6   7
ENDBRANCH   5   6
ENDBRANCH   4   5
ENDBRANCH   3   4
TORSDOF 5
ENDMDL