MODEL 1
REMARK VINA RESULT: -5.965458282      0.000      0.000
REMARK  7 active torsions:
REMARK  status: ('A' for Active; 'I' for Inactive)
REMARK    1  A    between atoms: C3_3  and  C4_4
REMARK    2  A    between atoms: C4_4  and  C5_5
REMARK    3  A    between atoms: C5_5  and  N1_6
REMARK    4  A    between atoms: N1_6  and  C6_8
REMARK    5  A    between atoms: C6_8  and  N2_10
REMARK    6  A    between atoms: N2_10  and  C7_12
REMARK    7  A    between atoms: C7_12  and  C8_13
ROOT
HETATM    1  C1  UNL     1       9.067  47.432  71.106  1.00  0.00     0.012 C
HETATM    2  C2  UNL     1       8.755  48.418  71.724  1.00  0.00    -0.117 C
HETATM    3  C3  UNL     1       8.373  49.636  72.472  1.00  0.00     0.094 C
ENDROOT
BRANCH   3   4
HETATM    4  C4  UNL     1       8.960  50.800  71.746  1.00  0.00     0.032 C
BRANCH   4   5
HETATM    5  C5  UNL     1       8.015  51.979  71.692  1.00  0.00     0.123 C
BRANCH   5   6
HETATM    6  N1  UNL     1       6.893  51.701  72.590  1.00  0.00    -0.367 N
ATOM      7  H1  UNL     1       6.889  50.876  73.189  1.00  0.00     0.161 HD
BRANCH   6   8
HETATM    8  C6  UNL     1       5.810  52.620  72.598  1.00  0.00     0.167 C
HETATM    9  S1  UNL     1       4.662  52.401  73.748  1.00  0.00    -0.041 SA
BRANCH   8  10
HETATM   10  N2  UNL     1       5.724  53.679  71.659  1.00  0.00    -0.367 N
ATOM     11  H2  UNL     1       5.908  53.492  70.673  1.00  0.00     0.161 HD
BRANCH  10  12
HETATM   12  C7  UNL     1       5.382  55.006  72.074  1.00  0.00     0.132 C
BRANCH  12  13
HETATM   13  C8  UNL     1       4.499  55.730  71.109  1.00  0.00    -0.020 C
HETATM   14  C9  UNL     1       5.112  57.037  70.619  1.00  0.00     0.016 C
HETATM   15  C10 UNL     1       4.295  57.226  69.332  1.00  0.00    -0.013 C
HETATM   16  C11 UNL     1       2.855  57.400  69.716  1.00  0.00     0.009 C
HETATM   17  C15 UNL     1       4.550  55.857  68.685  1.00  0.00     0.010 C
HETATM   18  C12 UNL     1       2.314  56.239  70.491  1.00  0.00    -0.013 C
HETATM   19  C13 UNL     1       2.638  54.900  69.826  1.00  0.00     0.010 C
HETATM   20  C16 UNL     1       3.180  56.106  71.753  1.00  0.00     0.016 C
HETATM   21  C14 UNL     1       4.173  54.957  69.872  1.00  0.00    -0.004 C
ENDBRANCH  12  13
ENDBRANCH  10  12
ENDBRANCH   8  10
ENDBRANCH   6   8
ENDBRANCH   5   6
ENDBRANCH   4   5
ENDBRANCH   3   4
TORSDOF 7
ENDMDL