MODEL 3
REMARK VINA RESULT: -7.132244663      1.335      1.747
REMARK  7 active torsions:
REMARK  status: ('A' for Active; 'I' for Inactive)
REMARK    1  A    between atoms: O1_1  and  C1_3
REMARK    2  A    between atoms: C1_3  and  C2_4
REMARK    3  A    between atoms: C1_3  and  N2_17
REMARK    4  A    between atoms: C3_5  and  C4_6
REMARK    5  A    between atoms: C4_6  and  C5_7
REMARK       I    between atoms: C5_7  and  N1_9
REMARK    6  A    between atoms: N1_9  and  C6_11
REMARK    7  A    between atoms: N2_17  and  C12_19
ROOT
HETATM    1  C2  UNL     1       9.147  49.367  71.671  1.00  0.00     0.052 C
HETATM    2  C3  UNL     1       8.452  50.244  72.304  1.00  0.00    -0.013 C
ENDROOT
BRANCH   2   3
HETATM    3  C4  UNL     1       7.355  50.165  73.254  1.00  0.00     0.130 C
BRANCH   3   4
HETATM    4  C5  UNL     1       6.302  51.190  72.948  1.00  0.00     0.221 C
HETATM    5  O2  UNL     1       6.632  52.303  72.497  1.00  0.00    -0.273 OA
HETATM    6  N1  UNL     1       4.958  50.882  73.173  1.00  0.00    -0.356 N
ATOM      7  H1  UNL     1       4.725  49.960  73.543  1.00  0.00     0.162 HD
BRANCH   6   8
HETATM    8  C6  UNL     1       3.878  51.812  72.905  1.00  0.00     0.084 C
HETATM    9  C7  UNL     1       2.714  51.107  72.252  1.00  0.00     0.025 C
HETATM   10  C8  UNL     1       1.383  51.621  72.737  1.00  0.00     0.002 C
HETATM   11  C9  UNL     1       1.353  53.100  72.940  1.00  0.00     0.000 C
HETATM   12  C10 UNL     1       2.504  53.647  73.721  1.00  0.00     0.002 C
HETATM   13  C11 UNL     1       3.369  52.484  74.158  1.00  0.00     0.025 C
ENDBRANCH   6   8
ENDBRANCH   3   4
ENDBRANCH   2   3
BRANCH   1  14
HETATM   14  C1  UNL     1       9.155  47.953  71.619  1.00  0.00     0.135 C
BRANCH  14  15
HETATM   15  O1  UNL     1      10.009  47.354  72.426  1.00  0.00    -0.346 OA
ATOM     16  H1  UNL     1       9.707  46.543  72.818  1.00  0.00     0.219 HD
ENDBRANCH  14  15
BRANCH  14  17
HETATM   17  N2  UNL     1       8.430  47.018  70.873  1.00  0.00    -0.366 N
ATOM     18  H2  UNL     1       8.740  46.808  69.924  1.00  0.00     0.162 HD
BRANCH  17  19
HETATM   19  C12 UNL     1       7.248  46.327  71.390  1.00  0.00     0.083 C
HETATM   20  C13 UNL     1       6.397  45.771  70.271  1.00  0.00     0.025 C
HETATM   21  C14 UNL     1       5.788  44.500  70.817  1.00  0.00     0.002 C
HETATM   22  C15 UNL     1       6.299  44.351  72.228  1.00  0.00     0.002 C
HETATM   23  C16 UNL     1       7.631  45.085  72.155  1.00  0.00     0.025 C
ENDBRANCH  17  19
ENDBRANCH  14  17
ENDBRANCH   1  14
TORSDOF 7
ENDMDL