MODEL 5
REMARK VINA RESULT: -7.480499346      2.516      9.173
REMARK  8 active torsions:
REMARK  status: ('A' for Active; 'I' for Inactive)
REMARK    1  A    between atoms: N1_2  and  C2_3
REMARK    2  A    between atoms: N1_2  and  C6_20
REMARK    3  A    between atoms: C2_3  and  C3_4
REMARK    4  A    between atoms: C3_4  and  N2_5
REMARK    5  A    between atoms: N5_12  and  N6_13
REMARK    6  A    between atoms: C5_16  and  N7_17
REMARK    7  A    between atoms: C8_22  and  N8_23
REMARK    8  A    between atoms: C10_29  and  N11_30
ROOT
HETATM    1  N8  UNL     1     129.130-110.649 101.874  1.00  0.00    -0.279 N
ATOM      2  H8  UNL     1     130.061-111.066 101.886  1.00  0.00     0.179 HD
HETATM    3  C9  UNL     1     128.910-109.288 102.207  1.00  0.00     0.183 C
HETATM    4  N9  UNL     1     128.723-108.170 102.461  1.00  0.00    -0.172 NA
ENDROOT
BRANCH   1   5
HETATM    5  C8  UNL     1     128.088-111.321 101.557  1.00  0.00     0.133 A
HETATM    6  C7  UNL     1     127.146-111.697 102.487  1.00  0.00     0.098 A
HETATM    7  C6  UNL     1     126.009-112.413 102.153  1.00  0.00     0.122 A
HETATM    8  N12 UNL     1     125.863-112.729 100.855  1.00  0.00    -0.177 N
HETATM    9  C10 UNL     1     126.790-112.361  99.929  1.00  0.00     0.679 A
ATOM     10  H12 UNL     1     125.041-113.255 100.558  1.00  0.00     0.185 HD
HETATM   11  N10 UNL     1     127.884-111.672 100.256  1.00  0.00    -0.176 N
ATOM     12  H10 UNL     1     128.561-111.409  99.539  1.00  0.00     0.186 HD
BRANCH   7  13
HETATM   13  N1  UNL     1     125.060-112.785 103.157  1.00  0.00    -0.369 N
HETATM   14  C1  UNL     1     125.532-113.083 104.515  1.00  0.00     0.151 C
BRANCH  13  15
HETATM   15  C2  UNL     1     123.637-112.887 102.846  1.00  0.00     0.146 C
BRANCH  15  16
HETATM   16  C3  UNL     1     122.919-112.529 104.109  1.00  0.00     0.188 C
BRANCH  16  17
HETATM   17  N2  UNL     1     121.804-113.386 104.436  1.00  0.00    -0.106 N
HETATM   18  N3  UNL     1     120.709-113.644 103.740  1.00  0.00    -0.114 N
HETATM   19  C4  UNL     1     119.937-114.489 104.470  1.00  0.00     0.727 A
ATOM     20  H3  UNL     1     120.484-113.272 102.817  1.00  0.00     0.206 HD
HETATM   21  N4  UNL     1     118.769-114.957 104.090  1.00  0.00    -0.231 N
HETATM   22  N5  UNL     1     120.544-114.777 105.645  1.00  0.00     0.085 N
ATOM     23  H42 UNL     1     118.312-114.741 103.205  1.00  0.00     0.174 HD
ATOM     24  H41 UNL     1     118.190-115.592 104.639  1.00  0.00     0.174 HD
HETATM   25  C5  UNL     1     121.702-114.080 105.600  1.00  0.00     0.729 A
BRANCH  22  26
HETATM   26  N6  UNL     1     120.074-115.611 106.663  1.00  0.00    -0.309 N
ATOM     27  H62 UNL     1     119.116-115.907 106.845  1.00  0.00     0.178 HD
ATOM     28  H61 UNL     1     120.620-116.059 107.398  1.00  0.00     0.178 HD
ENDBRANCH  22  26
BRANCH  25  29
HETATM   29  N7  UNL     1     122.592-114.087 106.533  1.00  0.00    -0.231 N
ATOM     30  H72 UNL     1     122.654-114.795 107.263  1.00  0.00     0.174 HD
ATOM     31  H71 UNL     1     123.334-113.395 106.633  1.00  0.00     0.174 HD
ENDBRANCH  25  29
ENDBRANCH  16  17
ENDBRANCH  15  16
ENDBRANCH  13  15
ENDBRANCH   7  13
BRANCH   9  32
HETATM   32  N11 UNL     1     126.617-112.687  98.668  1.00  0.00    -0.234 N
ATOM     33 2H11 UNL     1     125.938-112.177  98.102  1.00  0.00     0.174 HD
ATOM     34 1H11 UNL     1     127.176-113.451  98.289  1.00  0.00     0.174 HD
ENDBRANCH   9  32
ENDBRANCH   1   5
TORSDOF 8
ENDMDL