MODEL 3
REMARK VINA RESULT: -7.306112985      1.478      2.901
REMARK  8 active torsions:
REMARK  status: ('A' for Active; 'I' for Inactive)
REMARK    1  A    between atoms: N1_1  and  C1_4
REMARK    2  A    between atoms: C3_8  and  O1_9
REMARK    3  A    between atoms: C4_11  and  C5_12
REMARK       I    between atoms: N3_13  and  C6_15
REMARK    4  A    between atoms: C6_15  and  C7_17
REMARK    5  A    between atoms: C7_17  and  N4_18
REMARK    6  A    between atoms: C7_17  and  C8_22
REMARK    7  A    between atoms: C8_22  and  N5_23
REMARK    8  A    between atoms: N6_29  and  C10_30
ROOT
HETATM    1  C1  UNL     1     129.057-111.369 101.104  1.00  0.00     0.678 A
HETATM    2  N2  UNL     1     128.695-111.858 102.303  1.00  0.00    -0.185 N
ATOM      3  H2  UNL     1     129.350-112.129 103.036  1.00  0.00     0.184 HD
HETATM    4  C2  UNL     1     127.369-111.942 102.409  1.00  0.00     0.128 A
HETATM    5  C3  UNL     1     126.526-112.360 103.389  1.00  0.00     0.114 A
HETATM    6  C4  UNL     1     125.158-112.319 103.177  1.00  0.00     0.084 A
HETATM    7  C9  UNL     1     124.717-111.849 101.957  1.00  0.00     0.270 A
HETATM    8  O3  UNL     1     123.463-111.802 101.737  1.00  0.00    -0.266 OA
HETATM    9  N6  UNL     1     125.531-111.431 100.973  1.00  0.00    -0.237 N
HETATM   10  C11 UNL     1     126.858-111.483 101.213  1.00  0.00     0.163 A
HETATM   11  N7  UNL     1     127.910-111.143 100.442  1.00  0.00    -0.174 N
ATOM     12  H7  UNL     1     127.844-110.770  99.495  1.00  0.00     0.186 HD
ENDROOT
BRANCH   6  13
HETATM   13  C5  UNL     1     124.233-112.765 104.219  1.00  0.00     0.111 C
HETATM   14  N3  UNL     1     123.941-114.019 104.271  1.00  0.00    -0.334 N
HETATM   15  C6  UNL     1     123.043-114.427 105.291  1.00  0.00     0.253 C
ATOM     16  H3  UNL     1     124.336-114.688 103.609  1.00  0.00     0.168 HD
HETATM   17  O2  UNL     1     123.510-114.983 106.313  1.00  0.00    -0.271 OA
BRANCH  15  18
HETATM   18  C7  UNL     1     121.597-114.176 105.101  1.00  0.00     0.300 C
BRANCH  18  19
HETATM   19  N4  UNL     1     120.893-114.974 106.089  1.00  0.00    -0.065 N
ATOM     20  H43 UNL     1     119.898-114.756 106.143  1.00  0.00     0.275 HD
ATOM     21  H42 UNL     1     120.797-115.953 105.819  1.00  0.00     0.275 HD
ATOM     22  H41 UNL     1     121.380-114.849 106.977  1.00  0.00     0.275 HD
ENDBRANCH  18  19
BRANCH  18  23
HETATM   23  C8  UNL     1     121.226-114.572 103.694  1.00  0.00     0.272 C
BRANCH  23  24
HETATM   24  N5  UNL     1     120.908-113.378 102.957  1.00  0.00    -0.077 N
ATOM     25  H53 UNL     1     119.935-113.352 102.653  1.00  0.00     0.274 HD
ATOM     26  H52 UNL     1     120.891-112.546 103.547  1.00  0.00     0.274 HD
ATOM     27  H51 UNL     1     121.565-113.296 102.181  1.00  0.00     0.274 HD
ENDBRANCH  23  24
ENDBRANCH  18  23
ENDBRANCH  15  18
ENDBRANCH   6  13
BRANCH   5  28
HETATM   28  O1  UNL     1     127.022-112.832 104.618  1.00  0.00    -0.357 OA
ATOM     29  H1  UNL     1     127.784-112.435 105.023  1.00  0.00     0.217 HD
ENDBRANCH   5  28
BRANCH   9  30
HETATM   30  C10 UNL     1     125.036-110.952  99.728  1.00  0.00     0.364 C
HETATM   31  O4  UNL     1     125.439-109.876  99.226  1.00  0.00    -0.283 OA
ENDBRANCH   9  30
BRANCH   1  32
HETATM   32  N1  UNL     1     130.286-111.168 100.697  1.00  0.00    -0.234 N
ATOM     33  H12 UNL     1     130.930-111.833 100.269  1.00  0.00     0.174 HD
ATOM     34  H11 UNL     1     130.797-110.287 100.753  1.00  0.00     0.174 HD
ENDBRANCH   1  32
TORSDOF 8
ENDMDL