MODEL 5
REMARK VINA RESULT: -8.333989347      2.362      7.610
REMARK  7 active torsions:
REMARK  status: ('A' for Active; 'I' for Inactive)
REMARK    1  A    between atoms: N1_1  and  N2_4
REMARK    2  A    between atoms: C2_11  and  C3_12
REMARK    3  A    between atoms: N5_13  and  N6_15
REMARK    4  A    between atoms: N6_15  and  C4_17
REMARK    5  A    between atoms: C4_17  and  O2_18
REMARK    6  A    between atoms: C4_17  and  C5_20
REMARK    7  A    between atoms: C7_27  and  O4_28
ROOT
HETATM    1  C3  UNL     1     123.616-112.975 104.849  1.00  0.00     0.143 C
HETATM    2  N5  UNL     1     124.677-113.704 104.899  1.00  0.00    -0.311 N
ATOM      3  H5  UNL     1     124.590-114.717 104.976  1.00  0.00     0.185 HD
ENDROOT
BRANCH   2   4
HETATM    4  N6  UNL     1     125.941-113.124 104.848  1.00  0.00    -0.302 N
ATOM      5  H6  UNL     1     126.058-112.140 105.088  1.00  0.00     0.183 HD
BRANCH   4   6
HETATM    6  C4  UNL     1     127.088-113.912 104.458  1.00  0.00     0.288 C
BRANCH   6   7
HETATM    7  O2  UNL     1     128.072-113.958 105.433  1.00  0.00    -0.370 OA
ATOM      8  H2  UNL     1     128.922-114.209 105.092  1.00  0.00     0.212 HD
ENDBRANCH   6   7
BRANCH   6   9
HETATM    9  C5  UNL     1     127.607-113.469 103.138  1.00  0.00     0.114 A
HETATM   10  N7  UNL     1     127.676-114.176 101.985  1.00  0.00    -0.304 N
HETATM   11  C6  UNL     1     128.212-113.401 101.025  1.00  0.00     0.326 A
ATOM     12  H7  UNL     1     127.371-115.142 101.863  1.00  0.00     0.170 HD
HETATM   13  O3  UNL     1     128.403-113.796  99.826  1.00  0.00    -0.247 OA
HETATM   14  N8  UNL     1     128.498-112.187 101.532  1.00  0.00    -0.287 N
HETATM   15  C7  UNL     1     128.125-112.231 102.835  1.00  0.00     0.171 A
ATOM     16  H8  UNL     1     128.911-111.396 101.037  1.00  0.00     0.172 HD
BRANCH  15  17
HETATM   17  O4  UNL     1     128.253-111.163 103.731  1.00  0.00    -0.344 OA
ATOM     18  H4  UNL     1     127.697-110.393 103.753  1.00  0.00     0.219 HD
ENDBRANCH  15  17
ENDBRANCH   6   9
ENDBRANCH   4   6
ENDBRANCH   2   4
BRANCH   1  19
HETATM   19  C2  UNL     1     122.291-113.560 104.901  1.00  0.00     0.135 A
HETATM   20  N4  UNL     1     121.434-113.415 103.875  1.00  0.00    -0.290 N
HETATM   21  N3  UNL     1     120.221-113.940 103.901  1.00  0.00    -0.249 N
ATOM     22  H4  UNL     1     121.727-112.886 103.054  1.00  0.00     0.187 HD
HETATM   23  C1  UNL     1     119.863-114.632 104.995  1.00  0.00     0.362 A
ATOM     24  H3  UNL     1     119.580-113.823 103.116  1.00  0.00     0.192 HD
HETATM   25  N2  UNL     1     120.677-114.809 106.052  1.00  0.00    -0.172 N
HETATM   26  O1  UNL     1     118.699-115.143 105.037  1.00  0.00    -0.243 OA
HETATM   27  C8  UNL     1     121.911-114.280 106.036  1.00  0.00     0.299 A
HETATM   28  O5  UNL     1     122.722-114.413 106.997  1.00  0.00    -0.263 OA
BRANCH  25  29
HETATM   29  N1  UNL     1     120.286-115.534 107.184  1.00  0.00    -0.331 N
ATOM     30  H12 UNL     1     119.449-116.112 107.117  1.00  0.00     0.177 HD
ATOM     31  H11 UNL     1     120.807-115.499 108.060  1.00  0.00     0.177 HD
ENDBRANCH  25  29
ENDBRANCH   1  19
TORSDOF 7
ENDMDL