MODEL 2
REMARK VINA RESULT: -5.867858164      2.501      5.048
REMARK  8 active torsions:
REMARK  status: ('A' for Active; 'I' for Inactive)
REMARK    1  A    between atoms: N1_1  and  C1_4
REMARK    2  A    between atoms: C2_9  and  C3_10
REMARK    3  A    between atoms: C3_10  and  S1_11
REMARK    4  A    between atoms: S1_11  and  C4_12
REMARK    5  A    between atoms: C4_12  and  C5_13
REMARK    6  A    between atoms: C5_13  and  O1_14
REMARK    7  A    between atoms: C5_13  and  O2_16
REMARK    8  A    between atoms: N6_26  and  N7_27
ROOT
HETATM    1  C3  UNL     1     127.760-111.566  99.622  1.00  0.00     0.322 C
HETATM    2  N4  UNL     1     128.137-112.750  98.817  1.00  0.00    -0.015 N
ATOM      3  H41 UNL     1     127.616-113.582  99.095  1.00  0.00     0.283 HD
ATOM      4  H42 UNL     1     129.077-113.079  99.040  1.00  0.00     0.283 HD
HETATM    5  C6  UNL     1     127.983-112.461  97.393  1.00  0.00     0.363 C
HETATM    6  N5  UNL     1     126.546-112.447  97.178  1.00  0.00    -0.318 N
ATOM      7  H5  UNL     1     126.066-113.045  96.505  1.00  0.00     0.166 HD
HETATM    8  C7  UNL     1     125.880-111.501  98.019  1.00  0.00     0.341 C
HETATM    9  O3  UNL     1     124.650-111.266  97.844  1.00  0.00    -0.245 OA
HETATM   10  N6  UNL     1     126.655-110.876  99.012  1.00  0.00    -0.196 N
ENDROOT
BRANCH   1  11
HETATM   11  C2  UNL     1     127.316-112.095 100.928  1.00  0.00     0.139 A
HETATM   12  N3  UNL     1     126.561-111.584 101.872  1.00  0.00    -0.291 N
HETATM   13  N2  UNL     1     126.366-112.191 102.965  1.00  0.00    -0.279 N
ATOM     14  H3  UNL     1     126.121-110.676 101.721  1.00  0.00     0.187 HD
HETATM   15  C1  UNL     1     126.945-113.383 103.158  1.00  0.00     0.158 A
ATOM     16  H2  UNL     1     125.778-111.779 103.688  1.00  0.00     0.189 HD
HETATM   17  S2  UNL     1     127.789-113.591 101.683  1.00  0.00    -0.033 SA
BRANCH  15  18
HETATM   18  N1  UNL     1     126.880-114.158 104.207  1.00  0.00    -0.379 N
ATOM     19  H12 UNL     1     126.775-113.922 105.193  1.00  0.00     0.158 HD
ATOM     20  H11 UNL     1     126.912-115.177 104.248  1.00  0.00     0.158 HD
ENDBRANCH  15  18
ENDBRANCH   1  11
BRANCH   1  21
HETATM   21  S1  UNL     1     129.143-110.451  99.748  1.00  0.00    -0.095 SA
BRANCH  21  22
HETATM   22  C4  UNL     1     129.810-110.249 101.389  1.00  0.00     0.139 C
BRANCH  22  23
HETATM   23  C5  UNL     1     129.093-109.283 102.273  1.00  0.00     0.263 C
BRANCH  23  24
HETATM   24  O1  UNL     1     128.047-108.616 101.702  1.00  0.00    -0.371 OA
ATOM     25  H1  UNL     1     127.305-108.443 102.271  1.00  0.00     0.212 HD
ENDBRANCH  23  24
BRANCH  23  26
HETATM   26  O2  UNL     1     128.685-109.971 103.446  1.00  0.00    -0.371 OA
ATOM     27  H2  UNL     1     128.598-109.337 104.149  1.00  0.00     0.212 HD
ENDBRANCH  23  26
ENDBRANCH  22  23
ENDBRANCH  21  22
ENDBRANCH   1  21
BRANCH  10  28
HETATM   28  N7  UNL     1     126.345-109.581  99.416  1.00  0.00    -0.336 N
ATOM     29  H72 UNL     1     127.090-108.954  99.719  1.00  0.00     0.177 HD
ATOM     30  H71 UNL     1     125.374-109.267  99.401  1.00  0.00     0.177 HD
ENDBRANCH  10  28
TORSDOF 8
ENDMDL