MODEL 3
REMARK VINA RESULT: -7.718604499      1.909      3.638
REMARK  7 active torsions:
REMARK  status: ('A' for Active; 'I' for Inactive)
REMARK    1  A    between atoms: N1_1  and  C1_4
REMARK    2  A    between atoms: C5_13  and  C6_14
REMARK    3  A    between atoms: C6_14  and  N4_15
REMARK    4  A    between atoms: C6_14  and  C7_19
REMARK    5  A    between atoms: N6_23  and  C9_24
REMARK    6  A    between atoms: C9_24  and  N7_25
REMARK    7  A    between atoms: N7_25  and  N8_26
ROOT
HETATM    1  C1  UNL     1     122.206-113.266 103.326  1.00  0.00     0.706 A
HETATM    2  N2  UNL     1     123.094-113.452 104.307  1.00  0.00    -0.019 N
ATOM      3  H2  UNL     1     122.893-113.903 105.199  1.00  0.00     0.203 HD
HETATM    4  C2  UNL     1     124.292-112.959 103.945  1.00  0.00     0.721 A
HETATM    5  N3  UNL     1     125.576-112.769 104.336  1.00  0.00    -0.181 N
ATOM      6  H3  UNL     1     125.967-113.054 105.233  1.00  0.00     0.184 HD
HETATM    7  C3  UNL     1     126.246-112.150 103.362  1.00  0.00     0.146 A
HETATM    8  C4  UNL     1     127.565-111.721 103.247  1.00  0.00     0.213 A
HETATM    9  O1  UNL     1     128.364-111.916 104.200  1.00  0.00    -0.285 OA
HETATM   10  C5  UNL     1     127.954-111.094 102.090  1.00  0.00     0.049 A
HETATM   11  C8  UNL     1     127.010-110.932 101.121  1.00  0.00     0.108 A
HETATM   12  N6  UNL     1     125.729-111.346 101.224  1.00  0.00    -0.323 N
HETATM   13  C10 UNL     1     125.313-111.959 102.332  1.00  0.00     0.180 A
HETATM   14  N9  UNL     1     124.114-112.457 102.698  1.00  0.00    -0.052 N
HETATM   15  N10 UNL     1     122.858-112.644 102.330  1.00  0.00    -0.109 N
ATOM     16  H10 UNL     1     122.452-112.363 101.438  1.00  0.00     0.207 HD
ENDROOT
BRANCH  10  17
HETATM   17  C6  UNL     1     129.360-110.638 101.973  1.00  0.00     0.310 C
BRANCH  17  18
HETATM   18  N4  UNL     1     130.043-111.280 100.864  1.00  0.00    -0.062 N
ATOM     19  H43 UNL     1     129.979-110.720 100.015  1.00  0.00     0.275 HD
ATOM     20  H42 UNL     1     131.055-111.265 100.991  1.00  0.00     0.275 HD
ATOM     21  H41 UNL     1     129.702-112.230 100.710  1.00  0.00     0.275 HD
ENDBRANCH  17  18
BRANCH  17  22
HETATM   22  C7  UNL     1     129.450-109.157 101.835  1.00  0.00     0.266 C
HETATM   23  N5  UNL     1     128.573-108.306 102.560  1.00  0.00    -0.060 NA
HETATM   24  O2  UNL     1     130.306-108.654 101.073  1.00  0.00    -0.274 OA
ENDBRANCH  17  22
ENDBRANCH  10  17
BRANCH  12  25
HETATM   25  C9  UNL     1     124.823-111.146 100.123  1.00  0.00     0.264 C
BRANCH  25  26
HETATM   26  N7  UNL     1     125.367-110.072  99.295  1.00  0.00    -0.128 NA
BRANCH  26  27
HETATM   27  N8  UNL     1     125.292-110.486  97.977  1.00  0.00    -0.347 N
ATOM     28  H82 UNL     1     124.497-110.962  97.550  1.00  0.00     0.172 HD
ATOM     29  H81 UNL     1     126.169-110.229  97.525  1.00  0.00     0.172 HD
ENDBRANCH  26  27
ENDBRANCH  25  26
ENDBRANCH  12  25
BRANCH   1  30
HETATM   30  N1  UNL     1     120.941-113.617 103.323  1.00  0.00    -0.233 N
ATOM     31  H12 UNL     1     120.566-114.519 103.616  1.00  0.00     0.174 HD
ATOM     32  H11 UNL     1     120.144-113.050 103.032  1.00  0.00     0.174 HD
ENDBRANCH   1  30
TORSDOF 7
ENDMDL