MODEL 1
REMARK VINA RESULT: -6.299969850      0.000      0.000
REMARK  9 active torsions:
REMARK  status: ('A' for Active; 'I' for Inactive)
REMARK    1  A    between atoms: N2_3  and  C2_5
REMARK    2  A    between atoms: C5_12  and  N5_13
REMARK    3  A    between atoms: N8_22  and  C7_23
REMARK    4  A    between atoms: C7_23  and  C8_24
REMARK    5  A    between atoms: C7_23  and  C9_27
REMARK    6  A    between atoms: C8_24  and  O1_25
REMARK    7  A    between atoms: C9_27  and  O2_28
REMARK    8  A    between atoms: C9_27  and  C10_30
REMARK    9  A    between atoms: C10_30  and  O3_31
ROOT
HETATM    1  N1  UNL     1     128.339-114.390 105.593  1.00  0.00    -0.172 NA
HETATM    2  C1  UNL     1     127.554-114.168 104.764  1.00  0.00     0.183 C
HETATM    3  N2  UNL     1     126.621-113.920 103.758  1.00  0.00    -0.277 N
ATOM      4  H2  UNL     1     125.735-114.425 103.768  1.00  0.00     0.179 HD
ENDROOT
BRANCH   3   5
HETATM    5  C2  UNL     1     126.838-113.101 102.849  1.00  0.00     0.145 A
HETATM    6  N3  UNL     1     128.148-112.911 102.503  1.00  0.00    -0.336 N
HETATM    7  C3  UNL     1     128.461-112.073 101.520  1.00  0.00     0.182 A
ATOM      8  H3  UNL     1     128.884-113.412 103.001  1.00  0.00     0.168 HD
HETATM    9  N4  UNL     1     127.479-111.425 100.879  1.00  0.00    -0.347 N
HETATM   10  C4  UNL     1     126.180-111.594 101.198  1.00  0.00     0.109 A
ATOM     11  H4  UNL     1     127.721-110.782 100.126  1.00  0.00     0.167 HD
HETATM   12  C5  UNL     1     125.200-110.922 100.506  1.00  0.00     0.144 A
HETATM   13  C11 UNL     1     125.806-112.461 102.222  1.00  0.00     0.127 A
HETATM   14  N6  UNL     1     123.935-111.147 100.862  1.00  0.00    -0.175 N
HETATM   15  C6  UNL     1     123.593-112.003 101.872  1.00  0.00     0.680 A
ATOM     16  H6  UNL     1     123.192-110.660 100.361  1.00  0.00     0.186 HD
HETATM   17  N7  UNL     1     122.315-112.086 102.023  1.00  0.00    -0.234 N
HETATM   18  N8  UNL     1     124.511-112.686 102.586  1.00  0.00    -0.168 N
ATOM     19  H72 UNL     1     121.621-111.569 101.483  1.00  0.00     0.174 HD
ATOM     20  H71 UNL     1     122.059-112.724 102.776  1.00  0.00     0.174 HD
BRANCH  12  21
HETATM   21  N5  UNL     1     125.539-110.115  99.553  1.00  0.00    -0.383 N
ATOM     22  H52 UNL     1     124.969-109.957  98.722  1.00  0.00     0.157 HD
ATOM     23  H51 UNL     1     126.418-109.602  99.624  1.00  0.00     0.157 HD
ENDBRANCH  12  21
BRANCH  18  24
HETATM   24  C7  UNL     1     124.088-113.549 103.653  1.00  0.00     0.162 C
BRANCH  24  25
HETATM   25  C8  UNL     1     122.834-114.311 103.317  1.00  0.00     0.193 C
BRANCH  25  26
HETATM   26  O1  UNL     1     122.995-115.117 102.163  1.00  0.00    -0.399 OA
ATOM     27  H1  UNL     1     122.242-115.068 101.586  1.00  0.00     0.209 HD
ENDBRANCH  25  26
ENDBRANCH  24  25
BRANCH  24  28
HETATM   28  C9  UNL     1     123.644-112.593 104.820  1.00  0.00     0.167 C
BRANCH  28  29
HETATM   29  O2  UNL     1     124.578-112.757 105.853  1.00  0.00    -0.391 OA
ATOM     30  H2  UNL     1     124.201-112.357 106.628  1.00  0.00     0.210 HD
ENDBRANCH  28  29
BRANCH  28  31
HETATM   31  C10 UNL     1     122.369-113.172 105.523  1.00  0.00     0.197 C
BRANCH  31  32
HETATM   32  O3  UNL     1     122.606-113.400 106.853  1.00  0.00    -0.398 OA
ATOM     33  H3  UNL     1     123.262-112.801 107.189  1.00  0.00     0.209 HD
ENDBRANCH  31  32
ENDBRANCH  28  31
ENDBRANCH  24  28
ENDBRANCH  18  24
ENDBRANCH   3   5
TORSDOF 9
ENDMDL