MODEL 5
REMARK VINA RESULT: -7.435108205      2.359      7.822
REMARK  8 active torsions:
REMARK  status: ('A' for Active; 'I' for Inactive)
REMARK    1  A    between atoms: C3_4  and  N2_5
REMARK    2  A    between atoms: N2_5  and  C4_7
REMARK    3  A    between atoms: N8_21  and  C8_22
REMARK    4  A    between atoms: C8_22  and  C9_23
REMARK    5  A    between atoms: C9_23  and  C10_24
REMARK    6  A    between atoms: C10_24  and  N9_25
REMARK    7  A    between atoms: C10_24  and  N10_29
REMARK    8  A    between atoms: N10_29  and  N11_30
ROOT
HETATM    1  C4  UNL     1     124.641-112.694 104.037  1.00  0.00     0.153 A
HETATM    2  N3  UNL     1     125.641-113.277 104.710  1.00  0.00    -0.174 N
ATOM      3  H3  UNL     1     125.515-113.507 105.695  1.00  0.00     0.186 HD
HETATM    4  C5  UNL     1     126.827-113.570 104.100  1.00  0.00     0.679 A
HETATM    5  N4  UNL     1     127.764-114.131 104.782  1.00  0.00    -0.234 N
ATOM      6  H41 UNL     1     128.650-114.350 104.326  1.00  0.00     0.174 HD
ATOM      7  H42 UNL     1     127.631-114.358 105.767  1.00  0.00     0.174 HD
HETATM    8  N5  UNL     1     127.002-113.272 102.803  1.00  0.00    -0.173 N
ATOM      9  H5  UNL     1     127.895-113.497 102.363  1.00  0.00     0.186 HD
HETATM   10  C6  UNL     1     126.040-112.685 102.062  1.00  0.00     0.168 A
HETATM   11  C7  UNL     1     124.834-112.395 102.712  1.00  0.00     0.137 A
HETATM   12  N6  UNL     1     124.075-111.824 101.745  1.00  0.00    -0.277 N
ATOM     13  H6  UNL     1     123.122-111.487 101.873  1.00  0.00     0.184 HD
HETATM   14  N7  UNL     1     124.756-111.770 100.609  1.00  0.00    -0.018 NA
HETATM   15  N8  UNL     1     125.959-112.289 100.772  1.00  0.00    -0.258 N
ENDROOT
BRANCH  15  16
HETATM   16  C8  UNL     1     127.036-112.439  99.811  1.00  0.00     0.152 C
BRANCH  16  17
HETATM   17  C9  UNL     1     127.967-111.244  99.874  1.00  0.00     0.073 C
BRANCH  17  18
HETATM   18  C10 UNL     1     129.311-111.769 100.369  1.00  0.00     0.296 C
BRANCH  18  19
HETATM   19  N9  UNL     1     129.342-113.187 100.082  1.00  0.00    -0.060 N
ATOM     20  H93 UNL     1     129.458-113.393  99.090  1.00  0.00     0.276 HD
ATOM     21  H92 UNL     1     130.192-113.644 100.411  1.00  0.00     0.276 HD
ATOM     22  H91 UNL     1     128.492-113.587 100.478  1.00  0.00     0.276 HD
ENDBRANCH  18  19
BRANCH  18  23
HETATM   23  N10 UNL     1     129.440-111.496 101.792  1.00  0.00    -0.115 NA
BRANCH  23  24
HETATM   24  N11 UNL     1     128.863-110.267 102.130  1.00  0.00    -0.346 N
ATOM     25 2H11 UNL     1     129.362-109.378 102.079  1.00  0.00     0.172 HD
ATOM     26 1H11 UNL     1     127.895-110.379 102.429  1.00  0.00     0.172 HD
ENDBRANCH  23  24
ENDBRANCH  18  23
ENDBRANCH  17  18
ENDBRANCH  16  17
ENDBRANCH  15  16
BRANCH   1  27
HETATM   27  N2  UNL     1     123.537-112.426 104.624  1.00  0.00    -0.338 N
ATOM     28  H2  UNL     1     123.400-111.465 104.936  1.00  0.00     0.167 HD
BRANCH  27  29
HETATM   29  C3  UNL     1     122.505-113.326 104.878  1.00  0.00     0.068 A
HETATM   30  C2  UNL     1     122.045-113.711 106.113  1.00  0.00     0.140 A
HETATM   31  N1  UNL     1     121.051-114.584 105.892  1.00  0.00    -0.306 N
HETATM   32  C1  UNL     1     120.252-115.270 106.887  1.00  0.00     0.177 C
HETATM   33  N12 UNL     1     120.881-114.750 104.591  1.00  0.00    -0.308 N
HETATM   34  C11 UNL     1     121.759-113.990 103.936  1.00  0.00     0.138 A
ATOM     35  H12 UNL     1     120.188-115.361 104.159  1.00  0.00     0.186 HD
ENDBRANCH  27  29
ENDBRANCH   1  27
TORSDOF 8
ENDMDL