MODEL 2
REMARK VINA RESULT: -6.449477009      3.645      6.680
REMARK  10 active torsions:
REMARK  status: ('A' for Active; 'I' for Inactive)
REMARK    1  A    between atoms: C4_7  and  N3_8
REMARK    2  A    between atoms: C5_13  and  N5_14
REMARK    3  A    between atoms: N7_20  and  C7_21
REMARK    4  A    between atoms: C7_21  and  O1_22
REMARK    5  A    between atoms: O1_22  and  C8_23
REMARK    6  A    between atoms: C8_23  and  C9_24
REMARK    7  A    between atoms: C8_23  and  C10_27
REMARK    8  A    between atoms: C9_24  and  O2_25
REMARK    9  A    between atoms: C10_27  and  O3_28
REMARK   10  A    between atoms: C11_30  and  N8_31
ROOT
HETATM    1  N1  UNL     1     124.775-110.752  97.309  1.00  0.00    -0.190 NA
HETATM    2  C1  UNL     1     125.296-111.141  98.281  1.00  0.00     0.121 C
HETATM    3  C2  UNL     1     125.935-111.632  99.463  1.00  0.00     0.159 A
HETATM    4  N2  UNL     1     125.273-112.209 100.465  1.00  0.00    -0.339 N
ATOM      5  H2  UNL     1     124.261-112.318 100.410  1.00  0.00     0.167 HD
HETATM    6  C3  UNL     1     125.937-112.646 101.544  1.00  0.00     0.123 A
HETATM    7  C4  UNL     1     125.250-113.238 102.579  1.00  0.00     0.145 A
HETATM    8  N4  UNL     1     125.917-113.670 103.656  1.00  0.00    -0.175 N
ATOM      9  H4  UNL     1     125.424-114.109 104.433  1.00  0.00     0.186 HD
HETATM   10  C5  UNL     1     127.243-113.511 103.689  1.00  0.00     0.679 A
HETATM   11  N6  UNL     1     127.951-112.939 102.701  1.00  0.00    -0.174 N
ATOM     12  H6  UNL     1     128.964-112.844 102.783  1.00  0.00     0.186 HD
HETATM   13  C6  UNL     1     127.320-112.494 101.609  1.00  0.00     0.157 A
HETATM   14  N7  UNL     1     128.019-111.921 100.622  1.00  0.00    -0.292 N
HETATM   15  C11 UNL     1     127.315-111.487  99.541  1.00  0.00     0.142 A
ENDROOT
BRANCH  15  16
HETATM   16  N8  UNL     1     127.993-110.935  98.594  1.00  0.00    -0.383 N
ATOM     17  H82 UNL     1     127.464-110.406  97.902  1.00  0.00     0.157 HD
ATOM     18  H81 UNL     1     129.008-111.023  98.540  1.00  0.00     0.157 HD
ENDBRANCH  15  16
BRANCH  14  19
HETATM   19  C7  UNL     1     129.443-111.751 100.636  1.00  0.00     0.302 C
BRANCH  19  20
HETATM   20  O1  UNL     1     129.764-110.950 101.757  1.00  0.00    -0.362 OA
BRANCH  20  21
HETATM   21  C8  UNL     1     129.737-109.615 101.477  1.00  0.00     0.170 C
BRANCH  21  22
HETATM   22  C9  UNL     1     131.098-109.016 101.218  1.00  0.00     0.198 C
BRANCH  22  23
HETATM   23  O2  UNL     1     131.034-107.630 101.205  1.00  0.00    -0.398 OA
ATOM     24  H2  UNL     1     131.901-107.250 101.288  1.00  0.00     0.209 HD
ENDBRANCH  22  23
ENDBRANCH  21  22
BRANCH  21  25
HETATM   25  C10 UNL     1     129.156-108.866 102.678  1.00  0.00     0.198 C
BRANCH  25  26
HETATM   26  O3  UNL     1     128.367-107.789 102.217  1.00  0.00    -0.398 OA
ATOM     27  H3  UNL     1     127.452-108.045 102.226  1.00  0.00     0.209 HD
ENDBRANCH  25  26
ENDBRANCH  21  25
ENDBRANCH  20  21
ENDBRANCH  19  20
ENDBRANCH  14  19
BRANCH   7  28
HETATM   28  N3  UNL     1     123.967-113.397 102.554  1.00  0.00    -0.383 N
ATOM     29  H32 UNL     1     123.601-114.293 102.234  1.00  0.00     0.157 HD
ATOM     30  H31 UNL     1     123.321-112.661 102.844  1.00  0.00     0.157 HD
ENDBRANCH   7  28
BRANCH  10  31
HETATM   31  N5  UNL     1     127.880-113.939 104.751  1.00  0.00    -0.234 N
ATOM     32  H52 UNL     1     128.587-113.337 105.174  1.00  0.00     0.174 HD
ATOM     33  H51 UNL     1     127.635-114.862 105.109  1.00  0.00     0.174 HD
ENDBRANCH  10  31
TORSDOF 10
ENDMDL