MODEL 2
REMARK VINA RESULT: -7.433842427      2.015      2.114
REMARK  8 active torsions:
REMARK  status: ('A' for Active; 'I' for Inactive)
REMARK    1  A    between atoms: N1_1  and  C1_4
REMARK    2  A    between atoms: C4_12  and  S1_13
REMARK    3  A    between atoms: S1_13  and  C5_14
REMARK    4  A    between atoms: C5_14  and  C6_15
REMARK    5  A    between atoms: C6_15  and  O2_16
REMARK    6  A    between atoms: C6_15  and  C7_18
REMARK    7  A    between atoms: C7_18  and  O3_19
REMARK    8  A    between atoms: N4_21  and  N5_22
ROOT
HETATM    1  C1  UNL     1     128.042-113.106  99.755  1.00  0.00     0.679 A
HETATM    2  N2  UNL     1     128.640-113.862 100.695  1.00  0.00    -0.154 N
ATOM      3  H2  UNL     1     129.535-114.301 100.478  1.00  0.00     0.187 HD
HETATM    4  C2  UNL     1     128.101-114.058 101.909  1.00  0.00     0.288 A
HETATM    5  O1  UNL     1     128.647-114.760 102.798  1.00  0.00    -0.265 OA
HETATM    6  C3  UNL     1     126.890-113.458 102.191  1.00  0.00     0.136 A
HETATM    7  N3  UNL     1     126.290-113.616 103.397  1.00  0.00    -0.329 N
ATOM      8  H3  UNL     1     126.750-114.190 104.104  1.00  0.00     0.168 HD
HETATM    9  C4  UNL     1     125.100-113.037 103.696  1.00  0.00     0.169 A
HETATM   10  N4  UNL     1     124.525-112.295 102.751  1.00  0.00    -0.202 N
HETATM   11  C8  UNL     1     125.065-112.095 101.531  1.00  0.00     0.298 A
HETATM   12  O4  UNL     1     124.508-111.387 100.645  1.00  0.00    -0.264 OA
HETATM   13  C9  UNL     1     126.289-112.691 101.228  1.00  0.00     0.151 A
HETATM   14  N6  UNL     1     126.868-112.528 100.036  1.00  0.00    -0.184 N
ATOM     15  H6  UNL     1     126.408-111.954  99.328  1.00  0.00     0.184 HD
ENDROOT
BRANCH   9  16
HETATM   16  S1  UNL     1     124.316-113.263 105.272  1.00  0.00    -0.089 SA
BRANCH  16  17
HETATM   17  C5  UNL     1     123.115-114.576 105.329  1.00  0.00     0.116 C
BRANCH  17  18
HETATM   18  C6  UNL     1     121.675-114.147 105.250  1.00  0.00     0.151 C
BRANCH  18  19
HETATM   19  O2  UNL     1     121.656-112.742 105.028  1.00  0.00    -0.393 OA
ATOM     20  H2  UNL     1     121.356-112.596 104.139  1.00  0.00     0.210 HD
ENDBRANCH  18  19
BRANCH  18  21
HETATM   21  C7  UNL     1     121.053-114.272 106.656  1.00  0.00     0.196 C
BRANCH  21  22
HETATM   22  O3  UNL     1     119.769-113.767 106.556  1.00  0.00    -0.398 OA
ATOM     23  H3  UNL     1     119.185-114.480 106.788  1.00  0.00     0.209 HD
ENDBRANCH  21  22
ENDBRANCH  18  21
ENDBRANCH  17  18
ENDBRANCH  16  17
ENDBRANCH   9  16
BRANCH  10  24
HETATM   24  N5  UNL     1     123.292-111.692 103.008  1.00  0.00    -0.334 N
ATOM     25  H52 UNL     1     123.296-110.855 103.591  1.00  0.00     0.177 HD
ATOM     26  H51 UNL     1     122.444-112.093 102.607  1.00  0.00     0.177 HD
ENDBRANCH  10  24
BRANCH   1  27
HETATM   27  N1  UNL     1     128.614-112.948  98.585  1.00  0.00    -0.234 N
ATOM     28  H12 UNL     1     128.330-113.505  97.779  1.00  0.00     0.174 HD
ATOM     29  H11 UNL     1     129.357-112.258  98.473  1.00  0.00     0.174 HD
ENDBRANCH   1  27
TORSDOF 8
ENDMDL