MODEL 2
REMARK VINA RESULT: -8.293775896      4.857      8.589
REMARK  6 active torsions:
REMARK  status: ('A' for Active; 'I' for Inactive)
REMARK    1  A    between atoms: N1_1  and  C1_4
REMARK    2  A    between atoms: N3_11  and  C5_13
REMARK    3  A    between atoms: C5_13  and  C6_14
REMARK    4  A    between atoms: C6_14  and  C7_15
REMARK    5  A    between atoms: C7_15  and  O2_16
REMARK    6  A    between atoms: C7_15  and  C8_18
ROOT
HETATM    1  C1  UNL     1     125.238-113.457 104.200  1.00  0.00     0.680 A
HETATM    2  N2  UNL     1     126.465-113.072 104.596  1.00  0.00    -0.155 N
ATOM      3  H2  UNL     1     126.828-113.365 105.503  1.00  0.00     0.187 HD
HETATM    4  C2  UNL     1     127.208-112.303 103.788  1.00  0.00     0.277 A
HETATM    5  O1  UNL     1     128.364-111.905 104.093  1.00  0.00    -0.267 OA
HETATM    6  C3  UNL     1     126.687-111.930 102.574  1.00  0.00     0.121 A
HETATM    7  C4  UNL     1     127.454-111.126 101.724  1.00  0.00     0.121 A
HETATM    8  N3  UNL     1     128.632-110.758 102.106  1.00  0.00    -0.375 N
ATOM      9  H3  UNL     1     129.024-111.033 103.007  1.00  0.00     0.161 HD
HETATM   10  N8  UNL     1     126.907-110.783 100.544  1.00  0.00    -0.338 N
ATOM     11  H8  UNL     1     127.443-110.198  99.902  1.00  0.00     0.168 HD
HETATM   12  C9  UNL     1     125.676-111.187 100.184  1.00  0.00     0.183 A
HETATM   13  N9  UNL     1     124.913-111.959 100.975  1.00  0.00    -0.337 N
ATOM     14  H9  UNL     1     123.982-112.256 100.682  1.00  0.00     0.168 HD
HETATM   15  C10 UNL     1     125.424-112.333 102.183  1.00  0.00     0.141 A
HETATM   16  N10 UNL     1     124.709-113.104 103.018  1.00  0.00    -0.176 N
ATOM     17  H10 UNL     1     123.775-113.418 102.758  1.00  0.00     0.186 HD
ENDROOT
BRANCH   8  18
HETATM   18  C5  UNL     1     129.375-109.912 101.151  1.00  0.00     0.124 C
BRANCH  18  19
HETATM   19  C6  UNL     1     130.446-109.139 101.846  1.00  0.00     0.059 C
BRANCH  19  20
HETATM   20  C7  UNL     1     130.079-107.729 102.177  1.00  0.00     0.189 C
BRANCH  20  21
HETATM   21  O2  UNL     1     128.905-107.793 102.992  1.00  0.00    -0.388 OA
ATOM     22  H2  UNL     1     128.169-107.891 102.400  1.00  0.00     0.210 HD
ENDBRANCH  20  21
BRANCH  20  23
HETATM   23  C8  UNL     1     131.094-107.106 103.096  1.00  0.00     0.139 A
HETATM   24  N4  UNL     1     130.760-106.255 104.120  1.00  0.00    -0.273 N
HETATM   25  N5  UNL     1     131.880-105.916 104.720  1.00  0.00    -0.225 N
ATOM     26  H4  UNL     1     129.821-105.945 104.369  1.00  0.00     0.189 HD
HETATM   27  N6  UNL     1     132.922-106.494 104.147  1.00  0.00    -0.005 NA
ATOM     28  H5  UNL     1     131.937-105.289 105.522  1.00  0.00     0.205 HD
HETATM   29  N7  UNL     1     132.418-107.215 103.161  1.00  0.00    -0.268 N
ATOM     30  H7  UNL     1     132.977-107.784 102.525  1.00  0.00     0.185 HD
ENDBRANCH  20  23
ENDBRANCH  19  20
ENDBRANCH  18  19
ENDBRANCH   8  18
BRANCH   1  31
HETATM   31  N1  UNL     1     124.520-114.210 104.996  1.00  0.00    -0.234 N
ATOM     32  H12 UNL     1     123.564-113.917 105.199  1.00  0.00     0.174 HD
ATOM     33  H11 UNL     1     124.935-115.056 105.385  1.00  0.00     0.174 HD
ENDBRANCH   1  31
TORSDOF 6
ENDMDL