MODEL 5
REMARK VINA RESULT: -7.050668239      2.479      3.437
REMARK  5 active torsions:
REMARK  status: ('A' for Active; 'I' for Inactive)
REMARK    1  A    between atoms: C2_2  and  S1_4
REMARK    2  A    between atoms: S1_4  and  N1_7
REMARK    3  A    between atoms: N1_7  and  N2_9
REMARK    4  A    between atoms: N2_9  and  C3_11
REMARK    5  A    between atoms: C4_14  and  C5_15
ROOT
HETATM    1  C3  UNL     1      -7.948  -2.987  13.086  1.00  0.00     0.164 A
HETATM    2  N3  UNL     1      -6.973  -2.127  13.387  1.00  0.00    -0.338 N
ATOM      3  H3  UNL     1      -6.463  -1.644  12.647  1.00  0.00     0.168 HD
HETATM    4  C4  UNL     1      -6.681  -1.914  14.637  1.00  0.00     0.022 A
HETATM    5  C11 UNL     1      -7.408  -2.597  15.582  1.00  0.00     0.078 A
HETATM    6  S2  UNL     1      -8.476  -3.515  14.618  1.00  0.00    -0.062 SA
ENDROOT
BRANCH   1   7
HETATM    7  N2  UNL     1      -8.373  -3.322  11.884  1.00  0.00    -0.270 N
ATOM      8  H2  UNL     1      -7.790  -3.841  11.228  1.00  0.00     0.190 HD
BRANCH   7   9
HETATM    9  N1  UNL     1      -9.673  -2.921  11.564  1.00  0.00    -0.224 N
ATOM     10  H1  UNL     1      -9.898  -1.934  11.437  1.00  0.00     0.200 HD
BRANCH   9  11
HETATM   11  S1  UNL     1     -10.899  -4.145  11.387  1.00  0.00     0.261 S
HETATM   12  O1  UNL     1     -12.221  -3.654  11.880  1.00  0.00    -0.203 OA
HETATM   13  O2  UNL     1     -10.467  -5.342  12.171  1.00  0.00    -0.203 OA
BRANCH  11  14
HETATM   14  C2  UNL     1     -10.983  -4.514   9.637  1.00  0.00     0.222 C
HETATM   15  C1  UNL     1     -12.439  -4.539   9.239  1.00  0.00     0.045 C
HETATM   16 CL1  UNL     1     -10.190  -6.054   9.268  1.00  0.00    -0.107 Cl
ENDBRANCH  11  14
ENDBRANCH   9  11
ENDBRANCH   7   9
ENDBRANCH   1   7
BRANCH   4  17
HETATM   17  C5  UNL     1      -5.596  -0.959  15.117  1.00  0.00     0.036 C
HETATM   18  C6  UNL     1      -5.681  -0.837  16.628  1.00  0.00     0.011 C
HETATM   19  C7  UNL     1      -4.331  -0.770  17.278  1.00  0.00     0.001 C
HETATM   20  C8  UNL     1      -3.530  -2.004  16.941  1.00  0.00     0.000 C
HETATM   21  C9  UNL     1      -3.445  -2.250  15.476  1.00  0.00     0.001 C
HETATM   22  C10 UNL     1      -4.253  -1.354  14.612  1.00  0.00     0.011 C
ENDBRANCH   4  17
TORSDOF 5
ENDMDL