MODEL 2
REMARK VINA RESULT: -7.197760547      0.462      1.425
REMARK  6 active torsions:
REMARK  status: ('A' for Active; 'I' for Inactive)
REMARK    1  A    between atoms: N1_2  and  C2_4
REMARK    2  A    between atoms: C3_7  and  O1_8
REMARK    3  A    between atoms: C5_10  and  C6_11
REMARK    4  A    between atoms: C6_11  and  N3_12
REMARK    5  A    between atoms: N3_12  and  C7_14
REMARK    6  A    between atoms: C10_17  and  C11_18
ROOT
HETATM    1  C2  UNL     1      -9.819  -7.900  10.368  1.00  0.00     0.680 A
HETATM    2  N2  UNL     1     -10.146  -6.820   9.646  1.00  0.00    -0.170 N
ATOM      3  H2  UNL     1     -10.155  -6.912   8.630  1.00  0.00     0.186 HD
HETATM    4  C3  UNL     1     -10.457  -5.651  10.154  1.00  0.00     0.172 A
HETATM    5  C5  UNL     1     -10.449  -5.492  11.579  1.00  0.00     0.070 A
HETATM    6  C17 UNL     1     -10.124  -6.585  12.278  1.00  0.00     0.135 A
HETATM    7 CL1  UNL     1      -9.980  -6.535  14.025  1.00  0.00    -0.063 Cl
HETATM    8  N4  UNL     1      -9.809  -7.791  11.683  1.00  0.00    -0.180 N
ATOM      9  H4  UNL     1      -9.568  -8.597  12.260  1.00  0.00     0.185 HD
ENDROOT
BRANCH   5  10
HETATM   10  C6  UNL     1     -10.542  -4.107  11.971  1.00  0.00     0.102 C
BRANCH  10  11
HETATM   11  N3  UNL     1      -9.759  -3.059  11.449  1.00  0.00    -0.393 N
ATOM     12  H3  UNL     1      -9.796  -2.704  10.493  1.00  0.00     0.159 HD
BRANCH  11  13
HETATM   13  C7  UNL     1      -8.867  -2.558  12.536  1.00  0.00     0.081 C
HETATM   14  C8  UNL     1      -7.509  -2.326  11.974  1.00  0.00     0.025 C
HETATM   15  C9  UNL     1      -6.347  -2.450  12.864  1.00  0.00     0.007 C
HETATM   16  C10 UNL     1      -6.510  -3.179  14.170  1.00  0.00    -0.007 C
HETATM   17  C15 UNL     1      -7.890  -2.858  14.734  1.00  0.00     0.007 C
HETATM   18  C16 UNL     1      -8.843  -3.499  13.705  1.00  0.00     0.025 C
BRANCH  16  19
HETATM   19  C11 UNL     1      -5.481  -2.778  15.205  1.00  0.00    -0.048 C
HETATM   20  C12 UNL     1      -4.249  -2.193  14.589  1.00  0.00     0.015 C
HETATM   21  C13 UNL     1      -6.091  -1.799  16.163  1.00  0.00     0.015 C
HETATM   22  C14 UNL     1      -5.005  -3.982  16.024  1.00  0.00     0.015 C
ENDBRANCH  16  19
ENDBRANCH  11  13
ENDBRANCH  10  11
ENDBRANCH   5  10
BRANCH   4  23
HETATM   23  O1  UNL     1     -10.800  -4.573   9.374  1.00  0.00    -0.340 OA
HETATM   24  C4  UNL     1     -12.124  -4.205   9.028  1.00  0.00     0.211 C
ENDBRANCH   4  23
BRANCH   1  25
HETATM   25  N1  UNL     1      -9.479  -9.009   9.750  1.00  0.00    -0.230 N
HETATM   26  C1  UNL     1      -8.337  -9.711  10.374  1.00  0.00     0.165 C
ATOM     27  H1  UNL     1      -9.960  -9.355   8.918  1.00  0.00     0.177 HD
ENDBRANCH   1  25
TORSDOF 6
ENDMDL