MODEL 4
REMARK VINA RESULT: -7.025229117      1.880      2.390
REMARK  5 active torsions:
REMARK  status: ('A' for Active; 'I' for Inactive)
REMARK    1  A    between atoms: O1_1  and  C1_3
REMARK    2  A    between atoms: C1_3  and  C2_4
REMARK    3  A    between atoms: C2_4  and  N1_5
REMARK    4  A    between atoms: C4_7  and  C5_8
REMARK    5  A    between atoms: C7_11  and  C8_12
ROOT
HETATM    1  C5  UNL     1      -8.926  -3.747  12.276  1.00  0.00     0.051 A
HETATM    2  C6  UNL     1     -10.217  -3.307  12.203  1.00  0.00     0.082 A
HETATM    3  S1  UNL     1     -11.034  -4.702  11.595  1.00  0.00    -0.084 SA
HETATM    4  C7  UNL     1      -9.659  -5.740  11.483  1.00  0.00     0.082 A
HETATM    5  N3  UNL     1      -8.704  -4.972  11.904  1.00  0.00    -0.351 N
ATOM      6  H3  UNL     1      -7.753  -5.338  11.944  1.00  0.00     0.166 HD
ENDROOT
BRANCH   1   7
HETATM    7  C4  UNL     1      -7.844  -2.863  12.758  1.00  0.00     0.009 A
HETATM    8  C3  UNL     1      -7.447  -2.683  14.061  1.00  0.00     0.105 A
HETATM    9  N1  UNL     1      -6.433  -1.806  14.140  1.00  0.00    -0.348 N
HETATM   10  C13 UNL     1      -6.172  -1.418  12.883  1.00  0.00     0.082 A
HETATM   11  C12 UNL     1      -7.018  -2.043  11.997  1.00  0.00     0.052 A
HETATM   12 BR1  UNL     1      -4.810  -0.163  12.380  1.00  0.00    -0.031 Br
BRANCH   9  13
HETATM   13  C2  UNL     1      -5.733  -1.346  15.325  1.00  0.00     0.155 C
BRANCH  13  14
HETATM   14  C1  UNL     1      -6.576  -1.614  16.566  1.00  0.00     0.184 C
BRANCH  14  15
HETATM   15  O1  UNL     1      -6.283  -0.636  17.506  1.00  0.00    -0.399 OA
ATOM     16  H1  UNL     1      -6.251  -1.049  18.362  1.00  0.00     0.209 HD
ENDBRANCH  14  15
ENDBRANCH  13  14
ENDBRANCH   9  13
ENDBRANCH   1   7
BRANCH   4  17
HETATM   17  C8  UNL     1      -9.587  -7.157  11.020  1.00  0.00     0.242 C
HETATM   18  C9  UNL     1      -8.488  -7.844  11.796  1.00  0.00     0.041 C
HETATM   19  C10 UNL     1      -8.220  -9.057  10.894  1.00  0.00     0.030 C
HETATM   20  C11 UNL     1      -8.805  -8.673   9.553  1.00  0.00     0.233 C
HETATM   21  N2  UNL     1      -9.091  -7.254   9.661  1.00  0.00    -0.065 N
ATOM     22  H22 UNL     1      -9.713  -6.881   8.945  1.00  0.00     0.278 HD
ATOM     23  H21 UNL     1      -8.310  -6.636   9.439  1.00  0.00     0.278 HD
ENDBRANCH   4  17
TORSDOF 5
ENDMDL