MODEL 3
REMARK VINA RESULT: -6.049945706      2.427      4.528
REMARK  4 active torsions:
REMARK  status: ('A' for Active; 'I' for Inactive)
REMARK    1  A    between atoms: N2_5  and  C3_6
REMARK    2  A    between atoms: C3_6  and  C4_7
REMARK    3  A    between atoms: C4_7  and  C5_8
REMARK       I    between atoms: C5_8  and  N3_10
REMARK    4  A    between atoms: N3_10  and  C6_12
ROOT
HETATM    1  C3  UNL     1      -5.662  -2.958  15.727  1.00  0.00     0.045 C
HETATM    2  C9  UNL     1      -5.323  -1.896  16.436  1.00  0.00    -0.055 C
HETATM    3  C10 UNL     1      -6.419  -1.000  16.979  1.00  0.00     0.036 C
HETATM    4  C11 UNL     1      -5.848   0.006  17.931  1.00  0.00     0.004 C
HETATM    5  C12 UNL     1      -4.739   0.837  17.324  1.00  0.00     0.001 C
HETATM    6  C13 UNL     1      -3.792   0.030  16.502  1.00  0.00     0.004 C
HETATM    7  C14 UNL     1      -3.950  -1.467  16.734  1.00  0.00     0.036 C
ENDROOT
BRANCH   1   8
HETATM    8  N2  UNL     1      -4.643  -3.799  15.222  1.00  0.00    -0.263 N
HETATM    9  N1  UNL     1      -4.320  -5.007  15.737  1.00  0.00    -0.297 N
HETATM   10  C2  UNL     1      -3.330  -5.565  15.061  1.00  0.00     0.046 A
ATOM     11  H1  UNL     1      -4.780  -5.432  16.541  1.00  0.00     0.187 HD
HETATM   12  C1  UNL     1      -2.654  -6.883  15.274  1.00  0.00     0.071 C
HETATM   13  C17 UNL     1      -2.965  -4.708  14.051  1.00  0.00     0.081 A
HETATM   14  C15 UNL     1      -3.822  -3.604  14.190  1.00  0.00     0.054 A
HETATM   15 CL1  UNL     1      -1.725  -4.884  12.829  1.00  0.00    -0.080 Cl
HETATM   16  C16 UNL     1      -3.756  -2.429  13.275  1.00  0.00     0.072 C
ENDBRANCH   1   8
BRANCH   1  17
HETATM   17  C4  UNL     1      -7.061  -3.226  15.425  1.00  0.00     0.162 C
BRANCH  17  18
HETATM   18  C5  UNL     1      -7.502  -3.048  14.038  1.00  0.00     0.223 C
HETATM   19  O1  UNL     1      -7.178  -2.118  13.262  1.00  0.00    -0.273 OA
HETATM   20  N3  UNL     1      -8.391  -4.018  13.494  1.00  0.00    -0.353 N
ATOM     21  H3  UNL     1      -8.682  -4.792  14.091  1.00  0.00     0.163 HD
BRANCH  20  22
HETATM   22  C6  UNL     1      -8.901  -3.967  12.152  1.00  0.00     0.135 C
HETATM   23  C7  UNL     1      -9.384  -5.269  11.579  1.00  0.00     0.259 C
HETATM   24  N4  UNL     1     -10.740  -4.869  11.904  1.00  0.00    -0.071 N
HETATM   25  C8  UNL     1     -10.344  -3.511  12.142  1.00  0.00     0.259 C
ATOM     26  H42 UNL     1     -11.486  -5.056  11.235  1.00  0.00     0.277 HD
ATOM     27  H41 UNL     1     -11.243  -5.373  12.635  1.00  0.00     0.277 HD
ENDBRANCH  20  22
ENDBRANCH  17  18
ENDBRANCH   1  17
TORSDOF 4
ENDMDL