MODEL 3
REMARK VINA RESULT: -6.900448045      4.562      7.062
REMARK  4 active torsions:
REMARK  status: ('A' for Active; 'I' for Inactive)
REMARK    1  A    between atoms: C6_8  and  C7_9
REMARK    2  A    between atoms: C7_9  and  S1_10
REMARK    3  A    between atoms: S1_10  and  C8_11
REMARK    4  A    between atoms: C8_11  and  C9_12
ROOT
HETATM    1  C8  UNL     1      -8.183  -4.120  12.996  1.00  0.00     0.140 C
ENDROOT
BRANCH   1   2
HETATM    2  S1  UNL     1      -9.616  -3.351  12.225  1.00  0.00    -0.158 SA
BRANCH   2   3
HETATM    3  C7  UNL     1     -10.940  -4.520  11.873  1.00  0.00     0.115 C
BRANCH   3   4
HETATM    4  C6  UNL     1     -10.603  -5.527  10.866  1.00  0.00    -0.018 A
HETATM    5  C2  UNL     1     -11.063  -5.371   9.580  1.00  0.00     0.055 A
HETATM    6  C1  UNL     1     -11.865  -4.198   9.231  1.00  0.00     0.077 C
HETATM    7  O1  UNL     1     -10.799  -6.258   8.644  1.00  0.00    -0.326 OA
HETATM    8  C3  UNL     1     -10.093  -7.325   8.884  1.00  0.00     0.161 A
HETATM    9  C4  UNL     1      -9.597  -7.554  10.145  1.00  0.00     0.034 A
HETATM   10 BR1  UNL     1      -8.558  -9.127  10.490  1.00  0.00    -0.049 Br
HETATM   11  C5  UNL     1      -9.858  -6.639  11.150  1.00  0.00     0.031 A
ENDBRANCH   3   4
ENDBRANCH   2   3
ENDBRANCH   1   2
BRANCH   1  12
HETATM   12  C9  UNL     1      -7.734  -3.336  14.200  1.00  0.00     0.079 A
HETATM   13  N1  UNL     1      -8.217  -3.422  15.428  1.00  0.00    -0.295 N
HETATM   14  N2  UNL     1      -7.744  -2.696  16.357  1.00  0.00    -0.279 N
ATOM     15  H1  UNL     1      -8.974  -4.074  15.630  1.00  0.00     0.187 HD
HETATM   16  C10 UNL     1      -6.751  -1.849  16.062  1.00  0.00     0.158 A
ATOM     17  H2  UNL     1      -8.113  -2.758  17.305  1.00  0.00     0.189 HD
HETATM   18  N3  UNL     1      -6.129  -1.022  16.869  1.00  0.00    -0.379 N
HETATM   19  S2  UNL     1      -6.529  -2.143  14.394  1.00  0.00    -0.038 SA
ATOM     20  H32 UNL     1      -6.262  -0.846  17.866  1.00  0.00     0.158 HD
ATOM     21  H31 UNL     1      -5.373  -0.376  16.645  1.00  0.00     0.158 HD
ENDBRANCH   1  12
TORSDOF 4
ENDMDL