MODEL 3
REMARK VINA RESULT: -7.911554592      0.895      1.051
REMARK  4 active torsions:
REMARK  status: ('A' for Active; 'I' for Inactive)
REMARK    1  A    between atoms: C1_2  and  C2_3
REMARK       I    between atoms: C1_2  and  N2_12
REMARK    2  A    between atoms: C2_3  and  N1_4
REMARK    3  A    between atoms: N1_4  and  C3_6
REMARK    4  A    between atoms: N2_12  and  C9_14
ROOT
HETATM    1  O1  UNL     1     -10.435  -2.556  12.217  1.00  0.00    -0.271 OA
HETATM    2  C1  UNL     1      -9.733  -3.450  11.697  1.00  0.00     0.239 C
HETATM    3  N2  UNL     1      -8.357  -3.547  11.907  1.00  0.00    -0.324 N
ATOM      4  H2  UNL     1      -7.890  -4.313  11.423  1.00  0.00     0.169 HD
ENDROOT
BRANCH   3   5
HETATM    5  C9  UNL     1      -7.520  -2.721  12.704  1.00  0.00     0.059 A
HETATM    6  C10 UNL     1      -6.655  -1.773  12.223  1.00  0.00     0.071 A
HETATM    7  C11 UNL     1      -5.871  -1.020  13.077  1.00  0.00     0.104 A
HETATM    8  C12 UNL     1      -5.911  -1.175  14.446  1.00  0.00     0.103 A
HETATM    9  O3  UNL     1      -5.050  -0.104  12.430  1.00  0.00    -0.348 OA
HETATM   10  C13 UNL     1      -6.762  -2.111  14.938  1.00  0.00     0.065 A
HETATM   11  O2  UNL     1      -5.180  -0.492  15.432  1.00  0.00    -0.348 OA
HETATM   12  C14 UNL     1      -7.547  -2.865  14.100  1.00  0.00     0.063 A
HETATM   13 CL1  UNL     1      -8.647  -4.077  14.781  1.00  0.00    -0.082 Cl
HETATM   14  C15 UNL     1      -4.026   0.278  15.136  1.00  0.00     0.178 C
HETATM   15  C16 UNL     1      -4.257   1.409  14.208  1.00  0.00     0.053 C
HETATM   16  C17 UNL     1      -4.570   1.133  12.803  1.00  0.00     0.178 C
ENDBRANCH   3   5
BRANCH   2  17
HETATM   17  C2  UNL     1     -10.454  -4.409  10.832  1.00  0.00     0.218 C
BRANCH  17  18
HETATM   18  N1  UNL     1     -11.077  -5.510  11.461  1.00  0.00    -0.409 N
ATOM     19  H1  UNL     1     -11.968  -5.409  11.946  1.00  0.00     0.154 HD
BRANCH  18  20
HETATM   20  C3  UNL     1     -10.410  -6.765  11.390  1.00  0.00     0.077 C
HETATM   21  C4  UNL     1      -9.219  -6.723  10.435  1.00  0.00     0.024 C
HETATM   22  C5  UNL     1      -8.000  -7.382  10.989  1.00  0.00     0.002 C
HETATM   23  C6  UNL     1      -8.273  -8.678  11.722  1.00  0.00     0.000 C
HETATM   24  C7  UNL     1      -9.399  -8.516  12.724  1.00  0.00     0.002 C
HETATM   25  C8  UNL     1      -9.826  -7.052  12.775  1.00  0.00     0.024 C
ENDBRANCH  18  20
ENDBRANCH  17  18
ENDBRANCH   2  17
TORSDOF 4
ENDMDL