MODEL 3
REMARK VINA RESULT: -5.630364782      1.697      2.185
REMARK  4 active torsions:
REMARK  status: ('A' for Active; 'I' for Inactive)
REMARK    1  A    between atoms: C2_3  and  C3_5
REMARK    2  A    between atoms: C4_6  and  S1_8
REMARK    3  A    between atoms: S1_8  and  C6_9
REMARK    4  A    between atoms: C9_14  and  C10_15
ROOT
HETATM    1  C1  UNL     1      -5.777  -3.414  13.520  1.00  0.00     0.264 C
HETATM    2  N1  UNL     1      -7.055  -3.571  14.011  1.00  0.00    -0.417 NA
HETATM    3  C2  UNL     1      -8.319  -3.726  14.497  1.00  0.00     0.311 C
HETATM    4  O1  UNL     1      -9.028  -2.828  15.018  1.00  0.00    -0.252 OA
ENDROOT
BRANCH   3   5
HETATM    5  C3  UNL     1      -9.007  -5.045  14.452  1.00  0.00     0.103 C
HETATM    6  C4  UNL     1      -9.432  -5.606  13.362  1.00  0.00    -0.014 C
HETATM    7  C5  UNL     1     -10.110  -6.947  13.510  1.00  0.00     0.056 C
BRANCH   6   8
HETATM    8  S1  UNL     1      -9.208  -4.865  11.780  1.00  0.00    -0.092 SA
BRANCH   8   9
HETATM    9  C6  UNL     1      -9.644  -6.027  10.439  1.00  0.00     0.047 A
HETATM   10  C7  UNL     1      -8.921  -7.131  10.155  1.00  0.00     0.036 A
HETATM   11 BR1  UNL     1      -7.320  -7.656  11.121  1.00  0.00    -0.049 Br
HETATM   12  C8  UNL     1      -9.359  -7.916   9.124  1.00  0.00     0.071 A
HETATM   13  S2  UNL     1     -10.754  -7.104   8.583  1.00  0.00    -0.092 SA
HETATM   14  C9  UNL     1     -10.747  -5.796   9.672  1.00  0.00     0.099 A
BRANCH  14  15
HETATM   15  C10 UNL     1     -11.713  -4.694   9.738  1.00  0.00     0.218 C
HETATM   16  O2  UNL     1     -11.684  -3.825   8.855  1.00  0.00    -0.643 OA
HETATM   17  O3  UNL     1     -12.646  -4.601  10.744  1.00  0.00    -0.643 OA
ENDBRANCH  14  15
ENDBRANCH   8   9
ENDBRANCH   6   8
ENDBRANCH   3   5
TORSDOF 3
ENDMDL