MODEL 4
REMARK VINA RESULT: -6.853370125      3.173      3.839
REMARK  5 active torsions:
REMARK  status: ('A' for Active; 'I' for Inactive)
REMARK    1  A    between atoms: O1_1  and  C1_3
REMARK    2  A    between atoms: C1_3  and  O2_4
REMARK    3  A    between atoms: O2_4  and  C2_5
REMARK    4  A    between atoms: N1_9  and  C6_10
REMARK    5  A    between atoms: C9_15  and  C10_16
ROOT
HETATM    1  C6  UNL     1      -7.026  -3.183  14.243  1.00  0.00     0.054 A
HETATM    2  C7  UNL     1      -7.214  -2.123  15.105  1.00  0.00     0.063 A
HETATM    3  C8  UNL     1      -6.196  -1.694  15.960  1.00  0.00     0.062 A
HETATM    4  N2  UNL     1      -6.113  -0.713  16.879  1.00  0.00    -0.344 N
ATOM      5  H2  UNL     1      -6.861  -0.061  17.115  1.00  0.00     0.167 HD
HETATM    6  C9  UNL     1      -4.887  -0.726  17.435  1.00  0.00     0.086 A
HETATM    7  N3  UNL     1      -4.212  -1.730  16.852  1.00  0.00    -0.344 N
ATOM      8  H3  UNL     1      -3.249  -1.987  17.071  1.00  0.00     0.167 HD
HETATM    9  C13 UNL     1      -4.987  -2.354  15.934  1.00  0.00     0.062 A
HETATM   10  C14 UNL     1      -4.770  -3.424  15.078  1.00  0.00     0.058 A
HETATM   11  C15 UNL     1      -5.812  -3.826  14.233  1.00  0.00     0.062 A
HETATM   12 CL1  UNL     1      -5.580  -5.170  13.140  1.00  0.00    -0.082 Cl
ENDROOT
BRANCH   1  13
HETATM   13  N1  UNL     1      -8.045  -3.632  13.365  1.00  0.00    -0.379 N
HETATM   14  C5  UNL     1      -8.928  -4.687  13.780  1.00  0.00     0.123 C
HETATM   15  C4  UNL     1      -8.933  -5.740  12.698  1.00  0.00     0.022 C
HETATM   16  C3  UNL     1      -9.385  -5.222  11.374  1.00  0.00     0.034 C
HETATM   17  C2  UNL     1     -10.257  -3.996  11.472  1.00  0.00     0.125 C
HETATM   18  C17 UNL     1      -9.467  -2.720  11.617  1.00  0.00     0.051 C
HETATM   19  C16 UNL     1      -8.058  -2.932  12.099  1.00  0.00     0.125 C
BRANCH  17  20
HETATM   20  O2  UNL     1     -10.980  -3.917  10.283  1.00  0.00    -0.362 OA
BRANCH  20  21
HETATM   21  C1  UNL     1     -12.299  -4.325  10.447  1.00  0.00     0.335 C
BRANCH  21  22
HETATM   22  O1  UNL     1     -12.881  -3.762  11.582  1.00  0.00    -0.377 OA
ATOM     23  H1  UNL     1     -12.529  -4.133  12.382  1.00  0.00     0.212 HD
ENDBRANCH  21  22
ENDBRANCH  20  21
ENDBRANCH  17  20
ENDBRANCH   1  13
BRANCH   6  24
HETATM   24  C10 UNL     1      -4.382   0.197  18.497  1.00  0.00     0.053 A
HETATM   25  C11 UNL     1      -5.327   0.830  19.444  1.00  0.00     0.013 A
HETATM   26  C12 UNL     1      -4.488  -0.300  19.937  1.00  0.00     0.013 A
ENDBRANCH   6  24
TORSDOF 5
ENDMDL