MODEL 2
REMARK VINA RESULT: -8.713529625      1.538      2.370
REMARK  4 active torsions:
REMARK  status: ('A' for Active; 'I' for Inactive)
REMARK    1  A    between atoms: C1_2  and  C2_3
REMARK       I    between atoms: C1_2  and  N2_12
REMARK    2  A    between atoms: C2_3  and  N1_4
REMARK    3  A    between atoms: N1_4  and  C3_6
REMARK    4  A    between atoms: N2_12  and  C9_14
ROOT
HETATM    1  O1  UNL     1     -10.680  -2.941  12.595  1.00  0.00    -0.267 OA
HETATM    2  C1  UNL     1     -10.074  -4.042  12.350  1.00  0.00     0.260 C
HETATM    3  N2  UNL     1      -8.695  -4.149  12.449  1.00  0.00    -0.322 N
ATOM      4  H2  UNL     1      -8.287  -5.055  12.219  1.00  0.00     0.169 HD
ENDROOT
BRANCH   3   5
HETATM    5  C9  UNL     1      -7.800  -3.126  12.837  1.00  0.00     0.039 A
HETATM    6  C10 UNL     1      -7.059  -2.339  11.995  1.00  0.00     0.056 A
HETATM    7  C11 UNL     1      -6.175  -1.360  12.437  1.00  0.00     0.072 A
HETATM    8 CL1  UNL     1      -5.254  -0.383  11.321  1.00  0.00    -0.081 Cl
HETATM    9  C12 UNL     1      -6.040  -1.175  13.777  1.00  0.00     0.123 A
HETATM   10  C13 UNL     1      -6.760  -1.936  14.704  1.00  0.00     0.105 A
HETATM   11  O3  UNL     1      -5.142  -0.183  14.142  1.00  0.00    -0.346 OA
HETATM   12  C14 UNL     1      -7.606  -2.876  14.206  1.00  0.00     0.069 A
HETATM   13  O2  UNL     1      -6.745  -1.882  16.106  1.00  0.00    -0.348 OA
HETATM   14  C15 UNL     1      -5.688  -1.347  16.870  1.00  0.00     0.178 C
HETATM   15  C16 UNL     1      -5.386   0.091  16.548  1.00  0.00     0.053 C
HETATM   16  C17 UNL     1      -4.554   0.266  15.312  1.00  0.00     0.178 C
ENDBRANCH   3   5
BRANCH   2  17
HETATM   17  C2  UNL     1     -10.922  -5.175  11.955  1.00  0.00     0.158 C
BRANCH  17  18
HETATM   18  N1  UNL     1     -10.555  -6.400  12.543  1.00  0.00    -0.390 N
ATOM     19  H1  UNL     1     -10.659  -6.556  13.546  1.00  0.00     0.159 HD
BRANCH  18  20
HETATM   20  C3  UNL     1     -10.033  -7.417  11.689  1.00  0.00     0.081 C
HETATM   21  C4  UNL     1     -10.021  -6.816  10.275  1.00  0.00     0.025 C
HETATM   22  C5  UNL     1      -9.024  -7.507   9.384  1.00  0.00     0.002 C
HETATM   23  C6  UNL     1      -8.579  -8.843   9.906  1.00  0.00     0.000 C
HETATM   24  C7  UNL     1      -7.950  -8.746  11.277  1.00  0.00     0.002 C
HETATM   25  C8  UNL     1      -8.550  -7.592  12.049  1.00  0.00     0.025 C
ENDBRANCH  18  20
ENDBRANCH  17  18
ENDBRANCH   2  17
TORSDOF 4
ENDMDL