MODEL 1
REMARK VINA RESULT: -6.982757181      0.000      0.000
REMARK  5 active torsions:
REMARK  status: ('A' for Active; 'I' for Inactive)
REMARK    1  A    between atoms: C2_2  and  N1_3
REMARK    2  A    between atoms: C7_10  and  O1_11
REMARK    3  A    between atoms: C12_19  and  C14_21
REMARK    4  A    between atoms: C14_21  and  C15_22
REMARK    5  A    between atoms: C15_22  and  O3_23
ROOT
HETATM    1  N1  UNL     1     -11.014  -4.695  11.695  1.00  0.00     0.096 N
HETATM    2  C3  UNL     1     -10.643  -3.468  12.308  1.00  0.00     0.332 C
HETATM    3  C4  UNL     1      -9.332  -3.465  12.980  1.00  0.00     0.073 A
HETATM    4  N2  UNL     1      -8.973  -2.613  13.990  1.00  0.00    -0.355 N
ATOM      5  H2  UNL     1      -9.569  -1.892  14.396  1.00  0.00     0.166 HD
HETATM    6  C5  UNL     1      -7.697  -2.880  14.364  1.00  0.00     0.048 A
HETATM    7  C6  UNL     1      -6.877  -2.313  15.324  1.00  0.00     0.068 A
HETATM    8  C7  UNL     1      -5.600  -2.799  15.482  1.00  0.00     0.089 A
HETATM    9  C8  UNL     1      -5.141  -3.837  14.696  1.00  0.00     0.068 A
HETATM   10 CL1  UNL     1      -3.514  -4.447  14.903  1.00  0.00    -0.081 Cl
HETATM   11  C9  UNL     1      -5.928  -4.405  13.751  1.00  0.00     0.043 A
HETATM   12  C10 UNL     1      -7.218  -3.919  13.586  1.00  0.00     0.028 A
HETATM   13  C11 UNL     1      -8.259  -4.285  12.712  1.00  0.00     0.106 A
HETATM   14  O2  UNL     1      -8.077  -5.314  11.800  1.00  0.00    -0.336 OA
HETATM   15  C12 UNL     1      -9.112  -6.167  11.316  1.00  0.00     0.092 C
HETATM   16  C13 UNL     1      -9.683  -6.955  12.473  1.00  0.00     0.048 C
HETATM   17  C17 UNL     1     -10.132  -5.221  10.709  1.00  0.00     0.310 C
ENDROOT
BRANCH  15  18
HETATM   18  C14 UNL     1      -8.499  -7.089  10.281  1.00  0.00     0.066 C
BRANCH  18  19
HETATM   19  C15 UNL     1      -9.618  -7.758   9.531  1.00  0.00     0.170 C
BRANCH  19  20
HETATM   20  O3  UNL     1      -9.602  -9.124   9.671  1.00  0.00    -0.396 OA
HETATM   21  C16 UNL     1      -8.536  -9.633  10.388  1.00  0.00     0.201 C
ENDBRANCH  19  20
ENDBRANCH  18  19
ENDBRANCH  15  18
BRANCH   1  22
HETATM   22  C2  UNL     1     -12.290  -4.447  11.002  1.00  0.00     0.268 C
HETATM   23  C1  UNL     1     -12.033  -4.448   9.532  1.00  0.00     0.037 C
ENDBRANCH   1  22
BRANCH   8  24
HETATM   24  O1  UNL     1      -4.785  -2.210  16.462  1.00  0.00    -0.359 OA
ATOM     25  H1  UNL     1      -3.842  -2.288  16.366  1.00  0.00     0.217 HD
ENDBRANCH   8  24
TORSDOF 5
ENDMDL