MODEL 4
REMARK VINA RESULT: -7.117123464      1.648      2.161
REMARK  12 active torsions:
REMARK  status: ('A' for Active; 'I' for Inactive)
REMARK    1  A    between atoms: C2_2  and  C3_4
REMARK    2  A    between atoms: C4_5  and  O2_6
REMARK    3  A    between atoms: O2_6  and  C5_7
REMARK    4  A    between atoms: N2_13  and  C8_14
REMARK    5  A    between atoms: C8_14  and  C9_15
REMARK    6  A    between atoms: C9_15  and  O4_16
REMARK    7  A    between atoms: C9_15  and  C10_18
REMARK    8  A    between atoms: C10_18  and  O5_19
REMARK    9  A    between atoms: C12_25  and  N4_26
REMARK   10  A    between atoms: N5_30  and  N6_31
REMARK   11  A    between atoms: C16_39  and  O7_40
REMARK   12  A    between atoms: C16_39  and  O8_42
ROOT
HETATM    1  C5  UNL     1     -46.549  83.368 146.314  1.00  0.00     0.170 A
HETATM    2  C6  UNL     1     -47.604  83.378 145.427  1.00  0.00     0.149 A
HETATM    3  N1  UNL     1     -47.399  84.371 144.512  1.00  0.00    -0.314 N
ATOM      4  H1  UNL     1     -48.014  84.614 143.736  1.00  0.00     0.170 HD
HETATM    5  C7  UNL     1     -46.236  84.967 144.825  1.00  0.00     0.328 A
HETATM    6  O3  UNL     1     -45.705  85.935 144.207  1.00  0.00    -0.246 OA
HETATM    7  N2  UNL     1     -45.721  84.352 145.924  1.00  0.00    -0.276 N
ENDROOT
BRANCH   7   8
HETATM    8  C8  UNL     1     -44.479  84.704 146.570  1.00  0.00     0.174 C
BRANCH   8   9
HETATM    9  C9  UNL     1     -43.372  83.883 145.951  1.00  0.00     0.218 C
BRANCH   9  10
HETATM   10  O4  UNL     1     -42.454  84.732 145.353  1.00  0.00    -0.387 OA
ATOM     11  H4  UNL     1     -42.066  85.291 146.016  1.00  0.00     0.210 HD
ENDBRANCH   9  10
BRANCH   9  12
HETATM   12  C10 UNL     1     -42.656  83.023 146.942  1.00  0.00     0.331 C
HETATM   13  N3  UNL     1     -43.484  82.646 148.066  1.00  0.00    -0.021 N
HETATM   14  C11 UNL     1     -42.742  81.500 148.601  1.00  0.00     0.288 C
ATOM     15  H32 UNL     1     -43.676  83.392 148.734  1.00  0.00     0.282 HD
ATOM     16  H31 UNL     1     -44.463  82.466 147.844  1.00  0.00     0.282 HD
HETATM   17  C12 UNL     1     -42.043  80.864 147.439  1.00  0.00     0.306 C
HETATM   18  N5  UNL     1     -42.407  81.730 146.320  1.00  0.00    -0.144 NA
BRANCH  12  19
HETATM   19  O5  UNL     1     -41.493  83.597 147.429  1.00  0.00    -0.350 OA
ATOM     20  H5  UNL     1     -41.214  83.234 148.261  1.00  0.00     0.214 HD
ENDBRANCH  12  19
BRANCH  17  21
HETATM   21  N4  UNL     1     -40.628  80.730 147.602  1.00  0.00    -0.059 N
ATOM     22  H43 UNL     1     -40.135  81.325 146.935  1.00  0.00     0.276 HD
ATOM     23  H42 UNL     1     -40.328  81.163 148.475  1.00  0.00     0.276 HD
ATOM     24  H41 UNL     1     -40.286  79.771 147.543  1.00  0.00     0.276 HD
ENDBRANCH  17  21
BRANCH  18  25
HETATM   25  N6  UNL     1     -43.642  81.257 145.850  1.00  0.00    -0.357 NA
ATOM     26  H62 UNL     1     -44.072  82.038 145.354  1.00  0.00     0.171 HD
ATOM     27  H61 UNL     1     -43.440  80.579 145.116  1.00  0.00     0.171 HD
ENDBRANCH  18  25
ENDBRANCH   9  12
ENDBRANCH   8   9
ENDBRANCH   7   8
BRANCH   1  28
HETATM   28  O2  UNL     1     -46.351  82.516 147.409  1.00  0.00    -0.287 OA
BRANCH  28  29
HETATM   29  C4  UNL     1     -46.974  82.757 148.622  1.00  0.00     0.141 C
HETATM   30  C3  UNL     1     -47.906  81.993 149.183  1.00  0.00     0.088 C
HETATM   31  C16 UNL     1     -48.335  82.597 150.492  1.00  0.00     0.221 C
HETATM   32  C14 UNL     1     -47.195  83.489 150.838  1.00  0.00     0.144 A
HETATM   33  C13 UNL     1     -46.706  83.911 149.502  1.00  0.00     0.209 C
HETATM   34  C15 UNL     1     -47.398  84.548 151.901  1.00  0.00     0.110 A
HETATM   35  S1  UNL     1     -46.219  83.240 152.212  1.00  0.00    -0.142 SA
HETATM   36  O6  UNL     1     -46.184  85.012 149.212  1.00  0.00    -0.288 OA
BRANCH  30  37
HETATM   37  C2  UNL     1     -48.463  80.760 148.658  1.00  0.00     0.160 C
HETATM   38  C1  UNL     1     -49.508  80.728 147.611  1.00  0.00     0.096 C
HETATM   39  O1  UNL     1     -48.049  79.661 149.100  1.00  0.00    -0.293 OA
ENDBRANCH  30  37
BRANCH  31  40
HETATM   40  O7  UNL     1     -48.608  81.635 151.440  1.00  0.00    -0.360 OA
ATOM     41  H7  UNL     1     -48.651  80.765 151.063  1.00  0.00     0.213 HD
ENDBRANCH  31  40
BRANCH  31  42
HETATM   42  O8  UNL     1     -49.472  83.385 150.324  1.00  0.00    -0.360 OA
ATOM     43  H8  UNL     1     -49.644  83.899 151.104  1.00  0.00     0.213 HD
ENDBRANCH  31  42
ENDBRANCH  28  29
ENDBRANCH   1  28
TORSDOF 12
ENDMDL