MODEL 2
REMARK VINA RESULT: -6.939838952      3.051      6.011
REMARK  11 active torsions:
REMARK  status: ('A' for Active; 'I' for Inactive)
REMARK    1  A    between atoms: O1_2  and  N1_3
REMARK       I    between atoms: N1_3  and  C2_5
REMARK    2  A    between atoms: C2_5  and  C3_7
REMARK    3  A    between atoms: C4_8  and  C5_9
REMARK    4  A    between atoms: C5_9  and  O3_10
REMARK    5  A    between atoms: C5_9  and  O4_12
REMARK    6  A    between atoms: N2_14  and  C6_15
REMARK    7  A    between atoms: C7_20  and  N5_21
REMARK    8  A    between atoms: N7_31  and  C11_32
REMARK    9  A    between atoms: C11_32  and  C12_33
REMARK   10  A    between atoms: C12_33  and  O7_34
REMARK   11  A    between atoms: C12_33  and  O8_36
ROOT
HETATM    1  C3  UNL     1     -44.258  85.316 145.640  1.00  0.00     0.091 A
HETATM    2  C4  UNL     1     -45.610  84.962 145.647  1.00  0.00     0.091 A
HETATM    3  N2  UNL     1     -45.780  83.850 146.372  1.00  0.00    -0.283 N
HETATM    4  C9  UNL     1     -44.613  83.420 146.865  1.00  0.00     0.138 A
HETATM    5  C10 UNL     1     -44.249  82.340 147.642  1.00  0.00     0.279 A
HETATM    6  O6  UNL     1     -45.164  81.560 148.015  1.00  0.00    -0.265 OA
HETATM    7  N7  UNL     1     -42.966  82.137 147.980  1.00  0.00    -0.284 N
HETATM    8  C13 UNL     1     -42.035  82.996 147.555  1.00  0.00     0.181 A
HETATM    9  S1  UNL     1     -40.439  82.777 147.941  1.00  0.00    -0.040 SA
HETATM   10  N8  UNL     1     -42.387  84.056 146.794  1.00  0.00    -0.330 N
ATOM     11  H8  UNL     1     -41.651  84.691 146.486  1.00  0.00     0.168 HD
HETATM   12  C14 UNL     1     -43.650  84.321 146.419  1.00  0.00     0.085 A
ENDROOT
BRANCH   3  13
HETATM   13  C6  UNL     1     -47.007  83.164 146.627  1.00  0.00     0.198 A
HETATM   14  N3  UNL     1     -47.586  83.161 147.842  1.00  0.00    -0.266 N
HETATM   15  N4  UNL     1     -48.724  82.537 148.066  1.00  0.00    -0.131 N
ATOM     16  H3  UNL     1     -47.130  83.655 148.610  1.00  0.00     0.189 HD
HETATM   17  C7  UNL     1     -49.305  81.892 147.043  1.00  0.00     0.693 A
ATOM     18  H4  UNL     1     -49.151  82.544 148.992  1.00  0.00     0.205 HD
HETATM   19  N6  UNL     1     -48.806  81.836 145.793  1.00  0.00    -0.152 N
HETATM   20  C8  UNL     1     -47.631  82.493 145.604  1.00  0.00     0.305 A
ATOM     21  H6  UNL     1     -49.278  81.335 145.040  1.00  0.00     0.188 HD
HETATM   22  O5  UNL     1     -47.120  82.475 144.467  1.00  0.00    -0.263 OA
BRANCH  17  23
HETATM   23  N5  UNL     1     -50.433  81.284 147.306  1.00  0.00    -0.233 N
ATOM     24  H52 UNL     1     -51.312  81.764 147.113  1.00  0.00     0.174 HD
ATOM     25  H51 UNL     1     -50.361  80.344 147.695  1.00  0.00     0.174 HD
ENDBRANCH  17  23
ENDBRANCH   3  13
BRANCH   2  26
HETATM   26  C5  UNL     1     -46.718  85.683 144.987  1.00  0.00     0.306 C
BRANCH  26  27
HETATM   27  O3  UNL     1     -46.620  87.052 145.121  1.00  0.00    -0.366 OA
ATOM     28  H3  UNL     1     -47.425  87.503 144.894  1.00  0.00     0.213 HD
ENDBRANCH  26  27
BRANCH  26  29
HETATM   29  O4  UNL     1     -46.779  85.396 143.612  1.00  0.00    -0.366 OA
ATOM     30  H4  UNL     1     -47.590  85.703 143.224  1.00  0.00     0.213 HD
ENDBRANCH  26  29
ENDBRANCH   2  26
BRANCH   1  31
HETATM   31  C2  UNL     1     -43.647  86.406 144.930  1.00  0.00     0.279 C
HETATM   32  N1  UNL     1     -42.868  87.399 145.521  1.00  0.00    -0.231 N
ATOM     33  H1  UNL     1     -42.717  87.368 146.529  1.00  0.00     0.197 HD
HETATM   34  O2  UNL     1     -43.823  86.490 143.671  1.00  0.00    -0.265 OA
BRANCH  32  35
HETATM   35  O1  UNL     1     -42.296  88.414 144.804  1.00  0.00    -0.282 OA
HETATM   36  C1  UNL     1     -42.882  89.637 144.994  1.00  0.00     0.237 C
ENDBRANCH  32  35
ENDBRANCH   1  31
BRANCH   7  37
HETATM   37  C11 UNL     1     -42.647  80.992 148.790  1.00  0.00     0.195 C
BRANCH  37  38
HETATM   38  C12 UNL     1     -42.292  79.763 147.995  1.00  0.00     0.272 C
BRANCH  38  39
HETATM   39  O7  UNL     1     -42.660  79.955 146.658  1.00  0.00    -0.370 OA
ATOM     40  H7  UNL     1     -43.593  79.802 146.565  1.00  0.00     0.212 HD
ENDBRANCH  38  39
BRANCH  38  41
HETATM   41  O8  UNL     1     -42.902  78.614 148.456  1.00  0.00    -0.370 OA
ATOM     42  H8  UNL     1     -42.295  77.989 148.834  1.00  0.00     0.212 HD
ENDBRANCH  38  41
ENDBRANCH  37  38
ENDBRANCH   7  37
TORSDOF 11
ENDMDL