MODEL 3
REMARK VINA RESULT: -6.044653365      1.837      2.250
REMARK  12 active torsions:
REMARK  status: ('A' for Active; 'I' for Inactive)
REMARK    1  A    between atoms: C3_8  and  C4_9
REMARK    2  A    between atoms: C4_9  and  O1_10
REMARK    3  A    between atoms: C4_9  and  C5_12
REMARK    4  A    between atoms: C5_12  and  C6_13
REMARK    5  A    between atoms: C5_12  and  N4_18
REMARK    6  A    between atoms: C6_13  and  O2_14
REMARK    7  A    between atoms: C6_13  and  O3_16
REMARK    8  A    between atoms: C8_20  and  O4_21
REMARK    9  A    between atoms: C9_23  and  N5_24
REMARK   10  A    between atoms: C10_27  and  C11_28
REMARK   11  A    between atoms: C12_35  and  C13_36
REMARK   12  A    between atoms: C13_36  and  N10_38
REMARK       I    between atoms: N10_38  and  C14_40
ROOT
HETATM    1  N4  UNL     1     -43.617  82.726 148.208  1.00  0.00    -0.347 N
HETATM    2  C7  UNL     1     -43.342  84.047 148.602  1.00  0.00     0.124 A
HETATM    3  C8  UNL     1     -44.537  84.221 149.038  1.00  0.00     0.102 A
HETATM    4  C9  UNL     1     -44.941  82.869 148.665  1.00  0.00     0.269 A
ENDROOT
BRANCH   4   5
HETATM    5  N5  UNL     1     -46.008  82.935 147.684  1.00  0.00    -0.241 N
HETATM    6  N6  UNL     1     -46.010  83.459 146.480  1.00  0.00    -0.276 N
HETATM    7  C10 UNL     1     -47.202  83.343 145.879  1.00  0.00     0.163 A
ATOM      8  H6  UNL     1     -45.197  83.903 146.052  1.00  0.00     0.189 HD
HETATM    9  N9  UNL     1     -48.002  82.703 146.767  1.00  0.00    -0.321 N
HETATM   10  C12 UNL     1     -47.264  82.458 147.864  1.00  0.00     0.165 A
ATOM     11  H9  UNL     1     -48.982  82.454 146.629  1.00  0.00     0.169 HD
BRANCH   7  12
HETATM   12  C11 UNL     1     -47.519  83.819 144.556  1.00  0.00     0.155 C
HETATM   13  N7  UNL     1     -48.224  83.067 143.782  1.00  0.00    -0.385 N
ATOM     14  H72 UNL     1     -48.546  82.156 144.111  1.00  0.00     0.157 HD
ATOM     15  H71 UNL     1     -48.448  83.404 142.846  1.00  0.00     0.157 HD
HETATM   16  N8  UNL     1     -47.075  85.075 144.102  1.00  0.00    -0.079 NA
ENDBRANCH   7  12
BRANCH  10  17
HETATM   17  C13 UNL     1     -47.732  81.791 149.057  1.00  0.00     0.149 C
HETATM   18  S1  UNL     1     -48.392  80.317 148.944  1.00  0.00    -0.056 SA
BRANCH  17  19
HETATM   19  N10 UNL     1     -47.622  82.403 150.320  1.00  0.00    -0.319 N
HETATM   20  C14 UNL     1     -48.406  83.536 150.682  1.00  0.00     0.187 C
HETATM   21  N11 UNL     1     -48.265  84.685 150.113  1.00  0.00    -0.373 N
HETATM   22  N12 UNL     1     -49.383  83.432 151.699  1.00  0.00    -0.064 NA
ATOM     23 2H11 UNL     1     -47.560  84.761 149.379  1.00  0.00     0.158 HD
ATOM     24 1H11 UNL     1     -48.826  85.497 150.372  1.00  0.00     0.158 HD
ATOM     25  H10 UNL     1     -46.960  82.023 150.998  1.00  0.00     0.169 HD
ENDBRANCH  17  19
ENDBRANCH  10  17
ENDBRANCH   4   5
BRANCH   1  26
HETATM   26  C5  UNL     1     -42.681  81.752 147.617  1.00  0.00     0.177 C
BRANCH  26  27
HETATM   27  C4  UNL     1     -42.911  80.375 148.126  1.00  0.00     0.214 C
BRANCH  27  28
HETATM   28  C3  UNL     1     -42.465  80.132 149.516  1.00  0.00     0.130 A
HETATM   29  N1  UNL     1     -43.379  79.917 150.509  1.00  0.00    -0.281 N
HETATM   30  C1  UNL     1     -44.831  79.874 150.387  1.00  0.00     0.179 C
HETATM   31  N2  UNL     1     -42.700  79.754 151.618  1.00  0.00    -0.293 N
HETATM   32  C2  UNL     1     -41.386  79.853 151.382  1.00  0.00     0.199 A
ATOM     33  H2  UNL     1     -43.115  79.577 152.532  1.00  0.00     0.188 HD
HETATM   34  N3  UNL     1     -41.264  80.087 150.073  1.00  0.00    -0.338 N
ATOM     35  H3  UNL     1     -40.381  80.213 149.578  1.00  0.00     0.168 HD
ENDBRANCH  27  28
BRANCH  27  36
HETATM   36  O1  UNL     1     -42.480  79.432 147.212  1.00  0.00    -0.386 OA
ATOM     37  H1  UNL     1     -43.126  79.192 146.558  1.00  0.00     0.210 HD
ENDBRANCH  27  36
ENDBRANCH  26  27
BRANCH  26  38
HETATM   38  C6  UNL     1     -42.802  81.906 146.120  1.00  0.00     0.279 C
BRANCH  38  39
HETATM   39  O2  UNL     1     -41.699  81.466 145.415  1.00  0.00    -0.369 OA
ATOM     40  H2  UNL     1     -41.813  80.618 145.001  1.00  0.00     0.212 HD
ENDBRANCH  38  39
BRANCH  38  41
HETATM   41  O3  UNL     1     -43.898  81.221 145.584  1.00  0.00    -0.369 OA
ATOM     42  H3  UNL     1     -44.340  81.705 144.896  1.00  0.00     0.212 HD
ENDBRANCH  38  41
ENDBRANCH  26  38
ENDBRANCH   1  26
BRANCH   3  43
HETATM   43  O4  UNL     1     -45.198  85.299 149.639  1.00  0.00    -0.360 OA
ATOM     44  H4  UNL     1     -45.998  85.377 150.147  1.00  0.00     0.217 HD
ENDBRANCH   3  43
TORSDOF 12
ENDMDL