MODEL 1
REMARK VINA RESULT: -7.104204303      0.000      0.000
REMARK  14 active torsions:
REMARK  status: ('A' for Active; 'I' for Inactive)
REMARK       I    between atoms: N1_2  and  C2_4
REMARK    1  A    between atoms: C2_4  and  C3_6
REMARK    2  A    between atoms: C3_6  and  N2_7
REMARK    3  A    between atoms: C3_6  and  C4_11
REMARK    4  A    between atoms: C4_11  and  O2_12
REMARK    5  A    between atoms: C4_11  and  C5_14
REMARK    6  A    between atoms: C6_18  and  N4_19
REMARK    7  A    between atoms: N4_19  and  C7_21
REMARK    8  A    between atoms: C8_22  and  O4_23
REMARK    9  A    between atoms: C9_25  and  C10_26
REMARK   10  A    between atoms: C10_26  and  O5_27
REMARK   11  A    between atoms: C10_26  and  N5_29
REMARK   12  A    between atoms: N5_29  and  N6_31
REMARK   13  A    between atoms: C11_34  and  O6_35
REMARK   14  A    between atoms: C15_43  and  O9_44
ROOT
HETATM    1  C5  UNL     1     -47.475  78.448 152.672  1.00  0.00     0.144 A
HETATM    2  O3  UNL     1     -46.215  78.601 152.341  1.00  0.00    -0.235 OA
HETATM    3  N3  UNL     1     -45.822  79.274 151.358  1.00  0.00    -0.241 N
ATOM      4  H3  UNL     1     -44.817  79.330 151.190  1.00  0.00     0.196 HD
HETATM    5  C6  UNL     1     -46.635  79.925 150.513  1.00  0.00     0.181 A
HETATM    6  C14 UNL     1     -47.984  79.803 150.789  1.00  0.00     0.253 A
HETATM    7  O8  UNL     1     -48.796  80.385 150.040  1.00  0.00    -0.281 OA
HETATM    8  C15 UNL     1     -48.396  79.075 151.847  1.00  0.00     0.155 A
ENDROOT
BRANCH   5   9
HETATM    9  N4  UNL     1     -46.198  80.645 149.402  1.00  0.00    -0.321 N
ATOM     10  H4  UNL     1     -46.822  80.619 148.595  1.00  0.00     0.169 HD
BRANCH   9  11
HETATM   11  C7  UNL     1     -45.013  81.410 149.223  1.00  0.00     0.146 A
HETATM   12  C8  UNL     1     -43.830  80.789 148.960  1.00  0.00     0.128 A
HETATM   13  C9  UNL     1     -42.641  81.455 148.624  1.00  0.00     0.092 A
HETATM   14  C11 UNL     1     -42.697  82.834 148.559  1.00  0.00     0.152 A
HETATM   15  C12 UNL     1     -43.893  83.448 148.822  1.00  0.00     0.283 A
HETATM   16  O7  UNL     1     -43.978  84.712 148.778  1.00  0.00    -0.265 OA
HETATM   17  N7  UNL     1     -45.032  82.760 149.145  1.00  0.00    -0.300 N
HETATM   18  C13 UNL     1     -46.240  83.558 149.203  1.00  0.00     0.161 C
BRANCH  12  19
HETATM   19  O4  UNL     1     -43.729  79.402 149.020  1.00  0.00    -0.356 OA
ATOM     20  H4  UNL     1     -42.970  78.956 148.662  1.00  0.00     0.218 HD
ENDBRANCH  12  19
BRANCH  13  21
HETATM   21  C10 UNL     1     -41.419  80.745 148.411  1.00  0.00     0.170 C
BRANCH  21  22
HETATM   22  O5  UNL     1     -41.114  79.910 149.420  1.00  0.00    -0.344 OA
ATOM     23  H5  UNL     1     -40.516  79.219 149.162  1.00  0.00     0.219 HD
ENDBRANCH  21  22
BRANCH  21  24
HETATM   24  N5  UNL     1     -40.481  80.749 147.390  1.00  0.00    -0.286 N
ATOM     25  H5  UNL     1     -39.580  80.325 147.611  1.00  0.00     0.188 HD
BRANCH  24  26
HETATM   26  N6  UNL     1     -40.614  81.260 146.103  1.00  0.00    -0.343 N
ATOM     27  H62 UNL     1     -40.823  80.565 145.387  1.00  0.00     0.176 HD
ATOM     28  H61 UNL     1     -40.529  82.229 145.799  1.00  0.00     0.176 HD
ENDBRANCH  24  26
ENDBRANCH  21  24
ENDBRANCH  13  21
BRANCH  14  29
HETATM   29  O6  UNL     1     -41.586  83.608 148.219  1.00  0.00    -0.355 OA
ATOM     30  H6  UNL     1     -41.666  84.426 147.743  1.00  0.00     0.218 HD
ENDBRANCH  14  29
ENDBRANCH   9  11
ENDBRANCH   5   9
BRANCH   8  31
HETATM   31  O9  UNL     1     -49.772  78.930 152.134  1.00  0.00    -0.355 OA
ATOM     32  H9  UNL     1     -50.085  79.169 152.999  1.00  0.00     0.218 HD
ENDBRANCH   8  31
BRANCH   1  33
HETATM   33  C4  UNL     1     -47.932  77.717 153.844  1.00  0.00     0.220 C
BRANCH  33  34
HETATM   34  C3  UNL     1     -48.535  76.382 153.839  1.00  0.00     0.309 C
BRANCH  34  35
HETATM   35  C2  UNL     1     -47.881  75.290 154.572  1.00  0.00     0.251 C
HETATM   36  N1  UNL     1     -47.981  75.331 156.004  1.00  0.00    -0.364 N
HETATM   37  C1  UNL     1     -47.436  74.381 156.923  1.00  0.00     0.149 C
ATOM     38  H1  UNL     1     -48.493  76.117 156.407  1.00  0.00     0.161 HD
HETATM   39  O1  UNL     1     -47.269  74.386 154.027  1.00  0.00    -0.271 OA
ENDBRANCH  34  35
BRANCH  34  40
HETATM   40  N2  UNL     1     -48.553  75.834 152.414  1.00  0.00    -0.064 N
ATOM     41  H23 UNL     1     -48.192  76.468 151.701  1.00  0.00     0.275 HD
ATOM     42  H22 UNL     1     -47.880  75.089 152.228  1.00  0.00     0.275 HD
ATOM     43  H21 UNL     1     -49.532  75.570 152.304  1.00  0.00     0.275 HD
ENDBRANCH  34  40
ENDBRANCH  33  34
BRANCH  33  44
HETATM   44  O2  UNL     1     -46.535  77.294 154.399  1.00  0.00    -0.386 OA
ATOM     45  H2  UNL     1     -46.155  78.164 154.433  1.00  0.00     0.210 HD
ENDBRANCH  33  44
ENDBRANCH   1  33
TORSDOF 14
ENDMDL