MODEL 4
REMARK VINA RESULT: -6.714102744      1.515      3.058
REMARK  10 active torsions:
REMARK  status: ('A' for Active; 'I' for Inactive)
REMARK    1  A    between atoms: C1_4  and  C2_6
REMARK    2  A    between atoms: C2_6  and  S1_7
REMARK    3  A    between atoms: S1_7  and  C3_8
REMARK    4  A    between atoms: N6_13  and  C4_14
REMARK    5  A    between atoms: C7_17  and  N7_18
REMARK    6  A    between atoms: C10_26  and  N10_27
REMARK    7  A    between atoms: C11_32  and  C12_33
REMARK    8  A    between atoms: C11_32  and  C13_36
REMARK    9  A    between atoms: C12_33  and  O1_34
REMARK       I    between atoms: C13_36  and  N12_38
REMARK   10  A    between atoms: N12_38  and  N13_40
ROOT
HETATM    1  C4  UNL     1     -47.289  79.559 151.109  1.00  0.00     0.130 A
HETATM    2  C5  UNL     1     -45.922  79.547 150.938  1.00  0.00     0.068 A
HETATM    3  C6  UNL     1     -45.289  80.294 149.952  1.00  0.00     0.043 A
HETATM    4  C7  UNL     1     -43.923  80.265 149.803  1.00  0.00     0.132 A
HETATM    5  N8  UNL     1     -43.363  81.016 148.823  1.00  0.00    -0.230 N
HETATM    6  C8  UNL     1     -44.133  81.763 148.029  1.00  0.00     0.124 A
HETATM    7  N9  UNL     1     -45.493  81.797 148.173  1.00  0.00    -0.340 N
ATOM      8  H9  UNL     1     -46.058  82.376 147.552  1.00  0.00     0.167 HD
HETATM    9  C9  UNL     1     -46.080  81.068 149.130  1.00  0.00     0.092 A
HETATM   10  C10 UNL     1     -47.469  81.078 149.307  1.00  0.00     0.128 A
HETATM   11  N11 UNL     1     -48.016  80.331 150.280  1.00  0.00    -0.326 N
ATOM     12  H11 UNL     1     -49.029  80.349 150.396  1.00  0.00     0.169 HD
HETATM   13  C11 UNL     1     -43.225  82.446 147.066  1.00  0.00     0.138 C
HETATM   14  C14 UNL     1     -41.923  82.484 147.817  1.00  0.00     0.165 C
HETATM   15  N14 UNL     1     -41.988  81.168 148.473  1.00  0.00    -0.129 NA
ENDROOT
BRANCH   1  16
HETATM   16  N6  UNL     1     -47.878  78.772 152.137  1.00  0.00    -0.203 N
HETATM   17  C3  UNL     1     -47.821  79.061 153.449  1.00  0.00     0.179 A
HETATM   18  N3  UNL     1     -48.497  78.083 154.117  1.00  0.00    -0.264 N
HETATM   19  N4  UNL     1     -48.951  77.221 153.221  1.00  0.00    -0.006 NA
ATOM     20  H3  UNL     1     -48.629  78.026 155.127  1.00  0.00     0.186 HD
HETATM   21  N5  UNL     1     -48.574  77.643 152.023  1.00  0.00     0.002 NA
BRANCH  17  22
HETATM   22  S1  UNL     1     -46.994  80.488 154.138  1.00  0.00    -0.084 SA
BRANCH  22  23
HETATM   23  C2  UNL     1     -48.194  81.791 154.536  1.00  0.00     0.155 C
BRANCH  23  24
HETATM   24  C1  UNL     1     -49.294  81.875 153.578  1.00  0.00     0.096 C
HETATM   25  N1  UNL     1     -50.437  81.374 153.870  1.00  0.00    -0.390 N
ATOM     26  H12 UNL     1     -51.205  81.433 153.201  1.00  0.00     0.157 HD
ATOM     27  H11 UNL     1     -50.571  80.920 154.773  1.00  0.00     0.157 HD
HETATM   28  N2  UNL     1     -49.108  82.503 152.329  1.00  0.00    -0.087 NA
ENDBRANCH  23  24
ENDBRANCH  22  23
ENDBRANCH  17  22
ENDBRANCH   1  16
BRANCH  10  29
HETATM   29  N10 UNL     1     -48.201  81.802 148.537  1.00  0.00    -0.384 N
ATOM     30 2H10 UNL     1     -48.308  81.575 147.548  1.00  0.00     0.157 HD
ATOM     31 1H10 UNL     1     -48.683  82.616 148.920  1.00  0.00     0.157 HD
ENDBRANCH  10  29
BRANCH   4  32
HETATM   32  N7  UNL     1     -43.191  79.540 150.576  1.00  0.00    -0.383 N
ATOM     33  H72 UNL     1     -42.520  79.971 151.212  1.00  0.00     0.157 HD
ATOM     34  H71 UNL     1     -43.269  78.523 150.567  1.00  0.00     0.157 HD
ENDBRANCH   4  32
BRANCH  13  35
HETATM   35  C12 UNL     1     -43.017  81.611 145.840  1.00  0.00     0.193 C
BRANCH  35  36
HETATM   36  O1  UNL     1     -41.690  81.243 145.673  1.00  0.00    -0.399 OA
ATOM     37  H1  UNL     1     -41.389  80.660 146.360  1.00  0.00     0.209 HD
ENDBRANCH  35  36
ENDBRANCH  13  35
BRANCH  13  38
HETATM   38  C13 UNL     1     -43.715  83.785 146.687  1.00  0.00     0.255 C
HETATM   39  O2  UNL     1     -44.909  83.900 146.271  1.00  0.00    -0.270 OA
HETATM   40  N12 UNL     1     -42.934  84.953 146.759  1.00  0.00    -0.276 N
ATOM     41  H12 UNL     1     -41.971  84.898 147.089  1.00  0.00     0.189 HD
BRANCH  40  42
HETATM   42  N13 UNL     1     -43.461  86.175 146.385  1.00  0.00    -0.343 N
ATOM     43 2H13 UNL     1     -44.248  86.552 146.913  1.00  0.00     0.176 HD
ATOM     44 1H13 UNL     1     -43.070  86.689 145.596  1.00  0.00     0.176 HD
ENDBRANCH  40  42
ENDBRANCH  13  38
TORSDOF 10
ENDMDL