MODEL 2
REMARK VINA RESULT: -6.856474201      2.763      7.988
REMARK  12 active torsions:
REMARK  status: ('A' for Active; 'I' for Inactive)
REMARK    1  A    between atoms: C2_2  and  O2_4
REMARK    2  A    between atoms: O2_4  and  C3_5
REMARK    3  A    between atoms: C4_7  and  O4_8
REMARK    4  A    between atoms: O4_8  and  N1_9
REMARK    5  A    between atoms: N1_9  and  C5_10
REMARK    6  A    between atoms: C8_16  and  C9_17
REMARK    7  A    between atoms: C9_17  and  O5_18
REMARK    8  A    between atoms: C9_17  and  C10_20
REMARK    9  A    between atoms: C10_20  and  O6_21
REMARK   10  A    between atoms: C15_30  and  O7_31
REMARK   11  A    between atoms: C16_36  and  O8_37
REMARK   12  A    between atoms: C17_39  and  O9_40
ROOT
HETATM    1  C5  UNL     1     -47.284  81.643 148.590  1.00  0.00     0.182 C
HETATM    2  C6  UNL     1     -46.484  81.116 149.687  1.00  0.00     0.028 C
HETATM    3  N2  UNL     1     -45.248  80.776 149.624  1.00  0.00    -0.299 N
ATOM      4  H2  UNL     1     -44.774  80.882 148.727  1.00  0.00     0.177 HD
HETATM    5  C7  UNL     1     -44.503  80.272 150.694  1.00  0.00     0.181 C
HETATM    6  N3  UNL     1     -43.894  79.862 151.593  1.00  0.00    -0.172 NA
HETATM    7  C8  UNL     1     -47.303  81.010 150.962  1.00  0.00     0.068 C
HETATM    8  C14 UNL     1     -48.201  82.227 150.697  1.00  0.00     0.047 C
HETATM    9  C15 UNL     1     -48.564  82.048 149.240  1.00  0.00     0.146 C
ENDROOT
BRANCH   1  10
HETATM   10  N1  UNL     1     -46.657  82.819 148.030  1.00  0.00    -0.083 NA
BRANCH  10  11
HETATM   11  O4  UNL     1     -46.387  82.715 146.736  1.00  0.00    -0.225 OA
BRANCH  11  12
HETATM   12  C4  UNL     1     -45.027  82.754 146.444  1.00  0.00     0.493 C
HETATM   13  O3  UNL     1     -44.432  81.593 146.940  1.00  0.00    -0.304 OA
HETATM   14  C3  UNL     1     -43.061  81.744 147.142  1.00  0.00     0.307 C
HETATM   15  C17 UNL     1     -42.571  82.792 146.202  1.00  0.00     0.230 C
HETATM   16  C16 UNL     1     -43.149  84.121 146.653  1.00  0.00     0.358 C
HETATM   17  N5  UNL     1     -44.485  83.926 147.119  1.00  0.00     0.005 N
ATOM     18  H52 UNL     1     -45.069  84.754 147.004  1.00  0.00     0.286 HD
ATOM     19  H51 UNL     1     -44.544  83.860 148.136  1.00  0.00     0.286 HD
BRANCH  14  20
HETATM   20  O2  UNL     1     -42.474  80.482 146.982  1.00  0.00    -0.287 OA
BRANCH  20  21
HETATM   21  C2  UNL     1     -42.051  79.719 148.040  1.00  0.00     0.257 C
HETATM   22  C1  UNL     1     -41.096  80.183 149.078  1.00  0.00     0.126 C
HETATM   23  O1  UNL     1     -42.523  78.558 148.102  1.00  0.00    -0.266 OA
ENDBRANCH  20  21
ENDBRANCH  14  20
BRANCH  15  24
HETATM   24  O9  UNL     1     -41.169  82.956 146.298  1.00  0.00    -0.386 OA
ATOM     25  H9  UNL     1     -40.724  82.117 146.342  1.00  0.00     0.210 HD
ENDBRANCH  15  24
BRANCH  16  26
HETATM   26  O8  UNL     1     -43.156  85.022 145.570  1.00  0.00    -0.367 OA
ATOM     27  H8  UNL     1     -43.529  84.596 144.807  1.00  0.00     0.212 HD
ENDBRANCH  16  26
ENDBRANCH  11  12
ENDBRANCH  10  11
ENDBRANCH   1  10
BRANCH   7  28
HETATM   28  C9  UNL     1     -48.106  79.758 150.961  1.00  0.00     0.164 C
BRANCH  28  29
HETATM   29  O5  UNL     1     -47.285  78.760 150.279  1.00  0.00    -0.392 OA
ATOM     30  H5  UNL     1     -47.152  79.093 149.399  1.00  0.00     0.210 HD
ENDBRANCH  28  29
BRANCH  28  31
HETATM   31  C10 UNL     1     -48.382  79.111 152.260  1.00  0.00     0.109 C
HETATM   32  C11 UNL     1     -47.597  79.441 153.461  1.00  0.00     0.069 C
HETATM   33  C12 UNL     1     -48.202  78.418 154.449  1.00  0.00     0.235 C
HETATM   34  N4  UNL     1     -48.552  77.280 153.647  1.00  0.00    -0.072 N
HETATM   35  C13 UNL     1     -48.227  77.585 152.246  1.00  0.00     0.272 C
ATOM     36  H42 UNL     1     -48.113  76.419 153.974  1.00  0.00     0.277 HD
ATOM     37  H41 UNL     1     -49.524  76.996 153.772  1.00  0.00     0.277 HD
BRANCH  31  38
HETATM   38  O6  UNL     1     -49.741  79.338 152.566  1.00  0.00    -0.385 OA
ATOM     39  H6  UNL     1     -50.155  79.691 151.788  1.00  0.00     0.210 HD
ENDBRANCH  31  38
ENDBRANCH  28  31
ENDBRANCH   7  28
BRANCH   9  40
HETATM   40  O7  UNL     1     -49.025  83.252 148.693  1.00  0.00    -0.393 OA
ATOM     41  H7  UNL     1     -49.889  83.133 148.318  1.00  0.00     0.210 HD
ENDBRANCH   9  40
TORSDOF 12
ENDMDL