MODEL 4
REMARK VINA RESULT: -7.578253940      2.243      7.998
REMARK  12 active torsions:
REMARK  status: ('A' for Active; 'I' for Inactive)
REMARK    1  A    between atoms: N1_1  and  C1_4
REMARK    2  A    between atoms: C3_8  and  C4_9
REMARK    3  A    between atoms: C4_9  and  O1_10
REMARK    4  A    between atoms: C4_9  and  N3_12
REMARK    5  A    between atoms: N3_12  and  C5_14
REMARK    6  A    between atoms: C7_16  and  N4_17
REMARK    7  A    between atoms: C9_22  and  N5_23
REMARK    8  A    between atoms: N5_23  and  C10_25
REMARK    9  A    between atoms: C10_25  and  C11_26
REMARK   10  A    between atoms: C11_26  and  N6_27
REMARK   11  A    between atoms: C13_29  and  O2_30
REMARK   12  A    between atoms: C16_40  and  N10_41
REMARK       I    between atoms: N10_41  and  C17_43
REMARK       I    between atoms: C17_43  and  N11_44
REMARK       I    between atoms: C17_43  and  N12_48
ROOT
HETATM    1  C4  UNL     1     -47.969  82.012 148.264  1.00  0.00     0.151 C
ENDROOT
BRANCH   1   2
HETATM    2  C3  UNL     1     -47.665  82.770 147.220  1.00  0.00     0.061 A
HETATM    3  C2  UNL     1     -48.357  82.663 146.029  1.00  0.00     0.159 A
HETATM    4  N2  UNL     1     -49.389  81.853 145.695  1.00  0.00    -0.173 N
HETATM    5  N13 UNL     1     -48.053  83.426 144.967  1.00  0.00    -0.208 N
HETATM    6  C1  UNL     1     -49.721  82.122 144.413  1.00  0.00     0.692 A
ATOM      7  H2  UNL     1     -49.834  81.164 146.301  1.00  0.00     0.186 HD
HETATM    8  N14 UNL     1     -48.901  83.080 143.984  1.00  0.00    -0.122 N
ATOM      9  H14 UNL     1     -48.914  83.489 143.051  1.00  0.00     0.206 HD
HETATM   10  C16 UNL     1     -47.058  84.328 145.025  1.00  0.00     0.128 A
HETATM   11  C15 UNL     1     -46.342  84.475 146.179  1.00  0.00     0.051 A
HETATM   12  C14 UNL     1     -46.647  83.697 147.272  1.00  0.00     0.023 A
BRANCH   6  13
HETATM   13  N1  UNL     1     -50.676  81.535 143.749  1.00  0.00    -0.233 N
ATOM     14  H12 UNL     1     -51.680  81.692 143.828  1.00  0.00     0.174 HD
ATOM     15  H11 UNL     1     -50.537  80.815 143.039  1.00  0.00     0.174 HD
ENDBRANCH   6  13
BRANCH  10  16
HETATM   16  N10 UNL     1     -46.817  85.027 143.967  1.00  0.00    -0.326 N
HETATM   17  C17 UNL     1     -46.030  86.215 143.939  1.00  0.00     0.481 C
HETATM   18  N11 UNL     1     -45.558  86.486 142.579  1.00  0.00    -0.033 N
HETATM   19  N12 UNL     1     -46.636  87.362 144.528  1.00  0.00    -0.033 N
ATOM     20 3H11 UNL     1     -45.057  85.689 142.186  1.00  0.00     0.278 HD
ATOM     21 2H11 UNL     1     -46.328  86.525 141.911  1.00  0.00     0.278 HD
ATOM     22 1H11 UNL     1     -44.995  87.336 142.559  1.00  0.00     0.278 HD
ATOM     23 3H12 UNL     1     -47.546  87.535 144.102  1.00  0.00     0.278 HD
ATOM     24 2H12 UNL     1     -46.923  87.155 145.485  1.00  0.00     0.278 HD
ATOM     25 1H12 UNL     1     -46.073  88.212 144.508  1.00  0.00     0.278 HD
ATOM     26  H10 UNL     1     -47.220  84.706 143.087  1.00  0.00     0.165 HD
ENDBRANCH  10  16
ENDBRANCH   1   2
BRANCH   1  27
HETATM   27  O1  UNL     1     -48.126  80.651 148.044  1.00  0.00    -0.346 OA
ATOM     28  H1  UNL     1     -48.625  80.384 147.281  1.00  0.00     0.219 HD
ENDBRANCH   1  27
BRANCH   1  29
HETATM   29  N3  UNL     1     -48.136  82.511 149.564  1.00  0.00    -0.349 N
ATOM     30  H3  UNL     1     -48.969  83.066 149.758  1.00  0.00     0.163 HD
BRANCH  29  31
HETATM   31  C5  UNL     1     -47.202  82.287 150.652  1.00  0.00     0.186 C
HETATM   32  C6  UNL     1     -47.876  81.704 151.853  1.00  0.00     0.080 C
HETATM   33  C7  UNL     1     -48.172  80.236 151.518  1.00  0.00     0.194 C
HETATM   34  C8  UNL     1     -46.802  79.550 151.657  1.00  0.00     0.108 C
HETATM   35  C9  UNL     1     -45.924  80.213 150.657  1.00  0.00     0.076 C
HETATM   36  N9  UNL     1     -46.132  81.411 150.244  1.00  0.00    -0.359 N
ATOM     37  H9  UNL     1     -45.474  81.780 149.557  1.00  0.00     0.162 HD
BRANCH  33  38
HETATM   38  N4  UNL     1     -49.126  79.664 152.423  1.00  0.00    -0.074 N
ATOM     39  H43 UNL     1     -49.815  79.099 151.927  1.00  0.00     0.274 HD
ATOM     40  H42 UNL     1     -48.703  78.934 152.997  1.00  0.00     0.274 HD
ATOM     41  H41 UNL     1     -49.576  80.376 152.999  1.00  0.00     0.274 HD
ENDBRANCH  33  38
BRANCH  35  42
HETATM   42  N5  UNL     1     -44.806  79.441 150.152  1.00  0.00    -0.378 N
ATOM     43  H5  UNL     1     -44.969  78.477 149.864  1.00  0.00     0.160 HD
BRANCH  42  44
HETATM   44  C10 UNL     1     -43.473  79.979 150.038  1.00  0.00     0.143 C
BRANCH  44  45
HETATM   45  C11 UNL     1     -42.675  79.364 148.908  1.00  0.00     0.169 C
BRANCH  45  46
HETATM   46  N6  UNL     1     -42.019  80.357 148.090  1.00  0.00    -0.283 N
HETATM   47  C12 UNL     1     -42.511  81.456 147.488  1.00  0.00     0.168 A
HETATM   48  C13 UNL     1     -41.475  82.095 146.809  1.00  0.00     0.173 A
HETATM   49  N7  UNL     1     -40.388  81.335 147.038  1.00  0.00    -0.264 N
HETATM   50  N8  UNL     1     -40.727  80.318 147.792  1.00  0.00    -0.239 N
ATOM     51  H7  UNL     1     -39.450  81.521 146.683  1.00  0.00     0.190 HD
ATOM     52  H8  UNL     1     -40.083  79.593 148.108  1.00  0.00     0.208 HD
BRANCH  48  53
HETATM   53  O2  UNL     1     -41.566  83.278 146.054  1.00  0.00    -0.344 OA
ATOM     54  H2  UNL     1     -41.080  83.490 145.266  1.00  0.00     0.219 HD
ENDBRANCH  48  53
ENDBRANCH  45  46
ENDBRANCH  44  45
ENDBRANCH  42  44
ENDBRANCH  35  42
ENDBRANCH  29  31
ENDBRANCH   1  29
TORSDOF 12
ENDMDL