MODEL 3
REMARK VINA RESULT: -6.763617189      4.283      7.380
REMARK  13 active torsions:
REMARK  status: ('A' for Active; 'I' for Inactive)
REMARK    1  A    between atoms: S1_2  and  C2_5
REMARK    2  A    between atoms: C2_5  and  C3_6
REMARK    3  A    between atoms: C2_5  and  O4_23
REMARK    4  A    between atoms: C3_6  and  C4_7
REMARK    5  A    between atoms: C5_8  and  O3_9
REMARK    6  A    between atoms: C6_13  and  N2_14
REMARK    7  A    between atoms: C7_19  and  N4_20
REMARK    8  A    between atoms: O4_23  and  C8_24
REMARK    9  A    between atoms: C8_24  and  O5_25
REMARK   10  A    between atoms: O5_25  and  C9_26
REMARK       I    between atoms: C9_26  and  N5_28
REMARK   11  A    between atoms: C10_30  and  C11_31
REMARK   12  A    between atoms: C11_31  and  O7_32
REMARK   13  A    between atoms: C11_31  and  O8_34
ROOT
HETATM    1  C2  UNL     1     -44.996  83.564 145.826  1.00  0.00     0.166 C
ENDROOT
BRANCH   1   2
HETATM    2  S1  UNL     1     -44.084  82.285 146.575  1.00  0.00     0.193 S
HETATM    3  C1  UNL     1     -42.636  82.834 147.445  1.00  0.00     0.169 C
HETATM    4  O1  UNL     1     -44.951  81.627 147.675  1.00  0.00    -0.221 OA
HETATM    5  O2  UNL     1     -43.695  81.151 145.699  1.00  0.00    -0.221 OA
ENDBRANCH   1   2
BRANCH   1   6
HETATM    6  C3  UNL     1     -46.341  83.909 146.227  1.00  0.00     0.068 C
BRANCH   6   7
HETATM    7  C4  UNL     1     -47.522  83.318 145.653  1.00  0.00     0.063 A
HETATM    8  C5  UNL     1     -48.047  83.615 144.438  1.00  0.00     0.169 A
HETATM    9  N1  UNL     1     -49.146  82.986 143.913  1.00  0.00    -0.170 N
HETATM   10  C6  UNL     1     -49.756  82.028 144.609  1.00  0.00     0.679 A
ATOM     11  H1  UNL     1     -49.496  83.252 142.993  1.00  0.00     0.186 HD
HETATM   12  N3  UNL     1     -49.278  81.699 145.815  1.00  0.00    -0.176 N
HETATM   13  C7  UNL     1     -48.206  82.301 146.344  1.00  0.00     0.129 A
ATOM     14  H3  UNL     1     -49.746  80.966 146.349  1.00  0.00     0.186 HD
BRANCH   8  15
HETATM   15  O3  UNL     1     -47.465  84.623 143.646  1.00  0.00    -0.345 OA
ATOM     16  H3  UNL     1     -47.756  84.752 142.751  1.00  0.00     0.219 HD
ENDBRANCH   8  15
BRANCH  10  17
HETATM   17  N2  UNL     1     -50.815  81.409 144.130  1.00  0.00    -0.234 N
ATOM     18  H22 UNL     1     -51.732  81.853 144.183  1.00  0.00     0.174 HD
ATOM     19  H21 UNL     1     -50.736  80.487 143.700  1.00  0.00     0.174 HD
ENDBRANCH  10  17
BRANCH  13  20
HETATM   20  N4  UNL     1     -47.807  81.948 147.507  1.00  0.00    -0.384 N
ATOM     21  H42 UNL     1     -46.995  82.413 147.913  1.00  0.00     0.157 HD
ATOM     22  H41 UNL     1     -48.297  81.205 148.004  1.00  0.00     0.157 HD
ENDBRANCH  13  20
ENDBRANCH   6   7
ENDBRANCH   1   6
BRANCH   1  23
HETATM   23  O4  UNL     1     -44.161  84.729 145.679  1.00  0.00    -0.314 OA
BRANCH  23  24
HETATM   24  C8  UNL     1     -44.923  85.832 145.395  1.00  0.00     0.358 C
BRANCH  24  25
HETATM   25  O5  UNL     1     -44.862  86.383 144.145  1.00  0.00    -0.276 OA
BRANCH  25  26
HETATM   26  C9  UNL     1     -44.533  87.634 143.726  1.00  0.00     0.387 C
HETATM   27  O6  UNL     1     -44.362  88.507 144.616  1.00  0.00    -0.236 OA
HETATM   28  N5  UNL     1     -44.390  87.942 142.339  1.00  0.00    -0.170 N
HETATM   29  N6  UNL     1     -44.599  86.926 141.419  1.00  0.00    -0.095 NA
HETATM   30  C12 UNL     1     -44.043  89.269 141.963  1.00  0.00     0.230 C
HETATM   31  C10 UNL     1     -44.592  87.425 140.046  1.00  0.00     0.267 C
HETATM   32  N7  UNL     1     -45.032  88.802 139.955  1.00  0.00    -0.307 N
HETATM   33  N8  UNL     1     -44.352  89.729 140.771  1.00  0.00    -0.275 N
ATOM     34  H7  UNL     1     -45.791  89.084 139.335  1.00  0.00     0.182 HD
ATOM     35  H8  UNL     1     -44.121  90.674 140.463  1.00  0.00     0.189 HD
HETATM   36  N9  UNL     1     -43.360  90.127 142.849  1.00  0.00    -0.060 NA
BRANCH  31  37
HETATM   37  C11 UNL     1     -45.448  86.493 139.233  1.00  0.00     0.295 C
BRANCH  37  38
HETATM   38  O7  UNL     1     -46.683  86.351 139.821  1.00  0.00    -0.368 OA
ATOM     39  H7  UNL     1     -47.302  85.989 139.198  1.00  0.00     0.212 HD
ENDBRANCH  37  38
BRANCH  37  40
HETATM   40  O8  UNL     1     -45.518  86.867 137.895  1.00  0.00    -0.368 OA
ATOM     41  H8  UNL     1     -45.450  86.124 137.306  1.00  0.00     0.212 HD
ENDBRANCH  37  40
ENDBRANCH  31  37
ENDBRANCH  25  26
ENDBRANCH  24  25
ENDBRANCH  23  24
ENDBRANCH   1  23
TORSDOF 13
ENDMDL