MODEL 2
REMARK VINA RESULT: -6.210758255      3.876      7.795
REMARK  14 active torsions:
REMARK  status: ('A' for Active; 'I' for Inactive)
REMARK    1  A    between atoms: N1_1  and  C1_5
REMARK    2  A    between atoms: C1_5  and  C2_6
REMARK    3  A    between atoms: C3_8  and  O2_9
REMARK    4  A    between atoms: O2_9  and  C4_10
REMARK    5  A    between atoms: C5_12  and  O4_13
REMARK    6  A    between atoms: O4_13  and  C6_14
REMARK    7  A    between atoms: C7_15  and  N2_16
REMARK    8  A    between atoms: C9_21  and  N3_22
REMARK    9  A    between atoms: C10_28  and  C11_29
REMARK   10  A    between atoms: C11_29  and  O6_30
REMARK   11  A    between atoms: C12_32  and  N5_33
REMARK   12  A    between atoms: C14_38  and  N6_39
REMARK   13  A    between atoms: C16_44  and  N7_45
REMARK   14  A    between atoms: C17_49  and  O7_50
ROOT
HETATM    1  C4  UNL     1     -46.189  83.859 146.597  1.00  0.00     0.296 C
HETATM    2  O3  UNL     1     -45.189  83.669 147.541  1.00  0.00    -0.327 OA
HETATM    3  C5  UNL     1     -44.892  82.326 147.743  1.00  0.00     0.294 C
HETATM    4  C12 UNL     1     -46.044  81.581 148.380  1.00  0.00     0.240 C
HETATM    5  C13 UNL     1     -47.347  82.070 147.783  1.00  0.00     0.075 C
HETATM    6  C14 UNL     1     -47.026  82.604 146.404  1.00  0.00     0.240 C
ENDROOT
BRANCH   3   7
HETATM    7  O4  UNL     1     -43.817  82.255 148.592  1.00  0.00    -0.349 OA
BRANCH   7   8
HETATM    8  C6  UNL     1     -42.812  81.409 148.158  1.00  0.00     0.188 C
HETATM    9  C7  UNL     1     -41.960  82.187 147.195  1.00  0.00     0.218 C
HETATM   10  C8  UNL     1     -40.733  82.798 147.775  1.00  0.00     0.088 C
HETATM   11  C9  UNL     1     -40.964  83.599 149.024  1.00  0.00     0.304 C
HETATM   12  N4  UNL     1     -40.990  82.788 150.219  1.00  0.00    -0.067 NA
HETATM   13  O5  UNL     1     -42.104  82.028 150.301  1.00  0.00    -0.274 OA
HETATM   14  C10 UNL     1     -41.991  81.008 149.360  1.00  0.00     0.202 C
BRANCH   9  15
HETATM   15  N2  UNL     1     -41.547  81.315 146.100  1.00  0.00    -0.072 N
ATOM     16  H23 UNL     1     -41.263  80.392 146.428  1.00  0.00     0.274 HD
ATOM     17  H22 UNL     1     -42.333  81.027 145.518  1.00  0.00     0.274 HD
ATOM     18  H21 UNL     1     -40.815  81.775 145.559  1.00  0.00     0.274 HD
ENDBRANCH   9  15
BRANCH  11  19
HETATM   19  N3  UNL     1     -39.828  84.515 149.164  1.00  0.00    -0.059 N
ATOM     20  H33 UNL     1     -39.639  84.773 150.133  1.00  0.00     0.276 HD
ATOM     21  H32 UNL     1     -38.930  84.072 148.970  1.00  0.00     0.276 HD
ATOM     22  H31 UNL     1     -40.016  85.319 148.565  1.00  0.00     0.276 HD
ENDBRANCH  11  19
BRANCH  14  23
HETATM   23  C11 UNL     1     -42.456  79.667 149.934  1.00  0.00     0.200 C
BRANCH  23  24
HETATM   24  O6  UNL     1     -43.537  79.267 149.115  1.00  0.00    -0.398 OA
ATOM     25  H6  UNL     1     -44.098  78.747 149.677  1.00  0.00     0.209 HD
ENDBRANCH  23  24
ENDBRANCH  14  23
ENDBRANCH   7   8
ENDBRANCH   3   7
BRANCH   4  26
HETATM   26  N5  UNL     1     -46.126  81.811 149.812  1.00  0.00    -0.070 N
ATOM     27  H53 UNL     1     -46.723  81.118 150.262  1.00  0.00     0.274 HD
ATOM     28  H52 UNL     1     -45.244  81.589 150.271  1.00  0.00     0.274 HD
ATOM     29  H51 UNL     1     -46.429  82.759 150.035  1.00  0.00     0.274 HD
ENDBRANCH   4  26
BRANCH   1  30
HETATM   30  O2  UNL     1     -45.686  84.255 145.360  1.00  0.00    -0.329 OA
BRANCH  30  31
HETATM   31  C3  UNL     1     -45.330  85.588 145.368  1.00  0.00     0.265 C
HETATM   32  O1  UNL     1     -45.998  86.346 144.429  1.00  0.00    -0.352 OA
HETATM   33  C2  UNL     1     -45.474  86.327 143.171  1.00  0.00     0.180 C
HETATM   34  C17 UNL     1     -44.020  86.705 143.092  1.00  0.00     0.179 C
HETATM   35  C16 UNL     1     -43.466  86.921 144.504  1.00  0.00     0.219 C
HETATM   36  C15 UNL     1     -43.834  85.693 145.292  1.00  0.00     0.096 C
BRANCH  33  37
HETATM   37  C1  UNL     1     -46.282  87.290 142.312  1.00  0.00     0.264 C
BRANCH  37  38
HETATM   38  N1  UNL     1     -46.415  86.798 140.954  1.00  0.00    -0.077 N
ATOM     39  H13 UNL     1     -47.311  86.332 140.810  1.00  0.00     0.274 HD
ATOM     40  H12 UNL     1     -46.527  87.561 140.288  1.00  0.00     0.274 HD
ATOM     41  H11 UNL     1     -45.634  86.192 140.703  1.00  0.00     0.274 HD
ENDBRANCH  37  38
ENDBRANCH  33  37
BRANCH  34  42
HETATM   42  O7  UNL     1     -43.797  87.873 142.386  1.00  0.00    -0.391 OA
ATOM     43  H7  UNL     1     -42.998  87.853 141.871  1.00  0.00     0.210 HD
ENDBRANCH  34  42
BRANCH  35  44
HETATM   44  N7  UNL     1     -44.021  88.079 145.137  1.00  0.00    -0.072 N
ATOM     45  H73 UNL     1     -45.039  88.038 145.192  1.00  0.00     0.274 HD
ATOM     46  H72 UNL     1     -43.822  88.103 146.137  1.00  0.00     0.274 HD
ATOM     47  H71 UNL     1     -43.694  88.918 144.657  1.00  0.00     0.274 HD
ENDBRANCH  35  44
ENDBRANCH  30  31
ENDBRANCH   1  30
BRANCH   6  48
HETATM   48  N6  UNL     1     -48.311  82.980 145.796  1.00  0.00    -0.070 N
ATOM     49  H63 UNL     1     -48.919  82.175 145.642  1.00  0.00     0.274 HD
ATOM     50  H62 UNL     1     -48.913  83.491 146.443  1.00  0.00     0.274 HD
ATOM     51  H61 UNL     1     -48.129  83.501 144.939  1.00  0.00     0.274 HD
ENDBRANCH   6  48
TORSDOF 14
ENDMDL