MODEL 5
REMARK VINA RESULT: -7.496264531      1.024      1.533
REMARK  16 active torsions:
REMARK  status: ('A' for Active; 'I' for Inactive)
REMARK    1  A    between atoms: C5_8  and  O2_9
REMARK    2  A    between atoms: C6_11  and  O3_12
REMARK    3  A    between atoms: C9_17  and  N3_18
REMARK    4  A    between atoms: C10_20  and  O4_21
REMARK    5  A    between atoms: C10_20  and  N4_23
REMARK    6  A    between atoms: N4_23  and  C11_25
REMARK    7  A    between atoms: C11_25  and  O5_26
REMARK    8  A    between atoms: C11_25  and  C12_28
REMARK    9  A    between atoms: C12_28  and  O6_29
REMARK   10  A    between atoms: C12_28  and  C13_31
REMARK   11  A    between atoms: C13_31  and  C14_33
REMARK   12  A    between atoms: C14_33  and  O8_34
REMARK   13  A    between atoms: C14_33  and  C15_36
REMARK   14  A    between atoms: C15_36  and  O9_37
REMARK   15  A    between atoms: C15_36  and  C16_39
REMARK   16  A    between atoms: C16_39  and  O10_40
ROOT
HETATM    1  N3  UNL     1     -47.506  81.399 148.964  1.00  0.00    -0.307 N
ATOM      2  H3  UNL     1     -48.497  81.625 149.042  1.00  0.00     0.171 HD
HETATM    3  C10 UNL     1     -47.252  80.400 149.824  1.00  0.00     0.220 C
ENDROOT
BRANCH   3   4
HETATM    4  O4  UNL     1     -47.313  79.135 149.520  1.00  0.00    -0.332 OA
ATOM      5  H4  UNL     1     -47.121  78.429 150.125  1.00  0.00     0.220 HD
ENDBRANCH   3   4
BRANCH   3   6
HETATM    6  N4  UNL     1     -46.879  80.576 151.216  1.00  0.00    -0.327 N
ATOM      7  H4  UNL     1     -46.052  81.126 151.449  1.00  0.00     0.165 HD
BRANCH   6   8
HETATM    8  C11 UNL     1     -47.655  79.987 152.268  1.00  0.00     0.257 C
BRANCH   8   9
HETATM    9  O5  UNL     1     -48.893  79.539 151.776  1.00  0.00    -0.374 OA
ATOM     10  H5  UNL     1     -49.219  78.818 152.302  1.00  0.00     0.212 HD
ENDBRANCH   8   9
BRANCH   8  11
HETATM   11  C12 UNL     1     -46.926  78.863 152.978  1.00  0.00     0.238 C
BRANCH  11  12
HETATM   12  O6  UNL     1     -45.693  79.252 153.434  1.00  0.00    -0.384 OA
ATOM     13  H6  UNL     1     -45.058  78.546 153.398  1.00  0.00     0.210 HD
ENDBRANCH  11  12
BRANCH  11  14
HETATM   14  C13 UNL     1     -47.810  78.234 153.973  1.00  0.00     0.190 C
HETATM   15  O7  UNL     1     -48.589  79.000 154.565  1.00  0.00    -0.292 OA
BRANCH  14  16
HETATM   16  C14 UNL     1     -47.776  76.803 154.250  1.00  0.00     0.221 C
BRANCH  16  17
HETATM   17  O8  UNL     1     -46.514  76.292 154.084  1.00  0.00    -0.385 OA
ATOM     18  H8  UNL     1     -46.323  75.626 154.734  1.00  0.00     0.210 HD
ENDBRANCH  16  17
BRANCH  16  19
HETATM   19  C15 UNL     1     -48.759  76.007 153.402  1.00  0.00     0.177 C
BRANCH  19  20
HETATM   20  O9  UNL     1     -49.700  76.934 152.915  1.00  0.00    -0.390 OA
ATOM     21  H9  UNL     1     -50.554  76.610 153.177  1.00  0.00     0.210 HD
ENDBRANCH  19  20
BRANCH  19  22
HETATM   22  C16 UNL     1     -49.511  74.997 154.214  1.00  0.00     0.198 C
BRANCH  22  23
HETATM   23  O10 UNL     1     -48.681  74.105 154.878  1.00  0.00    -0.398 OA
ATOM     24  H10 UNL     1     -48.875  73.197 154.679  1.00  0.00     0.209 HD
ENDBRANCH  22  23
ENDBRANCH  19  22
ENDBRANCH  16  19
ENDBRANCH  14  16
ENDBRANCH  11  14
ENDBRANCH   8  11
ENDBRANCH   6   8
ENDBRANCH   3   6
BRANCH   1  25
HETATM   25  C9  UNL     1     -47.023  82.150 148.119  1.00  0.00     0.127 A
HETATM   26  N1  UNL     1     -45.869  82.830 148.328  1.00  0.00    -0.298 N
HETATM   27  C1  UNL     1     -45.154  82.662 149.605  1.00  0.00     0.161 C
HETATM   28  C2  UNL     1     -45.265  83.671 147.487  1.00  0.00     0.292 A
HETATM   29  O1  UNL     1     -44.171  84.252 147.810  1.00  0.00    -0.259 OA
HETATM   30  S1  UNL     1     -46.009  83.932 145.980  1.00  0.00    -0.028 SA
HETATM   31  C3  UNL     1     -47.452  83.017 145.842  1.00  0.00     0.028 A
HETATM   32  C4  UNL     1     -48.228  83.082 144.675  1.00  0.00     0.059 A
HETATM   33  C8  UNL     1     -47.770  82.249 146.925  1.00  0.00     0.053 A
HETATM   34  C5  UNL     1     -49.380  82.345 144.579  1.00  0.00     0.102 A
HETATM   35  C6  UNL     1     -49.709  81.574 145.652  1.00  0.00     0.124 A
HETATM   36  C7  UNL     1     -48.947  81.499 146.822  1.00  0.00     0.097 A
HETATM   37  N2  UNL     1     -49.387  80.662 147.873  1.00  0.00    -0.098 NA
BRANCH  34  38
HETATM   38  O2  UNL     1     -50.169  82.379 143.454  1.00  0.00    -0.358 OA
ATOM     39  H2  UNL     1     -50.368  81.594 142.958  1.00  0.00     0.217 HD
ENDBRANCH  34  38
BRANCH  35  40
HETATM   40  O3  UNL     1     -50.863  80.804 145.617  1.00  0.00    -0.356 OA
ATOM     41  H3  UNL     1     -51.101  80.278 146.372  1.00  0.00     0.218 HD
ENDBRANCH  35  40
ENDBRANCH   1  25
TORSDOF 16
ENDMDL