MODEL 3
REMARK VINA RESULT: -7.513882981      2.705      4.736
REMARK  19 active torsions:
REMARK  status: ('A' for Active; 'I' for Inactive)
REMARK    1  A    between atoms: N1_1  and  C1_4
REMARK    2  A    between atoms: N3_10  and  C5_11
REMARK    3  A    between atoms: C6_12  and  C7_13
REMARK    4  A    between atoms: C7_13  and  O1_14
REMARK    5  A    between atoms: O1_14  and  C8_15
REMARK    6  A    between atoms: C9_19  and  O2_20
REMARK    7  A    between atoms: C10_22  and  O3_23
REMARK    8  A    between atoms: C11_25  and  N5_26
REMARK    9  A    between atoms: C12_30  and  O4_31
REMARK   10  A    between atoms: C13_33  and  C14_34
REMARK   11  A    between atoms: C14_34  and  S1_35
REMARK   12  A    between atoms: S1_35  and  C15_36
REMARK   13  A    between atoms: C15_36  and  C16_37
REMARK   14  A    between atoms: C16_37  and  C17_38
REMARK   15  A    between atoms: C17_38  and  N6_39
REMARK   16  A    between atoms: N6_39  and  C18_41
REMARK   17  A    between atoms: C19_44  and  N8_45
REMARK   18  A    between atoms: C20_55  and  O5_56
REMARK   19  A    between atoms: C21_58  and  O6_59
ROOT
HETATM    1  C5  UNL     1     -48.692 -33.179 143.223  1.00  0.00     0.155 C
HETATM    2  C6  UNL     1     -48.054 -32.535 142.040  1.00  0.00    -0.025 C
HETATM    3  C13 UNL     1     -48.951 -32.428 141.085  1.00  0.00    -0.033 C
HETATM    4  C20 UNL     1     -50.272 -32.950 141.488  1.00  0.00     0.179 C
HETATM    5  C21 UNL     1     -50.023 -33.697 142.753  1.00  0.00     0.178 C
ENDROOT
BRANCH   3   6
HETATM    6  C14 UNL     1     -48.783 -31.838 139.683  1.00  0.00     0.111 C
BRANCH   6   7
HETATM    7  S1  UNL     1     -48.757 -30.056 139.787  1.00  0.00    -0.165 SA
BRANCH   7   8
HETATM    8  C15 UNL     1     -47.199 -29.268 139.989  1.00  0.00     0.076 C
BRANCH   8   9
HETATM    9  C16 UNL     1     -46.927 -27.995 139.258  1.00  0.00     0.030 C
BRANCH   9  10
HETATM   10  C17 UNL     1     -45.902 -28.128 138.177  1.00  0.00     0.139 C
BRANCH  10  11
HETATM   11  N6  UNL     1     -46.621 -28.382 136.924  1.00  0.00    -0.225 N
ATOM     12  H6  UNL     1     -47.392 -29.049 136.938  1.00  0.00     0.177 HD
BRANCH  11  13
HETATM   13  C18 UNL     1     -46.303 -27.752 135.697  1.00  0.00     0.692 C
HETATM   14  N7  UNL     1     -45.369 -26.845 135.622  1.00  0.00    -0.177 N
HETATM   15  C19 UNL     1     -45.121 -26.263 134.327  1.00  0.00     0.416 C
ATOM     16  H7  UNL     1     -44.835 -26.561 136.443  1.00  0.00     0.181 HD
HETATM   17  N9  UNL     1     -45.178 -27.204 133.256  1.00  0.00    -0.274 N
HETATM   18  N10 UNL     1     -46.242 -28.072 133.304  1.00  0.00    -0.230 N
ATOM     19  H9  UNL     1     -44.481 -27.230 132.512  1.00  0.00     0.185 HD
HETATM   20  N11 UNL     1     -46.974 -28.061 134.482  1.00  0.00    -0.118 N
ATOM     21  H10 UNL     1     -46.477 -28.686 132.524  1.00  0.00     0.208 HD
ATOM     22  H11 UNL     1     -47.972 -28.270 134.476  1.00  0.00     0.207 HD
BRANCH  15  23
HETATM   23  N8  UNL     1     -43.765 -25.701 134.373  1.00  0.00    -0.039 N
ATOM     24  H83 UNL     1     -43.037 -26.410 134.456  1.00  0.00     0.279 HD
ATOM     25  H82 UNL     1     -43.460 -25.310 133.482  1.00  0.00     0.279 HD
ATOM     26  H81 UNL     1     -43.757 -25.023 135.135  1.00  0.00     0.279 HD
ENDBRANCH  15  23
ENDBRANCH  11  13
ENDBRANCH  10  11
ENDBRANCH   9  10
ENDBRANCH   8   9
ENDBRANCH   7   8
ENDBRANCH   6   7
ENDBRANCH   3   6
BRANCH   2  27
HETATM   27  C7  UNL     1     -46.650 -32.089 142.028  1.00  0.00     0.207 C
BRANCH  27  28
HETATM   28  O1  UNL     1     -45.861 -32.952 142.729  1.00  0.00    -0.353 OA
BRANCH  28  29
HETATM   29  C8  UNL     1     -44.516 -32.693 142.768  1.00  0.00     0.355 C
HETATM   30  N4  UNL     1     -43.895 -32.937 141.456  1.00  0.00    -0.018 N
HETATM   31  C9  UNL     1     -42.484 -32.660 141.615  1.00  0.00     0.352 C
ATOM     32  H42 UNL     1     -44.085 -33.867 141.086  1.00  0.00     0.283 HD
ATOM     33  H41 UNL     1     -44.329 -32.409 140.699  1.00  0.00     0.283 HD
HETATM   34  C10 UNL     1     -42.332 -31.153 141.517  1.00  0.00     0.207 C
HETATM   35  C11 UNL     1     -43.531 -30.460 142.139  1.00  0.00     0.249 C
HETATM   36  C12 UNL     1     -44.138 -31.326 143.231  1.00  0.00     0.207 C
BRANCH  31  37
HETATM   37  O2  UNL     1     -41.696 -33.314 140.672  1.00  0.00    -0.368 OA
ATOM     38  H2  UNL     1     -42.098 -33.344 139.812  1.00  0.00     0.212 HD
ENDBRANCH  31  37
BRANCH  34  39
HETATM   39  O3  UNL     1     -41.191 -30.758 142.199  1.00  0.00    -0.389 OA
ATOM     40  H3  UNL     1     -40.464 -31.316 141.950  1.00  0.00     0.210 HD
ENDBRANCH  34  39
BRANCH  35  41
HETATM   41  N5  UNL     1     -43.096 -29.219 142.714  1.00  0.00    -0.070 N
ATOM     42  H53 UNL     1     -43.665 -28.428 142.412  1.00  0.00     0.274 HD
ATOM     43  H52 UNL     1     -43.293 -29.161 143.713  1.00  0.00     0.274 HD
ATOM     44  H51 UNL     1     -42.106 -29.092 142.502  1.00  0.00     0.274 HD
ENDBRANCH  35  41
BRANCH  36  45
HETATM   45  O4  UNL     1     -43.172 -31.414 144.262  1.00  0.00    -0.389 OA
ATOM     46  H4  UNL     1     -42.308 -31.229 143.914  1.00  0.00     0.210 HD
ENDBRANCH  36  45
ENDBRANCH  28  29
ENDBRANCH  27  28
ENDBRANCH   2  27
BRANCH   4  47
HETATM   47  O5  UNL     1     -50.822 -33.815 140.546  1.00  0.00    -0.388 OA
ATOM     48  H5  UNL     1     -51.763 -33.907 140.634  1.00  0.00     0.210 HD
ENDBRANCH   4  47
BRANCH   1  49
HETATM   49  N3  UNL     1     -48.869 -32.221 144.305  1.00  0.00    -0.316 N
HETATM   50  C1  UNL     1     -48.051 -32.180 145.366  1.00  0.00     0.141 A
HETATM   51  C2  UNL     1     -48.218 -31.276 146.390  1.00  0.00     0.166 A
HETATM   52  C3  UNL     1     -49.271 -30.354 146.354  1.00  0.00     0.183 A
HETATM   53  O8  UNL     1     -47.528 -31.031 147.571  1.00  0.00    -0.318 OA
HETATM   54  N2  UNL     1     -50.074 -30.429 145.266  1.00  0.00    -0.330 N
HETATM   55  O7  UNL     1     -49.236 -29.555 147.484  1.00  0.00    -0.307 OA
HETATM   56  C4  UNL     1     -49.877 -31.328 144.283  1.00  0.00     0.187 A
ATOM     57  H2  UNL     1     -50.857 -29.779 145.188  1.00  0.00     0.168 HD
HETATM   58  C22 UNL     1     -48.154 -30.001 148.279  1.00  0.00     0.354 A
BRANCH  50  59
HETATM   59  N1  UNL     1     -47.068 -33.008 145.442  1.00  0.00    -0.383 N
ATOM     60  H12 UNL     1     -46.264 -32.782 146.027  1.00  0.00     0.157 HD
ATOM     61  H11 UNL     1     -47.129 -33.876 144.910  1.00  0.00     0.157 HD
ENDBRANCH  50  59
ENDBRANCH   1  49
BRANCH   5  62
HETATM   62  O6  UNL     1     -49.968 -35.054 142.513  1.00  0.00    -0.390 OA
ATOM     63  H6  UNL     1     -49.729 -35.529 143.301  1.00  0.00     0.210 HD
ENDBRANCH   5  62
TORSDOF 19
ENDMDL