MODEL 4
REMARK VINA RESULT: -6.929446518      3.375      9.527
REMARK  20 active torsions:
REMARK  status: ('A' for Active; 'I' for Inactive)
REMARK    1  A    between atoms: C2_3  and  O2_5
REMARK    2  A    between atoms: O2_5  and  C3_6
REMARK    3  A    between atoms: C3_6  and  C4_7
REMARK    4  A    between atoms: C4_7  and  C5_8
REMARK    5  A    between atoms: C5_8  and  N2_9
REMARK    6  A    between atoms: C7_13  and  C8_14
REMARK    7  A    between atoms: C8_14  and  N4_15
REMARK    8  A    between atoms: C8_14  and  O3_19
REMARK    9  A    between atoms: C9_21  and  N5_22
REMARK   10  A    between atoms: N5_22  and  C10_24
REMARK   11  A    between atoms: C11_27  and  N7_28
REMARK   12  A    between atoms: C15_40  and  N11_41
REMARK   13  A    between atoms: C16_44  and  N12_45
REMARK   14  A    between atoms: N12_45  and  C17_47
REMARK   15  A    between atoms: C18_48  and  O4_49
REMARK   16  A    between atoms: C19_52  and  C20_53
REMARK   17  A    between atoms: C20_53  and  O6_54
REMARK   18  A    between atoms: C20_53  and  C21_56
REMARK   19  A    between atoms: C21_56  and  O7_57
REMARK   20  A    between atoms: C22_59  and  O8_60
ROOT
HETATM    1  N1  UNL     1     -51.400 -33.341 139.554  1.00  0.00    -0.186 NA
HETATM    2  C1  UNL     1     -50.994 -33.396 140.643  1.00  0.00     0.170 C
HETATM    3  C2  UNL     1     -50.494 -33.446 141.989  1.00  0.00     0.365 C
HETATM    4  O1  UNL     1     -50.654 -34.429 142.749  1.00  0.00    -0.247 OA
ENDROOT
BRANCH   3   5
HETATM    5  O2  UNL     1     -49.801 -32.361 142.489  1.00  0.00    -0.310 OA
BRANCH   5   6
HETATM    6  C3  UNL     1     -48.430 -32.453 142.866  1.00  0.00     0.181 C
BRANCH   6   7
HETATM    7  C4  UNL     1     -47.750 -31.141 142.524  1.00  0.00     0.047 C
BRANCH   7   8
HETATM    8  C5  UNL     1     -47.103 -31.325 141.170  1.00  0.00     0.134 C
BRANCH   8   9
HETATM    9  N2  UNL     1     -45.754 -30.802 141.125  1.00  0.00    -0.317 N
HETATM   10  C6  UNL     1     -44.674 -31.374 141.707  1.00  0.00     0.122 A
HETATM   11  N3  UNL     1     -44.483 -32.483 142.438  1.00  0.00    -0.339 N
HETATM   12  C13 UNL     1     -43.585 -30.571 141.433  1.00  0.00     0.041 A
HETATM   13  C7  UNL     1     -43.244 -32.848 142.923  1.00  0.00     0.094 A
ATOM     14  H3  UNL     1     -45.285 -33.080 142.643  1.00  0.00     0.167 HD
HETATM   15  C9  UNL     1     -42.134 -32.088 142.684  1.00  0.00     0.063 A
HETATM   16  C12 UNL     1     -42.353 -30.931 141.915  1.00  0.00     0.049 A
HETATM   17  C14 UNL     1     -44.063 -29.521 140.677  1.00  0.00     0.092 A
HETATM   18  N10 UNL     1     -43.466 -28.450 140.133  1.00  0.00    -0.336 N
HETATM   19  C23 UNL     1     -45.426 -29.669 140.486  1.00  0.00     0.139 A
HETATM   20  C15 UNL     1     -44.159 -27.524 139.410  1.00  0.00     0.144 A
ATOM     21  H10 UNL     1     -42.462 -28.324 140.263  1.00  0.00     0.168 HD
HETATM   22  C16 UNL     1     -45.522 -27.663 139.212  1.00  0.00     0.147 A
HETATM   23  N13 UNL     1     -46.089 -28.747 139.772  1.00  0.00    -0.324 N
ATOM     24  H13 UNL     1     -47.093 -28.877 139.643  1.00  0.00     0.169 HD
BRANCH  13  25
HETATM   25  C8  UNL     1     -43.126 -34.127 143.667  1.00  0.00     0.369 C
BRANCH  25  26
HETATM   26  N4  UNL     1     -42.461 -35.095 142.835  1.00  0.00    -0.047 N
ATOM     27  H43 UNL     1     -42.188 -34.707 141.932  1.00  0.00     0.277 HD
ATOM     28  H42 UNL     1     -41.530 -35.328 143.179  1.00  0.00     0.277 HD
ATOM     29  H41 UNL     1     -43.056 -35.918 142.740  1.00  0.00     0.277 HD
ENDBRANCH  25  26
BRANCH  25  30
HETATM   30  O3  UNL     1     -42.450 -33.942 144.885  1.00  0.00    -0.365 OA
ATOM     31  H3  UNL     1     -42.922 -33.341 145.449  1.00  0.00     0.212 HD
ENDBRANCH  25  30
ENDBRANCH  13  25
BRANCH  15  32
HETATM   32  N5  UNL     1     -40.852 -32.362 143.194  1.00  0.00    -0.326 N
ATOM     33  H5  UNL     1     -40.490 -33.315 143.163  1.00  0.00     0.169 HD
BRANCH  32  34
HETATM   34  C10 UNL     1     -40.041 -31.306 143.763  1.00  0.00     0.194 C
HETATM   35  N6  UNL     1     -40.242 -30.704 144.878  1.00  0.00    -0.319 N
HETATM   36  C11 UNL     1     -39.230 -29.708 145.117  1.00  0.00     0.399 C
ATOM     37  H6  UNL     1     -41.016 -30.904 145.511  1.00  0.00     0.166 HD
HETATM   38  N8  UNL     1     -38.542 -29.569 143.855  1.00  0.00    -0.084 NA
HETATM   39  N9  UNL     1     -38.873 -30.739 143.191  1.00  0.00    -0.271 N
ATOM     40  H9  UNL     1     -38.354 -31.133 142.408  1.00  0.00     0.185 HD
BRANCH  36  41
HETATM   41  N7  UNL     1     -38.304 -30.283 146.099  1.00  0.00    -0.042 N
ATOM     42  H73 UNL     1     -38.300 -29.786 146.990  1.00  0.00     0.278 HD
ATOM     43  H72 UNL     1     -38.609 -31.187 146.461  1.00  0.00     0.278 HD
ATOM     44  H71 UNL     1     -37.389 -30.315 145.651  1.00  0.00     0.278 HD
ENDBRANCH  36  41
ENDBRANCH  32  34
ENDBRANCH  15  32
BRANCH  20  45
HETATM   45  N11 UNL     1     -43.477 -26.547 138.941  1.00  0.00    -0.382 N
ATOM     46 2H11 UNL     1     -43.080 -26.542 138.002  1.00  0.00     0.157 HD
ATOM     47 1H11 UNL     1     -43.342 -25.752 139.565  1.00  0.00     0.157 HD
ENDBRANCH  20  45
BRANCH  22  48
HETATM   48  N12 UNL     1     -46.266 -26.708 138.470  1.00  0.00    -0.361 N
ATOM     49  H12 UNL     1     -46.534 -25.861 138.970  1.00  0.00     0.162 HD
BRANCH  48  50
HETATM   50  C17 UNL     1     -46.681 -26.791 137.117  1.00  0.00     0.169 C
HETATM   51  C18 UNL     1     -46.702 -25.425 136.484  1.00  0.00     0.282 C
HETATM   52  O5  UNL     1     -46.643 -25.713 135.123  1.00  0.00    -0.349 OA
HETATM   53  C19 UNL     1     -45.578 -26.612 135.067  1.00  0.00     0.186 C
HETATM   54  C22 UNL     1     -45.759 -27.570 136.207  1.00  0.00     0.177 C
BRANCH  51  55
HETATM   55  O4  UNL     1     -47.853 -24.713 136.812  1.00  0.00    -0.369 OA
ATOM     56  H4  UNL     1     -48.165 -24.185 136.087  1.00  0.00     0.212 HD
ENDBRANCH  51  55
BRANCH  53  57
HETATM   57  C20 UNL     1     -45.628 -27.260 133.705  1.00  0.00     0.173 C
BRANCH  57  58
HETATM   58  O6  UNL     1     -44.474 -27.036 132.993  1.00  0.00    -0.391 OA
ATOM     59  H6  UNL     1     -43.801 -27.673 133.204  1.00  0.00     0.210 HD
ENDBRANCH  57  58
BRANCH  57  60
HETATM   60  C21 UNL     1     -46.868 -26.808 132.964  1.00  0.00     0.198 C
BRANCH  60  61
HETATM   61  O7  UNL     1     -47.926 -27.616 133.391  1.00  0.00    -0.398 OA
ATOM     62  H7  UNL     1     -48.595 -27.042 133.744  1.00  0.00     0.209 HD
ENDBRANCH  60  61
ENDBRANCH  57  60
ENDBRANCH  53  57
BRANCH  54  63
HETATM   63  O8  UNL     1     -46.416 -28.715 135.698  1.00  0.00    -0.391 OA
ATOM     64  H8  UNL     1     -45.969 -29.040 134.924  1.00  0.00     0.210 HD
ENDBRANCH  54  63
ENDBRANCH  48  50
ENDBRANCH  22  48
ENDBRANCH   8   9
ENDBRANCH   7   8
ENDBRANCH   6   7
ENDBRANCH   5   6
ENDBRANCH   3   5
TORSDOF 20
ENDMDL