MODEL 1
REMARK VINA RESULT: -6.981543210      0.000      0.000
REMARK  19 active torsions:
REMARK  status: ('A' for Active; 'I' for Inactive)
REMARK    1  A    between atoms: S1_2  and  C2_3
REMARK    2  A    between atoms: C3_6  and  C4_7
REMARK    3  A    between atoms: C4_7  and  N2_8
REMARK    4  A    between atoms: C4_7  and  C5_12
REMARK    5  A    between atoms: C5_12  and  O2_13
REMARK    6  A    between atoms: C5_12  and  N3_15
REMARK    7  A    between atoms: N3_15  and  C6_17
REMARK    8  A    between atoms: C7_18  and  C8_19
REMARK    9  A    between atoms: C8_19  and  O3_20
REMARK   10  A    between atoms: C8_19  and  O4_22
REMARK   11  A    between atoms: C10_25  and  N4_26
REMARK   12  A    between atoms: N4_26  and  C11_28
REMARK   13  A    between atoms: C12_30  and  C13_31
REMARK   14  A    between atoms: C13_31  and  O6_32
REMARK   15  A    between atoms: C14_34  and  O7_35
REMARK   16  A    between atoms: O7_35  and  N5_36
REMARK   17  A    between atoms: C15_40  and  C16_41
REMARK   18  A    between atoms: C16_41  and  O9_42
REMARK   19  A    between atoms: C17_44  and  O10_45
ROOT
HETATM    1  C6  UNL     1     -47.015 -35.741 147.206  1.00  0.00     0.068 A
HETATM    2  C7  UNL     1     -48.354 -35.875 146.897  1.00  0.00     0.027 A
HETATM    3  C9  UNL     1     -48.870 -35.304 145.727  1.00  0.00     0.046 A
HETATM    4  C10 UNL     1     -48.094 -34.594 144.843  1.00  0.00     0.066 A
HETATM    5  C17 UNL     1     -46.766 -34.472 145.175  1.00  0.00     0.118 A
HETATM    6  C18 UNL     1     -46.218 -35.034 146.343  1.00  0.00     0.108 A
HETATM    7  N6  UNL     1     -44.823 -34.779 146.594  1.00  0.00    -0.097 NA
ENDROOT
BRANCH   1   8
HETATM    8  N3  UNL     1     -46.510 -36.313 148.391  1.00  0.00    -0.360 N
ATOM      9  H3  UNL     1     -46.153 -37.260 148.268  1.00  0.00     0.162 HD
BRANCH   8  10
HETATM   10  C5  UNL     1     -46.401 -35.838 149.702  1.00  0.00     0.252 C
BRANCH  10  11
HETATM   11  C4  UNL     1     -47.283 -36.302 150.792  1.00  0.00     0.279 C
BRANCH  11  12
HETATM   12  C3  UNL     1     -47.232 -37.777 151.110  1.00  0.00     0.297 C
HETATM   13  N1  UNL     1     -47.957 -37.952 152.343  1.00  0.00    -0.062 NA
HETATM   14  O1  UNL     1     -47.971 -39.222 152.796  1.00  0.00    -0.250 OA
HETATM   15  C2  UNL     1     -48.950 -39.974 152.137  1.00  0.00     0.358 C
HETATM   16  S2  UNL     1     -48.543 -39.874 150.407  1.00  0.00     0.306 S
HETATM   17  O11 UNL     1     -47.821 -38.423 150.027  1.00  0.00    -0.246 OA
HETATM   18  O12 UNL     1     -47.661 -41.016 149.988  1.00  0.00    -0.195 OA
HETATM   19  O13 UNL     1     -49.809 -39.974 149.591  1.00  0.00    -0.195 OA
BRANCH  15  20
HETATM   20  S1  UNL     1     -50.593 -39.275 152.353  1.00  0.00    -0.122 SA
HETATM   21  C1  UNL     1     -51.685 -40.292 153.352  1.00  0.00     0.093 C
ENDBRANCH  15  20
ENDBRANCH  11  12
BRANCH  11  22
HETATM   22  N2  UNL     1     -48.587 -35.738 150.880  1.00  0.00    -0.067 N
ATOM     23  H23 UNL     1     -48.685 -35.192 151.736  1.00  0.00     0.275 HD
ATOM     24  H22 UNL     1     -48.705 -34.998 150.190  1.00  0.00     0.275 HD
ATOM     25  H21 UNL     1     -49.340 -36.423 150.804  1.00  0.00     0.275 HD
ENDBRANCH  11  22
ENDBRANCH  10  11
BRANCH  10  26
HETATM   26  O2  UNL     1     -46.490 -34.404 149.762  1.00  0.00    -0.375 OA
ATOM     27  H2  UNL     1     -45.658 -34.135 150.134  1.00  0.00     0.212 HD
ENDBRANCH  10  26
ENDBRANCH   8  10
ENDBRANCH   1   8
BRANCH   2  28
HETATM   28  C8  UNL     1     -49.355 -36.568 147.738  1.00  0.00     0.290 C
BRANCH  28  29
HETATM   29  O3  UNL     1     -50.652 -36.222 147.227  1.00  0.00    -0.367 OA
ATOM     30  H3  UNL     1     -50.997 -35.533 147.783  1.00  0.00     0.213 HD
ENDBRANCH  28  29
BRANCH  28  31
HETATM   31  O4  UNL     1     -49.257 -37.937 147.474  1.00  0.00    -0.367 OA
ATOM     32  H4  UNL     1     -49.334 -38.397 148.302  1.00  0.00     0.213 HD
ENDBRANCH  28  31
ENDBRANCH   2  28
BRANCH   5  33
HETATM   33  O10 UNL     1     -45.896 -33.782 144.365  1.00  0.00    -0.357 OA
ATOM     34  H10 UNL     1     -46.105 -33.615 143.453  1.00  0.00     0.218 HD
ENDBRANCH   5  33
BRANCH   4  35
HETATM   35  N4  UNL     1     -48.608 -34.054 143.633  1.00  0.00    -0.359 N
ATOM     36  H4  UNL     1     -48.291 -34.483 142.763  1.00  0.00     0.162 HD
BRANCH  35  37
HETATM   37  C11 UNL     1     -49.530 -32.962 143.521  1.00  0.00     0.253 C
HETATM   38  O5  UNL     1     -50.331 -33.089 142.369  1.00  0.00    -0.352 OA
HETATM   39  C12 UNL     1     -49.612 -33.153 141.223  1.00  0.00     0.205 C
HETATM   40  C14 UNL     1     -48.443 -32.234 141.093  1.00  0.00     0.319 C
HETATM   41  O8  UNL     1     -47.737 -32.114 142.311  1.00  0.00    -0.344 OA
HETATM   42  C15 UNL     1     -48.716 -31.700 143.243  1.00  0.00     0.197 C
BRANCH  39  43
HETATM   43  C13 UNL     1     -50.525 -32.872 140.023  1.00  0.00     0.201 C
BRANCH  43  44
HETATM   44  O6  UNL     1     -51.626 -33.703 140.121  1.00  0.00    -0.398 OA
ATOM     45  H6  UNL     1     -51.686 -34.005 141.021  1.00  0.00     0.209 HD
ENDBRANCH  43  44
ENDBRANCH  39  43
BRANCH  40  46
HETATM   46  O7  UNL     1     -48.754 -30.962 140.642  1.00  0.00    -0.252 OA
BRANCH  46  47
HETATM   47  N5  UNL     1     -47.696 -30.430 140.016  1.00  0.00    -0.308 N
ATOM     48  H52 UNL     1     -47.408 -30.672 139.068  1.00  0.00     0.184 HD
ATOM     49  H51 UNL     1     -47.235 -29.756 140.628  1.00  0.00     0.184 HD
ENDBRANCH  46  47
ENDBRANCH  40  46
BRANCH  42  50
HETATM   50  C16 UNL     1     -48.045 -31.096 144.412  1.00  0.00     0.200 C
BRANCH  50  51
HETATM   51  O9  UNL     1     -46.657 -31.008 144.267  1.00  0.00    -0.398 OA
ATOM     52  H9  UNL     1     -46.254 -31.831 144.017  1.00  0.00     0.209 HD
ENDBRANCH  50  51
ENDBRANCH  42  50
ENDBRANCH  35  37
ENDBRANCH   4  35
TORSDOF 19
ENDMDL