MODEL 3
REMARK VINA RESULT: -6.505555680      3.455      4.981
REMARK  19 active torsions:
REMARK  status: ('A' for Active; 'I' for Inactive)
REMARK    1  A    between atoms: C1_2  and  C2_4
REMARK    2  A    between atoms: C2_4  and  O3_5
REMARK    3  A    between atoms: C3_7  and  C4_8
REMARK    4  A    between atoms: C4_8  and  O4_9
REMARK    5  A    between atoms: C5_12  and  O6_13
REMARK    6  A    between atoms: O6_13  and  C6_14
REMARK    7  A    between atoms: C7_15  and  C8_16
REMARK    8  A    between atoms: C8_16  and  O7_17
REMARK    9  A    between atoms: C9_20  and  S1_21
REMARK   10  A    between atoms: S1_21  and  C10_22
REMARK   11  A    between atoms: C11_24  and  C12_25
REMARK   12  A    between atoms: C12_25  and  O10_26
REMARK   13  A    between atoms: C13_28  and  O11_29
REMARK   14  A    between atoms: C14_31  and  S2_32
REMARK   15  A    between atoms: C15_35  and  O13_36
REMARK   16  A    between atoms: C16_38  and  O14_39
REMARK   17  A    between atoms: C17_41  and  O15_42
REMARK   18  A    between atoms: C18_44  and  N1_45
REMARK   19  A    between atoms: N1_45  and  O16_46
ROOT
HETATM    1  C6  UNL     1     -47.709 -34.063 147.085  1.00  0.00     0.187 C
HETATM    2  C7  UNL     1     -48.460 -34.469 145.886  1.00  0.00     0.178 C
HETATM    3  O8  UNL     1     -49.369 -33.491 145.554  1.00  0.00    -0.363 OA
HETATM    4  C9  UNL     1     -48.926 -32.213 145.559  1.00  0.00     0.219 C
HETATM    5  C15 UNL     1     -47.511 -31.941 145.896  1.00  0.00     0.188 C
HETATM    6  C16 UNL     1     -46.890 -32.804 146.935  1.00  0.00     0.181 C
ENDROOT
BRANCH   1   7
HETATM    7  O6  UNL     1     -46.970 -35.012 147.725  1.00  0.00    -0.348 OA
BRANCH   7   8
HETATM    8  C5  UNL     1     -47.360 -35.399 148.975  1.00  0.00     0.291 C
HETATM    9  O5  UNL     1     -48.449 -36.243 148.820  1.00  0.00    -0.347 OA
HETATM   10  C3  UNL     1     -48.092 -37.554 148.554  1.00  0.00     0.195 C
HETATM   11  C2  UNL     1     -47.517 -38.177 149.807  1.00  0.00     0.196 C
HETATM   12  C18 UNL     1     -46.568 -37.237 150.506  1.00  0.00     0.187 C
HETATM   13  C17 UNL     1     -46.172 -36.067 149.643  1.00  0.00     0.198 C
BRANCH  10  14
HETATM   14  C4  UNL     1     -49.211 -38.358 147.967  1.00  0.00     0.199 C
BRANCH  14  15
HETATM   15  O4  UNL     1     -48.728 -39.315 147.100  1.00  0.00    -0.398 OA
ATOM     16  H4  UNL     1     -48.467 -40.097 147.570  1.00  0.00     0.209 HD
ENDBRANCH  14  15
ENDBRANCH  10  14
BRANCH  11  17
HETATM   17  C1  UNL     1     -48.603 -38.673 150.709  1.00  0.00     0.213 C
HETATM   18  O1  UNL     1     -48.631 -39.871 151.132  1.00  0.00    -0.646 OA
HETATM   19  O2  UNL     1     -49.646 -37.864 151.141  1.00  0.00    -0.646 OA
ENDBRANCH  11  17
BRANCH  11  20
HETATM   20  O3  UNL     1     -46.751 -39.301 149.458  1.00  0.00    -0.375 OA
ATOM     21  H3  UNL     1     -46.141 -39.440 150.173  1.00  0.00     0.211 HD
ENDBRANCH  11  20
BRANCH  12  22
HETATM   22  N1  UNL     1     -47.216 -36.770 151.706  1.00  0.00    -0.092 NA
BRANCH  22  23
HETATM   23  O16 UNL     1     -46.365 -36.680 152.753  1.00  0.00    -0.295 OA
ATOM     24  H16 UNL     1     -46.783 -36.336 153.533  1.00  0.00     0.238 HD
ENDBRANCH  22  23
ENDBRANCH  12  22
BRANCH  13  25
HETATM   25  O15 UNL     1     -45.388 -35.155 150.348  1.00  0.00    -0.389 OA
ATOM     26  H15 UNL     1     -45.047 -34.469 149.786  1.00  0.00     0.210 HD
ENDBRANCH  13  25
ENDBRANCH   7   8
ENDBRANCH   1   7
BRANCH   2  27
HETATM   27  C8  UNL     1     -47.702 -34.861 144.680  1.00  0.00     0.198 C
BRANCH  27  28
HETATM   28  O7  UNL     1     -46.401 -35.292 145.014  1.00  0.00    -0.398 OA
ATOM     29  H7  UNL     1     -46.089 -35.949 144.401  1.00  0.00     0.209 HD
ENDBRANCH  27  28
ENDBRANCH   2  27
BRANCH   6  30
HETATM   30  O14 UNL     1     -45.544 -33.077 146.695  1.00  0.00    -0.390 OA
ATOM     31  H14 UNL     1     -45.170 -32.494 146.046  1.00  0.00     0.210 HD
ENDBRANCH   6  30
BRANCH   5  32
HETATM   32  O13 UNL     1     -47.460 -30.609 146.387  1.00  0.00    -0.389 OA
ATOM     33  H13 UNL     1     -47.388 -30.043 145.628  1.00  0.00     0.210 HD
ENDBRANCH   5  32
BRANCH   4  34
HETATM   34  S1  UNL     1     -49.309 -31.497 143.937  1.00  0.00    -0.075 SA
BRANCH  34  35
HETATM   35  C10 UNL     1     -47.999 -31.791 142.732  1.00  0.00     0.329 C
HETATM   36  O9  UNL     1     -48.513 -32.753 141.830  1.00  0.00    -0.342 OA
HETATM   37  C11 UNL     1     -49.540 -32.196 141.065  1.00  0.00     0.181 C
HETATM   38  C13 UNL     1     -48.890 -31.249 140.066  1.00  0.00     0.189 C
HETATM   39  C14 UNL     1     -47.491 -30.969 140.631  1.00  0.00     0.229 C
HETATM   40  O12 UNL     1     -47.678 -30.669 141.982  1.00  0.00    -0.333 OA
BRANCH  37  41
HETATM   41  C12 UNL     1     -50.192 -33.303 140.279  1.00  0.00     0.199 C
BRANCH  41  42
HETATM   42  O10 UNL     1     -51.408 -32.908 139.733  1.00  0.00    -0.398 OA
ATOM     43  H10 UNL     1     -51.758 -33.559 139.137  1.00  0.00     0.209 HD
ENDBRANCH  41  42
ENDBRANCH  37  41
BRANCH  38  44
HETATM   44  O11 UNL     1     -48.842 -31.784 138.801  1.00  0.00    -0.389 OA
ATOM     45  H11 UNL     1     -49.678 -32.148 138.534  1.00  0.00     0.210 HD
ENDBRANCH  38  44
BRANCH  39  46
HETATM   46  S2  UNL     1     -46.755 -29.557 139.793  1.00  0.00    -0.050 SA
HETATM   47  S3  UNL     1     -44.893 -29.097 140.693  1.00  0.00    -0.011 SA
ENDBRANCH  39  46
ENDBRANCH  34  35
ENDBRANCH   4  34
TORSDOF 19
ENDMDL