MODEL 2
REMARK VINA RESULT: -6.832231508      3.049      4.310
REMARK  20 active torsions:
REMARK  status: ('A' for Active; 'I' for Inactive)
REMARK    1  A    between atoms: N1_1  and  N2_4
REMARK    2  A    between atoms: N2_4  and  C1_5
REMARK    3  A    between atoms: C2_6  and  O1_7
REMARK    4  A    between atoms: O1_7  and  C3_8
REMARK    5  A    between atoms: C5_10  and  O2_11
REMARK    6  A    between atoms: C6_13  and  S1_14
REMARK    7  A    between atoms: S1_14  and  S2_15
REMARK    8  A    between atoms: S2_15  and  C7_16
REMARK    9  A    between atoms: C8_18  and  O4_19
REMARK   10  A    between atoms: O4_19  and  C9_20
REMARK   11  A    between atoms: C10_21  and  N3_22
REMARK   12  A    between atoms: C12_27  and  N4_28
REMARK   13  A    between atoms: C13_32  and  O5_33
REMARK   14  A    between atoms: C14_35  and  O6_36
REMARK   15  A    between atoms: C15_38  and  N5_39
REMARK   16  A    between atoms: C17_44  and  N6_45
REMARK   17  A    between atoms: C18_51  and  C19_52
REMARK   18  A    between atoms: C19_52  and  O9_53
REMARK   19  A    between atoms: C20_55  and  O10_56
REMARK   20  A    between atoms: C21_58  and  O11_59
ROOT
HETATM    1  C7  UNL     1     -45.825 -30.766 141.576  1.00  0.00     0.227 C
HETATM    2  O3  UNL     1     -44.966 -30.184 140.638  1.00  0.00    -0.341 OA
HETATM    3  C8  UNL     1     -43.836 -29.654 141.257  1.00  0.00     0.292 C
HETATM    4  C15 UNL     1     -44.306 -28.442 142.027  1.00  0.00     0.240 C
HETATM    5  C16 UNL     1     -45.233 -28.893 143.121  1.00  0.00     0.074 C
HETATM    6  C17 UNL     1     -46.296 -29.850 142.623  1.00  0.00     0.225 C
ENDROOT
BRANCH   1   7
HETATM    7  S2  UNL     1     -46.993 -31.799 140.746  1.00  0.00    -0.060 SA
BRANCH   7   8
HETATM    8  S1  UNL     1     -49.000 -31.563 141.181  1.00  0.00    -0.060 SA
BRANCH   8   9
HETATM    9  C6  UNL     1     -49.657 -32.525 142.544  1.00  0.00     0.225 C
HETATM   10  C5  UNL     1     -50.272 -33.819 142.153  1.00  0.00     0.162 C
HETATM   11  C4  UNL     1     -49.845 -34.796 143.201  1.00  0.00     0.096 C
HETATM   12  C3  UNL     1     -48.612 -34.141 143.751  1.00  0.00     0.267 C
HETATM   13  O7  UNL     1     -48.685 -32.820 143.474  1.00  0.00    -0.342 OA
BRANCH  10  14
HETATM   14  O2  UNL     1     -51.674 -33.714 142.100  1.00  0.00    -0.392 OA
ATOM     15  H2  UNL     1     -51.942 -32.826 141.893  1.00  0.00     0.210 HD
ENDBRANCH  10  14
BRANCH  12  16
HETATM   16  O1  UNL     1     -48.581 -34.441 145.113  1.00  0.00    -0.330 OA
BRANCH  16  17
HETATM   17  C2  UNL     1     -47.344 -34.768 145.601  1.00  0.00     0.287 C
HETATM   18  C1  UNL     1     -46.971 -33.686 146.623  1.00  0.00     0.185 C
HETATM   19  C21 UNL     1     -48.185 -33.448 147.491  1.00  0.00     0.175 C
HETATM   20  C20 UNL     1     -48.713 -34.734 148.078  1.00  0.00     0.179 C
HETATM   21  C18 UNL     1     -48.678 -35.861 147.057  1.00  0.00     0.179 C
HETATM   22  O8  UNL     1     -47.488 -35.943 146.369  1.00  0.00    -0.349 OA
BRANCH  18  23
HETATM   23  N2  UNL     1     -45.892 -34.161 147.428  1.00  0.00    -0.136 NA
BRANCH  23  24
HETATM   24  N1  UNL     1     -44.932 -34.868 146.744  1.00  0.00    -0.348 N
ATOM     25  H12 UNL     1     -44.110 -34.412 146.348  1.00  0.00     0.172 HD
ATOM     26  H11 UNL     1     -45.110 -35.869 146.671  1.00  0.00     0.172 HD
ENDBRANCH  23  24
ENDBRANCH  18  23
BRANCH  19  27
HETATM   27  O11 UNL     1     -47.877 -32.584 148.523  1.00  0.00    -0.391 OA
ATOM     28  H11 UNL     1     -48.668 -32.191 148.875  1.00  0.00     0.210 HD
ENDBRANCH  19  27
BRANCH  20  29
HETATM   29  O10 UNL     1     -50.064 -34.535 148.403  1.00  0.00    -0.390 OA
ATOM     30  H10 UNL     1     -50.089 -34.317 149.328  1.00  0.00     0.210 HD
ENDBRANCH  20  29
BRANCH  21  31
HETATM   31  C19 UNL     1     -48.903 -37.155 147.823  1.00  0.00     0.198 C
BRANCH  31  32
HETATM   32  O9  UNL     1     -50.249 -37.518 147.802  1.00  0.00    -0.398 OA
ATOM     33  H9  UNL     1     -50.508 -37.811 146.937  1.00  0.00     0.209 HD
ENDBRANCH  31  32
ENDBRANCH  21  31
ENDBRANCH  16  17
ENDBRANCH  12  16
ENDBRANCH   8   9
ENDBRANCH   7   8
ENDBRANCH   1   7
BRANCH   6  34
HETATM   34  N6  UNL     1     -46.814 -30.591 143.756  1.00  0.00    -0.072 N
ATOM     35  H63 UNL     1     -47.802 -30.815 143.642  1.00  0.00     0.274 HD
ATOM     36  H62 UNL     1     -46.444 -31.541 143.787  1.00  0.00     0.274 HD
ATOM     37  H61 UNL     1     -46.638 -30.089 144.626  1.00  0.00     0.274 HD
ENDBRANCH   6  34
BRANCH   3  38
HETATM   38  O4  UNL     1     -43.262 -30.517 142.187  1.00  0.00    -0.349 OA
BRANCH  38  39
HETATM   39  C9  UNL     1     -42.709 -31.639 141.597  1.00  0.00     0.186 C
HETATM   40  C10 UNL     1     -41.341 -31.868 142.152  1.00  0.00     0.217 C
HETATM   41  C11 UNL     1     -41.286 -32.230 143.597  1.00  0.00     0.071 C
HETATM   42  C12 UNL     1     -42.317 -33.245 144.008  1.00  0.00     0.216 C
HETATM   43  C13 UNL     1     -43.680 -32.879 143.456  1.00  0.00     0.179 C
HETATM   44  C14 UNL     1     -43.576 -32.827 141.947  1.00  0.00     0.180 C
BRANCH  40  45
HETATM   45  N3  UNL     1     -40.633 -32.880 141.388  1.00  0.00    -0.072 N
ATOM     46  H33 UNL     1     -40.836 -32.809 140.391  1.00  0.00     0.274 HD
ATOM     47  H32 UNL     1     -39.630 -32.693 141.354  1.00  0.00     0.274 HD
ATOM     48  H31 UNL     1     -40.830 -33.813 141.747  1.00  0.00     0.274 HD
ENDBRANCH  40  45
BRANCH  42  49
HETATM   49  N4  UNL     1     -41.945 -34.597 143.652  1.00  0.00    -0.072 N
ATOM     50  H43 UNL     1     -41.843 -34.695 142.642  1.00  0.00     0.274 HD
ATOM     51  H42 UNL     1     -40.985 -34.798 143.936  1.00  0.00     0.274 HD
ATOM     52  H41 UNL     1     -42.589 -35.295 144.025  1.00  0.00     0.274 HD
ENDBRANCH  42  49
BRANCH  43  53
HETATM   53  O5  UNL     1     -44.621 -33.817 143.875  1.00  0.00    -0.391 OA
ATOM     54  H5  UNL     1     -45.205 -33.421 144.510  1.00  0.00     0.210 HD
ENDBRANCH  43  53
BRANCH  44  55
HETATM   55  O6  UNL     1     -43.056 -34.015 141.437  1.00  0.00    -0.390 OA
ATOM     56  H6  UNL     1     -43.739 -34.651 141.257  1.00  0.00     0.210 HD
ENDBRANCH  44  55
ENDBRANCH  38  39
ENDBRANCH   3  38
BRANCH   4  57
HETATM   57  N5  UNL     1     -44.975 -27.478 141.182  1.00  0.00    -0.070 N
ATOM     58  H53 UNL     1     -45.841 -27.860 140.802  1.00  0.00     0.274 HD
ATOM     59  H52 UNL     1     -45.362 -26.712 141.734  1.00  0.00     0.274 HD
ATOM     60  H51 UNL     1     -44.370 -27.128 140.440  1.00  0.00     0.274 HD
ENDBRANCH   4  57
TORSDOF 20
ENDMDL