MODEL 3
REMARK VINA RESULT: -6.644711335      2.749      6.845
REMARK  21 active torsions:
REMARK  status: ('A' for Active; 'I' for Inactive)
REMARK    1  A    between atoms: C2_2  and  O1_6
REMARK    2  A    between atoms: O1_6  and  C3_7
REMARK    3  A    between atoms: C3_7  and  C4_8
REMARK    4  A    between atoms: C5_12  and  S1_13
REMARK    5  A    between atoms: C6_15  and  O2_16
REMARK    6  A    between atoms: C7_18  and  O3_19
REMARK    7  A    between atoms: O3_19  and  C8_20
REMARK    8  A    between atoms: C9_22  and  C10_23
REMARK    9  A    between atoms: C10_23  and  O5_24
REMARK   10  A    between atoms: O5_24  and  C11_25
REMARK   11  A    between atoms: C12_27  and  C13_28
REMARK   12  A    between atoms: C13_28  and  O7_29
REMARK   13  A    between atoms: C13_28  and  C14_31
REMARK   14  A    between atoms: C14_31  and  O8_32
REMARK   15  A    between atoms: C14_31  and  C15_34
REMARK   16  A    between atoms: C15_34  and  O9_35
REMARK   17  A    between atoms: C16_37  and  O10_38
REMARK   18  A    between atoms: C17_40  and  O11_41
REMARK   19  A    between atoms: C18_43  and  O12_44
REMARK   20  A    between atoms: C19_46  and  N3_47
REMARK   21  A    between atoms: C20_51  and  O13_52
ROOT
HETATM    1  C8  UNL     1     -43.989 -32.556 142.411  1.00  0.00     0.294 C
HETATM    2  O4  UNL     1     -44.308 -33.496 143.351  1.00  0.00    -0.348 OA
HETATM    3  C9  UNL     1     -43.450 -33.657 144.400  1.00  0.00     0.179 C
HETATM    4  C18 UNL     1     -42.085 -34.034 143.878  1.00  0.00     0.182 C
HETATM    5  C19 UNL     1     -41.590 -32.852 143.074  1.00  0.00     0.247 C
HETATM    6  C20 UNL     1     -42.557 -32.646 141.944  1.00  0.00     0.206 C
ENDROOT
BRANCH   1   7
HETATM    7  O3  UNL     1     -44.813 -32.832 141.303  1.00  0.00    -0.326 OA
BRANCH   7   8
HETATM    8  C7  UNL     1     -45.427 -31.653 140.812  1.00  0.00     0.297 C
HETATM    9  C6  UNL     1     -44.796 -30.536 141.563  1.00  0.00     0.215 C
HETATM   10  C5  UNL     1     -45.781 -29.414 141.740  1.00  0.00     0.295 C
HETATM   11  N2  UNL     1     -46.733 -29.525 140.616  1.00  0.00    -0.030 N
HETATM   12  C4  UNL     1     -47.529 -30.688 140.867  1.00  0.00     0.349 C
ATOM     13  H22 UNL     1     -46.278 -29.537 139.703  1.00  0.00     0.281 HD
ATOM     14  H21 UNL     1     -47.287 -28.681 140.472  1.00  0.00     0.281 HD
HETATM   15  O14 UNL     1     -46.768 -31.844 140.974  1.00  0.00    -0.324 OA
BRANCH   9  16
HETATM   16  O2  UNL     1     -43.721 -30.006 140.821  1.00  0.00    -0.388 OA
ATOM     17  H2  UNL     1     -43.166 -29.551 141.442  1.00  0.00     0.210 HD
ENDBRANCH   9  16
BRANCH  10  18
HETATM   18  S1  UNL     1     -44.984 -27.806 141.695  1.00  0.00    -0.049 SA
HETATM   19  S2  UNL     1     -43.958 -27.384 143.494  1.00  0.00    -0.011 SA
ENDBRANCH  10  18
BRANCH  12  20
HETATM   20  C3  UNL     1     -48.744 -30.825 140.006  1.00  0.00     0.238 C
BRANCH  20  21
HETATM   21  O1  UNL     1     -49.127 -32.135 139.690  1.00  0.00    -0.336 OA
BRANCH  21  22
HETATM   22  C2  UNL     1     -50.154 -32.834 140.263  1.00  0.00     0.107 C
HETATM   23  C1  UNL     1     -50.145 -33.223 141.692  1.00  0.00     0.097 C
HETATM   24  N1  UNL     1     -51.150 -33.135 139.462  1.00  0.00    -0.384 N
ATOM     25  H12 UNL     1     -51.916 -33.656 139.889  1.00  0.00     0.157 HD
ATOM     26  H11 UNL     1     -51.156 -32.867 138.478  1.00  0.00     0.157 HD
ENDBRANCH  21  22
ENDBRANCH  20  21
ENDBRANCH  12  20
ENDBRANCH   7   8
ENDBRANCH   1   7
BRANCH   6  27
HETATM   27  O13 UNL     1     -42.387 -33.721 141.050  1.00  0.00    -0.388 OA
ATOM     28  H13 UNL     1     -41.573 -34.180 141.223  1.00  0.00     0.210 HD
ENDBRANCH   6  27
BRANCH   3  29
HETATM   29  C10 UNL     1     -43.990 -34.834 145.226  1.00  0.00     0.205 C
BRANCH  29  30
HETATM   30  O5  UNL     1     -45.030 -34.364 146.000  1.00  0.00    -0.356 OA
BRANCH  30  31
HETATM   31  C11 UNL     1     -46.189 -35.109 145.865  1.00  0.00     0.291 C
HETATM   32  O6  UNL     1     -46.848 -35.255 147.107  1.00  0.00    -0.348 OA
HETATM   33  C12 UNL     1     -48.049 -35.846 146.642  1.00  0.00     0.187 C
HETATM   34  C16 UNL     1     -48.525 -34.815 145.679  1.00  0.00     0.183 C
HETATM   35  C17 UNL     1     -47.212 -34.417 144.992  1.00  0.00     0.204 C
BRANCH  33  36
HETATM   36  C13 UNL     1     -48.962 -36.152 147.779  1.00  0.00     0.180 C
BRANCH  36  37
HETATM   37  O7  UNL     1     -50.288 -36.327 147.349  1.00  0.00    -0.390 OA
ATOM     38  H7  UNL     1     -50.643 -37.160 147.635  1.00  0.00     0.210 HD
ENDBRANCH  36  37
BRANCH  36  39
HETATM   39  C14 UNL     1     -48.581 -37.401 148.500  1.00  0.00     0.173 C
BRANCH  39  40
HETATM   40  O8  UNL     1     -48.733 -37.213 149.877  1.00  0.00    -0.391 OA
ATOM     41  H8  UNL     1     -49.640 -37.356 150.120  1.00  0.00     0.210 HD
ENDBRANCH  39  40
BRANCH  39  42
HETATM   42  C15 UNL     1     -49.289 -38.649 148.108  1.00  0.00     0.198 C
BRANCH  42  43
HETATM   43  O9  UNL     1     -48.836 -39.273 146.967  1.00  0.00    -0.398 OA
ATOM     44  H9  UNL     1     -47.914 -39.162 146.766  1.00  0.00     0.209 HD
ENDBRANCH  42  43
ENDBRANCH  39  42
ENDBRANCH  36  39
ENDBRANCH  33  36
BRANCH  34  45
HETATM   45  O10 UNL     1     -49.073 -33.692 146.269  1.00  0.00    -0.390 OA
ATOM     46  H10 UNL     1     -49.998 -33.768 146.474  1.00  0.00     0.210 HD
ENDBRANCH  34  45
BRANCH  35  47
HETATM   47  O11 UNL     1     -47.038 -33.032 145.006  1.00  0.00    -0.388 OA
ATOM     48  H11 UNL     1     -47.799 -32.585 144.654  1.00  0.00     0.210 HD
ENDBRANCH  35  47
ENDBRANCH  30  31
ENDBRANCH  29  30
ENDBRANCH   3  29
BRANCH   5  49
HETATM   49  N3  UNL     1     -40.274 -33.108 142.507  1.00  0.00    -0.070 N
ATOM     50  H33 UNL     1     -39.532 -32.888 143.171  1.00  0.00     0.274 HD
ATOM     51  H32 UNL     1     -40.100 -34.108 142.403  1.00  0.00     0.274 HD
ATOM     52  H31 UNL     1     -40.146 -32.613 141.625  1.00  0.00     0.274 HD
ENDBRANCH   5  49
BRANCH   4  53
HETATM   53  O12 UNL     1     -42.245 -35.103 143.007  1.00  0.00    -0.391 OA
ATOM     54  H12 UNL     1     -41.385 -35.465 142.831  1.00  0.00     0.210 HD
ENDBRANCH   4  53
TORSDOF 21
ENDMDL