MODEL 4
REMARK VINA RESULT: -6.770983849      3.551      7.010
REMARK  23 active torsions:
REMARK  status: ('A' for Active; 'I' for Inactive)
REMARK    1  A    between atoms: C2_2  and  O1_3
REMARK    2  A    between atoms: C3_6  and  C4_7
REMARK    3  A    between atoms: C4_7  and  O2_8
REMARK    4  A    between atoms: O2_8  and  C5_9
REMARK    5  A    between atoms: C6_10  and  O3_11
REMARK    6  A    between atoms: O3_11  and  C7_12
REMARK    7  A    between atoms: C8_14  and  C9_15
REMARK    8  A    between atoms: C9_15  and  O5_16
REMARK    9  A    between atoms: C10_18  and  O6_19
REMARK   10  A    between atoms: C11_21  and  O7_22
REMARK   11  A    between atoms: C12_24  and  O8_25
REMARK   12  A    between atoms: C13_27  and  O9_28
REMARK   13  A    between atoms: C14_30  and  O10_31
REMARK   14  A    between atoms: C15_33  and  O11_34
REMARK   15  A    between atoms: C15_33  and  C16_36
REMARK   16  A    between atoms: C16_36  and  O12_37
REMARK   17  A    between atoms: C16_36  and  C17_39
REMARK   18  A    between atoms: C17_39  and  S2_40
REMARK   19  A    between atoms: S2_40  and  O13_41
REMARK   20  A    between atoms: C18_44  and  C19_45
REMARK   21  A    between atoms: C19_45  and  O15_46
REMARK   22  A    between atoms: C20_48  and  O16_49
REMARK   23  A    between atoms: C20_48  and  N1_51
ROOT
HETATM    1  C5  UNL     1     -43.052 -31.380 143.588  1.00  0.00     0.192 C
HETATM    2  C6  UNL     1     -43.773 -31.468 142.264  1.00  0.00     0.188 C
HETATM    3  C13 UNL     1     -43.065 -32.514 141.433  1.00  0.00     0.181 C
HETATM    4  C14 UNL     1     -42.341 -33.327 142.480  1.00  0.00     0.189 C
HETATM    5  C15 UNL     1     -41.826 -32.280 143.442  1.00  0.00     0.141 C
ENDROOT
BRANCH   1   6
HETATM    6  O2  UNL     1     -43.907 -31.873 144.569  1.00  0.00    -0.377 OA
BRANCH   6   7
HETATM    7  C4  UNL     1     -44.933 -30.992 144.902  1.00  0.00     0.211 C
BRANCH   7   8
HETATM    8  C3  UNL     1     -46.182 -31.832 145.096  1.00  0.00     0.210 C
HETATM    9  S1  UNL     1     -47.613 -30.790 145.503  1.00  0.00    -0.093 SA
HETATM   10  C2  UNL     1     -49.083 -31.832 145.219  1.00  0.00     0.158 C
HETATM   11  C1  UNL     1     -50.279 -30.954 144.913  1.00  0.00     0.064 C
HETATM   12  C20 UNL     1     -48.883 -32.754 144.050  1.00  0.00     0.214 C
HETATM   13  C18 UNL     1     -47.524 -33.390 144.010  1.00  0.00     0.207 C
HETATM   14  O14 UNL     1     -46.488 -32.510 143.946  1.00  0.00    -0.361 OA
BRANCH  10  15
HETATM   15  O1  UNL     1     -49.382 -32.532 146.388  1.00  0.00    -0.374 OA
ATOM     16  H1  UNL     1     -49.687 -31.893 147.023  1.00  0.00     0.211 HD
ENDBRANCH  10  15
BRANCH  12  17
HETATM   17  O16 UNL     1     -49.840 -33.756 144.121  1.00  0.00    -0.364 OA
ATOM     18  H16 UNL     1     -49.412 -34.556 144.402  1.00  0.00     0.213 HD
ENDBRANCH  12  17
BRANCH  12  19
HETATM   19  N1  UNL     1     -49.098 -32.024 142.837  1.00  0.00    -0.303 N
HETATM   20  N2  UNL     1     -48.999 -32.634 141.759  1.00  0.00    -0.347 N
ATOM     21  H22 UNL     1     -48.770 -33.628 141.756  1.00  0.00     0.176 HD
ATOM     22  H21 UNL     1     -49.153 -32.114 140.895  1.00  0.00     0.176 HD
ATOM     23  H1  UNL     1     -49.326 -31.030 142.857  1.00  0.00     0.183 HD
ENDBRANCH  12  19
BRANCH  13  24
HETATM   24  C19 UNL     1     -47.308 -34.462 145.044  1.00  0.00     0.201 C
BRANCH  24  25
HETATM   25  O15 UNL     1     -47.679 -35.728 144.532  1.00  0.00    -0.398 OA
ATOM     26  H15 UNL     1     -47.088 -36.402 144.848  1.00  0.00     0.209 HD
ENDBRANCH  24  25
ENDBRANCH  13  24
ENDBRANCH   7   8
ENDBRANCH   6   7
ENDBRANCH   1   6
BRANCH   2  27
HETATM   27  O3  UNL     1     -43.720 -30.212 141.674  1.00  0.00    -0.348 OA
BRANCH  27  28
HETATM   28  C7  UNL     1     -44.696 -29.985 140.722  1.00  0.00     0.292 C
HETATM   29  O4  UNL     1     -44.671 -28.595 140.497  1.00  0.00    -0.348 OA
HETATM   30  C8  UNL     1     -45.409 -28.224 139.374  1.00  0.00     0.179 C
HETATM   31  C10 UNL     1     -46.567 -29.134 139.122  1.00  0.00     0.180 C
HETATM   32  C11 UNL     1     -47.146 -29.533 140.466  1.00  0.00     0.183 C
HETATM   33  C12 UNL     1     -46.087 -30.321 141.213  1.00  0.00     0.204 C
BRANCH  30  34
HETATM   34  C9  UNL     1     -45.937 -26.831 139.678  1.00  0.00     0.198 C
BRANCH  34  35
HETATM   35  O5  UNL     1     -45.981 -26.014 138.577  1.00  0.00    -0.398 OA
ATOM     36  H5  UNL     1     -46.523 -25.244 138.701  1.00  0.00     0.209 HD
ENDBRANCH  34  35
ENDBRANCH  30  34
BRANCH  31  37
HETATM   37  O6  UNL     1     -47.531 -28.497 138.345  1.00  0.00    -0.390 OA
ATOM     38  H6  UNL     1     -48.331 -28.371 138.842  1.00  0.00     0.210 HD
ENDBRANCH  31  37
BRANCH  32  39
HETATM   39  O7  UNL     1     -48.276 -30.299 140.223  1.00  0.00    -0.390 OA
ATOM     40  H7  UNL     1     -48.832 -30.240 140.991  1.00  0.00     0.210 HD
ENDBRANCH  32  39
BRANCH  33  41
HETATM   41  O8  UNL     1     -46.413 -31.656 141.074  1.00  0.00    -0.388 OA
ATOM     42  H8  UNL     1     -47.336 -31.805 140.906  1.00  0.00     0.210 HD
ENDBRANCH  33  41
ENDBRANCH  27  28
ENDBRANCH   2  27
BRANCH   5  43
HETATM   43  O11 UNL     1     -41.583 -32.822 144.681  1.00  0.00    -0.382 OA
ATOM     44  H11 UNL     1     -40.986 -33.549 144.548  1.00  0.00     0.211 HD
ENDBRANCH   5  43
BRANCH   5  45
HETATM   45  C16 UNL     1     -40.677 -31.511 142.929  1.00  0.00     0.169 C
BRANCH  45  46
HETATM   46  O12 UNL     1     -40.897 -30.147 143.235  1.00  0.00    -0.392 OA
ATOM     47  H12 UNL     1     -40.487 -29.967 144.073  1.00  0.00     0.210 HD
ENDBRANCH  45  46
BRANCH  45  48
HETATM   48  C17 UNL     1     -39.311 -31.879 143.338  1.00  0.00     0.139 C
BRANCH  48  49
HETATM   49  S2  UNL     1     -38.636 -31.054 144.777  1.00  0.00    -0.013 SA
BRANCH  49  50
HETATM   50  O13 UNL     1     -39.390 -31.452 146.249  1.00  0.00    -0.329 OA
ATOM     51  H13 UNL     1     -38.814 -31.831 146.903  1.00  0.00     0.227 HD
ENDBRANCH  49  50
ENDBRANCH  48  49
ENDBRANCH  45  48
ENDBRANCH   5  45
BRANCH   3  52
HETATM   52  O9  UNL     1     -43.973 -33.383 140.810  1.00  0.00    -0.390 OA
ATOM     53  H9  UNL     1     -43.658 -33.671 139.960  1.00  0.00     0.210 HD
ENDBRANCH   3  52
BRANCH   4  54
HETATM   54  O10 UNL     1     -43.268 -34.122 143.123  1.00  0.00    -0.390 OA
ATOM     55  H10 UNL     1     -43.190 -35.004 142.779  1.00  0.00     0.210 HD
ENDBRANCH   4  54
TORSDOF 23
ENDMDL