MODEL 4
REMARK VINA RESULT: -6.472729806      3.005      8.006
REMARK  23 active torsions:
REMARK  status: ('A' for Active; 'I' for Inactive)
REMARK    1  A    between atoms: C2_2  and  C3_3
REMARK    2  A    between atoms: C3_3  and  C4_4
REMARK    3  A    between atoms: C4_4  and  C5_5
REMARK    4  A    between atoms: C5_5  and  O1_6
REMARK    5  A    between atoms: C6_9  and  O3_10
REMARK    6  A    between atoms: O3_10  and  C7_11
REMARK    7  A    between atoms: C8_13  and  C9_14
REMARK    8  A    between atoms: C9_14  and  O5_15
REMARK    9  A    between atoms: C10_17  and  O6_18
REMARK   10  A    between atoms: C11_20  and  O7_21
REMARK   11  A    between atoms: C12_23  and  O8_24
REMARK   12  A    between atoms: C13_26  and  O9_27
REMARK   13  A    between atoms: C14_29  and  O10_30
REMARK   14  A    between atoms: O10_30  and  C15_31
REMARK   15  A    between atoms: C16_32  and  O11_33
REMARK   16  A    between atoms: C17_35  and  O12_36
REMARK   17  A    between atoms: C18_38  and  O13_39
REMARK   18  A    between atoms: C19_41  and  O14_42
REMARK   19  A    between atoms: C20_44  and  O15_45
REMARK   20  A    between atoms: C21_47  and  C22_48
REMARK   21  A    between atoms: C22_48  and  N1_49
REMARK   22  A    between atoms: N2_51  and  O16_53
REMARK   23  A    between atoms: O16_53  and  N3_54
ROOT
HETATM    1  C5  UNL     1     -47.745 -32.145 142.824  1.00  0.00     0.172 C
HETATM    2  O2  UNL     1     -46.419 -32.578 142.657  1.00  0.00    -0.322 OA
HETATM    3  C6  UNL     1     -45.617 -31.648 143.260  1.00  0.00     0.297 C
HETATM    4  C13 UNL     1     -45.977 -31.278 144.667  1.00  0.00     0.203 C
HETATM    5  C14 UNL     1     -47.206 -31.856 145.232  1.00  0.00     0.166 C
HETATM    6  C21 UNL     1     -48.103 -32.554 144.237  1.00  0.00     0.099 C
ENDROOT
BRANCH   5   7
HETATM    7  O10 UNL     1     -47.897 -30.876 145.948  1.00  0.00    -0.372 OA
BRANCH   7   8
HETATM    8  C15 UNL     1     -49.099 -31.279 146.463  1.00  0.00     0.184 C
HETATM    9  C16 UNL     1     -48.920 -31.859 147.822  1.00  0.00     0.181 C
HETATM   10  C17 UNL     1     -49.117 -30.868 148.942  1.00  0.00     0.180 C
HETATM   11  C18 UNL     1     -50.435 -30.155 148.885  1.00  0.00     0.180 C
HETATM   12  C19 UNL     1     -51.078 -30.171 147.526  1.00  0.00     0.180 C
HETATM   13  C20 UNL     1     -50.026 -30.084 146.444  1.00  0.00     0.181 C
BRANCH   9  14
HETATM   14  O11 UNL     1     -49.746 -32.992 148.022  1.00  0.00    -0.390 OA
ATOM     15  H11 UNL     1     -49.262 -33.803 147.917  1.00  0.00     0.210 HD
ENDBRANCH   9  14
BRANCH  10  16
HETATM   16  O12 UNL     1     -48.024 -30.020 148.981  1.00  0.00    -0.390 OA
ATOM     17  H12 UNL     1     -47.618 -30.086 149.837  1.00  0.00     0.210 HD
ENDBRANCH  10  16
BRANCH  11  18
HETATM   18  O13 UNL     1     -51.362 -30.673 149.798  1.00  0.00    -0.390 OA
ATOM     19  H13 UNL     1     -51.514 -30.088 150.531  1.00  0.00     0.210 HD
ENDBRANCH  11  18
BRANCH  12  20
HETATM   20  O14 UNL     1     -51.953 -31.231 147.341  1.00  0.00    -0.390 OA
ATOM     21  H14 UNL     1     -51.557 -31.977 146.905  1.00  0.00     0.210 HD
ENDBRANCH  12  20
BRANCH  13  22
HETATM   22  O15 UNL     1     -49.324 -28.895 146.660  1.00  0.00    -0.390 OA
ATOM     23  H15 UNL     1     -49.839 -28.140 146.401  1.00  0.00     0.210 HD
ENDBRANCH  13  22
ENDBRANCH   7   8
ENDBRANCH   5   7
BRANCH   4  24
HETATM   24  O9  UNL     1     -45.899 -29.890 144.817  1.00  0.00    -0.388 OA
ATOM     25  H9  UNL     1     -45.401 -29.685 145.599  1.00  0.00     0.210 HD
ENDBRANCH   4  24
BRANCH   6  26
HETATM   26  C22 UNL     1     -48.084 -34.051 144.419  1.00  0.00     0.154 C
BRANCH  26  27
HETATM   27  N1  UNL     1     -49.093 -34.513 145.347  1.00  0.00    -0.315 N
HETATM   28  N2  UNL     1     -48.833 -35.259 146.336  1.00  0.00    -0.187 N
ATOM     29  H2  UNL     1     -47.869 -35.551 146.493  1.00  0.00     0.218 HD
ATOM     30  H1  UNL     1     -50.059 -34.224 145.196  1.00  0.00     0.182 HD
BRANCH  28  31
HETATM   31  O16 UNL     1     -49.790 -35.682 147.194  1.00  0.00    -0.149 OA
BRANCH  31  32
HETATM   32  N3  UNL     1     -49.748 -36.914 147.832  1.00  0.00    -0.285 N
ATOM     33  H32 UNL     1     -49.277 -37.677 147.346  1.00  0.00     0.186 HD
ATOM     34  H31 UNL     1     -50.163 -37.083 148.749  1.00  0.00     0.186 HD
ENDBRANCH  31  32
ENDBRANCH  28  31
ENDBRANCH  26  27
ENDBRANCH   6  26
BRANCH   3  35
HETATM   35  O3  UNL     1     -44.247 -31.965 143.136  1.00  0.00    -0.326 OA
BRANCH  35  36
HETATM   36  C7  UNL     1     -43.494 -30.968 142.580  1.00  0.00     0.294 C
HETATM   37  O4  UNL     1     -42.418 -30.699 143.454  1.00  0.00    -0.348 OA
HETATM   38  C8  UNL     1     -41.836 -31.824 143.957  1.00  0.00     0.179 C
HETATM   39  C10 UNL     1     -41.510 -32.891 142.983  1.00  0.00     0.180 C
HETATM   40  C11 UNL     1     -42.333 -32.903 141.732  1.00  0.00     0.183 C
HETATM   41  C12 UNL     1     -42.830 -31.532 141.333  1.00  0.00     0.204 C
BRANCH  38  42
HETATM   42  C9  UNL     1     -40.516 -31.381 144.606  1.00  0.00     0.198 C
BRANCH  42  43
HETATM   43  O5  UNL     1     -39.461 -32.179 144.242  1.00  0.00    -0.398 OA
ATOM     44  H5  UNL     1     -38.662 -31.683 144.108  1.00  0.00     0.209 HD
ENDBRANCH  42  43
ENDBRANCH  38  42
BRANCH  39  45
HETATM   45  O6  UNL     1     -41.718 -34.134 143.625  1.00  0.00    -0.390 OA
ATOM     46  H6  UNL     1     -41.566 -34.818 142.984  1.00  0.00     0.210 HD
ENDBRANCH  39  45
BRANCH  40  47
HETATM   47  O7  UNL     1     -41.623 -33.470 140.676  1.00  0.00    -0.390 OA
ATOM     48  H7  UNL     1     -42.197 -33.653 139.942  1.00  0.00     0.210 HD
ENDBRANCH  40  47
BRANCH  41  49
HETATM   49  O8  UNL     1     -41.744 -30.700 141.047  1.00  0.00    -0.388 OA
ATOM     50  H8  UNL     1     -41.640 -30.121 141.792  1.00  0.00     0.210 HD
ENDBRANCH  41  49
ENDBRANCH  35  36
ENDBRANCH   3  35
BRANCH   1  51
HETATM   51  C4  UNL     1     -48.691 -32.711 141.827  1.00  0.00     0.069 C
BRANCH  51  52
HETATM   52  C3  UNL     1     -48.579 -32.065 140.466  1.00  0.00     0.005 C
BRANCH  52  53
HETATM   53  C2  UNL     1     -49.881 -32.228 139.684  1.00  0.00    -0.004 C
HETATM   54  C1  UNL     1     -50.797 -33.234 140.296  1.00  0.00     0.005 C
ENDBRANCH  52  53
ENDBRANCH  51  52
ENDBRANCH   1  51
BRANCH   1  55
HETATM   55  O1  UNL     1     -47.828 -30.736 142.838  1.00  0.00    -0.365 OA
ATOM     56  H1  UNL     1     -47.159 -30.370 143.405  1.00  0.00     0.213 HD
ENDBRANCH   1  55
TORSDOF 23
ENDMDL