MODEL 3
REMARK VINA RESULT: -7.524119274      2.432      3.112
REMARK  19 active torsions:
REMARK  status: ('A' for Active; 'I' for Inactive)
REMARK    1  A    between atoms: N1_1  and  N2_4
REMARK    2  A    between atoms: N2_4  and  C1_5
REMARK    3  A    between atoms: C2_9  and  S1_10
REMARK    4  A    between atoms: S1_10  and  C3_11
REMARK    5  A    between atoms: C3_11  and  C4_12
REMARK    6  A    between atoms: C5_14  and  O2_15
REMARK    7  A    between atoms: C5_14  and  O3_17
REMARK    8  A    between atoms: C6_19  and  O4_20
REMARK    9  A    between atoms: O4_20  and  C7_21
REMARK   10  A    between atoms: C9_23  and  S2_24
REMARK   11  A    between atoms: S2_24  and  C10_25
REMARK   12  A    between atoms: C11_28  and  C12_29
REMARK   13  A    between atoms: C13_37  and  C14_38
REMARK   14  A    between atoms: C14_38  and  O8_39
REMARK   15  A    between atoms: C15_41  and  O9_42
REMARK   16  A    between atoms: C16_44  and  O10_45
REMARK   17  A    between atoms: C17_47  and  O11_48
REMARK   18  A    between atoms: C18_50  and  C19_51
REMARK   19  A    between atoms: C19_51  and  O12_52
ROOT
HETATM    1  C4  UNL     1     -43.286 -33.741 148.857  1.00  0.00     0.168 C
HETATM    2  O1  UNL     1     -42.355 -32.740 148.745  1.00  0.00    -0.322 OA
HETATM    3  C5  UNL     1     -42.465 -32.125 147.526  1.00  0.00     0.308 C
HETATM    4  C6  UNL     1     -43.245 -33.018 146.617  1.00  0.00     0.246 C
HETATM    5  C16 UNL     1     -43.464 -34.246 147.436  1.00  0.00     0.185 C
ENDROOT
BRANCH   4   6
HETATM    6  O4  UNL     1     -42.440 -33.292 145.490  1.00  0.00    -0.367 OA
BRANCH   6   7
HETATM    7  C7  UNL     1     -43.195 -33.940 144.498  1.00  0.00     0.157 C
HETATM    8  C8  UNL     1     -44.342 -33.088 144.051  1.00  0.00     0.078 C
HETATM    9  C9  UNL     1     -44.075 -32.398 142.751  1.00  0.00     0.194 C
HETATM   10  O7  UNL     1     -42.809 -31.881 142.635  1.00  0.00    -0.365 OA
HETATM   11  C13 UNL     1     -41.800 -32.772 142.866  1.00  0.00     0.177 C
HETATM   12  C15 UNL     1     -42.214 -34.127 143.331  1.00  0.00     0.178 C
BRANCH   9  13
HETATM   13  S2  UNL     1     -45.338 -31.088 142.529  1.00  0.00    -0.060 SA
BRANCH  13  14
HETATM   14  C10 UNL     1     -46.911 -31.805 142.103  1.00  0.00     0.163 A
HETATM   15  N4  UNL     1     -47.713 -32.531 142.900  1.00  0.00    -0.315 N
HETATM   16  C11 UNL     1     -48.821 -32.898 142.226  1.00  0.00     0.200 A
ATOM     17  H4  UNL     1     -47.513 -32.768 143.871  1.00  0.00     0.169 HD
HETATM   18  N5  UNL     1     -48.696 -32.392 140.998  1.00  0.00    -0.278 N
HETATM   19  N6  UNL     1     -47.553 -31.739 140.927  1.00  0.00    -0.278 N
ATOM     20  H5  UNL     1     -49.371 -32.493 140.241  1.00  0.00     0.189 HD
ATOM     21  H6  UNL     1     -47.207 -31.254 140.099  1.00  0.00     0.189 HD
BRANCH  16  22
HETATM   22  C12 UNL     1     -49.894 -33.691 142.797  1.00  0.00     0.246 C
HETATM   23  O5  UNL     1     -50.894 -34.032 142.122  1.00  0.00    -0.642 OA
HETATM   24  O6  UNL     1     -49.829 -34.089 144.123  1.00  0.00    -0.642 OA
ENDBRANCH  16  22
ENDBRANCH  13  14
ENDBRANCH   9  13
BRANCH  11  25
HETATM   25  C14 UNL     1     -40.867 -32.933 141.685  1.00  0.00     0.198 C
BRANCH  25  26
HETATM   26  O8  UNL     1     -41.574 -33.272 140.526  1.00  0.00    -0.398 OA
ATOM     27  H8  UNL     1     -42.437 -33.610 140.736  1.00  0.00     0.209 HD
ENDBRANCH  25  26
ENDBRANCH  11  25
BRANCH  12  28
HETATM   28  O9  UNL     1     -42.707 -34.962 142.359  1.00  0.00    -0.390 OA
ATOM     29  H9  UNL     1     -42.661 -34.578 141.492  1.00  0.00     0.210 HD
ENDBRANCH  12  28
ENDBRANCH   6   7
ENDBRANCH   4   6
BRANCH   3  30
HETATM   30  O2  UNL     1     -41.155 -31.900 147.056  1.00  0.00    -0.341 OA
ATOM     31  H2  UNL     1     -41.015 -30.961 147.058  1.00  0.00     0.215 HD
ENDBRANCH   3  30
BRANCH   3  32
HETATM   32  O3  UNL     1     -43.075 -30.875 147.568  1.00  0.00    -0.341 OA
ATOM     33  H3  UNL     1     -42.608 -30.230 148.086  1.00  0.00     0.215 HD
ENDBRANCH   3  32
BRANCH   5  34
HETATM   34  O10 UNL     1     -44.755 -34.757 147.298  1.00  0.00    -0.390 OA
ATOM     35  H10 UNL     1     -44.916 -35.377 148.001  1.00  0.00     0.210 HD
ENDBRANCH   5  34
BRANCH   1  36
HETATM   36  C3  UNL     1     -44.567 -33.248 149.441  1.00  0.00     0.110 C
BRANCH  36  37
HETATM   37  S1  UNL     1     -45.235 -34.470 150.585  1.00  0.00    -0.131 SA
BRANCH  37  38
HETATM   38  C2  UNL     1     -46.856 -35.010 150.065  1.00  0.00     0.282 C
HETATM   39  N3  UNL     1     -47.363 -34.341 148.887  1.00  0.00    -0.017 N
HETATM   40  C1  UNL     1     -48.711 -34.770 148.657  1.00  0.00     0.439 C
ATOM     41  H32 UNL     1     -46.765 -34.481 148.072  1.00  0.00     0.283 HD
ATOM     42  H31 UNL     1     -47.282 -33.327 148.950  1.00  0.00     0.283 HD
HETATM   43  O13 UNL     1     -49.161 -35.764 149.471  1.00  0.00    -0.336 OA
HETATM   44  C18 UNL     1     -48.351 -36.870 149.580  1.00  0.00     0.180 C
HETATM   45  C17 UNL     1     -46.883 -36.503 149.735  1.00  0.00     0.190 C
BRANCH  40  46
HETATM   46  N2  UNL     1     -48.910 -35.059 147.239  1.00  0.00    -0.087 NA
BRANCH  46  47
HETATM   47  N1  UNL     1     -47.772 -34.739 146.492  1.00  0.00    -0.344 N
ATOM     48  H12 UNL     1     -46.911 -35.284 146.515  1.00  0.00     0.172 HD
ATOM     49  H11 UNL     1     -47.922 -33.900 145.932  1.00  0.00     0.172 HD
ENDBRANCH  46  47
ENDBRANCH  40  46
BRANCH  44  50
HETATM   50  C19 UNL     1     -48.528 -37.870 148.469  1.00  0.00     0.198 C
BRANCH  50  51
HETATM   51  O12 UNL     1     -49.871 -37.938 148.104  1.00  0.00    -0.398 OA
ATOM     52  H12 UNL     1     -50.029 -38.727 147.600  1.00  0.00     0.209 HD
ENDBRANCH  50  51
ENDBRANCH  44  50
BRANCH  45  53
HETATM   53  O11 UNL     1     -46.288 -36.643 148.481  1.00  0.00    -0.390 OA
ATOM     54  H11 UNL     1     -46.942 -36.385 147.842  1.00  0.00     0.210 HD
ENDBRANCH  45  53
ENDBRANCH  37  38
ENDBRANCH  36  37
ENDBRANCH   1  36
TORSDOF 19
ENDMDL