MODEL 3
REMARK VINA RESULT: -6.913950637      4.509      7.895
REMARK  18 active torsions:
REMARK  status: ('A' for Active; 'I' for Inactive)
REMARK    1  A    between atoms: N5_15  and  C6_16
REMARK    2  A    between atoms: C6_16  and  O1_17
REMARK    3  A    between atoms: C7_21  and  N7_22
REMARK    4  A    between atoms: N7_22  and  C8_24
REMARK    5  A    between atoms: C8_24  and  C9_25
REMARK    6  A    between atoms: C8_24  and  C10_30
REMARK    7  A    between atoms: C9_25  and  O2_26
REMARK    8  A    between atoms: C9_25  and  O3_28
REMARK    9  A    between atoms: C10_30  and  O4_31
REMARK   10  A    between atoms: C10_30  and  C11_33
REMARK   11  A    between atoms: C11_33  and  C12_34
REMARK   12  A    between atoms: C12_34  and  O5_35
REMARK   13  A    between atoms: C13_37  and  O6_38
REMARK   14  A    between atoms: C14_40  and  O7_41
REMARK   15  A    between atoms: C15_43  and  N8_44
REMARK   16  A    between atoms: C17_46  and  C18_47
REMARK   17  A    between atoms: C20_51  and  S1_52
REMARK   18  A    between atoms: S1_52  and  C21_53
ROOT
HETATM    1  C6  UNL     1     -46.390 -32.177 144.339  1.00  0.00     0.249 C
HETATM    2  N6  UNL     1     -47.422 -31.699 143.555  1.00  0.00    -0.326 N
ATOM      3  H6  UNL     1     -47.442 -30.715 143.287  1.00  0.00     0.165 HD
HETATM    4  C7  UNL     1     -48.474 -32.588 143.115  1.00  0.00     0.109 C
HETATM    5  C13 UNL     1     -48.654 -33.826 143.851  1.00  0.00     0.216 C
HETATM    6  C14 UNL     1     -47.635 -34.092 144.981  1.00  0.00     0.185 C
HETATM    7  C15 UNL     1     -46.299 -33.709 144.387  1.00  0.00     0.219 C
ENDROOT
BRANCH   1   8
HETATM    8  N5  UNL     1     -45.048 -31.671 144.053  1.00  0.00    -0.274 N
HETATM    9  C3  UNL     1     -44.332 -31.916 142.941  1.00  0.00     0.144 A
HETATM   10  N3  UNL     1     -44.573 -32.623 141.829  1.00  0.00    -0.336 N
HETATM   11  C4  UNL     1     -43.122 -31.279 143.046  1.00  0.00     0.122 A
HETATM   12  C2  UNL     1     -43.680 -32.723 140.832  1.00  0.00     0.183 A
ATOM     13  H3  UNL     1     -45.469 -33.103 141.736  1.00  0.00     0.168 HD
HETATM   14  N2  UNL     1     -42.494 -32.095 140.942  1.00  0.00    -0.337 N
HETATM   15  C1  UNL     1     -42.168 -31.364 142.023  1.00  0.00     0.131 A
ATOM     16  H2  UNL     1     -41.820 -32.177 140.180  1.00  0.00     0.168 HD
HETATM   17  N1  UNL     1     -41.035 -30.765 142.132  1.00  0.00    -0.383 N
ATOM     18  H12 UNL     1     -40.341 -30.827 141.388  1.00  0.00     0.157 HD
ATOM     19  H11 UNL     1     -40.788 -30.211 142.952  1.00  0.00     0.157 HD
HETATM   20  N4  UNL     1     -43.146 -30.664 144.228  1.00  0.00    -0.346 N
HETATM   21  C5  UNL     1     -44.310 -30.898 144.841  1.00  0.00     0.190 A
ATOM     22  H4  UNL     1     -42.387 -30.097 144.609  1.00  0.00     0.167 HD
ENDBRANCH   1   8
BRANCH   1  23
HETATM   23  O1  UNL     1     -46.656 -31.818 145.681  1.00  0.00    -0.352 OA
ATOM     24  H1  UNL     1     -47.560 -32.062 145.837  1.00  0.00     0.214 HD
ENDBRANCH   1  23
BRANCH   7  25
HETATM   25  N8  UNL     1     -45.193 -34.092 145.208  1.00  0.00    -0.273 N
HETATM   26  C16 UNL     1     -45.048 -33.885 146.510  1.00  0.00     0.145 A
HETATM   27  C17 UNL     1     -43.837 -34.399 146.886  1.00  0.00     0.094 A
HETATM   28  N11 UNL     1     -43.270 -34.912 145.783  1.00  0.00    -0.283 N
HETATM   29  N12 UNL     1     -44.113 -34.711 144.789  1.00  0.00    -0.240 N
ATOM     30  H11 UNL     1     -42.361 -35.371 145.725  1.00  0.00     0.188 HD
ATOM     31  H12 UNL     1     -43.947 -34.997 143.824  1.00  0.00     0.208 HD
BRANCH  27  32
HETATM   32  C18 UNL     1     -43.209 -34.413 148.201  1.00  0.00     0.079 A
HETATM   33  C19 UNL     1     -43.568 -33.655 149.308  1.00  0.00     0.122 A
HETATM   34  N9  UNL     1     -42.733 -33.979 150.292  1.00  0.00    -0.344 N
HETATM   35  C20 UNL     1     -41.846 -34.914 149.882  1.00  0.00     0.151 A
ATOM     36  H9  UNL     1     -42.759 -33.577 151.229  1.00  0.00     0.167 HD
HETATM   37  N10 UNL     1     -42.180 -35.148 148.591  1.00  0.00    -0.333 N
ATOM     38  H10 UNL     1     -41.695 -35.813 147.989  1.00  0.00     0.168 HD
BRANCH  35  39
HETATM   39  S1  UNL     1     -40.516 -35.694 150.782  1.00  0.00    -0.025 SA
BRANCH  39  40
HETATM   40  C21 UNL     1     -40.430 -37.411 150.315  1.00  0.00     0.312 C
HETATM   41  O8  UNL     1     -40.251 -37.688 149.153  1.00  0.00    -0.295 OA
ENDBRANCH  39  40
ENDBRANCH  35  39
ENDBRANCH  27  32
ENDBRANCH   7  25
BRANCH   4  42
HETATM   42  N7  UNL     1     -48.449 -32.603 141.716  1.00  0.00    -0.366 N
ATOM     43  H7  UNL     1     -47.572 -32.860 141.264  1.00  0.00     0.161 HD
BRANCH  42  44
HETATM   44  C8  UNL     1     -49.547 -32.289 140.881  1.00  0.00     0.166 C
BRANCH  44  45
HETATM   45  C9  UNL     1     -50.519 -33.379 140.577  1.00  0.00     0.278 C
BRANCH  45  46
HETATM   46  O2  UNL     1     -51.426 -33.018 139.549  1.00  0.00    -0.369 OA
ATOM     47  H2  UNL     1     -51.022 -33.039 138.689  1.00  0.00     0.212 HD
ENDBRANCH  45  46
BRANCH  45  48
HETATM   48  O3  UNL     1     -51.381 -33.674 141.667  1.00  0.00    -0.369 OA
ATOM     49  H3  UNL     1     -50.997 -33.466 142.511  1.00  0.00     0.212 HD
ENDBRANCH  45  48
ENDBRANCH  44  45
BRANCH  44  50
HETATM   50  C10 UNL     1     -48.993 -31.655 139.598  1.00  0.00     0.147 C
BRANCH  50  51
HETATM   51  O4  UNL     1     -49.905 -30.836 138.991  1.00  0.00    -0.393 OA
ATOM     52  H4  UNL     1     -49.883 -29.954 139.340  1.00  0.00     0.210 HD
ENDBRANCH  50  51
BRANCH  50  53
HETATM   53  C11 UNL     1     -47.585 -31.237 139.632  1.00  0.00     0.060 C
BRANCH  53  54
HETATM   54  C12 UNL     1     -47.569 -29.759 140.080  1.00  0.00     0.166 C
BRANCH  54  55
HETATM   55  O5  UNL     1     -47.089 -29.667 141.378  1.00  0.00    -0.401 OA
ATOM     56  H5  UNL     1     -46.222 -29.281 141.374  1.00  0.00     0.209 HD
ENDBRANCH  54  55
ENDBRANCH  53  54
ENDBRANCH  50  53
ENDBRANCH  44  50
ENDBRANCH  42  44
ENDBRANCH   4  42
BRANCH   6  57
HETATM   57  O7  UNL     1     -47.703 -35.428 145.349  1.00  0.00    -0.390 OA
ATOM     58  H7  UNL     1     -48.615 -35.679 145.439  1.00  0.00     0.210 HD
ENDBRANCH   6  57
BRANCH   5  59
HETATM   59  O6  UNL     1     -49.953 -33.938 144.444  1.00  0.00    -0.385 OA
ATOM     60  H6  UNL     1     -50.263 -33.120 144.815  1.00  0.00     0.210 HD
ENDBRANCH   5  59
TORSDOF 18
ENDMDL