MODEL 3
REMARK VINA RESULT: -9.761787472      3.164      5.084
REMARK  10 active torsions:
REMARK  status: ('A' for Active; 'I' for Inactive)
REMARK    1  A    between atoms: O1_2  and  C2_3
REMARK    2  A    between atoms: N1_7  and  C5_9
REMARK    3  A    between atoms: C7_15  and  N4_16
REMARK    4  A    between atoms: C8_19  and  C9_20
REMARK    5  A    between atoms: C9_20  and  N5_21
REMARK    6  A    between atoms: N5_21  and  N6_22
REMARK       I    between atoms: N6_22  and  C10_24
REMARK    7  A    between atoms: C13_28  and  C14_29
REMARK    8  A    between atoms: C15_30  and  N7_31
REMARK    9  A    between atoms: C16_32  and  N8_33
REMARK   10  A    between atoms: C22_44  and  N11_45
ROOT
HETATM    1  C2  UNL     1      -3.885  25.137  28.331  1.00  0.00     0.101 A
HETATM    2  C3  UNL     1      -3.335  24.658  27.165  1.00  0.00     0.181 A
HETATM    3  O2  UNL     1      -3.471  23.411  26.831  1.00  0.00    -0.303 OA
HETATM    4  C4  UNL     1      -4.137  22.566  27.591  1.00  0.00     0.149 A
HETATM    5  N1  UNL     1      -4.237  21.348  27.210  1.00  0.00    -0.322 N
ATOM      6  H1  UNL     1      -4.756  20.707  27.811  1.00  0.00     0.169 HD
HETATM    7  C12 UNL     1      -4.714  22.970  28.767  1.00  0.00     0.070 A
HETATM    8  C13 UNL     1      -4.588  24.310  29.163  1.00  0.00     0.004 A
ENDROOT
BRANCH   8   9
HETATM    9  C14 UNL     1      -5.199  24.713  30.420  1.00  0.00     0.032 C
HETATM   10  C15 UNL     1      -4.770  25.576  31.302  1.00  0.00     0.118 C
BRANCH  10  11
HETATM   11  N7  UNL     1      -5.454  25.903  32.519  1.00  0.00    -0.141 N
HETATM   12  C16 UNL     1      -4.844  25.816  33.741  1.00  0.00     0.689 A
HETATM   13  N10 UNL     1      -5.783  26.198  34.628  1.00  0.00    -0.184 N
HETATM   14  C21 UNL     1      -6.925  26.511  34.016  1.00  0.00     0.137 A
ATOM     15  H10 UNL     1      -5.639  26.242  35.637  1.00  0.00     0.184 HD
HETATM   16  C22 UNL     1      -8.169  26.948  34.421  1.00  0.00     0.131 A
HETATM   17  C24 UNL     1      -6.720  26.322  32.646  1.00  0.00     0.160 A
HETATM   18  N12 UNL     1      -9.180  27.199  33.564  1.00  0.00    -0.337 N
HETATM   19  C23 UNL     1      -8.966  27.012  32.244  1.00  0.00     0.183 A
ATOM     20  H12 UNL     1     -10.086  27.521  33.905  1.00  0.00     0.168 HD
HETATM   21  N13 UNL     1      -7.765  26.588  31.844  1.00  0.00    -0.336 N
ATOM     22  H13 UNL     1      -7.629  26.454  30.842  1.00  0.00     0.168 HD
BRANCH  12  23
HETATM   23  N8  UNL     1      -3.512  25.414  34.029  1.00  0.00    -0.214 N
HETATM   24  C17 UNL     1      -2.436  26.361  34.107  1.00  0.00     0.168 C
HETATM   25  C18 UNL     1      -1.239  25.896  33.349  1.00  0.00     0.252 C
HETATM   26  N9  UNL     1      -0.977  24.490  33.450  1.00  0.00    -0.072 N
HETATM   27  C19 UNL     1      -2.128  23.666  33.234  1.00  0.00     0.252 C
ATOM     28  H92 UNL     1      -0.220  24.221  32.820  1.00  0.00     0.277 HD
ATOM     29  H91 UNL     1      -0.542  24.270  34.346  1.00  0.00     0.277 HD
HETATM   30  C20 UNL     1      -3.230  24.023  34.244  1.00  0.00     0.168 C
ENDBRANCH  12  23
BRANCH  16  31
HETATM   31  N11 UNL     1      -8.371  27.126  35.695  1.00  0.00    -0.383 N
ATOM     32 2H11 UNL     1      -8.002  27.968  36.136  1.00  0.00     0.157 HD
ATOM     33 1H11 UNL     1      -8.894  26.412  36.202  1.00  0.00     0.157 HD
ENDBRANCH  16  31
ENDBRANCH  10  11
ENDBRANCH   8   9
BRANCH   1  34
HETATM   34  O1  UNL     1      -3.710  26.499  28.648  1.00  0.00    -0.353 OA
HETATM   35  C1  UNL     1      -4.349  27.461  27.870  1.00  0.00     0.210 C
ENDBRANCH   1  34
BRANCH   5  36
HETATM   36  C5  UNL     1      -3.685  20.824  26.025  1.00  0.00     0.124 A
HETATM   37  N2  UNL     1      -4.249  21.050  24.805  1.00  0.00    -0.338 N
HETATM   38  C6  UNL     1      -3.732  20.569  23.666  1.00  0.00     0.183 A
ATOM     39  H2  UNL     1      -5.100  21.609  24.757  1.00  0.00     0.168 HD
HETATM   40  N3  UNL     1      -2.609  19.827  23.677  1.00  0.00    -0.338 N
HETATM   41  C7  UNL     1      -2.021  19.582  24.881  1.00  0.00     0.116 A
ATOM     42  H3  UNL     1      -2.212  19.459  22.813  1.00  0.00     0.168 HD
HETATM   43  C8  UNL     1      -2.542  20.068  26.051  1.00  0.00     0.082 A
BRANCH  41  44
HETATM   44  N4  UNL     1      -0.946  18.872  24.877  1.00  0.00    -0.385 N
ATOM     45  H42 UNL     1      -0.916  17.967  24.408  1.00  0.00     0.157 HD
ATOM     46  H41 UNL     1      -0.134  19.254  25.362  1.00  0.00     0.157 HD
ENDBRANCH  41  44
BRANCH  43  47
HETATM   47  C9  UNL     1      -1.885  19.772  27.341  1.00  0.00     0.228 C
BRANCH  47  48
HETATM   48  N5  UNL     1      -1.708  18.736  27.856  1.00  0.00    -0.335 NA
BRANCH  48  49
HETATM   49  N6  UNL     1      -1.512  17.588  28.445  1.00  0.00    -0.204 N
HETATM   50  C10 UNL     1      -0.620  16.617  27.876  1.00  0.00     0.242 C
HETATM   51  C11 UNL     1      -0.417  15.333  28.552  1.00  0.00     0.119 C
HETATM   52  O3  UNL     1      -0.032  16.881  26.819  1.00  0.00    -0.271 OA
ATOM     53  H6  UNL     1      -1.998  17.378  29.317  1.00  0.00     0.205 HD
ENDBRANCH  48  49
ENDBRANCH  47  48
ENDBRANCH  43  47
ENDBRANCH   5  36
TORSDOF 10
ENDMDL