MODEL 5
REMARK VINA RESULT: -8.896792917      1.579      2.793
REMARK  13 active torsions:
REMARK  status: ('A' for Active; 'I' for Inactive)
REMARK    1  A    between atoms: C3_4  and  S1_5
REMARK    2  A    between atoms: S1_5  and  S2_6
REMARK    3  A    between atoms: S2_6  and  C4_7
REMARK    4  A    between atoms: C11_14  and  C12_15
REMARK    5  A    between atoms: C13_19  and  O4_20
REMARK    6  A    between atoms: O4_20  and  C14_21
REMARK    7  A    between atoms: C15_23  and  C16_24
REMARK    8  A    between atoms: C16_24  and  O6_25
REMARK    9  A    between atoms: C17_27  and  O7_28
REMARK   10  A    between atoms: C18_30  and  O8_31
REMARK   11  A    between atoms: C19_33  and  O9_34
REMARK   12  A    between atoms: C20_36  and  O10_37
REMARK   13  A    between atoms: C21_39  and  O11_40
ROOT
HETATM    1  C1  UNL     1      -5.242  19.838  23.355  1.00  0.00     0.221 C
HETATM    2  N1  UNL     1      -4.373  19.675  24.070  1.00  0.00    -0.460 NA
HETATM    3  C2  UNL     1      -3.324  19.438  24.943  1.00  0.00     0.232 C
HETATM    4  C3  UNL     1      -3.324  20.206  26.200  1.00  0.00     0.235 C
HETATM    5  O3  UNL     1      -2.596  19.511  27.169  1.00  0.00    -0.339 OA
HETATM    6  C13 UNL     1      -1.472  18.881  26.752  1.00  0.00     0.295 C
HETATM    7  C20 UNL     1      -0.934  19.275  25.425  1.00  0.00     0.205 C
HETATM    8  C21 UNL     1      -1.962  19.438  24.340  1.00  0.00     0.190 C
ENDROOT
BRANCH   4   9
HETATM    9  S1  UNL     1      -2.824  21.885  26.242  1.00  0.00    -0.061 SA
BRANCH   9  10
HETATM   10  S2  UNL     1      -4.383  23.215  25.867  1.00  0.00    -0.089 SA
BRANCH  10  11
HETATM   11  C4  UNL     1      -3.918  24.896  26.084  1.00  0.00     0.076 C
HETATM   12  C5  UNL     1      -2.996  25.389  25.015  1.00  0.00    -0.003 C
HETATM   13  C6  UNL     1      -3.056  24.495  23.800  1.00  0.00     0.011 C
HETATM   14  C7  UNL     1      -1.533  25.424  25.419  1.00  0.00     0.005 C
HETATM   15  C8  UNL     1      -1.173  26.477  26.396  1.00  0.00     0.000 C
HETATM   16  C9  UNL     1      -2.305  27.395  26.796  1.00  0.00     0.001 C
HETATM   17  C10 UNL     1      -3.290  26.652  27.674  1.00  0.00     0.017 C
HETATM   18  C11 UNL     1      -3.227  25.158  27.423  1.00  0.00     0.102 C
BRANCH  18  19
HETATM   19  C12 UNL     1      -3.975  24.490  28.518  1.00  0.00     0.178 C
HETATM   20  O1  UNL     1      -5.088  24.926  28.947  1.00  0.00    -0.648 OA
HETATM   21  O2  UNL     1      -3.464  23.340  29.123  1.00  0.00    -0.648 OA
ENDBRANCH  18  19
ENDBRANCH  10  11
ENDBRANCH   9  10
ENDBRANCH   4   9
BRANCH   8  22
HETATM   22  O11 UNL     1      -1.731  20.564  23.568  1.00  0.00    -0.390 OA
ATOM     23  H11 UNL     1      -2.507  20.843  23.097  1.00  0.00     0.210 HD
ENDBRANCH   8  22
BRANCH   7  24
HETATM   24  O10 UNL     1      -0.129  20.420  25.564  1.00  0.00    -0.388 OA
ATOM     25  H10 UNL     1       0.321  20.594  24.745  1.00  0.00     0.210 HD
ENDBRANCH   7  24
BRANCH   6  26
HETATM   26  O4  UNL     1      -1.672  17.509  26.885  1.00  0.00    -0.326 OA
BRANCH  26  27
HETATM   27  C14 UNL     1      -1.376  17.022  28.158  1.00  0.00     0.294 C
HETATM   28  O5  UNL     1      -0.660  18.020  28.798  1.00  0.00    -0.348 OA
HETATM   29  C15 UNL     1      -0.110  17.617  30.000  1.00  0.00     0.179 C
HETATM   30  C17 UNL     1       0.875  16.492  29.768  1.00  0.00     0.180 C
HETATM   31  C18 UNL     1       0.236  15.319  29.099  1.00  0.00     0.183 C
HETATM   32  C19 UNL     1      -0.640  15.739  27.970  1.00  0.00     0.204 C
BRANCH  29  33
HETATM   33  C16 UNL     1      -1.131  17.239  31.036  1.00  0.00     0.198 C
BRANCH  33  34
HETATM   34  O6  UNL     1      -0.527  16.613  32.105  1.00  0.00    -0.398 OA
ATOM     35  H6  UNL     1      -0.770  15.695  32.134  1.00  0.00     0.209 HD
ENDBRANCH  33  34
ENDBRANCH  29  33
BRANCH  30  36
HETATM   36  O7  UNL     1       1.836  17.000  28.865  1.00  0.00    -0.390 OA
ATOM     37  H7  UNL     1       2.121  16.259  28.344  1.00  0.00     0.210 HD
ENDBRANCH  30  36
BRANCH  31  38
HETATM   38  O8  UNL     1      -0.382  14.459  30.003  1.00  0.00    -0.390 OA
ATOM     39  H8  UNL     1      -0.577  14.879  30.832  1.00  0.00     0.210 HD
ENDBRANCH  31  38
BRANCH  32  40
HETATM   40  O9  UNL     1       0.077  15.707  26.762  1.00  0.00    -0.388 OA
ATOM     41  H9  UNL     1       0.908  16.163  26.824  1.00  0.00     0.210 HD
ENDBRANCH  32  40
ENDBRANCH  26  27
ENDBRANCH   6  26
TORSDOF 13
ENDMDL