MODEL 2
REMARK VINA RESULT: -10.518878532      1.588      2.049
REMARK  12 active torsions:
REMARK  status: ('A' for Active; 'I' for Inactive)
REMARK    1  A    between atoms: O1_2  and  C2_3
REMARK    2  A    between atoms: C7_8  and  O2_9
REMARK    3  A    between atoms: C9_11  and  O3_12
REMARK    4  A    between atoms: N1_14  and  C10_15
REMARK    5  A    between atoms: C10_15  and  C11_16
REMARK    6  A    between atoms: C11_16  and  C17_37
REMARK    7  A    between atoms: N2_17  and  N3_19
REMARK    8  A    between atoms: N3_19  and  C12_21
REMARK    9  A    between atoms: N7_29  and  N8_31
REMARK   10  A    between atoms: N8_31  and  C15_32
REMARK   11  A    between atoms: C19_39  and  O4_40
REMARK   12  A    between atoms: C20_42  and  O5_43
ROOT
HETATM    1  C11 UNL     1      -3.834  24.083  27.344  1.00  0.00     0.081 C
HETATM    2  N2  UNL     1      -4.258  22.884  27.412  1.00  0.00    -0.287 N
ATOM      3  H2  UNL     1      -4.686  22.616  28.299  1.00  0.00     0.187 HD
ENDROOT
BRANCH   1   4
HETATM    4  C10 UNL     1      -3.998  24.953  28.533  1.00  0.00     0.337 C
BRANCH   4   5
HETATM    5  N1  UNL     1      -4.086  26.336  28.079  1.00  0.00     0.127 N
HETATM    6  C9  UNL     1      -3.109  27.166  28.775  1.00  0.00     0.392 C
HETATM    7  C5  UNL     1      -3.555  27.636  30.090  1.00  0.00     0.009 A
HETATM    8  C4  UNL     1      -4.800  27.414  30.627  1.00  0.00    -0.043 A
HETATM    9  C6  UNL     1      -2.606  28.364  30.823  1.00  0.00     0.051 A
HETATM   10  C3  UNL     1      -5.094  27.906  31.869  1.00  0.00     0.047 A
HETATM   11  C23 UNL     1      -5.777  26.661  29.821  1.00  0.00     0.069 C
HETATM   12  C2  UNL     1      -4.203  28.624  32.629  1.00  0.00     0.102 A
HETATM   13  C7  UNL     1      -2.946  28.841  32.070  1.00  0.00     0.102 A
HETATM   14  C22 UNL     1      -5.407  26.889  28.360  1.00  0.00     0.281 C
BRANCH   6  15
HETATM   15  O3  UNL     1      -2.834  28.263  27.943  1.00  0.00    -0.364 OA
ATOM     16  H3  UNL     1      -3.627  28.542  27.502  1.00  0.00     0.212 HD
ENDBRANCH   6  15
BRANCH  12  17
HETATM   17  O1  UNL     1      -4.467  29.133  33.880  1.00  0.00    -0.353 OA
HETATM   18  C1  UNL     1      -5.793  29.269  34.325  1.00  0.00     0.210 C
ENDBRANCH  12  17
BRANCH  13  19
HETATM   19  O2  UNL     1      -2.036  29.569  32.835  1.00  0.00    -0.353 OA
HETATM   20  C8  UNL     1      -0.958  28.900  33.475  1.00  0.00     0.210 C
ENDBRANCH  13  19
ENDBRANCH   4   5
ENDBRANCH   1   4
BRANCH   1  21
HETATM   21  C17 UNL     1      -3.233  24.551  26.100  1.00  0.00     0.060 A
HETATM   22  C18 UNL     1      -2.008  25.177  26.038  1.00  0.00     0.071 A
HETATM   23  C19 UNL     1      -1.424  25.603  24.877  1.00  0.00     0.102 A
HETATM   24  C20 UNL     1      -2.096  25.396  23.687  1.00  0.00     0.114 A
HETATM   25  C21 UNL     1      -3.326  24.769  23.751  1.00  0.00     0.127 A
HETATM   26  N11 UNL     1      -3.863  24.369  24.909  1.00  0.00    -0.361 N
ATOM     27  H11 UNL     1      -4.775  23.913  24.898  1.00  0.00     0.165 HD
BRANCH  23  28
HETATM   28  O4  UNL     1      -0.178  26.233  24.835  1.00  0.00    -0.358 OA
ATOM     29  H4  UNL     1       0.454  26.180  25.543  1.00  0.00     0.217 HD
ENDBRANCH  23  28
BRANCH  24  30
HETATM   30  O5  UNL     1      -1.558  25.800  22.457  1.00  0.00    -0.357 OA
ATOM     31  H5  UNL     1      -1.484  25.201  21.723  1.00  0.00     0.218 HD
ENDBRANCH  24  30
ENDBRANCH   1  21
BRANCH   2  32
HETATM   32  N3  UNL     1      -4.216  21.908  26.457  1.00  0.00    -0.131 N
ATOM     33  H3  UNL     1      -5.014  21.843  25.826  1.00  0.00     0.205 HD
BRANCH  32  34
HETATM   34  C12 UNL     1      -3.262  21.065  26.282  1.00  0.00     0.713 A
HETATM   35  N4  UNL     1      -2.575  20.943  25.159  1.00  0.00    -0.161 N
HETATM   36  C13 UNL     1      -1.566  20.061  24.977  1.00  0.00     0.221 A
ATOM     37  H4  UNL     1      -2.820  21.553  24.379  1.00  0.00     0.187 HD
HETATM   38  N5  UNL     1      -0.851  19.959  23.765  1.00  0.00    -0.062 NA
HETATM   39  N6  UNL     1      -1.254  19.255  26.029  1.00  0.00    -0.160 N
HETATM   40  C14 UNL     1      -1.930  19.345  27.191  1.00  0.00     0.724 A
ATOM     41  H6  UNL     1      -0.500  18.574  25.936  1.00  0.00     0.187 HD
HETATM   42  N7  UNL     1      -1.619  18.593  28.172  1.00  0.00    -0.063 N
HETATM   43  N10 UNL     1      -2.942  20.264  27.306  1.00  0.00    -0.018 N
ATOM     44  H7  UNL     1      -2.195  18.745  29.000  1.00  0.00     0.221 HD
ATOM     45  H10 UNL     1      -3.457  20.338  28.183  1.00  0.00     0.203 HD
BRANCH  42  46
HETATM   46  N8  UNL     1      -0.734  17.689  28.326  1.00  0.00    -0.301 NA
BRANCH  46  47
HETATM   47  C15 UNL     1      -0.000  16.769  28.531  1.00  0.00     0.186 C
HETATM   48  C16 UNL     1      -0.509  15.350  28.552  1.00  0.00     0.104 C
HETATM   49  N9  UNL     1       1.431  16.861  28.790  1.00  0.00    -0.070 NA
ENDBRANCH  46  47
ENDBRANCH  42  46
ENDBRANCH  32  34
ENDBRANCH   2  32
TORSDOF 12
ENDMDL