MODEL 4
REMARK VINA RESULT: -9.501059804      2.568      8.006
REMARK  14 active torsions:
REMARK  status: ('A' for Active; 'I' for Inactive)
REMARK    1  A    between atoms: C3_4  and  O2_5
REMARK    2  A    between atoms: O2_5  and  C4_6
REMARK    3  A    between atoms: C7_10  and  O4_11
REMARK    4  A    between atoms: C8_13  and  O5_14
REMARK    5  A    between atoms: C9_16  and  O6_17
REMARK    6  A    between atoms: O6_17  and  C10_18
REMARK    7  A    between atoms: C10_18  and  C11_19
REMARK    8  A    between atoms: C13_21  and  O7_22
REMARK    9  A    between atoms: O7_22  and  C14_23
REMARK   10  A    between atoms: N1_31  and  O8_33
REMARK   11  A    between atoms: C22_35  and  N2_36
REMARK   12  A    between atoms: C23_40  and  O9_41
REMARK   13  A    between atoms: C24_43  and  O10_44
REMARK   14  A    between atoms: C25_46  and  O11_47
ROOT
HETATM    1  C4  UNL     1      -2.929  24.712  26.567  1.00  0.00     0.295 C
HETATM    2  O3  UNL     1      -3.109  26.071  26.537  1.00  0.00    -0.351 OA
HETATM    3  C5  UNL     1      -3.208  26.555  27.848  1.00  0.00     0.152 C
HETATM    4  C6  UNL     1      -3.012  28.050  27.771  1.00  0.00     0.042 C
HETATM    5  C7  UNL     1      -4.619  26.338  28.382  1.00  0.00     0.178 C
HETATM    6  C8  UNL     1      -5.132  25.083  27.660  1.00  0.00     0.183 C
HETATM    7  C9  UNL     1      -3.965  24.146  27.588  1.00  0.00     0.208 C
ENDROOT
BRANCH   7   8
HETATM    8  O6  UNL     1      -4.315  22.878  27.218  1.00  0.00    -0.378 OA
BRANCH   8   9
HETATM    9  C10 UNL     1      -3.653  21.893  27.904  1.00  0.00     0.175 C
BRANCH   9  10
HETATM   10  C11 UNL     1      -2.631  21.202  27.084  1.00  0.00     0.048 C
HETATM   11  C12 UNL     1      -1.716  20.417  27.986  1.00  0.00     0.041 C
HETATM   12  C13 UNL     1      -1.567  18.989  27.574  1.00  0.00     0.128 C
HETATM   13  C20 UNL     1      -1.065  18.983  26.121  1.00  0.00     0.088 C
HETATM   14  C21 UNL     1      -2.154  19.593  25.345  1.00  0.00     0.043 C
HETATM   15  N1  UNL     1      -2.149  19.541  24.078  1.00  0.00    -0.275 N
HETATM   16  C22 UNL     1      -3.242  20.260  26.064  1.00  0.00     0.237 C
ATOM     17  H1  UNL     1      -2.937  19.985  23.606  1.00  0.00     0.193 HD
BRANCH  12  18
HETATM   18  O7  UNL     1      -0.685  18.298  28.393  1.00  0.00    -0.380 OA
BRANCH  18  19
HETATM   19  C14 UNL     1      -1.380  17.338  29.103  1.00  0.00     0.122 C
HETATM   20  C15 UNL     1      -0.721  17.006  30.421  1.00  0.00     0.032 C
HETATM   21  C16 UNL     1       0.759  16.858  30.157  1.00  0.00     0.002 C
HETATM   22  C17 UNL     1       0.986  16.219  28.822  1.00  0.00     0.000 C
HETATM   23  C18 UNL     1      -0.167  15.341  28.412  1.00  0.00     0.002 C
HETATM   24  C19 UNL     1      -1.452  16.088  28.248  1.00  0.00     0.032 C
ENDBRANCH  18  19
ENDBRANCH  12  18
BRANCH  15  25
HETATM   25  O8  UNL     1      -1.216  18.962  23.274  1.00  0.00    -0.290 OA
ATOM     26  H8  UNL     1      -1.275  18.125  22.828  1.00  0.00     0.244 HD
ENDBRANCH  15  25
BRANCH  16  27
HETATM   27  N2  UNL     1      -4.066  20.978  25.109  1.00  0.00    -0.069 N
ATOM     28  H23 UNL     1      -3.522  21.669  24.592  1.00  0.00     0.275 HD
ATOM     29  H22 UNL     1      -4.342  20.380  24.330  1.00  0.00     0.275 HD
ATOM     30  H21 UNL     1      -4.876  21.402  25.561  1.00  0.00     0.275 HD
ENDBRANCH  16  27
ENDBRANCH   9  10
ENDBRANCH   8   9
ENDBRANCH   7   8
BRANCH   1  31
HETATM   31  O2  UNL     1      -3.115  24.063  25.366  1.00  0.00    -0.326 OA
BRANCH  31  32
HETATM   32  C3  UNL     1      -2.411  24.628  24.331  1.00  0.00     0.294 C
HETATM   33  O1  UNL     1      -1.495  25.590  24.688  1.00  0.00    -0.351 OA
HETATM   34  C2  UNL     1      -1.085  26.264  23.558  1.00  0.00     0.152 C
HETATM   35  C1  UNL     1      -0.128  27.391  23.885  1.00  0.00     0.042 C
HETATM   36  C25 UNL     1      -0.385  25.388  22.541  1.00  0.00     0.178 C
HETATM   37  C24 UNL     1      -1.308  24.238  22.213  1.00  0.00     0.183 C
HETATM   38  C23 UNL     1      -1.647  23.558  23.542  1.00  0.00     0.204 C
BRANCH  36  39
HETATM   39  O11 UNL     1      -0.151  26.196  21.428  1.00  0.00    -0.390 OA
ATOM     40  H11 UNL     1       0.708  26.581  21.557  1.00  0.00     0.210 HD
ENDBRANCH  36  39
BRANCH  37  41
HETATM   41  O10 UNL     1      -2.498  24.763  21.724  1.00  0.00    -0.390 OA
ATOM     42  H10 UNL     1      -2.359  24.930  20.799  1.00  0.00     0.210 HD
ENDBRANCH  37  41
BRANCH  38  43
HETATM   43  O9  UNL     1      -2.426  22.436  23.362  1.00  0.00    -0.388 OA
ATOM     44  H9  UNL     1      -2.137  21.945  22.601  1.00  0.00     0.210 HD
ENDBRANCH  38  43
ENDBRANCH  31  32
ENDBRANCH   1  31
BRANCH   6  45
HETATM   45  O5  UNL     1      -5.604  25.429  26.389  1.00  0.00    -0.390 OA
ATOM     46  H5  UNL     1      -6.386  25.961  26.472  1.00  0.00     0.210 HD
ENDBRANCH   6  45
BRANCH   5  47
HETATM   47  O4  UNL     1      -4.603  26.062  29.735  1.00  0.00    -0.390 OA
ATOM     48  H4  UNL     1      -5.112  26.700  30.221  1.00  0.00     0.210 HD
ENDBRANCH   5  47
TORSDOF 14
ENDMDL