MODEL 3
REMARK VINA RESULT: -9.268434783      3.066      4.709
REMARK  15 active torsions:
REMARK  status: ('A' for Active; 'I' for Inactive)
REMARK    1  A    between atoms: C3_3  and  C4_4
REMARK    2  A    between atoms: C4_4  and  O2_6
REMARK    3  A    between atoms: O2_6  and  C5_7
REMARK    4  A    between atoms: C7_10  and  C8_11
REMARK    5  A    between atoms: C10_15  and  O6_16
REMARK    6  A    between atoms: C11_18  and  O7_19
REMARK    7  A    between atoms: O7_19  and  C12_20
REMARK    8  A    between atoms: C12_20  and  C13_22
REMARK    9  A    between atoms: C15_24  and  O9_25
REMARK   10  A    between atoms: C16_27  and  O10_28
REMARK   11  A    between atoms: C17_30  and  O11_31
REMARK   12  A    between atoms: C19_33  and  C20_34
REMARK   13  A    between atoms: C20_34  and  O12_36
REMARK   14  A    between atoms: C22_38  and  O13_39
REMARK   15  A    between atoms: C23_41  and  O14_42
ROOT
HETATM    1  C5  UNL     1      -0.615  17.271  26.165  1.00  0.00     0.178 C
HETATM    2  C6  UNL     1      -1.236  18.369  26.500  1.00  0.00     0.077 C
HETATM    3  O3  UNL     1      -1.222  18.961  27.741  1.00  0.00    -0.337 OA
HETATM    4  C7  UNL     1      -2.307  19.924  27.858  1.00  0.00     0.236 C
HETATM    5  C9  UNL     1      -3.052  19.756  26.623  1.00  0.00     0.070 C
HETATM    6  C10 UNL     1      -3.885  20.863  26.073  1.00  0.00     0.158 C
HETATM    7  C11 UNL     1      -3.174  21.896  25.288  1.00  0.00     0.192 C
HETATM    8  C22 UNL     1      -2.127  21.343  24.358  1.00  0.00     0.179 C
HETATM    9  C23 UNL     1      -1.284  20.257  24.899  1.00  0.00     0.160 C
HETATM   10  C24 UNL     1      -2.078  19.197  25.613  1.00  0.00     0.085 C
ENDROOT
BRANCH   7  11
HETATM   11  O7  UNL     1      -4.114  22.529  24.399  1.00  0.00    -0.307 OA
BRANCH  11  12
HETATM   12  C12 UNL     1      -4.397  23.888  24.455  1.00  0.00     0.295 C
HETATM   13  O8  UNL     1      -5.597  24.208  24.498  1.00  0.00    -0.259 OA
BRANCH  12  14
HETATM   14  C13 UNL     1      -3.340  24.881  24.477  1.00  0.00     0.057 A
HETATM   15  C14 UNL     1      -2.685  25.087  23.236  1.00  0.00     0.058 A
HETATM   16  C15 UNL     1      -1.610  25.926  23.143  1.00  0.00     0.102 A
HETATM   17  C16 UNL     1      -1.146  26.587  24.245  1.00  0.00     0.133 A
HETATM   18  C17 UNL     1      -1.781  26.396  25.452  1.00  0.00     0.117 A
HETATM   19  C19 UNL     1      -2.879  25.547  25.595  1.00  0.00     0.045 A
BRANCH  16  20
HETATM   20  O9  UNL     1      -0.963  26.132  21.932  1.00  0.00    -0.358 OA
ATOM     21  H9  UNL     1      -0.145  26.612  21.888  1.00  0.00     0.217 HD
ENDBRANCH  16  20
BRANCH  17  22
HETATM   22  O10 UNL     1      -0.062  27.432  24.156  1.00  0.00    -0.356 OA
ATOM     23  H10 UNL     1      -0.174  28.373  24.219  1.00  0.00     0.218 HD
ENDBRANCH  17  22
BRANCH  18  24
HETATM   24  O11 UNL     1      -1.248  27.121  26.526  1.00  0.00    -0.352 OA
HETATM   25  C18 UNL     1      -1.779  28.404  26.854  1.00  0.00     0.210 C
ENDBRANCH  18  24
BRANCH  19  26
HETATM   26  C20 UNL     1      -3.592  25.418  26.863  1.00  0.00     0.053 C
HETATM   27  C21 UNL     1      -4.593  26.475  27.215  1.00  0.00     0.077 C
BRANCH  26  28
HETATM   28  O12 UNL     1      -2.871  24.987  27.956  1.00  0.00    -0.364 OA
ATOM     29  H12 UNL     1      -3.360  24.644  28.694  1.00  0.00     0.217 HD
ENDBRANCH  26  28
ENDBRANCH  19  26
ENDBRANCH  12  14
ENDBRANCH  11  12
ENDBRANCH   7  11
BRANCH   6  30
HETATM   30  O6  UNL     1      -4.712  21.371  27.029  1.00  0.00    -0.392 OA
ATOM     31  H6  UNL     1      -5.195  22.119  26.698  1.00  0.00     0.210 HD
ENDBRANCH   6  30
BRANCH   8  32
HETATM   32  O13 UNL     1      -2.768  20.961  23.151  1.00  0.00    -0.390 OA
ATOM     33  H13 UNL     1      -2.313  21.380  22.430  1.00  0.00     0.210 HD
ENDBRANCH   8  32
BRANCH   9  34
HETATM   34  O14 UNL     1      -0.687  19.596  23.799  1.00  0.00    -0.392 OA
ATOM     35  H14 UNL     1       0.192  19.349  24.060  1.00  0.00     0.210 HD
ENDBRANCH   9  34
BRANCH   4  36
HETATM   36  C8  UNL     1      -1.786  21.216  28.256  1.00  0.00     0.204 C
HETATM   37  O4  UNL     1      -0.655  21.611  27.931  1.00  0.00    -0.646 OA
HETATM   38  O5  UNL     1      -2.546  22.071  29.028  1.00  0.00    -0.646 OA
ENDBRANCH   4  36
BRANCH   1  39
HETATM   39  O2  UNL     1       0.175  16.505  27.018  1.00  0.00    -0.285 OA
BRANCH  39  40
HETATM   40  C4  UNL     1      -0.374  15.959  28.147  1.00  0.00     0.287 C
HETATM   41  O1  UNL     1      -1.609  15.654  28.080  1.00  0.00    -0.260 OA
BRANCH  40  42
HETATM   42  C3  UNL     1       0.366  15.732  29.354  1.00  0.00     0.078 C
HETATM   43  C2  UNL     1       0.197  16.423  30.437  1.00  0.00    -0.025 C
HETATM   44  C1  UNL     1      -0.764  17.523  30.579  1.00  0.00     0.036 C
ENDBRANCH  40  42
ENDBRANCH  39  40
ENDBRANCH   1  39
TORSDOF 15
ENDMDL