MODEL 4
REMARK VINA RESULT: -7.829231142      1.117      1.156
REMARK  7 active torsions:
REMARK  status: ('A' for Active; 'I' for Inactive)
REMARK    1  A    between atoms: S1_2  and  N1_5
REMARK    2  A    between atoms: C6_15  and  C7_16
REMARK    3  A    between atoms: C8_19  and  N3_20
REMARK    4  A    between atoms: N3_20  and  C9_22
REMARK    5  A    between atoms: C11_27  and  C12_28
REMARK    6  A    between atoms: C12_28  and  O5_29
REMARK    7  A    between atoms: C13_32  and  C14_33
ROOT
HETATM    1  N1  UNL     1      -2.331  21.607  24.924  1.00  0.00    -0.273 N
ATOM      2  H1  UNL     1      -1.688  21.928  24.199  1.00  0.00     0.179 HD
HETATM    3  C2  UNL     1      -2.898  22.555  25.526  1.00  0.00     0.102 C
HETATM    4  N2  UNL     1      -2.573  23.904  25.123  1.00  0.00    -0.318 N
ATOM      5  H2  UNL     1      -2.113  23.977  24.216  1.00  0.00     0.175 HD
HETATM    6  S2  UNL     1      -2.840  25.444  25.940  1.00  0.00    -0.037 SA
HETATM    7  C3  UNL     1      -4.405  25.221  26.882  1.00  0.00     0.153 C
HETATM    8  S3  UNL     1      -5.502  24.298  25.730  1.00  0.00    -0.149 SA
HETATM    9  C4  UNL     1      -5.245  22.541  26.091  1.00  0.00     0.088 C
HETATM   10  C5  UNL     1      -3.862  22.256  26.610  1.00  0.00     0.080 C
HETATM   11  C6  UNL     1      -3.522  23.047  27.839  1.00  0.00     0.123 C
HETATM   12  C8  UNL     1      -4.240  24.318  28.051  1.00  0.00     0.123 C
ENDROOT
BRANCH  12  13
HETATM   13  N3  UNL     1      -3.672  24.967  29.218  1.00  0.00    -0.367 N
ATOM     14  H3  UNL     1      -2.661  25.090  29.263  1.00  0.00     0.161 HD
BRANCH  13  15
HETATM   15  C9  UNL     1      -4.468  25.443  30.306  1.00  0.00     0.129 A
HETATM   16  N4  UNL     1      -5.731  25.125  30.568  1.00  0.00    -0.330 N
HETATM   17  C10 UNL     1      -6.134  25.786  31.701  1.00  0.00     0.096 A
ATOM     18  H4  UNL     1      -6.308  24.491  30.016  1.00  0.00     0.168 HD
HETATM   19  N5  UNL     1      -5.161  26.507  32.155  1.00  0.00    -0.309 N
HETATM   20  C15 UNL     1      -7.415  25.801  32.435  1.00  0.00     0.153 C
HETATM   21  C11 UNL     1      -4.101  26.318  31.308  1.00  0.00     0.098 A
HETATM   22  C13 UNL     1      -5.402  27.280  33.346  1.00  0.00     0.254 C
HETATM   23  S5  UNL     1      -7.248  27.367  33.343  1.00  0.00    -0.125 SA
BRANCH  21  24
HETATM   24  C12 UNL     1      -2.754  26.928  31.397  1.00  0.00     0.244 C
HETATM   25  S4  UNL     1      -2.856  28.744  31.307  1.00  0.00    -0.056 SA
BRANCH  24  26
HETATM   26  O5  UNL     1      -2.093  26.623  32.585  1.00  0.00    -0.378 OA
ATOM     27  H5  UNL     1      -1.485  27.300  32.859  1.00  0.00     0.211 HD
ENDBRANCH  24  26
ENDBRANCH  21  24
BRANCH  22  28
HETATM   28  C14 UNL     1      -5.075  26.443  34.521  1.00  0.00     0.207 C
HETATM   29  O6  UNL     1      -5.814  26.484  35.531  1.00  0.00    -0.646 OA
HETATM   30  O7  UNL     1      -3.976  25.600  34.563  1.00  0.00    -0.646 OA
ENDBRANCH  22  28
ENDBRANCH  13  15
ENDBRANCH  12  13
BRANCH  11  31
HETATM   31  C7  UNL     1      -3.713  22.175  29.025  1.00  0.00     0.179 C
HETATM   32  O3  UNL     1      -2.711  21.484  29.406  1.00  0.00    -0.648 OA
HETATM   33  O4  UNL     1      -4.905  22.074  29.730  1.00  0.00    -0.648 OA
ENDBRANCH  11  31
BRANCH   1  34
HETATM   34  S1  UNL     1      -2.393  19.945  25.044  1.00  0.00     0.228 S
HETATM   35  C1  UNL     1      -1.889  19.427  26.688  1.00  0.00     0.186 C
HETATM   36  O1  UNL     1      -1.577  19.186  24.049  1.00  0.00    -0.206 OA
HETATM   37  O2  UNL     1      -3.822  19.419  24.865  1.00  0.00    -0.206 OA
ENDBRANCH   1  34
TORSDOF 7
ENDMDL