MODEL 1
REMARK VINA RESULT: -10.421033766      0.000      0.000
REMARK  11 active torsions:
REMARK  status: ('A' for Active; 'I' for Inactive)
REMARK    1  A    between atoms: C2_2  and  N1_5
REMARK       I    between atoms: N1_5  and  C5_7
REMARK    2  A    between atoms: C5_7  and  C6_9
REMARK    3  A    between atoms: C7_15  and  S1_16
REMARK    4  A    between atoms: S1_16  and  N4_19
REMARK    5  A    between atoms: N4_19  and  C8_21
REMARK    6  A    between atoms: C8_21  and  C9_26
REMARK    7  A    between atoms: N5_22  and  O5_24
REMARK       I    between atoms: C9_26  and  N6_28
REMARK    8  A    between atoms: N6_28  and  C10_30
REMARK    9  A    between atoms: C10_30  and  C11_31
REMARK   10  A    between atoms: C14_34  and  C15_35
REMARK   11  A    between atoms: C17_43  and  O7_44
ROOT
HETATM    1  C8  UNL     1      -1.860  26.090  26.086  1.00  0.00     0.204 C
HETATM    2  N5  UNL     1      -1.016  26.942  25.697  1.00  0.00    -0.248 N
ATOM      3  H5  UNL     1      -0.559  26.749  24.806  1.00  0.00     0.196 HD
ENDROOT
BRANCH   1   4
HETATM    4  N4  UNL     1      -2.573  26.200  27.282  1.00  0.00    -0.259 N
ATOM      5  H4  UNL     1      -2.575  25.375  27.881  1.00  0.00     0.180 HD
BRANCH   4   6
HETATM    6  S1  UNL     1      -3.447  27.561  27.864  1.00  0.00     0.284 S
HETATM    7  O3  UNL     1      -3.356  28.594  26.730  1.00  0.00    -0.199 OA
HETATM    8  O4  UNL     1      -4.903  27.290  28.008  1.00  0.00    -0.199 OA
BRANCH   6   9
HETATM    9  C7  UNL     1      -2.662  28.230  29.230  1.00  0.00     0.206 A
HETATM   10  C6  UNL     1      -2.759  27.982  30.545  1.00  0.00     0.166 A
HETATM   11  N2  UNL     1      -1.845  28.803  31.145  1.00  0.00    -0.233 N
HETATM   12  O2  UNL     1      -1.235  29.502  30.254  1.00  0.00    -0.155 OA
ATOM     13  H2  UNL     1      -1.671  28.853  32.149  1.00  0.00     0.197 HD
HETATM   14  N3  UNL     1      -1.693  29.191  29.110  1.00  0.00    -0.227 N
ATOM     15  H3  UNL     1      -1.383  29.599  28.228  1.00  0.00     0.197 HD
BRANCH  10  16
HETATM   16  C5  UNL     1      -3.613  27.056  31.252  1.00  0.00     0.273 C
HETATM   17  N1  UNL     1      -5.045  27.246  31.198  1.00  0.00    -0.347 N
ATOM     18  H1  UNL     1      -5.405  28.032  30.657  1.00  0.00     0.163 HD
HETATM   19  O1  UNL     1      -3.228  26.080  31.929  1.00  0.00    -0.266 OA
BRANCH  17  20
HETATM   20  C2  UNL     1      -5.989  26.395  31.857  1.00  0.00     0.022 C
HETATM   21  C1  UNL     1      -5.767  26.324  33.349  1.00  0.00     0.037 C
HETATM   22  C3  UNL     1      -5.905  25.011  31.262  1.00  0.00     0.037 C
HETATM   23  C4  UNL     1      -7.390  26.943  31.611  1.00  0.00     0.037 C
ENDBRANCH  17  20
ENDBRANCH  10  16
ENDBRANCH   6   9
ENDBRANCH   4   6
ENDBRANCH   1   4
BRANCH   1  24
HETATM   24  C9  UNL     1      -2.118  24.953  25.207  1.00  0.00     0.288 C
HETATM   25  O6  UNL     1      -1.656  24.949  24.035  1.00  0.00    -0.264 OA
HETATM   26  N6  UNL     1      -2.888  23.866  25.670  1.00  0.00    -0.350 N
ATOM     27  H6  UNL     1      -3.247  23.892  26.625  1.00  0.00     0.163 HD
BRANCH  26  28
HETATM   28  C10 UNL     1      -3.190  22.715  24.843  1.00  0.00     0.162 C
BRANCH  28  29
HETATM   29  C11 UNL     1      -2.613  21.504  25.433  1.00  0.00    -0.025 A
HETATM   30  C12 UNL     1      -2.494  21.420  26.800  1.00  0.00     0.012 A
HETATM   31  C13 UNL     1      -1.961  20.249  27.331  1.00  0.00     0.031 A
HETATM   32  C14 UNL     1      -1.567  19.215  26.541  1.00  0.00     0.053 A
HETATM   33  N9  UNL     1      -1.694  19.327  25.193  1.00  0.00    -0.364 N
HETATM   34  C18 UNL     1      -2.204  20.437  24.636  1.00  0.00     0.097 A
ATOM     35  H9  UNL     1      -1.398  18.556  24.595  1.00  0.00     0.165 HD
BRANCH  32  36
HETATM   36  C15 UNL     1      -1.035  17.955  27.099  1.00  0.00     0.086 A
HETATM   37  S2  UNL     1      -1.415  17.309  28.671  1.00  0.00    -0.048 SA
HETATM   38  C16 UNL     1      -0.444  15.919  28.604  1.00  0.00     0.144 A
HETATM   39  N7  UNL     1      -0.235  14.951  29.475  1.00  0.00    -0.380 N
HETATM   40  N8  UNL     1       0.124  16.004  27.398  1.00  0.00    -0.317 N
ATOM     41  H72 UNL     1      -0.669  14.887  30.396  1.00  0.00     0.158 HD
ATOM     42  H71 UNL     1       0.348  14.116  29.435  1.00  0.00     0.158 HD
HETATM   43  C17 UNL     1      -0.171  17.025  26.638  1.00  0.00     0.161 A
ATOM     44  H8  UNL     1       0.773  15.286  27.077  1.00  0.00     0.170 HD
BRANCH  43  45
HETATM   45  O7  UNL     1       0.412  17.156  25.336  1.00  0.00    -0.345 OA
ATOM     46  H7  UNL     1       1.324  17.406  25.238  1.00  0.00     0.219 HD
ENDBRANCH  43  45
ENDBRANCH  32  36
ENDBRANCH  28  29
ENDBRANCH  26  28
ENDBRANCH   1  24
BRANCH   2  47
HETATM   47  O5  UNL     1      -0.648  28.075  26.322  1.00  0.00    -0.288 OA
ATOM     48  H5  UNL     1      -1.148  28.879  26.405  1.00  0.00     0.244 HD
ENDBRANCH   2  47
TORSDOF 11
ENDMDL