MODEL 1
REMARK VINA RESULT: -8.091453866      0.000      0.000
REMARK  15 active torsions:
REMARK  status: ('A' for Active; 'I' for Inactive)
REMARK    1  A    between atoms: O1_2  and  C2_3
REMARK    2  A    between atoms: C4_5  and  C5_6
REMARK    3  A    between atoms: C6_7  and  O2_8
REMARK    4  A    between atoms: C8_11  and  O3_12
REMARK    5  A    between atoms: C12_16  and  O4_17
REMARK    6  A    between atoms: O4_17  and  C13_18
REMARK    7  A    between atoms: C13_18  and  C14_20
REMARK       I    between atoms: C14_20  and  N1_22
REMARK    8  A    between atoms: N1_22  and  N2_24
REMARK    9  A    between atoms: C15_27  and  O7_28
REMARK   10  A    between atoms: O7_28  and  C16_29
REMARK   11  A    between atoms: C18_32  and  C19_33
REMARK   12  A    between atoms: C19_33  and  O9_34
REMARK   13  A    between atoms: C19_33  and  C20_36
REMARK   14  A    between atoms: C23_41  and  O12_42
REMARK   15  A    between atoms: C24_44  and  O13_45
ROOT
HETATM    1  C5  UNL     1      -2.900  24.951  32.400  1.00  0.00     0.017 A
HETATM    2  C6  UNL     1      -2.241  24.030  33.224  1.00  0.00     0.080 A
HETATM    3  C7  UNL     1      -2.245  22.701  32.927  1.00  0.00     0.074 A
HETATM    4  C8  UNL     1      -2.924  22.305  31.777  1.00  0.00     0.077 A
HETATM    5  C10 UNL     1      -3.555  23.174  30.981  1.00  0.00    -0.014 A
HETATM    6  C11 UNL     1      -3.572  24.560  31.266  1.00  0.00    -0.003 A
HETATM    7  C12 UNL     1      -4.324  25.444  30.355  1.00  0.00     0.197 C
HETATM    8  C15 UNL     1      -4.123  25.129  28.896  1.00  0.00     0.173 C
HETATM    9  C18 UNL     1      -3.479  23.803  28.742  1.00  0.00     0.062 C
HETATM   10  C21 UNL     1      -4.225  22.847  29.712  1.00  0.00     0.052 C
ENDROOT
BRANCH   1  11
HETATM   11  C4  UNL     1      -2.803  26.350  32.772  1.00  0.00    -0.017 A
HETATM   12  C3  UNL     1      -3.753  27.007  33.517  1.00  0.00     0.052 A
HETATM   13  C2  UNL     1      -3.669  28.341  33.839  1.00  0.00     0.104 A
HETATM   14  C24 UNL     1      -2.559  29.041  33.379  1.00  0.00     0.132 A
HETATM   15  C23 UNL     1      -1.573  28.441  32.626  1.00  0.00     0.102 A
HETATM   16  C22 UNL     1      -1.729  27.085  32.340  1.00  0.00     0.052 A
BRANCH  13  17
HETATM   17  O1  UNL     1      -4.648  28.971  34.595  1.00  0.00    -0.353 OA
HETATM   18  C1  UNL     1      -5.970  29.144  34.124  1.00  0.00     0.210 C
ENDBRANCH  13  17
BRANCH  14  19
HETATM   19  O13 UNL     1      -2.482  30.369  33.703  1.00  0.00    -0.356 OA
ATOM     20  H13 UNL     1      -1.670  30.817  33.496  1.00  0.00     0.218 HD
ENDBRANCH  14  19
BRANCH  15  21
HETATM   21  O12 UNL     1      -0.456  29.127  32.158  1.00  0.00    -0.358 OA
ATOM     22  H12 UNL     1       0.149  29.526  32.773  1.00  0.00     0.217 HD
ENDBRANCH  15  21
ENDBRANCH   1  11
BRANCH   2  23
HETATM   23  O2  UNL     1      -1.574  24.494  34.365  1.00  0.00    -0.360 OA
ATOM     24  H2  UNL     1      -1.271  25.394  34.389  1.00  0.00     0.217 HD
ENDBRANCH   2  23
BRANCH   7  25
HETATM   25  O4  UNL     1      -5.641  25.446  30.778  1.00  0.00    -0.301 OA
BRANCH  25  26
HETATM   26  C13 UNL     1      -6.367  26.521  31.167  1.00  0.00     0.353 C
HETATM   27  O5  UNL     1      -5.893  27.611  30.820  1.00  0.00    -0.254 OA
BRANCH  26  28
HETATM   28  C14 UNL     1      -7.598  26.487  31.925  1.00  0.00     0.334 C
HETATM   29  O6  UNL     1      -7.749  25.584  32.781  1.00  0.00    -0.260 OA
HETATM   30  N1  UNL     1      -8.607  27.441  31.716  1.00  0.00    -0.268 N
ATOM     31  H1  UNL     1      -8.460  28.167  31.014  1.00  0.00     0.190 HD
BRANCH  30  32
HETATM   32  N2  UNL     1      -9.813  27.433  32.437  1.00  0.00    -0.342 N
ATOM     33  H22 UNL     1     -10.295  26.540  32.546  1.00  0.00     0.176 HD
ATOM     34  H21 UNL     1     -10.212  28.278  32.846  1.00  0.00     0.176 HD
ENDBRANCH  30  32
ENDBRANCH  26  28
ENDBRANCH  25  26
ENDBRANCH   7  25
BRANCH   4  35
HETATM   35  O3  UNL     1      -2.953  20.967  31.439  1.00  0.00    -0.355 OA
HETATM   36  C9  UNL     1      -1.911  20.134  31.891  1.00  0.00     0.210 C
ENDBRANCH   4  35
BRANCH   8  37
HETATM   37  O7  UNL     1      -3.355  26.094  28.239  1.00  0.00    -0.313 OA
BRANCH  37  38
HETATM   38  C16 UNL     1      -3.834  27.294  27.719  1.00  0.00     0.255 C
HETATM   39  C17 UNL     1      -2.890  28.348  27.309  1.00  0.00     0.126 C
HETATM   40  O8  UNL     1      -5.075  27.383  27.641  1.00  0.00    -0.266 OA
ENDBRANCH  37  38
ENDBRANCH   8  37
BRANCH   9  41
HETATM   41  C19 UNL     1      -3.438  23.244  27.337  1.00  0.00     0.225 C
BRANCH  41  42
HETATM   42  O9  UNL     1      -2.435  24.028  26.691  1.00  0.00    -0.384 OA
ATOM     43  H9  UNL     1      -2.857  24.870  26.562  1.00  0.00     0.210 HD
ENDBRANCH  41  42
BRANCH  41  44
HETATM   44  C20 UNL     1      -2.879  21.886  27.376  1.00  0.00     0.203 C
HETATM   45  O10 UNL     1      -3.435  20.909  26.799  1.00  0.00    -0.646 OA
HETATM   46  O11 UNL     1      -1.681  21.672  28.086  1.00  0.00    -0.646 OA
ENDBRANCH  41  44
ENDBRANCH   9  41
TORSDOF 15
ENDMDL