MODEL 3
REMARK VINA RESULT: -9.123979304      1.531      2.646
REMARK  15 active torsions:
REMARK  status: ('A' for Active; 'I' for Inactive)
REMARK    1  A    between atoms: C2_2  and  O2_4
REMARK    2  A    between atoms: O2_4  and  C3_5
REMARK    3  A    between atoms: C6_8  and  C7_9
REMARK    4  A    between atoms: C7_9  and  O3_10
REMARK    5  A    between atoms: C10_15  and  O4_16
REMARK    6  A    between atoms: O4_16  and  C11_17
REMARK    7  A    between atoms: C12_18  and  C13_19
REMARK    8  A    between atoms: C19_25  and  O5_26
REMARK    9  A    between atoms: O5_26  and  C20_27
REMARK   10  A    between atoms: C21_29  and  C22_30
REMARK   11  A    between atoms: C22_30  and  O7_31
REMARK   12  A    between atoms: C23_33  and  O8_34
REMARK   13  A    between atoms: C24_36  and  O9_37
REMARK   14  A    between atoms: C25_39  and  O10_40
REMARK   15  A    between atoms: C26_42  and  O11_43
ROOT
HETATM    1  C3  UNL     1      -1.908  21.146  26.061  1.00  0.00     0.184 C
HETATM    2  C4  UNL     1      -1.600  21.006  24.605  1.00  0.00     0.004 C
HETATM    3  C5  UNL     1      -2.628  21.039  23.761  1.00  0.00    -0.020 C
HETATM    4  C6  UNL     1      -4.025  21.202  24.171  1.00  0.00     0.052 C
HETATM    5  C8  UNL     1      -4.200  21.662  25.614  1.00  0.00     0.134 C
HETATM    6  C9  UNL     1      -5.404  22.447  25.639  1.00  0.00     0.067 C
HETATM    7  N1  UNL     1      -6.376  23.057  25.635  1.00  0.00    -0.197 NA
HETATM    8  C10 UNL     1      -2.961  22.275  26.143  1.00  0.00     0.173 C
ENDROOT
BRANCH   4   9
HETATM    9  C7  UNL     1      -4.771  19.916  23.950  1.00  0.00     0.174 C
BRANCH   9  10
HETATM   10  O3  UNL     1      -5.241  19.782  22.652  1.00  0.00    -0.400 OA
ATOM     11  H3  UNL     1      -5.161  20.582  22.146  1.00  0.00     0.209 HD
ENDBRANCH   9  10
ENDBRANCH   4   9
BRANCH   8  12
HETATM   12  O4  UNL     1      -3.057  22.736  27.429  1.00  0.00    -0.373 OA
BRANCH  12  13
HETATM   13  C11 UNL     1      -2.799  24.063  27.629  1.00  0.00     0.161 C
HETATM   14  C12 UNL     1      -2.859  25.018  26.525  1.00  0.00     0.040 C
HETATM   15  C17 UNL     1      -4.184  25.826  26.538  1.00  0.00     0.013 C
HETATM   16  C18 UNL     1      -4.144  26.734  27.745  1.00  0.00     0.035 C
HETATM   17  C19 UNL     1      -3.799  25.958  28.981  1.00  0.00     0.156 C
HETATM   18  C26 UNL     1      -3.823  24.466  28.751  1.00  0.00     0.176 C
BRANCH  14  19
HETATM   19  C13 UNL     1      -2.717  24.555  25.148  1.00  0.00    -0.018 C
HETATM   20  C14 UNL     1      -1.929  25.166  24.248  1.00  0.00    -0.091 C
HETATM   21  C15 UNL     1      -1.143  26.388  24.657  1.00  0.00     0.042 C
HETATM   22  C16 UNL     1      -1.810  24.681  22.855  1.00  0.00     0.042 C
ENDBRANCH  14  19
BRANCH  17  23
HETATM   23  O5  UNL     1      -4.588  26.222  30.071  1.00  0.00    -0.351 OA
BRANCH  23  24
HETATM   24  C20 UNL     1      -3.991  26.387  31.286  1.00  0.00     0.292 C
HETATM   25  O6  UNL     1      -2.922  27.285  31.079  1.00  0.00    -0.348 OA
HETATM   26  C21 UNL     1      -2.210  27.517  32.233  1.00  0.00     0.179 C
HETATM   27  C23 UNL     1      -3.039  28.190  33.305  1.00  0.00     0.180 C
HETATM   28  C24 UNL     1      -4.367  27.503  33.510  1.00  0.00     0.183 C
HETATM   29  C25 UNL     1      -4.965  27.130  32.186  1.00  0.00     0.204 C
BRANCH  26  30
HETATM   30  C22 UNL     1      -1.090  28.480  31.894  1.00  0.00     0.198 C
BRANCH  30  31
HETATM   31  O7  UNL     1      -1.319  29.181  30.719  1.00  0.00    -0.398 OA
ATOM     32  H7  UNL     1      -0.532  29.582  30.369  1.00  0.00     0.209 HD
ENDBRANCH  30  31
ENDBRANCH  26  30
BRANCH  27  33
HETATM   33  O8  UNL     1      -2.343  28.078  34.506  1.00  0.00    -0.390 OA
ATOM     34  H8  UNL     1      -2.631  27.278  34.930  1.00  0.00     0.210 HD
ENDBRANCH  27  33
BRANCH  28  35
HETATM   35  O9  UNL     1      -5.215  28.421  34.120  1.00  0.00    -0.390 OA
ATOM     36  H9  UNL     1      -4.849  28.617  34.974  1.00  0.00     0.210 HD
ENDBRANCH  28  35
BRANCH  29  37
HETATM   37  O10 UNL     1      -5.292  28.310  31.516  1.00  0.00    -0.388 OA
ATOM     38  H10 UNL     1      -5.694  28.879  32.162  1.00  0.00     0.210 HD
ENDBRANCH  29  37
ENDBRANCH  23  24
ENDBRANCH  17  23
BRANCH  18  39
HETATM   39  O11 UNL     1      -5.070  23.963  28.492  1.00  0.00    -0.390 OA
ATOM     40  H11 UNL     1      -5.672  24.149  29.203  1.00  0.00     0.210 HD
ENDBRANCH  18  39
ENDBRANCH  12  13
ENDBRANCH   8  12
BRANCH   1  41
HETATM   41  O2  UNL     1      -2.502  19.968  26.516  1.00  0.00    -0.310 OA
BRANCH  41  42
HETATM   42  C2  UNL     1      -1.767  19.071  27.295  1.00  0.00     0.255 C
HETATM   43  C1  UNL     1      -0.933  17.987  26.725  1.00  0.00     0.126 C
HETATM   44  O1  UNL     1      -1.841  19.223  28.556  1.00  0.00    -0.266 OA
ENDBRANCH  41  42
ENDBRANCH   1  41
TORSDOF 15
ENDMDL