MODEL 1
REMARK VINA RESULT: -8.633035736      0.000      0.000
REMARK  9 active torsions:
REMARK  status: ('A' for Active; 'I' for Inactive)
REMARK    1  A    between atoms: N1_2  and  C2_4
REMARK    2  A    between atoms: C2_4  and  C3_5
REMARK    3  A    between atoms: C2_4  and  C20_41
REMARK       I    between atoms: C3_5  and  N2_7
REMARK    4  A    between atoms: C6_11  and  O2_12
REMARK    5  A    between atoms: C7_14  and  N3_15
REMARK    6  A    between atoms: N4_20  and  O3_22
REMARK    7  A    between atoms: C14_26  and  O5_27
REMARK    8  A    between atoms: C17_33  and  N7_34
REMARK    9  A    between atoms: C20_41  and  O6_44
ROOT
HETATM    1  C3  UNL     1      -4.078  22.358  26.475  1.00  0.00     0.247 C
HETATM    2  O1  UNL     1      -4.921  22.738  25.685  1.00  0.00    -0.271 OA
HETATM    3  N2  UNL     1      -3.497  23.226  27.430  1.00  0.00    -0.325 N
ATOM      4  H2  UNL     1      -2.890  22.736  28.087  1.00  0.00     0.168 HD
HETATM    5  C4  UNL     1      -3.559  24.544  27.672  1.00  0.00     0.060 C
HETATM    6  C5  UNL     1      -4.054  25.339  28.782  1.00  0.00     0.054 A
HETATM    7  C6  UNL     1      -4.858  25.194  29.925  1.00  0.00     0.110 A
HETATM    8  C7  UNL     1      -4.934  26.146  30.905  1.00  0.00     0.107 A
HETATM    9  C14 UNL     1      -4.161  27.317  30.759  1.00  0.00     0.122 A
HETATM   10  C15 UNL     1      -3.374  27.483  29.641  1.00  0.00     0.109 A
HETATM   11  N5  UNL     1      -2.580  28.641  29.563  1.00  0.00    -0.097 NA
HETATM   12  C16 UNL     1      -3.313  26.531  28.647  1.00  0.00     0.075 A
HETATM   13  N6  UNL     1      -2.844  26.609  27.291  1.00  0.00    -0.331 N
HETATM   14  C17 UNL     1      -1.962  27.231  26.433  1.00  0.00     0.295 C
HETATM   15  C18 UNL     1      -2.196  26.911  24.991  1.00  0.00     0.130 C
HETATM   16  S1  UNL     1      -2.962  25.273  25.071  1.00  0.00    -0.134 SA
HETATM   17  C19 UNL     1      -3.758  25.590  26.621  1.00  0.00     0.200 C
ENDROOT
BRANCH   1  18
HETATM   18  C2  UNL     1      -3.598  20.910  26.452  1.00  0.00     0.203 C
BRANCH  18  19
HETATM   19  N1  UNL     1      -2.561  20.682  27.335  1.00  0.00    -0.411 N
HETATM   20  C1  UNL     1      -2.794  20.096  28.597  1.00  0.00     0.141 C
ATOM     21  H1  UNL     1      -1.611  20.941  27.071  1.00  0.00     0.153 HD
ENDBRANCH  18  19
BRANCH  18  22
HETATM   22  C20 UNL     1      -3.406  20.437  25.059  1.00  0.00     0.079 C
HETATM   23  C21 UNL     1      -2.547  19.215  25.019  1.00  0.00     0.048 C
HETATM   24  C22 UNL     1      -2.771  21.441  24.104  1.00  0.00     0.048 C
BRANCH  22  25
HETATM   25  O6  UNL     1      -4.692  20.158  24.486  1.00  0.00    -0.388 OA
ATOM     26  H6  UNL     1      -4.679  19.282  24.118  1.00  0.00     0.210 HD
ENDBRANCH  22  25
ENDBRANCH  18  22
ENDBRANCH   1  18
BRANCH   7  27
HETATM   27  O2  UNL     1      -5.579  24.028  29.995  1.00  0.00    -0.357 OA
ATOM     28  H2  UNL     1      -5.505  23.550  30.813  1.00  0.00     0.217 HD
ENDBRANCH   7  27
BRANCH   8  29
HETATM   29  N3  UNL     1      -5.848  26.170  31.972  1.00  0.00    -0.308 N
HETATM   30  C8  UNL     1      -5.565  25.325  33.170  1.00  0.00     0.133 C
HETATM   31  C9  UNL     1      -5.488  26.163  34.419  1.00  0.00     0.026 C
HETATM   32  C10 UNL     1      -6.681  27.014  34.635  1.00  0.00     0.066 C
HETATM   33  C11 UNL     1      -7.425  27.344  33.412  1.00  0.00     0.100 C
HETATM   34  N4  UNL     1      -8.503  28.036  33.508  1.00  0.00    -0.266 N
HETATM   35  C13 UNL     1      -7.033  26.908  32.062  1.00  0.00     0.272 C
ATOM     36  H4  UNL     1      -9.042  28.284  32.678  1.00  0.00     0.194 HD
HETATM   37  O4  UNL     1      -7.727  27.181  31.035  1.00  0.00    -0.266 OA
BRANCH  34  38
HETATM   38  O3  UNL     1      -8.913  28.433  34.764  1.00  0.00    -0.285 OA
HETATM   39  C12 UNL     1     -10.016  27.744  35.360  1.00  0.00     0.237 C
ENDBRANCH  34  38
ENDBRANCH   8  29
BRANCH  14  40
HETATM   40  N7  UNL     1      -2.174  28.705  26.506  1.00  0.00    -0.057 N
ATOM     41  H73 UNL     1      -3.158  28.952  26.612  1.00  0.00     0.276 HD
ATOM     42  H72 UNL     1      -1.833  29.103  27.381  1.00  0.00     0.276 HD
ATOM     43  H71 UNL     1      -1.750  29.142  25.688  1.00  0.00     0.276 HD
ENDBRANCH  14  40
BRANCH   9  44
HETATM   44  O5  UNL     1      -4.190  28.281  31.742  1.00  0.00    -0.357 OA
ATOM     45  H5  UNL     1      -3.820  28.094  32.596  1.00  0.00     0.218 HD
ENDBRANCH   9  44
TORSDOF 9
ENDMDL