MODEL 4
REMARK VINA RESULT: -8.771086949      2.308      4.138
REMARK  13 active torsions:
REMARK  status: ('A' for Active; 'I' for Inactive)
REMARK    1  A    between atoms: O1_2  and  C2_3
REMARK    2  A    between atoms: C2_3  and  C3_5
REMARK    3  A    between atoms: C3_5  and  C4_6
REMARK    4  A    between atoms: C4_6  and  O3_7
REMARK    5  A    between atoms: C4_6  and  C5_9
REMARK    6  A    between atoms: N1_11  and  C6_12
REMARK    7  A    between atoms: C7_15  and  C8_16
REMARK    8  A    between atoms: C9_17  and  C10_18
REMARK    9  A    between atoms: C13_26  and  N6_27
REMARK   10  A    between atoms: C19_39  and  N9_40
REMARK   11  A    between atoms: N9_40  and  N10_42
REMARK   12  A    between atoms: N10_42  and  N11_43
REMARK   13  A    between atoms: C20_46  and  O5_47
ROOT
HETATM    1  C6  UNL     1      -4.494  25.523  28.905  1.00  0.00     0.158 A
HETATM    2  N2  UNL     1      -4.048  26.001  27.708  1.00  0.00    -0.330 N
ATOM      3  H2  UNL     1      -4.203  26.950  27.368  1.00  0.00     0.168 HD
HETATM    4  C7  UNL     1      -3.377  25.052  27.039  1.00  0.00     0.117 A
HETATM    5  C14 UNL     1      -3.367  23.917  27.787  1.00  0.00     0.094 A
HETATM    6  C15 UNL     1      -4.068  24.228  28.950  1.00  0.00     0.104 A
HETATM    7  N7  UNL     1      -4.185  23.176  29.902  1.00  0.00    -0.383 N
ATOM      8  H7  UNL     1      -4.346  23.392  30.886  1.00  0.00     0.159 HD
HETATM    9  C16 UNL     1      -4.075  21.780  29.463  1.00  0.00     0.139 C
HETATM   10  C17 UNL     1      -2.849  21.646  28.598  1.00  0.00     0.139 C
HETATM   11  N8  UNL     1      -2.813  22.636  27.565  1.00  0.00    -0.384 N
ATOM     12  H8  UNL     1      -2.387  22.416  26.664  1.00  0.00     0.159 HD
ENDROOT
BRANCH   1  13
HETATM   13  N1  UNL     1      -5.238  26.222  29.886  1.00  0.00    -0.237 N
HETATM   14  O4  UNL     1      -5.082  27.559  29.944  1.00  0.00    -0.266 OA
HETATM   15  C5  UNL     1      -5.001  28.098  31.197  1.00  0.00     0.212 C
HETATM   16  C20 UNL     1      -6.158  27.754  32.109  1.00  0.00     0.181 C
HETATM   17  C19 UNL     1      -6.995  26.693  31.479  1.00  0.00     0.166 C
HETATM   18  C18 UNL     1      -6.154  25.617  30.815  1.00  0.00     0.188 C
BRANCH  15  19
HETATM   19  C4  UNL     1      -3.685  27.933  31.893  1.00  0.00     0.161 C
BRANCH  19  20
HETATM   20  C3  UNL     1      -2.539  27.664  30.938  1.00  0.00     0.145 C
BRANCH  20  21
HETATM   21  C2  UNL     1      -1.641  28.826  30.818  1.00  0.00     0.260 C
HETATM   22  O2  UNL     1      -0.915  29.196  31.771  1.00  0.00    -0.265 OA
BRANCH  21  23
HETATM   23  O1  UNL     1      -1.594  29.522  29.630  1.00  0.00    -0.326 OA
HETATM   24  C1  UNL     1      -1.836  28.970  28.365  1.00  0.00     0.213 C
ENDBRANCH  21  23
ENDBRANCH  20  21
ENDBRANCH  19  20
BRANCH  19  25
HETATM   25  O3  UNL     1      -3.676  26.967  32.880  1.00  0.00    -0.392 OA
ATOM     26  H3  UNL     1      -4.541  26.580  32.935  1.00  0.00     0.210 HD
ENDBRANCH  19  25
ENDBRANCH  15  19
BRANCH  16  27
HETATM   27  O5  UNL     1      -6.930  28.852  32.460  1.00  0.00    -0.386 OA
HETATM   28  C21 UNL     1      -6.709  29.297  33.737  1.00  0.00     0.202 C
ENDBRANCH  16  27
BRANCH  17  29
HETATM   29  N9  UNL     1      -7.787  26.075  32.527  1.00  0.00    -0.243 N
ATOM     30  H9  UNL     1      -7.421  25.289  33.065  1.00  0.00     0.197 HD
BRANCH  29  31
HETATM   31  N10 UNL     1      -8.910  26.524  32.751  1.00  0.00    -0.248 NA
BRANCH  31  32
HETATM   32  N11 UNL     1      -9.811  27.269  33.123  1.00  0.00    -0.261 N
ATOM     33 2H11 UNL     1     -10.421  27.103  32.322  1.00  0.00     0.193 HD
ATOM     34 1H11 UNL     1     -10.349  27.929  33.683  1.00  0.00     0.193 HD
ENDBRANCH  31  32
ENDBRANCH  29  31
ENDBRANCH  17  29
ENDBRANCH   1  13
BRANCH   4  35
HETATM   35  C8  UNL     1      -2.768  25.214  25.735  1.00  0.00    -0.041 C
HETATM   36  C9  UNL     1      -2.280  25.351  24.641  1.00  0.00    -0.052 C
BRANCH  36  37
HETATM   37  C10 UNL     1      -1.699  25.499  23.323  1.00  0.00     0.102 A
HETATM   38  C11 UNL     1      -1.013  26.636  22.956  1.00  0.00     0.139 A
HETATM   39  N3  UNL     1      -0.895  27.677  23.936  1.00  0.00    -0.081 NA
HETATM   40  N4  UNL     1      -0.469  26.777  21.725  1.00  0.00    -0.340 N
HETATM   41  C12 UNL     1      -0.590  25.791  20.819  1.00  0.00     0.183 A
ATOM     42  H4  UNL     1       0.032  27.631  21.485  1.00  0.00     0.167 HD
HETATM   43  N5  UNL     1      -1.250  24.674  21.143  1.00  0.00    -0.338 N
HETATM   44  C13 UNL     1      -1.810  24.503  22.377  1.00  0.00     0.122 A
ATOM     45  H5  UNL     1      -1.336  23.930  20.451  1.00  0.00     0.168 HD
BRANCH  44  46
HETATM   46  N6  UNL     1      -2.441  23.426  22.678  1.00  0.00    -0.384 N
ATOM     47  H62 UNL     1      -3.459  23.413  22.752  1.00  0.00     0.157 HD
ATOM     48  H61 UNL     1      -1.910  22.571  22.845  1.00  0.00     0.157 HD
ENDBRANCH  44  46
ENDBRANCH  36  37
ENDBRANCH   4  35
TORSDOF 13
ENDMDL