MODEL 3
REMARK VINA RESULT: -9.409848202      3.473      8.506
REMARK  14 active torsions:
REMARK  status: ('A' for Active; 'I' for Inactive)
REMARK    1  A    between atoms: C3_4  and  O2_5
REMARK    2  A    between atoms: O2_5  and  C4_6
REMARK    3  A    between atoms: C5_8  and  C6_9
REMARK    4  A    between atoms: C6_9  and  O4_10
REMARK    5  A    between atoms: C7_12  and  O5_13
REMARK    6  A    between atoms: C8_15  and  O6_16
REMARK    7  A    between atoms: C9_18  and  O7_19
REMARK    8  A    between atoms: C10_21  and  O8_22
REMARK    9  A    between atoms: C11_24  and  O9_25
REMARK   10  A    between atoms: C12_27  and  O10_28
REMARK   11  A    between atoms: O10_28  and  C13_29
REMARK   12  A    between atoms: C18_34  and  O11_35
REMARK   13  A    between atoms: O11_35  and  C19_36
REMARK       I    between atoms: C19_36  and  N1_38
REMARK   14  A    between atoms: N1_38  and  C20_40
ROOT
HETATM    1  C1  UNL     1      -3.393  28.311  27.204  1.00  0.00     0.042 C
HETATM    2  C2  UNL     1      -3.108  27.059  27.991  1.00  0.00     0.152 C
HETATM    3  O1  UNL     1      -3.918  27.070  29.120  1.00  0.00    -0.351 OA
HETATM    4  C3  UNL     1      -3.823  25.876  29.839  1.00  0.00     0.294 C
HETATM    5  C10 UNL     1      -4.554  24.799  29.130  1.00  0.00     0.204 C
HETATM    6  C11 UNL     1      -4.546  25.062  27.634  1.00  0.00     0.183 C
HETATM    7  C12 UNL     1      -3.311  25.786  27.181  1.00  0.00     0.182 C
ENDROOT
BRANCH   4   8
HETATM    8  O2  UNL     1      -4.438  26.179  31.078  1.00  0.00    -0.326 OA
BRANCH   8   9
HETATM    9  C4  UNL     1      -5.263  27.314  30.984  1.00  0.00     0.294 C
HETATM   10  O3  UNL     1      -6.559  26.955  30.697  1.00  0.00    -0.348 OA
HETATM   11  C5  UNL     1      -7.403  26.802  31.747  1.00  0.00     0.179 C
HETATM   12  C7  UNL     1      -7.441  27.957  32.698  1.00  0.00     0.180 C
HETATM   13  C8  UNL     1      -6.074  28.266  33.191  1.00  0.00     0.183 C
HETATM   14  C9  UNL     1      -5.053  28.239  32.122  1.00  0.00     0.204 C
BRANCH  11  15
HETATM   15  C6  UNL     1      -7.201  25.528  32.531  1.00  0.00     0.198 C
BRANCH  15  16
HETATM   16  O4  UNL     1      -6.797  24.461  31.709  1.00  0.00    -0.398 OA
ATOM     17  H4  UNL     1      -7.447  24.257  31.047  1.00  0.00     0.209 HD
ENDBRANCH  15  16
ENDBRANCH  11  15
BRANCH  12  18
HETATM   18  O5  UNL     1      -8.020  29.038  32.060  1.00  0.00    -0.390 OA
ATOM     19  H5  UNL     1      -8.416  29.603  32.714  1.00  0.00     0.210 HD
ENDBRANCH  12  18
BRANCH  13  20
HETATM   20  O6  UNL     1      -5.717  27.495  34.312  1.00  0.00    -0.390 OA
ATOM     21  H6  UNL     1      -5.392  26.635  34.074  1.00  0.00     0.210 HD
ENDBRANCH  13  20
BRANCH  14  22
HETATM   22  O7  UNL     1      -4.810  29.540  31.676  1.00  0.00    -0.388 OA
ATOM     23  H7  UNL     1      -5.383  29.767  30.952  1.00  0.00     0.210 HD
ENDBRANCH  14  22
ENDBRANCH   8   9
ENDBRANCH   4   8
BRANCH   5  24
HETATM   24  O8  UNL     1      -3.948  23.566  29.417  1.00  0.00    -0.388 OA
ATOM     25  H8  UNL     1      -3.281  23.695  30.080  1.00  0.00     0.210 HD
ENDBRANCH   5  24
BRANCH   6  26
HETATM   26  O9  UNL     1      -4.595  23.768  27.059  1.00  0.00    -0.390 OA
ATOM     27  H9  UNL     1      -3.887  23.300  27.487  1.00  0.00     0.210 HD
ENDBRANCH   6  26
BRANCH   7  28
HETATM   28  O10 UNL     1      -3.385  26.205  25.861  1.00  0.00    -0.373 OA
BRANCH  28  29
HETATM   29  C13 UNL     1      -2.488  25.578  25.000  1.00  0.00     0.151 C
HETATM   30  C14 UNL     1      -1.465  26.626  24.507  1.00  0.00     0.034 C
HETATM   31  C15 UNL     1      -0.454  25.977  23.594  1.00  0.00     0.003 C
HETATM   32  C16 UNL     1      -1.239  25.622  22.337  1.00  0.00     0.003 C
HETATM   33  C17 UNL     1      -2.197  24.558  22.703  1.00  0.00     0.035 C
HETATM   34  C18 UNL     1      -3.087  24.833  23.886  1.00  0.00     0.162 C
BRANCH  34  35
HETATM   35  O11 UNL     1      -3.733  23.641  24.276  1.00  0.00    -0.296 OA
BRANCH  35  36
HETATM   36  C19 UNL     1      -3.101  22.408  24.214  1.00  0.00     0.361 C
HETATM   37  O12 UNL     1      -2.727  21.959  23.097  1.00  0.00    -0.238 OA
HETATM   38  N1  UNL     1      -2.889  21.680  25.406  1.00  0.00    -0.329 N
ATOM     39  H1  UNL     1      -3.214  22.093  26.280  1.00  0.00     0.165 HD
BRANCH  38  40
HETATM   40  C20 UNL     1      -2.244  20.392  25.471  1.00  0.00     0.024 C
HETATM   41  C21 UNL     1      -1.903  20.008  26.898  1.00  0.00     0.037 C
HETATM   42  C22 UNL     1      -3.134  19.322  24.882  1.00  0.00     0.037 C
HETATM   43  C23 UNL     1      -0.936  20.360  24.685  1.00  0.00     0.037 C
ENDBRANCH  38  40
ENDBRANCH  35  36
ENDBRANCH  34  35
ENDBRANCH  28  29
ENDBRANCH   7  28
TORSDOF 14
ENDMDL