MODEL 5
REMARK VINA RESULT: -10.233266913      4.152      8.243
REMARK  10 active torsions:
REMARK  status: ('A' for Active; 'I' for Inactive)
REMARK    1  A    between atoms: C2_2  and  C3_3
REMARK    2  A    between atoms: C4_7  and  N2_8
REMARK    3  A    between atoms: C6_13  and  N5_14
REMARK    4  A    between atoms: C7_19  and  N7_20
REMARK    5  A    between atoms: C10_26  and  C11_27
REMARK       I    between atoms: C11_27  and  N9_29
REMARK    6  A    between atoms: N9_29  and  N10_30
REMARK    7  A    between atoms: N10_30  and  C12_32
REMARK    8  A    between atoms: C14_34  and  O3_35
REMARK    9  A    between atoms: C16_38  and  O4_39
REMARK   10  A    between atoms: C18_41  and  O5_42
ROOT
HETATM    1  C3  UNL     1      -3.408  22.491  30.664  1.00  0.00     0.097 A
HETATM    2  O1  UNL     1      -2.505  21.554  30.885  1.00  0.00    -0.239 OA
HETATM    3  N1  UNL     1      -2.265  20.883  29.772  1.00  0.00    -0.242 N
ATOM      4  H1  UNL     1      -1.614  20.103  29.684  1.00  0.00     0.196 HD
HETATM    5  C4  UNL     1      -3.009  21.385  28.773  1.00  0.00     0.167 A
HETATM    6  C10 UNL     1      -3.758  22.407  29.323  1.00  0.00     0.127 A
ENDROOT
BRANCH   6   7
HETATM    7  C11 UNL     1      -4.869  23.167  28.694  1.00  0.00     0.352 C
HETATM    8  O2  UNL     1      -5.971  22.925  29.337  1.00  0.00    -0.249 OA
HETATM    9  N9  UNL     1      -4.808  23.989  27.632  1.00  0.00    -0.281 NA
BRANCH   9  10
HETATM   10  N10 UNL     1      -4.750  24.815  26.567  1.00  0.00    -0.235 N
ATOM     11  H10 UNL     1      -5.506  24.714  25.889  1.00  0.00     0.201 HD
BRANCH  10  12
HETATM   12  C12 UNL     1      -3.763  25.823  26.257  1.00  0.00     0.056 C
HETATM   13  C13 UNL     1      -3.058  25.810  25.108  1.00  0.00     0.035 A
HETATM   14  C14 UNL     1      -3.253  24.789  24.179  1.00  0.00     0.081 A
HETATM   15  C19 UNL     1      -2.061  26.694  24.912  1.00  0.00     0.011 A
HETATM   16  C15 UNL     1      -2.391  24.710  23.121  1.00  0.00     0.077 A
HETATM   17  C16 UNL     1      -1.340  25.588  22.908  1.00  0.00     0.104 A
HETATM   18  C18 UNL     1      -1.172  26.621  23.832  1.00  0.00     0.110 A
HETATM   19  C20 UNL     1      -1.889  27.798  25.647  1.00  0.00    -0.011 C
HETATM   20  C21 UNL     1      -2.899  28.076  26.789  1.00  0.00     0.038 C
HETATM   21  C22 UNL     1      -3.281  26.751  27.340  1.00  0.00     0.038 C
HETATM   22  C23 UNL     1      -2.026  26.094  27.950  1.00  0.00     0.017 C
BRANCH  14  23
HETATM   23  O3  UNL     1      -4.312  23.920  24.366  1.00  0.00    -0.360 OA
ATOM     24  H3  UNL     1      -4.190  23.002  24.151  1.00  0.00     0.217 HD
ENDBRANCH  14  23
BRANCH  17  25
HETATM   25  O4  UNL     1      -0.384  25.562  21.946  1.00  0.00    -0.353 OA
HETATM   26  C17 UNL     1      -0.296  25.987  20.613  1.00  0.00     0.210 C
ENDBRANCH  17  25
BRANCH  18  27
HETATM   27  O5  UNL     1      -0.146  27.568  23.660  1.00  0.00    -0.357 OA
ATOM     28  H5  UNL     1      -0.295  28.482  23.875  1.00  0.00     0.217 HD
ENDBRANCH  18  27
ENDBRANCH  10  12
ENDBRANCH   9  10
ENDBRANCH   6   7
BRANCH   1  29
HETATM   29  C2  UNL     1      -3.931  23.488  31.686  1.00  0.00     0.064 C
HETATM   30  C1  UNL     1      -2.628  23.717  32.554  1.00  0.00     0.012 C
ENDBRANCH   1  29
BRANCH   5  31
HETATM   31  N2  UNL     1      -2.817  21.043  27.384  1.00  0.00    -0.202 N
HETATM   32  N3  UNL     1      -3.044  21.857  26.342  1.00  0.00    -0.011 NA
HETATM   33  N4  UNL     1      -2.528  21.306  25.199  1.00  0.00    -0.277 N
HETATM   34  C5  UNL     1      -1.988  20.135  25.536  1.00  0.00     0.136 A
ATOM     35  H4  UNL     1      -2.553  21.715  24.265  1.00  0.00     0.184 HD
HETATM   36  C6  UNL     1      -1.311  19.185  24.733  1.00  0.00     0.146 A
HETATM   37  C9  UNL     1      -2.166  19.966  26.879  1.00  0.00     0.174 A
HETATM   38  N6  UNL     1      -0.853  18.133  25.304  1.00  0.00    -0.174 N
HETATM   39  C7  UNL     1      -1.031  17.935  26.726  1.00  0.00     0.684 A
ATOM     40  H6  UNL     1      -0.361  17.430  24.753  1.00  0.00     0.186 HD
HETATM   41  N8  UNL     1      -1.683  18.854  27.446  1.00  0.00    -0.172 N
ATOM     42  H8  UNL     1      -1.814  18.705  28.448  1.00  0.00     0.186 HD
BRANCH  36  43
HETATM   43  N5  UNL     1      -1.189  19.368  23.503  1.00  0.00    -0.383 N
ATOM     44  H52 UNL     1      -1.994  19.575  22.910  1.00  0.00     0.157 HD
ATOM     45  H51 UNL     1      -0.269  19.332  23.065  1.00  0.00     0.157 HD
ENDBRANCH  36  43
BRANCH  39  46
HETATM   46  N7  UNL     1      -0.585  16.864  27.111  1.00  0.00    -0.211 N
HETATM   47  C8  UNL     1      -0.531  15.831  27.989  1.00  0.00     0.136 C
ATOM     48  H7  UNL     1       0.106  16.619  26.403  1.00  0.00     0.182 HD
ENDBRANCH  39  46
ENDBRANCH   5  31
TORSDOF 10
ENDMDL