MODEL 2
REMARK VINA RESULT: -9.265062860      3.251      4.979
REMARK  11 active torsions:
REMARK  status: ('A' for Active; 'I' for Inactive)
REMARK    1  A    between atoms: C2_2  and  C3_7
REMARK    2  A    between atoms: N1_3  and  O1_5
REMARK       I    between atoms: C3_7  and  N2_9
REMARK    3  A    between atoms: N2_9  and  C4_11
REMARK    4  A    between atoms: C9_16  and  S1_17
REMARK    5  A    between atoms: C11_22  and  C12_23
REMARK    6  A    between atoms: C14_27  and  O8_28
REMARK    7  A    between atoms: C15_30  and  O9_31
REMARK    8  A    between atoms: C16_33  and  C17_34
REMARK    9  A    between atoms: C17_34  and  N3_35
REMARK   10  A    between atoms: C17_34  and  C18_39
REMARK   11  A    between atoms: C18_39  and  N4_40
ROOT
HETATM    1  C4  UNL     1      -2.448  19.610  30.986  1.00  0.00     0.070 A
HETATM    2  C5  UNL     1      -3.108  20.757  30.702  1.00  0.00     0.046 A
HETATM    3  C6  UNL     1      -3.351  21.291  29.418  1.00  0.00    -0.006 A
HETATM    4  C7  UNL     1      -2.888  20.620  28.334  1.00  0.00     0.004 A
HETATM    5  C8  UNL     1      -3.015  21.038  26.992  1.00  0.00     0.030 A
HETATM    6  C9  UNL     1      -2.467  20.262  25.935  1.00  0.00     0.095 A
HETATM    7  C10 UNL     1      -1.821  19.104  26.313  1.00  0.00     0.046 A
HETATM    8  C11 UNL     1      -1.659  18.647  27.586  1.00  0.00     0.056 A
HETATM    9  C13 UNL     1      -2.195  19.414  28.590  1.00  0.00     0.029 A
HETATM   10  C14 UNL     1      -1.975  18.914  29.864  1.00  0.00     0.104 A
HETATM   11  C15 UNL     1      -3.575  22.278  26.525  1.00  0.00     0.068 C
HETATM   12  C16 UNL     1      -4.770  23.074  26.613  1.00  0.00     0.129 C
HETATM   13  C19 UNL     1      -4.233  24.466  26.984  1.00  0.00     0.068 A
HETATM   14  N5  UNL     1      -3.763  25.635  27.366  1.00  0.00    -0.340 N
ATOM     15  H5  UNL     1      -3.520  26.596  27.126  1.00  0.00     0.167 HD
HETATM   16  C20 UNL     1      -3.834  24.588  28.368  1.00  0.00     0.129 A
HETATM   17  N6  UNL     1      -3.863  23.752  29.288  1.00  0.00    -0.350 N
ATOM     18  H6  UNL     1      -3.498  24.162  30.148  1.00  0.00     0.166 HD
HETATM   19  C21 UNL     1      -4.222  22.480  29.502  1.00  0.00     0.102 C
ENDROOT
BRANCH   1  20
HETATM   20  N2  UNL     1      -2.202  19.077  32.264  1.00  0.00    -0.319 N
HETATM   21  C3  UNL     1      -0.985  19.011  32.927  1.00  0.00     0.270 C
HETATM   22  O2  UNL     1       0.083  19.432  32.456  1.00  0.00    -0.266 OA
ATOM     23  H2  UNL     1      -3.008  18.696  32.759  1.00  0.00     0.169 HD
BRANCH  21  24
HETATM   24  C2  UNL     1      -0.921  18.405  34.289  1.00  0.00     0.096 C
HETATM   25  C1  UNL     1       0.208  17.510  34.650  1.00  0.00     0.076 C
HETATM   26  N1  UNL     1      -1.824  18.648  35.137  1.00  0.00    -0.268 N
ATOM     27  H1  UNL     1      -1.725  18.203  36.049  1.00  0.00     0.194 HD
BRANCH  26  28
HETATM   28  O1  UNL     1      -2.911  19.437  34.966  1.00  0.00    -0.290 OA
ATOM     29  H1  UNL     1      -3.787  19.282  35.297  1.00  0.00     0.244 HD
ENDBRANCH  26  28
ENDBRANCH  21  24
ENDBRANCH   1  20
BRANCH  10  30
HETATM   30  O8  UNL     1      -1.292  17.731  30.028  1.00  0.00    -0.357 OA
ATOM     31  H8  UNL     1      -0.471  17.592  29.571  1.00  0.00     0.217 HD
ENDBRANCH  10  30
BRANCH   8  32
HETATM   32  C12 UNL     1      -0.934  17.386  27.779  1.00  0.00     0.210 C
HETATM   33  O6  UNL     1       0.333  17.331  27.906  1.00  0.00    -0.644 OA
HETATM   34  O7  UNL     1      -1.716  16.222  27.823  1.00  0.00    -0.644 OA
ENDBRANCH   8  32
BRANCH   6  35
HETATM   35  S1  UNL     1      -2.493  20.643  24.259  1.00  0.00     0.138 S
HETATM   36  O3  UNL     1      -1.842  21.934  23.845  1.00  0.00    -0.591 OA
HETATM   37  O4  UNL     1      -3.698  20.255  23.493  1.00  0.00    -0.591 OA
HETATM   38  O5  UNL     1      -1.350  19.592  23.476  1.00  0.00    -0.591 OA
ENDBRANCH   6  35
BRANCH  11  39
HETATM   39  O9  UNL     1      -2.675  22.904  25.748  1.00  0.00    -0.363 OA
ATOM     40  H9  UNL     1      -3.101  23.620  25.292  1.00  0.00     0.217 HD
ENDBRANCH  11  39
BRANCH  12  41
HETATM   41  C17 UNL     1      -5.445  23.261  25.246  1.00  0.00     0.225 C
BRANCH  41  42
HETATM   42  N3  UNL     1      -5.623  21.914  24.652  1.00  0.00    -0.072 N
ATOM     43  H33 UNL     1      -5.043  21.764  23.827  1.00  0.00     0.274 HD
ATOM     44  H32 UNL     1      -5.230  21.170  25.228  1.00  0.00     0.274 HD
ATOM     45  H31 UNL     1      -6.619  21.792  24.468  1.00  0.00     0.274 HD
ENDBRANCH  41  42
BRANCH  41  46
HETATM   46  C18 UNL     1      -6.818  23.844  25.298  1.00  0.00     0.263 C
BRANCH  46  47
HETATM   47  N4  UNL     1      -7.811  22.736  25.346  1.00  0.00    -0.077 N
ATOM     48  H43 UNL     1      -7.584  21.983  24.697  1.00  0.00     0.274 HD
ATOM     49  H42 UNL     1      -7.753  22.199  26.212  1.00  0.00     0.274 HD
ATOM     50  H41 UNL     1      -8.742  23.120  25.187  1.00  0.00     0.274 HD
ENDBRANCH  46  47
ENDBRANCH  41  46
ENDBRANCH  12  41
TORSDOF 11
ENDMDL