MODEL 4
REMARK VINA RESULT: -7.605546592      1.866      2.406
REMARK  12 active torsions:
REMARK  status: ('A' for Active; 'I' for Inactive)
REMARK    1  A    between atoms: C2_2  and  O2_4
REMARK    2  A    between atoms: O2_4  and  C3_5
REMARK    3  A    between atoms: C6_8  and  O3_9
REMARK    4  A    between atoms: C7_11  and  C8_12
REMARK    5  A    between atoms: C9_13  and  C10_14
REMARK    6  A    between atoms: C15_19  and  O4_20
REMARK    7  A    between atoms: O4_20  and  C16_21
REMARK    8  A    between atoms: C19_26  and  O6_27
REMARK    9  A    between atoms: C21_30  and  O7_31
REMARK   10  A    between atoms: O7_31  and  C22_32
REMARK   11  A    between atoms: C24_38  and  O8_39
REMARK   12  A    between atoms: C25_41  and  O9_42
ROOT
HETATM    1  C3  UNL     1      -4.593  26.017  29.073  1.00  0.00     0.168 C
HETATM    2  C4  UNL     1      -4.679  24.536  29.322  1.00  0.00     0.047 C
HETATM    3  C5  UNL     1      -4.813  24.152  30.742  1.00  0.00     0.088 C
HETATM    4  C6  UNL     1      -3.418  24.110  31.355  1.00  0.00     0.145 C
HETATM    5  C7  UNL     1      -3.469  25.384  32.211  1.00  0.00     0.069 C
HETATM    6  C15 UNL     1      -3.409  26.516  31.248  1.00  0.00     0.186 C
HETATM    7  C18 UNL     1      -4.634  26.726  30.410  1.00  0.00     0.290 C
HETATM    8  N1  UNL     1      -5.850  26.313  31.021  1.00  0.00     0.170 N
HETATM    9  C19 UNL     1      -6.498  27.293  31.824  1.00  0.00     0.394 C
HETATM   10  C20 UNL     1      -6.560  26.834  33.242  1.00  0.00     0.004 C
HETATM   11  C21 UNL     1      -7.643  26.934  33.988  1.00  0.00     0.152 C
HETATM   12  C23 UNL     1      -5.284  26.246  33.746  1.00  0.00     0.085 C
HETATM   13  C24 UNL     1      -4.829  25.166  32.840  1.00  0.00     0.138 C
HETATM   14  C25 UNL     1      -5.676  25.022  31.584  1.00  0.00     0.301 C
ENDROOT
BRANCH   5  15
HETATM   15  C8  UNL     1      -2.413  25.456  33.215  1.00  0.00    -0.012 C
HETATM   16  C9  UNL     1      -1.122  25.455  32.945  1.00  0.00    -0.020 C
BRANCH  16  17
HETATM   17  C10 UNL     1      -0.071  25.529  33.992  1.00  0.00    -0.027 C
HETATM   18  C11 UNL     1       0.959  26.618  33.754  1.00  0.00     0.019 C
HETATM   19  C12 UNL     1       0.604  24.192  34.165  1.00  0.00     0.013 C
HETATM   20  C13 UNL     1      -0.060  24.074  35.507  1.00  0.00     0.002 C
HETATM   21  C14 UNL     1      -0.559  25.492  35.422  1.00  0.00     0.013 C
ENDBRANCH  16  17
ENDBRANCH   5  15
BRANCH   4  22
HETATM   22  O3  UNL     1      -3.210  22.978  32.100  1.00  0.00    -0.394 OA
ATOM     23  H3  UNL     1      -2.295  22.727  32.127  1.00  0.00     0.210 HD
ENDBRANCH   4  22
BRANCH   6  24
HETATM   24  O4  UNL     1      -3.030  27.691  31.946  1.00  0.00    -0.313 OA
BRANCH  24  25
HETATM   25  C16 UNL     1      -2.672  28.861  31.261  1.00  0.00     0.255 C
HETATM   26  C17 UNL     1      -1.605  28.873  30.218  1.00  0.00     0.126 C
HETATM   27  O5  UNL     1      -3.305  29.898  31.580  1.00  0.00    -0.266 OA
ENDBRANCH  24  25
ENDBRANCH   6  24
BRANCH  13  28
HETATM   28  O8  UNL     1      -4.861  23.943  33.485  1.00  0.00    -0.383 OA
ATOM     29  H8  UNL     1      -4.674  24.058  34.409  1.00  0.00     0.210 HD
ENDBRANCH  13  28
BRANCH  14  30
HETATM   30  O9  UNL     1      -6.876  24.376  31.863  1.00  0.00    -0.360 OA
ATOM     31  H9  UNL     1      -7.338  24.185  31.056  1.00  0.00     0.212 HD
ENDBRANCH  14  30
BRANCH   1  32
HETATM   32  O2  UNL     1      -3.536  26.393  28.251  1.00  0.00    -0.314 OA
BRANCH  32  33
HETATM   33  C2  UNL     1      -3.636  27.486  27.400  1.00  0.00     0.255 C
HETATM   34  C1  UNL     1      -2.441  28.123  26.782  1.00  0.00     0.126 C
HETATM   35  O1  UNL     1      -4.786  27.934  27.159  1.00  0.00    -0.266 OA
ENDBRANCH  32  33
ENDBRANCH   1  32
BRANCH   9  36
HETATM   36  O6  UNL     1      -5.897  28.550  31.756  1.00  0.00    -0.364 OA
ATOM     37  H6  UNL     1      -6.496  29.241  31.499  1.00  0.00     0.212 HD
ENDBRANCH   9  36
BRANCH  11  38
HETATM   38  O7  UNL     1      -7.557  26.458  35.307  1.00  0.00    -0.294 OA
BRANCH  38  39
HETATM   39  C22 UNL     1      -7.285  27.364  36.341  1.00  0.00     0.229 C
HETATM   40  N2  UNL     1      -7.734  28.543  36.181  1.00  0.00    -0.368 N
ATOM     41  H22 UNL     1      -8.267  28.877  35.378  1.00  0.00     0.159 HD
ATOM     42  H21 UNL     1      -7.536  29.203  36.933  1.00  0.00     0.159 HD
HETATM   43  N3  UNL     1      -6.544  26.900  37.457  1.00  0.00    -0.056 NA
ENDBRANCH  38  39
ENDBRANCH  11  38
TORSDOF 12
ENDMDL