MODEL 5
REMARK VINA RESULT: -10.311981260      2.243      3.512
REMARK  10 active torsions:
REMARK  status: ('A' for Active; 'I' for Inactive)
REMARK    1  A    between atoms: C4_10  and  C5_11
REMARK    2  A    between atoms: C5_11  and  N4_12
REMARK    3  A    between atoms: N4_12  and  C6_14
REMARK    4  A    between atoms: C7_17  and  N6_18
REMARK    5  A    between atoms: N6_18  and  C8_20
REMARK    6  A    between atoms: C9_25  and  C10_26
REMARK    7  A    between atoms: C10_26  and  C11_27
REMARK    8  A    between atoms: C13_30  and  N9_31
REMARK    9  A    between atoms: C14_39  and  N12_40
REMARK   10  A    between atoms: C17_43  and  N13_44
ROOT
HETATM    1  N1  UNL     1      -1.105  19.769  31.813  1.00  0.00    -0.190 NA
HETATM    2  C1  UNL     1      -1.693  20.759  31.797  1.00  0.00     0.120 C
HETATM    3  C2  UNL     1      -2.437  21.970  31.767  1.00  0.00     0.142 A
HETATM    4  N2  UNL     1      -2.281  22.992  32.633  1.00  0.00    -0.298 N
ATOM      5  H2  UNL     1      -1.622  23.035  33.411  1.00  0.00     0.171 HD
HETATM    6  C3  UNL     1      -3.158  23.944  32.278  1.00  0.00     0.325 A
HETATM    7  O1  UNL     1      -3.288  25.047  32.874  1.00  0.00    -0.247 OA
HETATM    8  N3  UNL     1      -3.855  23.504  31.192  1.00  0.00    -0.308 N
ATOM      9  H3  UNL     1      -4.588  24.025  30.710  1.00  0.00     0.170 HD
HETATM   10  C4  UNL     1      -3.423  22.278  30.857  1.00  0.00     0.069 A
ENDROOT
BRANCH  10  11
HETATM   11  C5  UNL     1      -3.895  21.435  29.753  1.00  0.00     0.198 C
BRANCH  11  12
HETATM   12  N4  UNL     1      -4.702  22.130  28.800  1.00  0.00    -0.219 N
ATOM     13  H4  UNL     1      -5.711  22.149  28.945  1.00  0.00     0.178 HD
BRANCH  12  14
HETATM   14  C6  UNL     1      -4.218  22.741  27.758  1.00  0.00     0.707 A
HETATM   15  N5  UNL     1      -3.854  22.013  26.687  1.00  0.00    -0.021 N
HETATM   16  C7  UNL     1      -3.345  22.569  25.573  1.00  0.00     0.713 A
ATOM     17  H5  UNL     1      -3.967  21.000  26.721  1.00  0.00     0.203 HD
HETATM   18  N11 UNL     1      -3.213  23.927  25.576  1.00  0.00    -0.021 N
HETATM   19  C14 UNL     1      -3.560  24.691  26.617  1.00  0.00     0.709 A
ATOM     20  H11 UNL     1      -2.830  24.380  24.746  1.00  0.00     0.203 HD
HETATM   21  N14 UNL     1      -4.073  24.075  27.726  1.00  0.00    -0.021 N
ATOM     22  H14 UNL     1      -4.347  24.634  28.534  1.00  0.00     0.203 HD
BRANCH  16  23
HETATM   23  N6  UNL     1      -2.949  21.866  24.429  1.00  0.00    -0.168 N
ATOM     24  H6  UNL     1      -3.211  22.230  23.512  1.00  0.00     0.186 HD
BRANCH  23  25
HETATM   25  C8  UNL     1      -2.254  20.755  24.494  1.00  0.00     0.180 A
HETATM   26  N7  UNL     1      -1.997  19.884  23.517  1.00  0.00    -0.279 N
HETATM   27  N8  UNL     1      -1.299  18.860  23.780  1.00  0.00    -0.296 N
ATOM     28  H7  UNL     1      -2.356  20.039  22.575  1.00  0.00     0.189 HD
HETATM   29  C9  UNL     1      -0.832  18.656  25.002  1.00  0.00     0.075 A
ATOM     30  H8  UNL     1      -1.095  18.186  23.043  1.00  0.00     0.187 HD
HETATM   31  S2  UNL     1      -1.438  20.027  25.823  1.00  0.00    -0.037 SA
BRANCH  29  32
HETATM   32  C10 UNL     1       0.003  17.531  25.533  1.00  0.00     0.124 C
BRANCH  32  33
HETATM   33  C11 UNL     1      -0.269  17.343  27.021  1.00  0.00     0.024 A
HETATM   34  C12 UNL     1       0.700  16.782  27.818  1.00  0.00     0.078 A
HETATM   35  S1  UNL     1      -0.051  16.787  29.350  1.00  0.00    -0.064 SA
HETATM   36  C13 UNL     1      -1.532  17.492  28.898  1.00  0.00     0.142 A
HETATM   37  N10 UNL     1      -1.384  17.692  27.588  1.00  0.00    -0.340 N
ATOM     38  H10 UNL     1      -2.135  18.114  27.040  1.00  0.00     0.168 HD
BRANCH  36  39
HETATM   39  N9  UNL     1      -2.586  17.781  29.634  1.00  0.00    -0.380 N
ATOM     40  H92 UNL     1      -2.910  18.708  29.911  1.00  0.00     0.158 HD
ATOM     41  H91 UNL     1      -3.270  17.159  30.064  1.00  0.00     0.158 HD
ENDBRANCH  36  39
ENDBRANCH  32  33
ENDBRANCH  29  32
ENDBRANCH  23  25
ENDBRANCH  16  23
BRANCH  19  42
HETATM   42  N12 UNL     1      -3.425  26.105  26.629  1.00  0.00    -0.217 N
HETATM   43  C15 UNL     1      -2.297  26.709  25.936  1.00  0.00     0.143 C
HETATM   44  C16 UNL     1      -1.574  27.708  26.804  1.00  0.00     0.053 C
HETATM   45  C17 UNL     1      -2.461  28.506  27.689  1.00  0.00     0.186 C
HETATM   46  C18 UNL     1      -3.523  27.691  28.394  1.00  0.00     0.053 C
HETATM   47  C19 UNL     1      -4.325  27.001  27.280  1.00  0.00     0.143 C
BRANCH  45  48
HETATM   48  N13 UNL     1      -1.628  29.095  28.744  1.00  0.00    -0.075 N
ATOM     49 3H13 UNL     1      -1.289  28.405  29.413  1.00  0.00     0.274 HD
ATOM     50 2H13 UNL     1      -0.719  29.409  28.402  1.00  0.00     0.274 HD
ATOM     51 1H13 UNL     1      -2.165  29.843  29.183  1.00  0.00     0.274 HD
ENDBRANCH  45  48
ENDBRANCH  19  42
ENDBRANCH  12  14
ENDBRANCH  11  12
ENDBRANCH  10  11
TORSDOF 10
ENDMDL