MODEL 1
REMARK VINA RESULT: -8.885900159      0.000      0.000
REMARK  9 active torsions:
REMARK  status: ('A' for Active; 'I' for Inactive)
REMARK    1  A    between atoms: O1_2  and  C2_3
REMARK    2  A    between atoms: C2_3  and  C3_5
REMARK    3  A    between atoms: C4_6  and  C5_7
REMARK       I    between atoms: C5_7  and  N1_9
REMARK    4  A    between atoms: N1_9  and  C6_11
REMARK    5  A    between atoms: C11_19  and  O5_20
REMARK    6  A    between atoms: C12_22  and  O6_23
REMARK    7  A    between atoms: O6_23  and  C13_24
REMARK    8  A    between atoms: C14_25  and  S1_26
REMARK    9  A    between atoms: C21_40  and  O9_41
ROOT
HETATM    1  C13 UNL     1      -3.610  27.479  33.207  1.00  0.00     0.118 C
HETATM    2  C14 UNL     1      -4.742  27.777  33.906  1.00  0.00     0.101 C
HETATM    3  C16 UNL     1      -5.227  27.123  35.159  1.00  0.00     0.268 C
HETATM    4  O7  UNL     1      -6.481  27.041  35.323  1.00  0.00    -0.267 OA
HETATM    5  N3  UNL     1      -4.419  26.582  36.194  1.00  0.00    -0.275 N
ATOM      6  H3  UNL     1      -4.903  26.228  37.019  1.00  0.00     0.173 HD
HETATM    7  C17 UNL     1      -2.976  26.485  36.191  1.00  0.00     0.324 C
HETATM    8  O8  UNL     1      -2.394  26.333  37.292  1.00  0.00    -0.247 OA
HETATM    9  N4  UNL     1      -2.195  26.556  34.997  1.00  0.00    -0.315 N
ATOM     10  H4  UNL     1      -1.196  26.731  35.106  1.00  0.00     0.166 HD
HETATM   11  C18 UNL     1      -2.698  26.399  33.621  1.00  0.00     0.171 C
HETATM   12  C19 UNL     1      -1.528  26.147  32.764  1.00  0.00     0.063 C
HETATM   13  C20 UNL     1      -3.447  25.105  33.681  1.00  0.00     0.098 C
HETATM   14  N5  UNL     1      -4.036  24.111  33.711  1.00  0.00    -0.194 NA
ENDROOT
BRANCH   1  15
HETATM   15  O6  UNL     1      -3.454  28.262  32.148  1.00  0.00    -0.304 OA
BRANCH  15  16
HETATM   16  C12 UNL     1      -3.169  28.186  30.838  1.00  0.00     0.143 A
HETATM   17  C11 UNL     1      -2.047  28.725  30.237  1.00  0.00     0.103 A
HETATM   18  C10 UNL     1      -1.847  28.598  28.896  1.00  0.00     0.057 A
HETATM   19  C4  UNL     1      -2.759  27.920  28.078  1.00  0.00     0.053 A
HETATM   20  C3  UNL     1      -3.876  27.379  28.631  1.00  0.00     0.091 A
HETATM   21  C21 UNL     1      -4.058  27.523  30.015  1.00  0.00     0.119 A
BRANCH  17  22
HETATM   22  O5  UNL     1      -1.130  29.404  31.048  1.00  0.00    -0.358 OA
ATOM     23  H5  UNL     1      -0.752  28.993  31.816  1.00  0.00     0.217 HD
ENDBRANCH  17  22
BRANCH  19  24
HETATM   24  C5  UNL     1      -2.371  27.756  26.703  1.00  0.00     0.254 C
HETATM   25  O3  UNL     1      -1.966  28.834  26.118  1.00  0.00    -0.268 OA
HETATM   26  N1  UNL     1      -2.366  26.594  25.931  1.00  0.00    -0.336 N
ATOM     27  H1  UNL     1      -2.668  25.714  26.350  1.00  0.00     0.164 HD
BRANCH  26  28
HETATM   28  C6  UNL     1      -1.944  26.610  24.552  1.00  0.00     0.187 C
HETATM   29  C7  UNL     1      -2.393  25.390  23.806  1.00  0.00     0.056 C
HETATM   30  C8  UNL     1      -1.376  25.219  22.721  1.00  0.00     0.106 C
HETATM   31  C9  UNL     1      -0.216  26.024  23.137  1.00  0.00     0.219 C
HETATM   32  O4  UNL     1       0.843  26.263  22.496  1.00  0.00    -0.274 OA
HETATM   33  N2  UNL     1      -0.488  26.515  24.448  1.00  0.00    -0.340 N
ATOM     34  H2  UNL     1       0.194  26.752  25.167  1.00  0.00     0.164 HD
ENDBRANCH  26  28
ENDBRANCH  19  24
BRANCH  20  35
HETATM   35  C2  UNL     1      -4.934  26.708  27.864  1.00  0.00     0.296 C
HETATM   36  O2  UNL     1      -5.882  27.284  27.362  1.00  0.00    -0.259 OA
BRANCH  35  37
HETATM   37  O1  UNL     1      -4.860  25.325  27.689  1.00  0.00    -0.322 OA
HETATM   38  C1  UNL     1      -5.080  24.789  26.403  1.00  0.00     0.213 C
ENDBRANCH  35  37
ENDBRANCH  20  35
BRANCH  21  39
HETATM   39  O9  UNL     1      -5.215  26.949  30.541  1.00  0.00    -0.357 OA
ATOM     40  H9  UNL     1      -5.971  27.521  30.606  1.00  0.00     0.218 HD
ENDBRANCH  21  39
ENDBRANCH  15  16
ENDBRANCH   1  15
BRANCH   2  41
HETATM   41  S1  UNL     1      -5.811  29.061  33.385  1.00  0.00    -0.126 SA
HETATM   42  C15 UNL     1      -7.356  28.697  32.654  1.00  0.00     0.096 C
ENDBRANCH   2  41
TORSDOF 9
ENDMDL