MODEL 5
REMARK VINA RESULT: -7.410727352      5.379      9.926
REMARK  9 active torsions:
REMARK  status: ('A' for Active; 'I' for Inactive)
REMARK    1  A    between atoms: O1_2  and  C2_3
REMARK    2  A    between atoms: C7_8  and  O2_9
REMARK    3  A    between atoms: C8_11  and  N1_12
REMARK       I    between atoms: N1_12  and  C9_14
REMARK    4  A    between atoms: C11_17  and  S1_18
REMARK    5  A    between atoms: C16_29  and  N5_30
REMARK    6  A    between atoms: C18_39  and  N8_40
REMARK    7  A    between atoms: N8_40  and  C19_42
REMARK    8  A    between atoms: C19_42  and  C20_43
REMARK    9  A    between atoms: C20_43  and  N9_44
ROOT
HETATM    1  C2  UNL     1      -2.444  20.775  35.808  1.00  0.00     0.102 A
HETATM    2  C3  UNL     1      -2.185  20.307  34.545  1.00  0.00     0.055 A
HETATM    3  C4  UNL     1      -1.884  18.936  34.262  1.00  0.00     0.023 A
HETATM    4  C5  UNL     1      -1.851  18.071  35.318  1.00  0.00     0.010 A
HETATM    5  C6  UNL     1      -2.128  18.605  36.614  1.00  0.00     0.054 A
HETATM    6  C7  UNL     1      -2.418  19.922  36.859  1.00  0.00     0.099 A
HETATM    7  C8  UNL     1      -1.417  16.804  35.468  1.00  0.00     0.080 C
HETATM    8  C11 UNL     1      -0.745  16.015  34.407  1.00  0.00     0.098 C
HETATM    9  N2  UNL     1       0.310  16.368  33.823  1.00  0.00    -0.345 N
ATOM     10  H2  UNL     1       0.594  15.671  33.134  1.00  0.00     0.167 HD
HETATM   11  C13 UNL     1       1.191  17.422  33.843  1.00  0.00     0.182 C
HETATM   12  N3  UNL     1       1.433  17.949  32.628  1.00  0.00    -0.345 N
ATOM     13  H3  UNL     1       2.073  18.739  32.543  1.00  0.00     0.167 HD
HETATM   14  C14 UNL     1       0.807  17.422  31.454  1.00  0.00     0.147 A
HETATM   15  C15 UNL     1      -0.516  17.231  31.257  1.00  0.00     0.155 A
HETATM   16  N4  UNL     1      -0.864  16.608  30.076  1.00  0.00    -0.174 N
ATOM     17  H4  UNL     1      -1.857  16.447  29.906  1.00  0.00     0.186 HD
HETATM   18  C16 UNL     1      -0.009  16.201  29.141  1.00  0.00     0.680 A
HETATM   19  N6  UNL     1       1.312  16.390  29.319  1.00  0.00    -0.154 N
ATOM     20  H6  UNL     1       1.989  16.089  28.618  1.00  0.00     0.187 HD
HETATM   21  C17 UNL     1       1.702  16.986  30.449  1.00  0.00     0.290 A
HETATM   22  O4  UNL     1       2.957  17.143  30.564  1.00  0.00    -0.265 OA
HETATM   23  N7  UNL     1      -1.619  17.708  32.076  1.00  0.00    -0.325 N
ATOM     24  H7  UNL     1      -2.433  17.099  31.999  1.00  0.00     0.169 HD
HETATM   25  C18 UNL     1      -1.856  18.762  32.926  1.00  0.00     0.117 C
ENDROOT
BRANCH  25  26
HETATM   26  N8  UNL     1      -2.387  19.956  32.172  1.00  0.00    -0.353 N
ATOM     27  H8  UNL     1      -2.464  20.827  32.696  1.00  0.00     0.166 HD
BRANCH  26  28
HETATM   28  C19 UNL     1      -2.785  19.996  30.835  1.00  0.00     0.092 C
BRANCH  28  29
HETATM   29  C20 UNL     1      -3.131  21.412  30.460  1.00  0.00     0.315 C
BRANCH  29  30
HETATM   30  N9  UNL     1      -3.419  21.587  29.081  1.00  0.00     0.084 N
HETATM   31  C21 UNL     1      -4.819  21.665  28.818  1.00  0.00     0.309 C
HETATM   32  C22 UNL     1      -2.654  20.783  28.190  1.00  0.00     0.309 C
ENDBRANCH  29  30
ENDBRANCH  28  29
ENDBRANCH  26  28
ENDBRANCH  25  26
BRANCH   1  33
HETATM   33  O1  UNL     1      -2.736  22.117  36.055  1.00  0.00    -0.353 OA
HETATM   34  C1  UNL     1      -2.424  23.069  35.059  1.00  0.00     0.210 C
ENDBRANCH   1  33
BRANCH   7  35
HETATM   35  N1  UNL     1      -1.519  16.108  36.700  1.00  0.00    -0.324 N
HETATM   36  C9  UNL     1      -0.516  15.462  37.383  1.00  0.00     0.218 C
HETATM   37  C10 UNL     1      -0.830  14.725  38.698  1.00  0.00     0.117 C
HETATM   38  O3  UNL     1       0.677  15.373  37.094  1.00  0.00    -0.274 OA
ATOM     39  H1  UNL     1      -2.445  16.083  37.128  1.00  0.00     0.169 HD
ENDBRANCH   7  35
BRANCH   6  40
HETATM   40  O2  UNL     1      -2.683  20.376  38.162  1.00  0.00    -0.358 OA
ATOM     41  H2  UNL     1      -2.402  21.238  38.445  1.00  0.00     0.217 HD
ENDBRANCH   6  40
BRANCH   8  42
HETATM   42  S1  UNL     1      -1.552  14.485  33.855  1.00  0.00    -0.114 SA
HETATM   43  C12 UNL     1      -3.292  14.495  34.315  1.00  0.00     0.097 C
ENDBRANCH   8  42
BRANCH  18  44
HETATM   44  N5  UNL     1      -0.390  15.622  28.050  1.00  0.00    -0.234 N
ATOM     45  H52 UNL     1      -1.162  16.046  27.535  1.00  0.00     0.174 HD
ATOM     46  H51 UNL     1       0.048  14.773  27.694  1.00  0.00     0.174 HD
ENDBRANCH  18  44
TORSDOF 9
ENDMDL