MODEL 3
REMARK VINA RESULT: -8.130558079      4.317      7.933
REMARK  4 active torsions:
REMARK  status: ('A' for Active; 'I' for Inactive)
REMARK    1  A    between atoms: C3_4  and  C4_5
REMARK    2  A    between atoms: C4_5  and  N2_7
REMARK    3  A    between atoms: N3_10  and  C7_11
REMARK    4  A    between atoms: C9_18  and  N6_19
ROOT
HETATM    1  N1  UNL     1      13.000  11.843  15.429  1.00  0.00    -0.191 NA
HETATM    2  C1  UNL     1      12.601  11.818  14.328  1.00  0.00     0.105 C
HETATM    3  C2  UNL     1      12.134  11.789  12.970  1.00  0.00     0.118 A
HETATM    4  C3  UNL     1      12.667  10.898  12.054  1.00  0.00     0.097 A
HETATM    5  N8  UNL     1      12.184  10.923  10.794  1.00  0.00    -0.329 N
ATOM      6  H8  UNL     1      12.574  10.267  10.118  1.00  0.00     0.168 HD
HETATM    7  C12 UNL     1      11.234  11.748  10.385  1.00  0.00     0.181 A
HETATM    8 CL1  UNL     1      10.665  11.717   8.735  1.00  0.00    -0.045 Cl
HETATM    9  N9  UNL     1      10.696  12.622  11.238  1.00  0.00    -0.318 N
ATOM     10  H9  UNL     1       9.963  13.264  10.936  1.00  0.00     0.170 HD
HETATM   11  C13 UNL     1      11.147  12.635  12.512  1.00  0.00     0.124 A
HETATM   12  N10 UNL     1      10.613  13.487  13.316  1.00  0.00    -0.384 N
ATOM     13 1H10 UNL     1       9.882  14.113  12.977  1.00  0.00     0.157 HD
ATOM     14 2H10 UNL     1      10.953  13.496  14.278  1.00  0.00     0.157 HD
ENDROOT
BRANCH   4  15
HETATM   15  C4  UNL     1      13.715   9.959  12.427  1.00  0.00     0.127 C
HETATM   16  S1  UNL     1      15.216  10.481  12.792  1.00  0.00    -0.058 SA
BRANCH  15  17
HETATM   17  N2  UNL     1      13.467   8.556  12.487  1.00  0.00    -0.367 N
HETATM   18  C5  UNL     1      13.209   7.856  11.261  1.00  0.00     0.144 C
HETATM   19  C6  UNL     1      13.308   6.372  11.344  1.00  0.00     0.161 C
HETATM   20  N3  UNL     1      14.158   5.875  12.385  1.00  0.00    -0.214 N
HETATM   21  C10 UNL     1      14.357   6.596  13.621  1.00  0.00     0.161 C
HETATM   22  C11 UNL     1      13.465   7.814  13.719  1.00  0.00     0.144 C
BRANCH  20  23
HETATM   23  C7  UNL     1      14.827   4.640  12.208  1.00  0.00     0.699 A
HETATM   24  N4  UNL     1      16.075   4.549  11.698  1.00  0.00    -0.140 N
HETATM   25  C8  UNL     1      16.714   3.400  11.527  1.00  0.00     0.352 A
ATOM     26  H4  UNL     1      16.551   5.410  11.429  1.00  0.00     0.189 HD
HETATM   27  O1  UNL     1      17.874   3.381  11.046  1.00  0.00    -0.246 OA
HETATM   28  N5  UNL     1      16.122   2.235  11.868  1.00  0.00    -0.141 N
HETATM   29  C9  UNL     1      14.885   2.280  12.378  1.00  0.00     0.694 A
ATOM     30  H5  UNL     1      16.604   1.346  11.742  1.00  0.00     0.189 HD
HETATM   31  N7  UNL     1      14.250   3.454  12.546  1.00  0.00    -0.022 N
ATOM     32  H7  UNL     1      13.308   3.457  12.938  1.00  0.00     0.203 HD
BRANCH  29  33
HETATM   33  N6  UNL     1      14.314   1.178  12.706  1.00  0.00    -0.234 N
ATOM     34  H62 UNL     1      14.692   0.284  12.391  1.00  0.00     0.174 HD
ATOM     35  H61 UNL     1      13.476   1.214  13.287  1.00  0.00     0.174 HD
ENDBRANCH  29  33
ENDBRANCH  20  23
ENDBRANCH  15  17
ENDBRANCH   4  15
TORSDOF 4
ENDMDL