MODEL 5
REMARK VINA RESULT: -7.996510373      3.865      7.539
REMARK  5 active torsions:
REMARK  status: ('A' for Active; 'I' for Inactive)
REMARK       I    between atoms: C2_2  and  N1_4
REMARK    1  A    between atoms: C3_5  and  N2_6
REMARK       I    between atoms: N2_6  and  C4_8
REMARK    2  A    between atoms: C4_8  and  C5_10
REMARK    3  A    between atoms: C5_10  and  N3_12
REMARK    4  A    between atoms: C7_16  and  C8_17
REMARK       I    between atoms: C8_17  and  N4_19
REMARK    5  A    between atoms: N4_19  and  C9_21
ROOT
HETATM    1  C1  UNL     1      18.251   3.785  13.510  1.00  0.00     0.118 C
HETATM    2  C2  UNL     1      17.257   4.513  12.691  1.00  0.00     0.229 C
HETATM    3  O1  UNL     1      16.990   3.971  11.575  1.00  0.00    -0.273 OA
HETATM    4  N1  UNL     1      16.619   5.725  13.076  1.00  0.00    -0.217 N
HETATM    5  C3  UNL     1      15.653   6.316  12.286  1.00  0.00     0.142 A
HETATM    6  C7  UNL     1      15.093   7.515  12.638  1.00  0.00     0.145 A
HETATM    7  C12 UNL     1      15.508   8.180  13.817  1.00  0.00     0.269 A
HETATM    8  O4  UNL     1      15.013   9.292  14.159  1.00  0.00    -0.267 OA
HETATM    9  N6  UNL     1      16.440   7.583  14.551  1.00  0.00    -0.274 N
ATOM     10  H6  UNL     1      16.765   8.030  15.408  1.00  0.00     0.173 HD
HETATM   11  C13 UNL     1      16.968   6.394  14.181  1.00  0.00     0.337 A
HETATM   12  O5  UNL     1      17.849   5.887  14.932  1.00  0.00    -0.246 OA
ENDROOT
BRANCH   6  13
HETATM   13  C8  UNL     1      13.894   8.096  12.055  1.00  0.00     0.267 C
HETATM   14  O3  UNL     1      12.768   7.619  12.203  1.00  0.00    -0.267 OA
HETATM   15  N4  UNL     1      13.984   9.300  11.246  1.00  0.00    -0.303 N
ATOM     16  H4  UNL     1      14.645   9.418  10.478  1.00  0.00     0.171 HD
BRANCH  15  17
HETATM   17  C9  UNL     1      13.119  10.224  11.614  1.00  0.00     0.152 A
HETATM   18  N5  UNL     1      12.922  10.645  12.862  1.00  0.00    -0.344 N
HETATM   19  C10 UNL     1      12.030  11.568  13.074  1.00  0.00     0.121 A
ATOM     20  H5  UNL     1      13.458  10.251  13.635  1.00  0.00     0.167 HD
HETATM   21  C11 UNL     1      11.342  12.055  11.995  1.00  0.00     0.093 A
HETATM   22 CL1  UNL     1      10.085  13.299  11.981  1.00  0.00    -0.075 Cl
HETATM   23  S1  UNL     1      12.015  11.156  10.708  1.00  0.00    -0.040 SA
ENDBRANCH  15  17
ENDBRANCH   6  13
BRANCH   5  24
HETATM   24  N2  UNL     1      15.258   5.569  11.152  1.00  0.00    -0.310 N
HETATM   25  C4  UNL     1      14.210   4.648  11.024  1.00  0.00     0.253 C
HETATM   26  O2  UNL     1      13.363   4.523  11.953  1.00  0.00    -0.271 OA
ATOM     27  H2  UNL     1      15.814   5.722  10.310  1.00  0.00     0.170 HD
BRANCH  25  28
HETATM   28  C5  UNL     1      14.038   3.778   9.806  1.00  0.00     0.271 C
HETATM   29  C6  UNL     1      13.129   4.529   8.864  1.00  0.00     0.050 C
BRANCH  28  30
HETATM   30  N3  UNL     1      15.313   3.518   9.209  1.00  0.00    -0.067 N
ATOM     31  H33 UNL     1      15.724   4.359   8.803  1.00  0.00     0.275 HD
ATOM     32  H32 UNL     1      16.031   3.325   9.908  1.00  0.00     0.275 HD
ATOM     33  H31 UNL     1      15.229   2.765   8.527  1.00  0.00     0.275 HD
ENDBRANCH  28  30
ENDBRANCH  25  28
ENDBRANCH   5  24
TORSDOF 5
ENDMDL