MODEL 3
REMARK VINA RESULT: -8.693533241      3.054      5.777
REMARK  6 active torsions:
REMARK  status: ('A' for Active; 'I' for Inactive)
REMARK    1  A    between atoms: C2_2  and  N1_4
REMARK    2  A    between atoms: N1_4  and  C4_6
REMARK    3  A    between atoms: C5_11  and  C6_12
REMARK    4  A    between atoms: C13_22  and  C14_23
REMARK       I    between atoms: C14_23  and  N4_25
REMARK    5  A    between atoms: N4_25  and  C15_27
REMARK    6  A    between atoms: C16_33  and  N7_34
ROOT
HETATM    1  C4  UNL     1      15.372   9.515  14.853  1.00  0.00     0.135 A
HETATM    2  N2  UNL     1      16.170   8.437  14.956  1.00  0.00    -0.285 N
ATOM      3  H2  UNL     1      16.975   8.479  15.582  1.00  0.00     0.188 HD
HETATM    4  N3  UNL     1      15.949   7.317  14.269  1.00  0.00    -0.299 N
ATOM      5  H3  UNL     1      16.589   6.532  14.388  1.00  0.00     0.186 HD
HETATM    6  C5  UNL     1      14.912   7.184  13.426  1.00  0.00     0.082 A
HETATM    7  C12 UNL     1      14.058   8.266  13.283  1.00  0.00     0.161 A
HETATM    8  F1  UNL     1      13.035   8.104  12.436  1.00  0.00    -0.203 F
HETATM    9  C13 UNL     1      14.291   9.421  13.994  1.00  0.00     0.117 A
ENDROOT
BRANCH   9  10
HETATM   10  C14 UNL     1      13.399  10.575  13.856  1.00  0.00     0.264 C
HETATM   11  O3  UNL     1      12.738  10.916  14.881  1.00  0.00    -0.267 OA
HETATM   12  N4  UNL     1      13.248  11.302  12.677  1.00  0.00    -0.304 N
ATOM     13  H4  UNL     1      14.120  11.660  12.287  1.00  0.00     0.171 HD
BRANCH  12  14
HETATM   14  C15 UNL     1      12.218  11.595  12.007  1.00  0.00     0.176 A
HETATM   15  N5  UNL     1      11.918  11.074  10.772  1.00  0.00    -0.222 N
HETATM   16  O4  UNL     1      10.804  11.584  10.378  1.00  0.00    -0.153 OA
ATOM     17  H5  UNL     1      12.483  10.399  10.255  1.00  0.00     0.198 HD
HETATM   18  N6  UNL     1      10.317  12.404  11.231  1.00  0.00    -0.222 N
HETATM   19  C16 UNL     1      11.173  12.448  12.280  1.00  0.00     0.167 A
ATOM     20  H6  UNL     1       9.446  12.927  11.138  1.00  0.00     0.198 HD
BRANCH  19  21
HETATM   21  N7  UNL     1      10.986  13.176  13.314  1.00  0.00    -0.381 N
ATOM     22  H72 UNL     1      11.653  13.876  13.638  1.00  0.00     0.157 HD
ATOM     23  H71 UNL     1      10.191  13.183  13.952  1.00  0.00     0.157 HD
ENDBRANCH  19  21
ENDBRANCH  12  14
ENDBRANCH   9  10
BRANCH   1  24
HETATM   24  N1  UNL     1      15.601  10.592  15.525  1.00  0.00    -0.370 N
ATOM     25  H1  UNL     1      15.442  11.488  15.065  1.00  0.00     0.161 HD
BRANCH  24  26
HETATM   26  C2  UNL     1      16.065  10.602  16.882  1.00  0.00     0.075 C
HETATM   27  C1  UNL     1      15.137   9.773  17.764  1.00  0.00     0.031 C
HETATM   28  C3  UNL     1      16.092  11.999  17.479  1.00  0.00     0.031 C
ENDBRANCH  24  26
ENDBRANCH   1  24
BRANCH   6  29
HETATM   29  C6  UNL     1      14.728   5.932  12.707  1.00  0.00     0.074 C
HETATM   30  C7  UNL     1      13.763   5.929  11.555  1.00  0.00     0.050 C
HETATM   31  C8  UNL     1      14.130   4.718  10.685  1.00  0.00     0.170 C
HETATM   32  O1  UNL     1      14.478   3.632  11.481  1.00  0.00    -0.378 OA
HETATM   33  C9  UNL     1      15.337   3.974  12.506  1.00  0.00     0.193 C
HETATM   34  C10 UNL     1      14.500   4.695  13.571  1.00  0.00     0.064 C
HETATM   35  C11 UNL     1      15.993   5.311  12.256  1.00  0.00     0.170 C
HETATM   36  O2  UNL     1      17.049   5.731  11.869  1.00  0.00    -0.294 OA
ENDBRANCH   6  29
TORSDOF 6
ENDMDL