MODEL 5
REMARK VINA RESULT: -8.447619335      1.746      2.490
REMARK  2 active torsions:
REMARK  status: ('A' for Active; 'I' for Inactive)
REMARK    1  A    between atoms: S1_2  and  N1_5
REMARK    2  A    between atoms: N1_5  and  N2_7
ROOT
HETATM    1  N2  UNL     1      14.232   8.102  11.082  1.00  0.00    -0.218 NA
HETATM    2  C2  UNL     1      13.167   9.040  10.840  1.00  0.00     0.142 C
HETATM    3  C3  UNL     1      12.174   8.560   9.820  1.00  0.00     0.248 C
HETATM    4  N3  UNL     1      11.799   9.631   8.921  1.00  0.00    -0.072 N
ATOM      5  H31 UNL     1      12.301   9.559   8.036  1.00  0.00     0.277 HD
ATOM      6  H32 UNL     1      12.165  10.526   9.245  1.00  0.00     0.277 HD
HETATM    7  C4  UNL     1      10.379   9.702   8.706  1.00  0.00     0.259 C
HETATM    8  C5  UNL     1       9.940  11.145   8.616  1.00  0.00     0.259 C
HETATM    9  N4  UNL     1       9.528  11.671   9.888  1.00  0.00    -0.074 N
ATOM     10  H41 UNL     1       8.919  11.015  10.379  1.00  0.00     0.277 HD
ATOM     11  H42 UNL     1       8.873  12.444   9.773  1.00  0.00     0.277 HD
HETATM   12  C6  UNL     1      10.657  12.058  10.714  1.00  0.00     0.232 C
HETATM   13  C7  UNL     1      10.550  13.475  11.203  1.00  0.00     0.027 C
HETATM   14  C8  UNL     1       9.649  13.627  12.391  1.00  0.00     0.002 C
HETATM   15  C9  UNL     1      10.215  13.069  13.656  1.00  0.00     0.002 C
HETATM   16  C10 UNL     1      11.571  13.598  13.999  1.00  0.00     0.020 C
HETATM   17  C11 UNL     1      12.617  12.518  14.044  1.00  0.00     0.122 C
HETATM   18  N5  UNL     1      12.992  12.197  15.420  1.00  0.00    -0.359 N
ATOM     19  H5  UNL     1      12.627  12.746  16.198  1.00  0.00     0.162 HD
HETATM   20  C12 UNL     1      13.868  11.114  15.653  1.00  0.00     0.241 C
HETATM   21  O3  UNL     1      14.589  11.136  16.684  1.00  0.00    -0.271 OA
HETATM   22  C13 UNL     1      13.994   9.939  14.753  1.00  0.00     0.270 C
HETATM   23  O4  UNL     1      15.215   9.921  14.080  1.00  0.00    -0.381 OA
HETATM   24  C14 UNL     1      15.060   9.749  12.705  1.00  0.00     0.184 C
HETATM   25  C15 UNL     1      14.830   8.299  12.378  1.00  0.00     0.140 C
ENDROOT
BRANCH   1  26
HETATM   26  N1  UNL     1      13.844   6.781  10.967  1.00  0.00    -0.247 N
ATOM     27  H1  UNL     1      12.974   6.490  10.520  1.00  0.00     0.194 HD
BRANCH  26  28
HETATM   28  S1  UNL     1      14.974   5.675  11.653  1.00  0.00     0.236 S
HETATM   29  C1  UNL     1      14.514   5.239  13.319  1.00  0.00     0.187 C
HETATM   30  O1  UNL     1      16.360   6.264  11.714  1.00  0.00    -0.205 OA
HETATM   31  O2  UNL     1      14.973   4.406  10.829  1.00  0.00    -0.205 OA
ENDBRANCH  26  28
ENDBRANCH   1  26
TORSDOF 2
ENDMDL