MODEL 5
REMARK VINA RESULT: -8.196214715      0.658      1.049
REMARK  2 active torsions:
REMARK  status: ('A' for Active; 'I' for Inactive)
REMARK    1  A    between atoms: N4_15  and  N5_16
REMARK    2  A    between atoms: N5_16  and  C9_18
ROOT
HETATM    1  C1  UNL     1       8.754  11.461   8.973  1.00  0.00     0.310 C
HETATM    2  N1  UNL     1      10.073  10.985   9.311  1.00  0.00     0.086 N
HETATM    3  C2  UNL     1      10.413  11.418  10.653  1.00  0.00     0.277 C
HETATM    4  C3  UNL     1      11.892  11.779  10.731  1.00  0.00     0.074 C
HETATM    5  C4  UNL     1      12.145  12.938  11.635  1.00  0.00     0.057 C
HETATM    6  N2  UNL     1      11.989  12.748  13.005  1.00  0.00    -0.401 N
ATOM      7  H2  UNL     1      11.816  13.547  13.614  1.00  0.00     0.158 HD
HETATM    8  C5  UNL     1      12.068  11.455  13.549  1.00  0.00     0.146 C
HETATM    9  C6  UNL     1      13.301  11.252  14.433  1.00  0.00     0.251 C
HETATM   10  N3  UNL     1      14.327  10.512  13.728  1.00  0.00    -0.072 N
ATOM     11  H31 UNL     1      15.261  10.830  13.986  1.00  0.00     0.277 HD
ATOM     12  H32 UNL     1      14.346  10.753  12.736  1.00  0.00     0.277 HD
HETATM   13  C7  UNL     1      14.179   9.076  13.924  1.00  0.00     0.249 C
HETATM   14  C8  UNL     1      14.308   8.426  12.566  1.00  0.00     0.159 C
HETATM   15  N4  UNL     1      13.554   7.201  12.468  1.00  0.00    -0.117 NA
HETATM   16  S1  UNL     1      13.379   6.795  10.796  1.00  0.00     0.253 S
HETATM   17  O1  UNL     1      13.295   5.306  10.622  1.00  0.00    -0.208 OA
HETATM   18  O2  UNL     1      14.555   7.339  10.031  1.00  0.00    -0.208 OA
HETATM   19  C15 UNL     1      11.897   7.602  10.235  1.00  0.00     0.390 C
HETATM   20  N6  UNL     1      11.900   7.815   8.807  1.00  0.00    -0.059 N
ATOM     21  H61 UNL     1      11.370   7.088   8.326  1.00  0.00     0.278 HD
ATOM     22  H62 UNL     1      12.822   7.634   8.411  1.00  0.00     0.278 HD
HETATM   23  C16 UNL     1      11.428   9.128   8.447  1.00  0.00     0.263 C
HETATM   24  C17 UNL     1      10.178   9.535   9.171  1.00  0.00     0.299 C
ENDROOT
BRANCH  15  25
HETATM   25  N5  UNL     1      14.050   6.170  13.227  1.00  0.00    -0.306 N
ATOM     26  H5  UNL     1      13.442   5.689  13.891  1.00  0.00     0.182 HD
BRANCH  25  27
HETATM   27  C9  UNL     1      15.408   5.768  13.092  1.00  0.00     0.044 A
HETATM   28  C10 UNL     1      15.787   4.731  12.271  1.00  0.00     0.033 A
HETATM   29  C11 UNL     1      17.100   4.327  12.124  1.00  0.00     0.044 A
HETATM   30  C12 UNL     1      18.090   4.979  12.823  1.00  0.00     0.116 A
HETATM   31  F1  UNL     1      19.374   4.570  12.670  1.00  0.00    -0.206 F
HETATM   32  C13 UNL     1      17.739   6.020  13.653  1.00  0.00     0.044 A
HETATM   33  C14 UNL     1      16.426   6.409  13.786  1.00  0.00     0.033 A
ENDBRANCH  25  27
ENDBRANCH  15  25
TORSDOF 2
ENDMDL