MODEL 1
REMARK VINA RESULT: -7.588725329      0.000      0.000
REMARK  3 active torsions:
REMARK  status: ('A' for Active; 'I' for Inactive)
REMARK    1  A    between atoms: C3_7  and  C4_8
REMARK       I    between atoms: C4_8  and  N3_10
REMARK    2  A    between atoms: C11_21  and  C12_22
REMARK    3  A    between atoms: C15_31  and  N9_32
ROOT
HETATM    1  C1  UNL     1      17.768   2.189   8.687  1.00  0.00     0.165 C
HETATM    2  N1  UNL     1      16.834   2.641   9.695  1.00  0.00    -0.230 N
ATOM      3  H1  UNL     1      15.831   2.509   9.564  1.00  0.00     0.177 HD
HETATM    4  C2  UNL     1      17.290   3.222  10.776  1.00  0.00     0.679 A
HETATM    5  N2  UNL     1      16.425   3.642  11.713  1.00  0.00    -0.185 N
ATOM      6  H2  UNL     1      15.421   3.512  11.588  1.00  0.00     0.184 HD
HETATM    7  C3  UNL     1      16.910   4.246  12.837  1.00  0.00     0.135 A
HETATM    8  C11 UNL     1      18.256   4.432  13.028  1.00  0.00     0.086 A
HETATM    9  C15 UNL     1      19.110   3.978  12.025  1.00  0.00     0.131 A
HETATM   10  N10 UNL     1      18.601   3.380  10.918  1.00  0.00    -0.176 N
ATOM     11  H10 UNL     1      19.231   3.049  10.188  1.00  0.00     0.186 HD
ENDROOT
BRANCH   7  12
HETATM   12  C4  UNL     1      15.953   4.688  13.831  1.00  0.00     0.275 C
HETATM   13  O1  UNL     1      15.399   3.817  14.557  1.00  0.00    -0.266 OA
HETATM   14  N3  UNL     1      15.636   6.037  14.005  1.00  0.00    -0.306 N
HETATM   15  C5  UNL     1      14.790   6.772  13.418  1.00  0.00     0.132 A
ATOM     16  H3  UNL     1      16.179   6.510  14.727  1.00  0.00     0.170 HD
HETATM   17  C6  UNL     1      14.598   8.136  13.724  1.00  0.00     0.007 A
HETATM   18  N5  UNL     1      13.932   6.469  12.437  1.00  0.00    -0.280 N
HETATM   19  C7  UNL     1      15.361   8.875  14.768  1.00  0.00     0.054 C
HETATM   20  C8  UNL     1      13.611   8.610  12.899  1.00  0.00     0.032 A
HETATM   21  C9  UNL     1      13.078  10.011  12.874  1.00  0.00     0.070 C
HETATM   22  N4  UNL     1      13.240   7.576  12.143  1.00  0.00    -0.301 N
ATOM     23  H4  UNL     1      12.516   7.623  11.427  1.00  0.00     0.187 HD
HETATM   24  C10 UNL     1      13.732   5.175  11.760  1.00  0.00     0.179 C
ENDBRANCH   7  12
BRANCH   8  25
HETATM   25  C12 UNL     1      18.844   5.062  14.193  1.00  0.00     0.140 A
HETATM   26  N6  UNL     1      19.120   6.381  14.406  1.00  0.00    -0.316 N
HETATM   27  C13 UNL     1      19.673   6.572  15.601  1.00  0.00     0.195 A
ATOM     28  H6  UNL     1      18.928   7.125  13.735  1.00  0.00     0.170 HD
HETATM   29 CL1  UNL     1      20.204   8.075  16.334  1.00  0.00    -0.043 Cl
HETATM   30  N7  UNL     1      19.758   5.364  16.173  1.00  0.00    -0.272 N
HETATM   31  N8  UNL     1      19.267   4.460  15.342  1.00  0.00    -0.278 N
ATOM     32  H7  UNL     1      20.139   5.173  17.099  1.00  0.00     0.189 HD
HETATM   33  C14 UNL     1      19.206   3.060  15.635  1.00  0.00     0.179 C
ENDBRANCH   8  25
BRANCH   9  34
HETATM   34  N9  UNL     1      20.379   4.104  12.110  1.00  0.00    -0.384 N
ATOM     35  H92 UNL     1      20.851   4.676  11.410  1.00  0.00     0.157 HD
ATOM     36  H91 UNL     1      20.919   3.652  12.848  1.00  0.00     0.157 HD
ENDBRANCH   9  34
TORSDOF 3
ENDMDL