MODEL 1
REMARK VINA RESULT: -10.309381483      0.000      0.000
REMARK  2 active torsions:
REMARK  status: ('A' for Active; 'I' for Inactive)
REMARK    1  A    between atoms: C5_12  and  C6_13
REMARK    2  A    between atoms: C13_28  and  N6_29
ROOT
HETATM    1  C1  UNL     1       9.724  13.601  13.314  1.00  0.00     0.175 C
HETATM    2  N1  UNL     1      10.543  12.825  12.437  1.00  0.00    -0.184 N
HETATM    3  C2  UNL     1      10.017  12.426  11.233  1.00  0.00     0.681 A
HETATM    4  N2  UNL     1       8.960  13.021  10.828  1.00  0.00    -0.234 N
ATOM      5  H21 UNL     1       8.570  12.724   9.934  1.00  0.00     0.174 HD
ATOM      6  H22 UNL     1       8.525  13.726  11.422  1.00  0.00     0.174 HD
HETATM    7  N3  UNL     1      10.589  11.497  10.451  1.00  0.00    -0.155 N
ATOM      8  H3  UNL     1      10.147  11.247   9.567  1.00  0.00     0.187 HD
HETATM    9  C3  UNL     1      11.721  10.896  10.805  1.00  0.00     0.273 A
HETATM   10  O1  UNL     1      12.245  10.008  10.045  1.00  0.00    -0.267 OA
HETATM   11  C4  UNL     1      12.286  11.272  12.005  1.00  0.00     0.074 A
HETATM   12  C5  UNL     1      13.436  10.617  12.385  1.00  0.00     0.005 A
HETATM   13  C11 UNL     1      14.001  10.953  13.592  1.00  0.00     0.047 A
HETATM   14 CL1  UNL     1      15.497  10.185  14.169  1.00  0.00    -0.083 Cl
HETATM   15  C12 UNL     1      13.452  11.910  14.398  1.00  0.00     0.063 A
HETATM   16  C13 UNL     1      12.269  12.601  14.023  1.00  0.00     0.133 A
HETATM   17  C14 UNL     1      11.691  12.262  12.837  1.00  0.00     0.101 A
ENDROOT
BRANCH  12  18
HETATM   18  C6  UNL     1      14.110   9.601  11.601  1.00  0.00     0.037 C
HETATM   19  C7  UNL     1      14.174   8.316  11.858  1.00  0.00     0.101 A
HETATM   20  C8  UNL     1      13.555   7.669  13.002  1.00  0.00     0.265 A
HETATM   21  C10 UNL     1      14.935   7.458  10.941  1.00  0.00     0.265 A
HETATM   22  O2  UNL     1      12.883   8.328  13.833  1.00  0.00    -0.267 OA
HETATM   23  N4  UNL     1      13.653   6.266  13.271  1.00  0.00    -0.275 N
HETATM   24  C9  UNL     1      14.401   5.482  12.354  1.00  0.00     0.329 A
ATOM     25  H4  UNL     1      13.204   5.848  14.087  1.00  0.00     0.173 HD
HETATM   26  O3  UNL     1      14.498   4.239  12.579  1.00  0.00    -0.246 OA
HETATM   27  N5  UNL     1      15.022   6.074  11.220  1.00  0.00    -0.275 N
ATOM     28  H5  UNL     1      15.550   5.477  10.583  1.00  0.00     0.173 HD
HETATM   29  O4  UNL     1      15.507   7.951   9.915  1.00  0.00    -0.267 OA
ENDBRANCH  12  18
BRANCH  16  30
HETATM   30  N6  UNL     1      11.962  13.622  14.905  1.00  0.00    -0.113 N
HETATM   31  O5  UNL     1      11.735  13.263  16.138  1.00  0.00    -0.532 OA
HETATM   32  O6  UNL     1      11.819  14.937  14.738  1.00  0.00    -0.532 OA
ENDBRANCH  16  30
TORSDOF 2
ENDMDL