MODEL 2
REMARK VINA RESULT: -7.902290214      2.310      3.997
REMARK  7 active torsions:
REMARK  status: ('A' for Active; 'I' for Inactive)
REMARK    1  A    between atoms: O1_2  and  C2_3
REMARK    2  A    between atoms: C8_11  and  C9_12
REMARK    3  A    between atoms: C10_14  and  O3_15
REMARK    4  A    between atoms: C15_23  and  O5_25
REMARK    5  A    between atoms: C17_27  and  N3_30
REMARK    6  A    between atoms: N3_30  and  N4_32
REMARK    7  A    between atoms: N4_32  and  N5_33
ROOT
HETATM    1  C2  UNL     1      12.404  10.592  11.436  1.00  0.00     0.096 A
HETATM    2  C3  UNL     1      12.919   9.343  11.306  1.00  0.00     0.051 A
HETATM    3  C4  UNL     1      13.576   8.638  12.327  1.00  0.00     0.005 A
HETATM    4  C5  UNL     1      13.685   9.325  13.559  1.00  0.00    -0.001 A
HETATM    5  C6  UNL     1      13.145  10.584  13.731  1.00  0.00     0.046 A
HETATM    6  C7  UNL     1      12.508  11.227  12.649  1.00  0.00     0.081 A
HETATM    7  N1  UNL     1      11.959  12.508  12.864  1.00  0.00    -0.348 N
ATOM      8  H1  UNL     1      11.533  13.006  12.082  1.00  0.00     0.166 HD
HETATM    9  C8  UNL     1      11.985  13.118  14.141  1.00  0.00     0.107 C
HETATM   10  C10 UNL     1      12.506  12.433  15.155  1.00  0.00     0.135 C
HETATM   11  C11 UNL     1      13.066  11.112  14.910  1.00  0.00     0.165 C
HETATM   12  F1  UNL     1      13.024  10.318  16.013  1.00  0.00    -0.202 F
HETATM   13  C12 UNL     1      14.622   8.942  14.432  1.00  0.00    -0.001 C
HETATM   14  C13 UNL     1      14.997   9.450  15.719  1.00  0.00     0.053 C
HETATM   15  C14 UNL     1      15.382   7.718  13.945  1.00  0.00     0.194 C
HETATM   16  O4  UNL     1      16.583   7.627  14.230  1.00  0.00    -0.289 OA
HETATM   17  C15 UNL     1      14.738   6.651  13.152  1.00  0.00     0.164 C
HETATM   18  C16 UNL     1      15.835   5.799  12.577  1.00  0.00     0.059 C
HETATM   19  C17 UNL     1      13.982   7.281  12.021  1.00  0.00     0.213 C
HETATM   20  C18 UNL     1      14.759   7.259  10.781  1.00  0.00     0.102 C
HETATM   21  N2  UNL     1      15.368   7.236   9.776  1.00  0.00    -0.194 NA
ENDROOT
BRANCH  19  22
HETATM   22  N3  UNL     1      12.774   6.488  11.764  1.00  0.00    -0.220 N
ATOM     23  H3  UNL     1      11.965   6.621  12.372  1.00  0.00     0.199 HD
BRANCH  22  24
HETATM   24  N4  UNL     1      12.696   5.678  10.856  1.00  0.00    -0.246 NA
BRANCH  24  25
HETATM   25  N5  UNL     1      12.398   4.885   9.960  1.00  0.00    -0.261 N
ATOM     26  H52 UNL     1      11.419   4.977  10.230  1.00  0.00     0.193 HD
ATOM     27  H51 UNL     1      12.332   4.226   9.185  1.00  0.00     0.193 HD
ENDBRANCH  24  25
ENDBRANCH  22  24
ENDBRANCH  19  22
BRANCH  17  28
HETATM   28  O5  UNL     1      13.866   5.864  13.883  1.00  0.00    -0.378 OA
ATOM     29  H5  UNL     1      14.270   5.434  14.627  1.00  0.00     0.211 HD
ENDBRANCH  17  28
BRANCH   1  30
HETATM   30  O1  UNL     1      11.768  11.265  10.387  1.00  0.00    -0.354 OA
HETATM   31  C1  UNL     1      11.595  10.714   9.111  1.00  0.00     0.210 C
ENDBRANCH   1  30
BRANCH  10  32
HETATM   32  O3  UNL     1      12.519  13.013  16.427  1.00  0.00    -0.356 OA
ATOM     33  H3  UNL     1      11.755  12.919  16.984  1.00  0.00     0.218 HD
ENDBRANCH  10  32
BRANCH   9  34
HETATM   34  C9  UNL     1      11.462  14.452  14.308  1.00  0.00     0.290 C
HETATM   35  O2  UNL     1      10.234  14.663  14.233  1.00  0.00    -0.300 OA
ENDBRANCH   9  34
TORSDOF 7
ENDMDL