MODEL 3
REMARK VINA RESULT: -7.007879408      2.022      2.229
REMARK  2 active torsions:
REMARK  status: ('A' for Active; 'I' for Inactive)
REMARK    1  A    between atoms: C4_8  and  C5_9
REMARK    2  A    between atoms: N3_18  and  C9_19
ROOT
HETATM    1  C5  UNL     1      14.126   5.283  11.235  1.00  0.00     0.065 A
HETATM    2  C6  UNL     1      13.577   5.189   9.981  1.00  0.00     0.106 A
HETATM    3 BR1  UNL     1      12.266   6.427   9.419  1.00  0.00    -0.043 Br
HETATM    4  C7  UNL     1      14.007   4.214   9.071  1.00  0.00     0.269 A
HETATM    5  O3  UNL     1      13.475   4.159   7.924  1.00  0.00    -0.267 OA
HETATM    6  N2  UNL     1      14.963   3.383   9.456  1.00  0.00    -0.274 N
ATOM      7  H2  UNL     1      15.294   2.665   8.812  1.00  0.00     0.173 HD
HETATM    8  C8  UNL     1      15.502   3.472  10.680  1.00  0.00     0.331 A
HETATM    9  O4  UNL     1      16.401   2.657  10.975  1.00  0.00    -0.246 OA
HETATM   10  N3  UNL     1      15.113   4.395  11.577  1.00  0.00    -0.267 N
ENDROOT
BRANCH  10  11
HETATM   11  C9  UNL     1      15.670   4.506  12.880  1.00  0.00     0.320 C
HETATM   12  C10 UNL     1      15.336   3.332  13.795  1.00  0.00     0.287 C
HETATM   13  N4  UNL     1      15.660   3.801  15.145  1.00  0.00    -0.070 N
HETATM   14  C11 UNL     1      17.028   4.198  15.271  1.00  0.00     0.260 C
ATOM     15  H42 UNL     1      15.032   4.551  15.434  1.00  0.00     0.277 HD
ATOM     16  H41 UNL     1      15.415   3.102  15.846  1.00  0.00     0.277 HD
HETATM   17  C12 UNL     1      17.391   5.260  14.245  1.00  0.00     0.262 C
HETATM   18  N5  UNL     1      17.110   4.647  12.932  1.00  0.00    -0.050 N
ATOM     19  H52 UNL     1      17.616   3.776  12.768  1.00  0.00     0.279 HD
ATOM     20  H51 UNL     1      17.503   5.162  12.144  1.00  0.00     0.279 HD
ENDBRANCH  10  11
BRANCH   1  21
HETATM   21  C4  UNL     1      13.636   6.257  12.188  1.00  0.00     0.056 C
HETATM   22  C3  UNL     1      13.958   7.504  12.295  1.00  0.00     0.080 C
HETATM   23  C2  UNL     1      14.852   8.406  11.586  1.00  0.00     0.266 C
HETATM   24  S1  UNL     1      13.308   8.615  13.598  1.00  0.00    -0.024 SA
HETATM   25  N1  UNL     1      15.280   9.523  12.296  1.00  0.00    -0.283 N
HETATM   26  O2  UNL     1      15.206   8.160  10.373  1.00  0.00    -0.267 OA
HETATM   27  C1  UNL     1      14.796   9.647  13.611  1.00  0.00     0.291 C
ATOM     28  H1  UNL     1      15.910  10.213  11.887  1.00  0.00     0.172 HD
HETATM   29  O1  UNL     1      15.193  10.266  14.595  1.00  0.00    -0.260 OA
ENDBRANCH   1  21
TORSDOF 2
ENDMDL