MODEL 5
REMARK VINA RESULT: -8.105312661      1.574      1.672
REMARK  6 active torsions:
REMARK  status: ('A' for Active; 'I' for Inactive)
REMARK    1  A    between atoms: C4_8  and  C5_9
REMARK    2  A    between atoms: C5_9  and  N5_19
REMARK    3  A    between atoms: N3_10  and  O2_12
REMARK    4  A    between atoms: O2_12  and  C6_13
REMARK       I    between atoms: C6_13  and  N4_15
REMARK    5  A    between atoms: N4_15  and  O4_16
REMARK    6  A    between atoms: N5_19  and  C7_21
ROOT
HETATM    1  C5  UNL     1      14.561   9.319  12.451  1.00  0.00     0.139 C
HETATM    2  N3  UNL     1      15.208   9.403  13.547  1.00  0.00    -0.239 N
ATOM      3  H3  UNL     1      15.671   8.563  13.895  1.00  0.00     0.196 HD
ENDROOT
BRANCH   1   4
HETATM    4  C4  UNL     1      14.521   8.036  11.762  1.00  0.00     0.093 A
HETATM    5  C3  UNL     1      14.706   7.951  10.396  1.00  0.00     0.113 A
HETATM    6  N2  UNL     1      14.654   6.734   9.836  1.00  0.00    -0.318 N
HETATM    7  C2  UNL     1      14.431   5.628  10.566  1.00  0.00     0.328 A
ATOM      8  H2  UNL     1      14.787   6.645   8.828  1.00  0.00     0.170 HD
HETATM    9  N1  UNL     1      14.253   5.722  11.890  1.00  0.00    -0.270 N
HETATM   10  O1  UNL     1      14.388   4.485   9.998  1.00  0.00    -0.246 OA
HETATM   11  C1  UNL     1      14.013   4.540  12.690  1.00  0.00     0.164 C
HETATM   12  C16 UNL     1      14.293   6.905  12.511  1.00  0.00     0.266 A
HETATM   13  O5  UNL     1      14.124   6.991  13.774  1.00  0.00    -0.267 OA
ENDBRANCH   1   4
BRANCH   1  14
HETATM   14  N5  UNL     1      13.874  10.409  11.859  1.00  0.00    -0.369 N
ATOM     15  H5  UNL     1      14.418  11.223  11.574  1.00  0.00     0.161 HD
BRANCH  14  16
HETATM   16  C7  UNL     1      12.439  10.430  11.636  1.00  0.00     0.088 C
HETATM   17  C8  UNL     1      11.845  11.497  12.481  1.00  0.00     0.055 C
HETATM   18  C9  UNL     1      10.947  12.451  11.763  1.00  0.00     0.021 C
HETATM   19  C10 UNL     1      11.794  13.590  11.222  1.00  0.00     0.037 C
HETATM   20  C11 UNL     1      10.005  13.067  12.784  1.00  0.00     0.037 C
HETATM   21  N6  UNL     1      10.165  11.811  10.772  1.00  0.00    -0.405 N
HETATM   22  C12 UNL     1      10.877  11.106   9.764  1.00  0.00     0.021 C
ATOM     23  H6  UNL     1       9.146  11.854  10.781  1.00  0.00     0.154 HD
HETATM   24  C13 UNL     1       9.907  10.032   9.243  1.00  0.00     0.037 C
HETATM   25  C14 UNL     1      11.074  12.056   8.596  1.00  0.00     0.037 C
HETATM   26  C15 UNL     1      12.166  10.501  10.181  1.00  0.00     0.055 C
ENDBRANCH  14  16
ENDBRANCH   1  14
BRANCH   2  27
HETATM   27  O2  UNL     1      15.320  10.554  14.291  1.00  0.00    -0.176 OA
BRANCH  27  28
HETATM   28  C6  UNL     1      14.805  10.641  15.563  1.00  0.00     0.438 C
HETATM   29  O3  UNL     1      13.544  10.724  15.660  1.00  0.00    -0.231 OA
HETATM   30  N4  UNL     1      15.607  10.643  16.740  1.00  0.00    -0.017 N
HETATM   31  F1  UNL     1      16.931  10.559  16.676  1.00  0.00    -0.065 F
BRANCH  30  32
HETATM   32  O4  UNL     1      15.015  10.734  17.952  1.00  0.00    -0.255 OA
ATOM     33  H4  UNL     1      14.273  10.178  18.156  1.00  0.00     0.248 HD
ENDBRANCH  30  32
ENDBRANCH  27  28
ENDBRANCH   2  27
TORSDOF 6
ENDMDL