MODEL 3
REMARK VINA RESULT: -7.744800234      3.118      5.290
REMARK  6 active torsions:
REMARK  status: ('A' for Active; 'I' for Inactive)
REMARK    1  A    between atoms: C4_9  and  C5_10
REMARK    2  A    between atoms: C6_13  and  N4_14
REMARK    3  A    between atoms: N4_14  and  N5_16
REMARK    4  A    between atoms: C11_24  and  N7_25
REMARK    5  A    between atoms: C12_28  and  N8_29
REMARK    6  A    between atoms: N8_29  and  O3_31
ROOT
HETATM    1  C5  UNL     1      63.095  33.460  12.608  1.00  0.00     0.111 A
HETATM    2  N3  UNL     1      63.891  32.501  13.204  1.00  0.00    -0.185 N
ATOM      3  H3  UNL     1      64.868  32.431  12.919  1.00  0.00     0.184 HD
HETATM    4  C6  UNL     1      63.434  31.662  14.138  1.00  0.00     0.699 A
HETATM    5  N6  UNL     1      62.161  31.718  14.545  1.00  0.00    -0.173 N
ATOM      6  H6  UNL     1      61.825  31.074  15.260  1.00  0.00     0.186 HD
HETATM    7  C11 UNL     1      61.340  32.608  14.021  1.00  0.00     0.146 A
HETATM    8  C12 UNL     1      61.808  33.501  13.030  1.00  0.00     0.127 A
ENDROOT
BRANCH   1   9
HETATM    9  C4  UNL     1      63.637  34.257  11.536  1.00  0.00     0.107 A
HETATM   10  N1  UNL     1      63.911  35.552  11.492  1.00  0.00    -0.290 N
HETATM   11  C1  UNL     1      63.723  36.601  12.480  1.00  0.00     0.178 C
HETATM   12  N2  UNL     1      64.530  35.861  10.322  1.00  0.00    -0.263 N
HETATM   13  C2  UNL     1      64.668  34.751   9.589  1.00  0.00     0.284 A
ATOM     14  H2  UNL     1      64.840  36.792  10.047  1.00  0.00     0.190 HD
HETATM   15  O1  UNL     1      65.204  34.670   8.437  1.00  0.00    -0.265 OA
HETATM   16  C3  UNL     1      64.125  33.744  10.316  1.00  0.00     0.133 A
HETATM   17 CL1  UNL     1      63.996  32.069   9.856  1.00  0.00    -0.076 Cl
ENDBRANCH   1   9
BRANCH   8  18
HETATM   18  N8  UNL     1      60.854  34.374  12.441  1.00  0.00    -0.263 N
ATOM     19  H8  UNL     1      60.739  35.340  12.748  1.00  0.00     0.194 HD
BRANCH  18  20
HETATM   20  O3  UNL     1      60.157  33.873  11.511  1.00  0.00    -0.289 OA
ATOM     21  H3  UNL     1      59.545  34.467  11.093  1.00  0.00     0.244 HD
ENDBRANCH  18  20
ENDBRANCH   8  18
BRANCH   4  22
HETATM   22  N4  UNL     1      64.286  30.817  14.608  1.00  0.00    -0.134 N
ATOM     23  H4  UNL     1      64.733  31.047  15.495  1.00  0.00     0.205 HD
BRANCH  22  24
HETATM   24  N5  UNL     1      64.640  29.631  14.012  1.00  0.00    -0.310 N
HETATM   25  C7  UNL     1      65.323  28.638  14.828  1.00  0.00     0.169 C
HETATM   26  C8  UNL     1      65.659  27.456  13.960  1.00  0.00     0.189 C
HETATM   27  O2  UNL     1      66.353  27.887  12.837  1.00  0.00    -0.388 OA
HETATM   28  C9  UNL     1      65.579  28.634  11.972  1.00  0.00     0.189 C
HETATM   29  C10 UNL     1      64.392  29.281  12.630  1.00  0.00     0.169 C
ENDBRANCH  22  24
ENDBRANCH   4  22
BRANCH   7  30
HETATM   30  N7  UNL     1      60.105  32.702  14.379  1.00  0.00    -0.383 N
ATOM     31  H72 UNL     1      59.419  32.943  13.663  1.00  0.00     0.157 HD
ATOM     32  H71 UNL     1      59.801  32.544  15.340  1.00  0.00     0.157 HD
ENDBRANCH   7  30
TORSDOF 6
ENDMDL