MODEL 4
REMARK VINA RESULT: -8.210744190      2.652      3.996
REMARK  2 active torsions:
REMARK  status: ('A' for Active; 'I' for Inactive)
REMARK    1  A    between atoms: N1_2  and  C3_4
REMARK    2  A    between atoms: C13_20  and  C14_21
ROOT
HETATM    1  C3  UNL     1      67.139  28.310  10.419  1.00  0.00     0.100 A
HETATM    2  C4  UNL     1      67.892  27.191  10.722  1.00  0.00     0.171 A
HETATM    3  F1  UNL     1      68.765  26.747   9.805  1.00  0.00    -0.202 F
HETATM    4  C5  UNL     1      67.725  26.575  11.943  1.00  0.00     0.110 A
HETATM    5  N2  UNL     1      68.535  25.432  12.177  1.00  0.00    -0.097 NA
HETATM    6  C6  UNL     1      66.806  27.057  12.890  1.00  0.00     0.101 A
HETATM    7  C7  UNL     1      66.747  26.327  14.080  1.00  0.00     0.104 C
HETATM    8  N3  UNL     1      66.740  25.685  15.048  1.00  0.00    -0.191 NA
HETATM    9  C8  UNL     1      66.085  28.148  12.570  1.00  0.00     0.096 A
HETATM   10  C9  UNL     1      66.234  28.791  11.343  1.00  0.00     0.093 A
HETATM   11  N4  UNL     1      65.412  29.839  11.272  1.00  0.00    -0.338 N
ATOM     12  H4  UNL     1      65.321  30.480  10.484  1.00  0.00     0.167 HD
HETATM   13  C10 UNL     1      64.725  29.900  12.422  1.00  0.00     0.117 A
HETATM   14  C11 UNL     1      63.758  30.799  12.837  1.00  0.00     0.077 A
HETATM   15  C12 UNL     1      63.171  30.692  14.058  1.00  0.00     0.070 A
HETATM   16  N5  UNL     1      62.176  31.577  14.543  1.00  0.00    -0.101 NA
HETATM   17  C13 UNL     1      63.570  29.663  14.866  1.00  0.00     0.121 A
HETATM   18  C15 UNL     1      64.557  28.752  14.437  1.00  0.00     0.271 A
HETATM   19  O2  UNL     1      64.825  27.885  15.241  1.00  0.00    -0.266 OA
HETATM   20  N7  UNL     1      65.127  28.869  13.228  1.00  0.00    -0.259 N
ENDROOT
BRANCH   1  21
HETATM   21  N1  UNL     1      67.254  28.998   9.189  1.00  0.00    -0.385 N
HETATM   22  C1  UNL     1      66.096  29.319   8.412  1.00  0.00     0.149 C
HETATM   23  C2  UNL     1      68.564  29.374   8.729  1.00  0.00     0.149 C
ENDBRANCH   1  21
BRANCH  17  24
HETATM   24  C14 UNL     1      62.995  29.480  16.180  1.00  0.00     0.272 C
HETATM   25  N6  UNL     1      63.562  30.093  17.307  1.00  0.00    -0.057 NA
HETATM   26  O1  UNL     1      61.975  28.764  16.312  1.00  0.00    -0.271 OA
ENDBRANCH  17  24
TORSDOF 2
ENDMDL