MODEL 2
REMARK VINA RESULT: -7.190951770      1.995      2.550
REMARK  3 active torsions:
REMARK  status: ('A' for Active; 'I' for Inactive)
REMARK    1  A    between atoms: C3_4  and  O1_5
REMARK    2  A    between atoms: C4_9  and  N3_10
REMARK    3  A    between atoms: C8_21  and  S2_22
ROOT
HETATM    1  N1  UNL     1      66.496  27.674  10.904  1.00  0.00    -0.191 NA
HETATM    2  C1  UNL     1      66.138  28.758  10.690  1.00  0.00     0.105 C
HETATM    3  C2  UNL     1      65.689  30.071  10.409  1.00  0.00     0.121 A
HETATM    4  C3  UNL     1      65.999  30.845   9.297  1.00  0.00     0.164 A
HETATM    5  N2  UNL     1      65.359  32.019   9.438  1.00  0.00    -0.319 N
ATOM      6  H2  UNL     1      65.401  32.789   8.771  1.00  0.00     0.169 HD
HETATM    7  C4  UNL     1      64.657  32.032  10.587  1.00  0.00     0.159 A
HETATM    8  C8  UNL     1      64.851  30.819  11.209  1.00  0.00     0.145 A
ENDROOT
BRANCH   4   9
HETATM    9  O1  UNL     1      66.827  30.395   8.281  1.00  0.00    -0.345 OA
ATOM     10  H1  UNL     1      67.648  30.819   8.065  1.00  0.00     0.219 HD
ENDBRANCH   4   9
BRANCH   8  11
HETATM   11  S2  UNL     1      64.163  30.324  12.727  1.00  0.00     0.267 S
HETATM   12  O4  UNL     1      63.551  31.449  13.480  1.00  0.00    -0.206 OA
HETATM   13  O5  UNL     1      63.168  29.200  12.539  1.00  0.00    -0.206 OA
HETATM   14 CL1  UNL     1      65.719  29.523  13.865  1.00  0.00     0.024 Cl
ENDBRANCH   8  11
BRANCH   7  15
HETATM   15  N3  UNL     1      63.837  33.066  11.133  1.00  0.00    -0.184 N
HETATM   16  N4  UNL     1      62.533  32.921  11.298  1.00  0.00    -0.251 N
HETATM   17  C5  UNL     1      61.767  33.900  11.814  1.00  0.00     0.298 A
ATOM     18  H4  UNL     1      62.095  32.041  11.026  1.00  0.00     0.191 HD
HETATM   19  O2  UNL     1      60.513  33.749  11.968  1.00  0.00    -0.263 OA
HETATM   20  C6  UNL     1      62.305  35.110  12.199  1.00  0.00     0.174 A
HETATM   21  S1  UNL     1      61.382  36.304  12.827  1.00  0.00    -0.054 SA
HETATM   22  N5  UNL     1      63.639  35.245  12.026  1.00  0.00    -0.293 N
HETATM   23  C7  UNL     1      64.374  34.243  11.506  1.00  0.00     0.348 A
ATOM     24  H5  UNL     1      64.095  36.118  12.292  1.00  0.00     0.171 HD
HETATM   25  O3  UNL     1      65.616  34.373  11.346  1.00  0.00    -0.245 OA
ENDBRANCH   7  15
TORSDOF 3
ENDMDL