MODEL 1
REMARK VINA RESULT: -8.751893354      0.000      0.000
REMARK  2 active torsions:
REMARK  status: ('A' for Active; 'I' for Inactive)
REMARK    1  A    between atoms: C1_2  and  C2_4
REMARK    2  A    between atoms: C6_8  and  N2_9
ROOT
HETATM    1  C2  UNL     1      66.770  28.079  10.943  1.00  0.00     0.054 A
HETATM    2  C3  UNL     1      65.948  29.170  11.174  1.00  0.00     0.029 A
HETATM    3  C4  UNL     1      65.284  29.326  12.373  1.00  0.00     0.001 A
HETATM    4  C5  UNL     1      65.447  28.359  13.370  1.00  0.00     0.071 A
HETATM    5  C6  UNL     1      66.279  27.273  13.110  1.00  0.00     0.152 A
HETATM    6  C7  UNL     1      66.941  27.117  11.917  1.00  0.00     0.084 A
HETATM    7 CL1  UNL     1      67.957  25.707  11.716  1.00  0.00    -0.081 Cl
HETATM    8  N3  UNL     1      64.656  28.772  14.479  1.00  0.00    -0.385 N
ATOM      9  H3  UNL     1      64.812  28.555  15.463  1.00  0.00     0.159 HD
HETATM   10  C8  UNL     1      63.568  29.579  13.907  1.00  0.00     0.154 C
HETATM   11  C9  UNL     1      64.354  30.379  12.883  1.00  0.00     0.167 C
HETATM   12  C10 UNL     1      65.066  31.441  13.607  1.00  0.00     0.248 C
HETATM   13  O4  UNL     1      66.191  31.211  14.089  1.00  0.00    -0.271 OA
HETATM   14  N4  UNL     1      64.469  32.710  13.749  1.00  0.00    -0.300 N
ATOM     15  H4  UNL     1      64.822  33.361  14.450  1.00  0.00     0.171 HD
HETATM   16  C11 UNL     1      63.478  33.050  12.997  1.00  0.00     0.197 C
HETATM   17  N5  UNL     1      62.929  34.351  13.204  1.00  0.00    -0.063 NA
HETATM   18  N6  UNL     1      62.923  32.205  12.000  1.00  0.00    -0.300 N
ATOM     19  H6  UNL     1      62.138  32.520  11.430  1.00  0.00     0.171 HD
HETATM   20  C12 UNL     1      63.484  30.914  11.810  1.00  0.00     0.248 C
HETATM   21  O5  UNL     1      63.258  30.247  10.782  1.00  0.00    -0.271 OA
ENDROOT
BRANCH   1  22
HETATM   22  C1  UNL     1      67.481  27.893   9.689  1.00  0.00     0.266 C
HETATM   23  N1  UNL     1      68.753  28.465   9.443  1.00  0.00    -0.057 NA
HETATM   24  O1  UNL     1      66.927  27.196   8.805  1.00  0.00    -0.271 OA
ENDBRANCH   1  22
BRANCH   5  25
HETATM   25  N2  UNL     1      66.430  26.305  14.133  1.00  0.00    -0.112 N
HETATM   26  O2  UNL     1      65.423  26.090  14.863  1.00  0.00    -0.532 OA
HETATM   27  O3  UNL     1      67.572  25.610  14.371  1.00  0.00    -0.532 OA
ENDBRANCH   5  25
TORSDOF 2
ENDMDL