MODEL 5
REMARK VINA RESULT: -7.754101499      1.682      3.422
REMARK  5 active torsions:
REMARK  status: ('A' for Active; 'I' for Inactive)
REMARK    1  A    between atoms: O1_2  and  C2_3
REMARK    2  A    between atoms: C2_3  and  C3_5
REMARK    3  A    between atoms: C4_6  and  N1_7
REMARK    4  A    between atoms: N1_7  and  C5_9
REMARK    5  A    between atoms: N5_25  and  N6_26
ROOT
HETATM    1  C3  UNL     1      66.207  31.032   9.875  1.00  0.00     0.166 A
HETATM    2  C4  UNL     1      65.535  30.111  10.645  1.00  0.00     0.152 A
HETATM    3  C9  UNL     1      64.657  30.566  11.618  1.00  0.00     0.277 A
HETATM    4  O4  UNL     1      64.026  29.758  12.341  1.00  0.00    -0.266 OA
HETATM    5  N4  UNL     1      64.463  31.881  11.811  1.00  0.00    -0.297 N
ATOM      6  H4  UNL     1      63.815  32.203  12.530  1.00  0.00     0.171 HD
HETATM    7  C10 UNL     1      65.127  32.775  11.050  1.00  0.00     0.200 A
HETATM    8  S1  UNL     1      64.901  34.391  11.272  1.00  0.00    -0.038 SA
HETATM    9  N5  UNL     1      65.991  32.335  10.091  1.00  0.00    -0.228 N
ENDROOT
BRANCH   2  10
HETATM   10  N1  UNL     1      65.752  28.730  10.429  1.00  0.00    -0.183 N
ATOM     11  H1  UNL     1      65.366  28.316   9.580  1.00  0.00     0.184 HD
BRANCH  10  12
HETATM   12  C5  UNL     1      66.400  27.960  11.226  1.00  0.00     0.686 A
HETATM   13  N2  UNL     1      65.943  27.576  12.431  1.00  0.00    -0.181 N
HETATM   14  C6  UNL     1      66.669  26.767  13.225  1.00  0.00     0.124 A
ATOM     15  H2  UNL     1      65.031  27.904  12.749  1.00  0.00     0.185 HD
HETATM   16 CL1  UNL     1      66.059  26.278  14.788  1.00  0.00    -0.064 Cl
HETATM   17  C7  UNL     1      67.892  26.330  12.793  1.00  0.00     0.117 A
HETATM   18  C8  UNL     1      68.360  26.720  11.567  1.00  0.00     0.262 A
HETATM   19  O3  UNL     1      69.493  26.288  11.220  1.00  0.00    -0.268 OA
HETATM   20  N3  UNL     1      67.605  27.527  10.809  1.00  0.00    -0.156 N
ATOM     21  H3  UNL     1      67.950  27.819   9.894  1.00  0.00     0.187 HD
ENDBRANCH  10  12
ENDBRANCH   2  10
BRANCH   1  22
HETATM   22  C2  UNL     1      67.144  30.640   8.834  1.00  0.00     0.314 C
HETATM   23  O2  UNL     1      66.956  30.927   7.645  1.00  0.00    -0.257 OA
BRANCH  22  24
HETATM   24  O1  UNL     1      68.308  29.914   9.131  1.00  0.00    -0.321 OA
HETATM   25  C1  UNL     1      68.892  28.996   8.258  1.00  0.00     0.213 C
ENDBRANCH  22  24
ENDBRANCH   1  22
BRANCH   9  26
HETATM   26  N6  UNL     1      66.678  33.255   9.305  1.00  0.00    -0.336 N
ATOM     27  H62 UNL     1      67.698  33.260   9.305  1.00  0.00     0.177 HD
ATOM     28  H61 UNL     1      66.135  33.909   8.741  1.00  0.00     0.177 HD
ENDBRANCH   9  26
TORSDOF 5
ENDMDL