MODEL 4
REMARK VINA RESULT: -8.131378828      3.897      6.517
REMARK  5 active torsions:
REMARK  status: ('A' for Active; 'I' for Inactive)
REMARK    1  A    between atoms: C4_6  and  N2_7
REMARK    2  A    between atoms: N2_7  and  C5_9
REMARK    3  A    between atoms: C7_11  and  C8_12
REMARK    4  A    between atoms: C10_17  and  S1_18
REMARK    5  A    between atoms: S1_18  and  N3_19
ROOT
HETATM    1  C5  UNL     1      65.289  28.401  12.680  1.00  0.00     0.079 A
HETATM    2  C6  UNL     1      64.753  28.554  13.942  1.00  0.00     0.059 A
HETATM    3  C7  UNL     1      64.043  29.628  14.390  1.00  0.00     0.084 A
HETATM    4  C9  UNL     1      63.737  30.759  13.651  1.00  0.00     0.163 A
HETATM    5  F1  UNL     1      63.008  31.781  14.229  1.00  0.00    -0.203 F
HETATM    6  C10 UNL     1      64.111  30.961  12.339  1.00  0.00     0.161 A
HETATM    7  S2  UNL     1      65.010  29.705  11.623  1.00  0.00    -0.056 SA
ENDROOT
BRANCH   1   8
HETATM    8  N2  UNL     1      65.947  27.335  12.362  1.00  0.00    -0.322 N
ATOM      9  H2  UNL     1      65.854  26.483  12.913  1.00  0.00     0.169 HD
BRANCH   8  10
HETATM   10  C4  UNL     1      66.809  27.375  11.217  1.00  0.00     0.194 C
HETATM   11  N1  UNL     1      67.696  28.259  10.928  1.00  0.00    -0.337 N
HETATM   12  C2  UNL     1      68.326  27.900   9.683  1.00  0.00     0.116 C
ATOM     13  H1  UNL     1      67.917  29.082  11.489  1.00  0.00     0.164 HD
HETATM   14  C1  UNL     1      68.675  29.120   8.864  1.00  0.00     0.059 C
HETATM   15  C3  UNL     1      69.555  27.079  10.010  1.00  0.00     0.059 C
HETATM   16  N5  UNL     1      67.378  27.043   9.047  1.00  0.00    -0.107 NA
HETATM   17  N4  UNL     1      66.808  26.398  10.177  1.00  0.00    -0.273 N
ATOM     18  H4  UNL     1      66.470  25.437  10.233  1.00  0.00     0.185 HD
ENDBRANCH   8  10
ENDBRANCH   1   8
BRANCH   3  19
HETATM   19  C8  UNL     1      63.537  29.629  15.781  1.00  0.00     0.212 C
HETATM   20  O1  UNL     1      62.373  29.246  16.076  1.00  0.00    -0.644 OA
HETATM   21  O2  UNL     1      64.363  30.062  16.787  1.00  0.00    -0.644 OA
ENDBRANCH   3  19
BRANCH   6  22
HETATM   22  S1  UNL     1      63.687  32.420  11.467  1.00  0.00     0.266 S
HETATM   23  O3  UNL     1      64.061  32.194  10.022  1.00  0.00    -0.200 OA
HETATM   24  O4  UNL     1      62.235  32.681  11.623  1.00  0.00    -0.200 OA
BRANCH  22  25
HETATM   25  N3  UNL     1      64.669  33.691  12.085  1.00  0.00    -0.324 N
ATOM     26  H32 UNL     1      64.562  34.682  11.867  1.00  0.00     0.169 HD
ATOM     27  H31 UNL     1      65.366  33.268  12.698  1.00  0.00     0.169 HD
ENDBRANCH  22  25
ENDBRANCH   6  22
TORSDOF 5
ENDMDL