MODEL 2
REMARK VINA RESULT: -8.258738414      2.603      6.524
REMARK  3 active torsions:
REMARK  status: ('A' for Active; 'I' for Inactive)
REMARK    1  A    between atoms: C3_5  and  S1_6
REMARK    2  A    between atoms: S1_6  and  C4_7
REMARK    3  A    between atoms: C10_22  and  N6_23
ROOT
HETATM    1  C4  UNL     1      63.881  31.454  12.695  1.00  0.00     0.109 A
HETATM    2  N2  UNL     1      64.158  32.080  13.839  1.00  0.00    -0.291 N
ATOM      3  H2  UNL     1      64.211  31.629  14.753  1.00  0.00     0.187 HD
HETATM    4  N3  UNL     1      64.354  33.382  13.615  1.00  0.00    -0.283 N
ATOM      5  H3  UNL     1      64.579  34.074  14.330  1.00  0.00     0.188 HD
HETATM    6  C5  UNL     1      64.210  33.640  12.311  1.00  0.00     0.144 A
HETATM    7  C6  UNL     1      63.910  32.425  11.716  1.00  0.00     0.113 A
HETATM    8  C7  UNL     1      63.709  32.420  10.342  1.00  0.00     0.266 A
HETATM    9  O1  UNL     1      63.437  31.339   9.778  1.00  0.00    -0.267 OA
HETATM   10  N4  UNL     1      63.807  33.570   9.620  1.00  0.00    -0.274 N
ATOM     11  H4  UNL     1      63.657  33.550   8.612  1.00  0.00     0.173 HD
HETATM   12  C8  UNL     1      64.099  34.728  10.227  1.00  0.00     0.330 A
HETATM   13  O2  UNL     1      64.178  35.761   9.518  1.00  0.00    -0.246 OA
HETATM   14  N5  UNL     1      64.299  34.764  11.554  1.00  0.00    -0.288 N
HETATM   15  C9  UNL     1      64.612  35.998  12.215  1.00  0.00     0.163 C
ENDROOT
BRANCH   1  16
HETATM   16  S1  UNL     1      63.531  29.735  12.367  1.00  0.00    -0.063 SA
BRANCH  16  17
HETATM   17  C3  UNL     1      64.442  28.662  13.426  1.00  0.00     0.089 A
HETATM   18  C2  UNL     1      65.533  27.939  12.961  1.00  0.00     0.130 A
HETATM   19  N1  UNL     1      66.241  27.115  13.755  1.00  0.00    -0.293 N
HETATM   20 CL1  UNL     1      66.037  28.081  11.281  1.00  0.00    -0.063 Cl
HETATM   21  C1  UNL     1      67.388  26.368  13.232  1.00  0.00     0.162 C
HETATM   22  C11 UNL     1      65.842  27.019  15.036  1.00  0.00     0.328 A
HETATM   23  N7  UNL     1      64.787  27.705  15.519  1.00  0.00    -0.293 N
HETATM   24  O3  UNL     1      66.508  26.247  15.774  1.00  0.00    -0.246 OA
HETATM   25  C10 UNL     1      64.065  28.535  14.746  1.00  0.00     0.123 A
ATOM     26  H7  UNL     1      64.530  27.592  16.499  1.00  0.00     0.172 HD
BRANCH  25  27
HETATM   27  N6  UNL     1      63.048  29.184  15.252  1.00  0.00    -0.384 N
ATOM     28  H62 UNL     1      63.202  29.915  15.947  1.00  0.00     0.157 HD
ATOM     29  H61 UNL     1      62.084  28.991  14.981  1.00  0.00     0.157 HD
ENDBRANCH  25  27
ENDBRANCH  16  17
ENDBRANCH   1  16
TORSDOF 3
ENDMDL