MODEL 5
REMARK VINA RESULT: -7.438043651      2.503      2.672
REMARK  4 active torsions:
REMARK  status: ('A' for Active; 'I' for Inactive)
REMARK    1  A    between atoms: N1_1  and  C1_4
REMARK    2  A    between atoms: C3_9  and  C4_10
REMARK    3  A    between atoms: N4_17  and  C8_18
REMARK    4  A    between atoms: C8_18  and  C9_19
ROOT
HETATM    1  C4  UNL     1      65.865  28.423  13.687  1.00  0.00     0.165 C
HETATM    2  C5  UNL     1      65.902  26.888  13.473  1.00  0.00     0.264 C
HETATM    3  N3  UNL     1      67.174  26.705  12.752  1.00  0.00    -0.071 N
ATOM      4  H31 UNL     1      67.222  25.793  12.298  1.00  0.00     0.277 HD
ATOM      5  H32 UNL     1      67.959  26.600  13.394  1.00  0.00     0.277 HD
HETATM    6  C6  UNL     1      67.394  27.789  11.805  1.00  0.00     0.252 C
HETATM    7  C7  UNL     1      66.077  28.288  11.268  1.00  0.00     0.150 C
HETATM    8  N4  UNL     1      65.287  28.815  12.361  1.00  0.00    -0.375 N
ENDROOT
BRANCH   1   9
HETATM    9  C3  UNL     1      65.039  28.735  14.832  1.00  0.00     0.107 A
HETATM   10  C2  UNL     1      64.846  30.042  15.223  1.00  0.00     0.229 A
HETATM   11  N2  UNL     1      64.065  30.436  16.219  1.00  0.00    -0.163 N
HETATM   12  F1  UNL     1      65.545  31.065  14.590  1.00  0.00    -0.183 F
HETATM   13  C1  UNL     1      63.373  29.476  16.919  1.00  0.00     0.692 A
ATOM     14  H2  UNL     1      63.981  31.423  16.460  1.00  0.00     0.186 HD
HETATM   15  N7  UNL     1      63.539  28.236  16.548  1.00  0.00    -0.132 N
HETATM   16  N6  UNL     1      64.328  27.788  15.557  1.00  0.00    -0.284 N
ATOM     17  H7  UNL     1      63.013  27.532  17.066  1.00  0.00     0.205 HD
ATOM     18  H6  UNL     1      64.401  26.793  15.345  1.00  0.00     0.187 HD
BRANCH  13  19
HETATM   19  N1  UNL     1      62.626  29.860  17.917  1.00  0.00    -0.233 N
ATOM     20  H12 UNL     1      61.997  29.251  18.439  1.00  0.00     0.174 HD
ATOM     21  H11 UNL     1      62.687  30.832  18.218  1.00  0.00     0.174 HD
ENDBRANCH  13  19
ENDBRANCH   1   9
BRANCH   8  22
HETATM   22  C8  UNL     1      64.097  29.451  12.165  1.00  0.00     0.111 C
BRANCH  22  23
HETATM   23  C9  UNL     1      63.772  30.664  11.800  1.00  0.00     0.091 A
HETATM   24  S1  UNL     1      62.757  31.747  12.858  1.00  0.00    -0.054 SA
HETATM   25  C10 UNL     1      62.699  33.130  11.767  1.00  0.00     0.146 A
HETATM   26  S2  UNL     1      61.955  34.587  12.023  1.00  0.00    -0.052 SA
HETATM   27  N5  UNL     1      63.427  32.732  10.616  1.00  0.00    -0.307 N
HETATM   28  C11 UNL     1      63.988  31.458  10.640  1.00  0.00     0.265 A
ATOM     29  H5  UNL     1      63.532  33.349   9.811  1.00  0.00     0.170 HD
HETATM   30  O1  UNL     1      64.674  31.053   9.637  1.00  0.00    -0.267 OA
ENDBRANCH  22  23
ENDBRANCH   8  22
TORSDOF 4
ENDMDL