MODEL 1
REMARK VINA RESULT: -8.458107217      0.000      0.000
REMARK  5 active torsions:
REMARK  status: ('A' for Active; 'I' for Inactive)
REMARK    1  A    between atoms: C2_2  and  C9_29
REMARK    2  A    between atoms: N1_3  and  N2_5
REMARK    3  A    between atoms: N2_5  and  C3_7
REMARK    4  A    between atoms: C5_12  and  N4_13
REMARK    5  A    between atoms: N4_13  and  N5_15
REMARK       I    between atoms: C9_29  and  N9_31
ROOT
HETATM    1  C3  UNL     1      65.609  28.579  12.664  1.00  0.00     0.141 A
HETATM    2  N3  UNL     1      65.604  29.399  11.612  1.00  0.00    -0.310 N
ATOM      3  H3  UNL     1      66.149  29.324  10.753  1.00  0.00     0.176 HD
HETATM    4  S1  UNL     1      64.486  30.588  12.032  1.00  0.00    -0.008 SA
HETATM    5  C4  UNL     1      64.028  30.019  13.568  1.00  0.00     0.084 A
HETATM    6  C5  UNL     1      63.113  30.612  14.408  1.00  0.00     0.154 C
HETATM    7  N6  UNL     1      63.019  30.497  15.770  1.00  0.00    -0.174 N
ATOM      8  H6  UNL     1      62.496  31.211  16.277  1.00  0.00     0.186 HD
HETATM    9  C6  UNL     1      63.575  29.498  16.478  1.00  0.00     0.678 C
HETATM   10  N7  UNL     1      63.473  29.648  17.750  1.00  0.00    -0.234 N
ATOM     11  H71 UNL     1      63.895  28.890  18.287  1.00  0.00     0.174 HD
ATOM     12  H72 UNL     1      62.991  30.492  18.059  1.00  0.00     0.174 HD
HETATM   13  N8  UNL     1      64.217  28.373  16.065  1.00  0.00    -0.180 N
ATOM     14  H8  UNL     1      64.326  27.646  16.772  1.00  0.00     0.185 HD
HETATM   15  C7  UNL     1      64.729  28.085  14.855  1.00  0.00     0.135 C
HETATM   16 CL1  UNL     1      65.398  26.469  14.768  1.00  0.00    -0.063 Cl
HETATM   17  C8  UNL     1      64.796  28.884  13.693  1.00  0.00     0.071 A
ENDROOT
BRANCH   1  18
HETATM   18  N2  UNL     1      66.382  27.516  12.682  1.00  0.00    -0.284 N
ATOM     19  H2  UNL     1      66.103  26.680  13.193  1.00  0.00     0.188 HD
BRANCH  18  20
HETATM   20  N1  UNL     1      67.576  27.552  11.996  1.00  0.00    -0.298 N
HETATM   21  C2  UNL     1      67.812  26.980  10.879  1.00  0.00     0.089 C
HETATM   22  C1  UNL     1      66.784  26.173  10.156  1.00  0.00     0.076 C
ATOM     23  H1  UNL     1      68.339  28.083  12.418  1.00  0.00     0.187 HD
BRANCH  21  24
HETATM   24  C9  UNL     1      69.125  27.111  10.279  1.00  0.00     0.266 C
HETATM   25  O1  UNL     1      70.055  26.365  10.740  1.00  0.00    -0.266 OA
HETATM   26  N9  UNL     1      69.418  28.012   9.228  1.00  0.00    -0.356 N
HETATM   27  C10 UNL     1      68.485  28.900   8.619  1.00  0.00     0.152 C
HETATM   28  C11 UNL     1      70.793  28.031   8.727  1.00  0.00     0.152 C
ENDBRANCH  21  24
ENDBRANCH  18  20
ENDBRANCH   1  18
BRANCH   6  29
HETATM   29  N4  UNL     1      62.255  31.351  13.840  1.00  0.00    -0.290 N
ATOM     30  H4  UNL     1      62.116  31.242  12.835  1.00  0.00     0.188 HD
BRANCH  29  31
HETATM   31  N5  UNL     1      61.498  32.294  14.504  1.00  0.00    -0.344 N
ATOM     32  H52 UNL     1      61.897  32.697  15.351  1.00  0.00     0.176 HD
ATOM     33  H51 UNL     1      60.577  32.601  14.192  1.00  0.00     0.176 HD
ENDBRANCH  29  31
ENDBRANCH   6  29
TORSDOF 5
ENDMDL