MODEL 5
REMARK VINA RESULT: -8.869811124      1.320      2.674
REMARK  3 active torsions:
REMARK  status: ('A' for Active; 'I' for Inactive)
REMARK    1  A    between atoms: C5_13  and  N5_14
REMARK    2  A    between atoms: N5_14  and  C6_16
REMARK    3  A    between atoms: C7_19  and  N7_20
ROOT
HETATM    1  N1  UNL     1      68.281  25.399  13.884  1.00  0.00    -0.190 NA
HETATM    2  C1  UNL     1      67.948  26.154  13.051  1.00  0.00     0.120 C
HETATM    3  C2  UNL     1      67.534  27.053  12.021  1.00  0.00     0.147 A
HETATM    4  N2  UNL     1      68.197  27.187  10.872  1.00  0.00    -0.322 N
ATOM      5  H2  UNL     1      69.034  26.622  10.732  1.00  0.00     0.169 HD
HETATM    6  C3  UNL     1      67.829  28.020   9.888  1.00  0.00     0.181 A
HETATM    7 CL1  UNL     1      68.783  28.110   8.396  1.00  0.00    -0.045 Cl
HETATM    8  N3  UNL     1      66.731  28.777  10.046  1.00  0.00    -0.316 N
ATOM      9  H3  UNL     1      66.433  29.419   9.311  1.00  0.00     0.170 HD
HETATM   10  C4  UNL     1      66.033  28.673  11.189  1.00  0.00     0.153 A
HETATM   11  N4  UNL     1      64.904  29.289  11.647  1.00  0.00    -0.173 N
ATOM     12  H4  UNL     1      64.376  29.988  11.125  1.00  0.00     0.186 HD
HETATM   13  C5  UNL     1      64.583  28.852  12.876  1.00  0.00     0.699 A
HETATM   14  N11 UNL     1      65.525  27.928  13.226  1.00  0.00    -0.184 N
ATOM     15  H11 UNL     1      65.561  27.411  14.104  1.00  0.00     0.184 HD
HETATM   16  C12 UNL     1      66.399  27.821  12.208  1.00  0.00     0.131 A
ENDROOT
BRANCH  13  17
HETATM   17  N5  UNL     1      63.476  29.282  13.642  1.00  0.00    -0.020 N
ATOM     18  H5  UNL     1      62.954  28.559  14.137  1.00  0.00     0.203 HD
BRANCH  17  19
HETATM   19  C6  UNL     1      63.064  30.478  13.779  1.00  0.00     0.726 A
HETATM   20  N6  UNL     1      63.334  31.486  12.908  1.00  0.00    -0.019 N
HETATM   21  C7  UNL     1      62.759  32.613  13.320  1.00  0.00     0.710 A
ATOM     22  H6  UNL     1      63.896  31.393  12.061  1.00  0.00     0.203 HD
HETATM   23  N9  UNL     1      62.121  32.330  14.456  1.00  0.00    -0.117 N
HETATM   24  N10 UNL     1      62.301  31.032  14.744  1.00  0.00    -0.117 N
ATOM     25  H9  UNL     1      61.583  32.992  15.015  1.00  0.00     0.206 HD
ATOM     26  H10 UNL     1      61.925  30.545  15.557  1.00  0.00     0.206 HD
BRANCH  21  27
HETATM   27  N7  UNL     1      62.877  33.863  12.601  1.00  0.00    -0.213 N
HETATM   28  C8  UNL     1      63.569  33.925  11.340  1.00  0.00     0.168 C
HETATM   29  C9  UNL     1      64.502  35.112  11.357  1.00  0.00     0.252 C
HETATM   30  N8  UNL     1      63.747  36.297  11.651  1.00  0.00    -0.072 N
HETATM   31  C10 UNL     1      63.103  36.243  12.933  1.00  0.00     0.252 C
ATOM     32  H82 UNL     1      64.329  37.130  11.570  1.00  0.00     0.277 HD
ATOM     33  H81 UNL     1      63.073  36.493  10.912  1.00  0.00     0.277 HD
HETATM   34  C11 UNL     1      62.270  35.036  13.158  1.00  0.00     0.168 C
ENDBRANCH  21  27
ENDBRANCH  17  19
ENDBRANCH  13  17
TORSDOF 3
ENDMDL