MODEL 4
REMARK VINA RESULT: -7.091904373      2.463      4.226
REMARK  3 active torsions:
REMARK  status: ('A' for Active; 'I' for Inactive)
REMARK    1  A    between atoms: N3_7  and  C3_8
REMARK    2  A    between atoms: C6_11  and  O1_12
REMARK    3  A    between atoms: C8_18  and  N5_19
REMARK       I    between atoms: N5_19  and  C9_21
REMARK       I    between atoms: C9_21  and  N8_26
ROOT
HETATM    1  N5  UNL     1      16.092   3.989  10.983  1.00  0.00    -0.171 N
ATOM      2  H5  UNL     1      15.786   4.604  10.229  1.00  0.00     0.186 HD
HETATM    3  C9  UNL     1      17.109   3.074  10.655  1.00  0.00     0.702 C
HETATM    4  N6  UNL     1      18.347   3.379  10.795  1.00  0.00    -0.125 N
ATOM      5  H6  UNL     1      19.079   2.711  10.553  1.00  0.00     0.197 HD
HETATM    6  C10 UNL     1      18.670   4.645  11.284  1.00  0.00     0.196 C
HETATM    7  N7  UNL     1      18.951   5.680  11.692  1.00  0.00    -0.171 NA
HETATM    8  N8  UNL     1      16.776   1.799  10.142  1.00  0.00    -0.125 N
ATOM      9  H8  UNL     1      17.508   1.178   9.798  1.00  0.00     0.197 HD
HETATM   10  C11 UNL     1      15.438   1.395  10.108  1.00  0.00     0.196 C
HETATM   11  N9  UNL     1      14.310   1.069  10.087  1.00  0.00    -0.171 NA
ENDROOT
BRANCH   1  12
HETATM   12  C8  UNL     1      15.447   4.164  12.216  1.00  0.00     0.169 A
HETATM   13  C2  UNL     1      15.814   3.622  13.420  1.00  0.00     0.070 A
HETATM   14  C1  UNL     1      16.934   2.735  13.799  1.00  0.00     0.074 C
HETATM   15  N1  UNL     1      14.888   4.077  14.313  1.00  0.00    -0.287 N
HETATM   16  N2  UNL     1      14.032   4.836  13.677  1.00  0.00    -0.233 N
ATOM     17  H1  UNL     1      14.867   3.862  15.309  1.00  0.00     0.188 HD
HETATM   18  N3  UNL     1      14.320   4.927  12.399  1.00  0.00    -0.207 N
ATOM     19  H2  UNL     1      13.238   5.301  14.119  1.00  0.00     0.209 HD
BRANCH  18  20
HETATM   20  C3  UNL     1      13.618   5.664  11.382  1.00  0.00     0.133 A
HETATM   21  C4  UNL     1      12.973   4.997  10.360  1.00  0.00     0.053 A
HETATM   22  C5  UNL     1      12.288   5.666   9.364  1.00  0.00     0.046 A
HETATM   23  C6  UNL     1      12.245   7.044   9.390  1.00  0.00     0.134 A
HETATM   24  C7  UNL     1      12.895   7.676  10.416  1.00  0.00     0.280 A
HETATM   25  O2  UNL     1      12.852   8.946  10.432  1.00  0.00    -0.265 OA
HETATM   26  N4  UNL     1      13.561   7.008  11.383  1.00  0.00    -0.306 N
ATOM     27  H4  UNL     1      14.027   7.530  12.125  1.00  0.00     0.170 HD
BRANCH  23  28
HETATM   28  O1  UNL     1      11.569   7.791   8.412  1.00  0.00    -0.356 OA
ATOM     29  H1  UNL     1      12.021   8.385   7.826  1.00  0.00     0.218 HD
ENDBRANCH  23  28
ENDBRANCH  18  20
ENDBRANCH   1  12
TORSDOF 3
ENDMDL