MODEL 5
REMARK VINA RESULT: -8.380541645      2.121      4.389
REMARK  3 active torsions:
REMARK  status: ('A' for Active; 'I' for Inactive)
REMARK    1  A    between atoms: N1_1  and  C1_4
REMARK    2  A    between atoms: C2_7  and  C3_8
REMARK    3  A    between atoms: C5_21  and  C6_22
ROOT
HETATM    1  C1  UNL     1      11.873   9.798   9.600  1.00  0.00     0.679 A
HETATM    2  N2  UNL     1      12.541   8.702   9.999  1.00  0.00    -0.187 N
ATOM      3  H2  UNL     1      12.597   7.912   9.357  1.00  0.00     0.184 HD
HETATM    4  C2  UNL     1      13.145   8.588  11.210  1.00  0.00     0.112 A
HETATM    5  C5  UNL     1      13.043   9.675  12.037  1.00  0.00     0.078 A
HETATM    6  C11 UNL     1      12.346  10.825  11.630  1.00  0.00     0.273 A
HETATM    7  O1  UNL     1      12.239  11.832  12.371  1.00  0.00    -0.267 OA
HETATM    8  N10 UNL     1      11.773  10.863  10.413  1.00  0.00    -0.156 N
ATOM      9  H10 UNL     1      11.267  11.694  10.110  1.00  0.00     0.187 HD
ENDROOT
BRANCH   4  10
HETATM   10  C3  UNL     1      13.839   7.344  11.553  1.00  0.00     0.166 A
HETATM   11  N3  UNL     1      13.438   6.357  12.377  1.00  0.00    -0.245 N
HETATM   12  N4  UNL     1      14.345   5.389  12.438  1.00  0.00    -0.001 N
ATOM     13  H3  UNL     1      12.555   6.353  12.887  1.00  0.00     0.191 HD
HETATM   14  N5  UNL     1      14.698   4.212  12.943  1.00  0.00    -0.191 N
HETATM   15  C4  UNL     1      15.349   5.762  11.637  1.00  0.00     0.737 A
HETATM   16  N6  UNL     1      15.880   3.874  12.467  1.00  0.00    -0.212 N
ATOM     17  H5  UNL     1      14.143   3.659  13.596  1.00  0.00     0.212 HD
HETATM   18  N7  UNL     1      16.308   4.822  11.651  1.00  0.00    -0.113 N
ATOM     19  H6  UNL     1      16.385   3.017  12.693  1.00  0.00     0.210 HD
ATOM     20  H7  UNL     1      17.189   4.836  11.137  1.00  0.00     0.207 HD
HETATM   21  N8  UNL     1      15.039   6.952  11.100  1.00  0.00    -0.168 N
ATOM     22  H8  UNL     1      15.624   7.477  10.449  1.00  0.00     0.186 HD
ENDBRANCH   4  10
BRANCH   5  23
HETATM   23  C6  UNL     1      13.672   9.684  13.342  1.00  0.00     0.038 A
HETATM   24  C7  UNL     1      12.996   9.257  14.470  1.00  0.00     0.018 A
HETATM   25  C8  UNL     1      13.595   9.258  15.721  1.00  0.00     0.018 A
HETATM   26  C9  UNL     1      14.909   9.705  15.822  1.00  0.00     0.090 A
HETATM   27  N9  UNL     1      15.544  10.114  14.718  1.00  0.00    -0.342 N
HETATM   28  C10 UNL     1      14.969  10.117  13.488  1.00  0.00     0.199 A
ATOM     29  H9  UNL     1      16.506  10.439  14.804  1.00  0.00     0.167 HD
HETATM   30  F1  UNL     1      15.727  10.558  12.429  1.00  0.00    -0.185 F
ENDBRANCH   5  23
BRANCH   1  31
HETATM   31  N1  UNL     1      11.336   9.791   8.408  1.00  0.00    -0.234 N
ATOM     32  H12 UNL     1      11.891   9.615   7.570  1.00  0.00     0.174 HD
ATOM     33  H11 UNL     1      10.335   9.967   8.331  1.00  0.00     0.174 HD
ENDBRANCH   1  31
TORSDOF 3
ENDMDL