MODEL 2
REMARK VINA RESULT: -7.165411707      2.468      3.271
REMARK  4 active torsions:
REMARK  status: ('A' for Active; 'I' for Inactive)
REMARK    1  A    between atoms: C3_4  and  N2_5
REMARK    2  A    between atoms: C9_18  and  N6_19
REMARK    3  A    between atoms: N6_19  and  N7_21
REMARK    4  A    between atoms: N7_21  and  N8_22
ROOT
HETATM    1  N1  UNL     1      14.695   7.702   9.952  1.00  0.00    -0.191 NA
HETATM    2  C1  UNL     1      15.094   7.200  10.909  1.00  0.00     0.105 C
HETATM    3  C2  UNL     1      15.595   6.556  12.072  1.00  0.00     0.116 C
HETATM    4  C3  UNL     1      15.343   7.054  13.268  1.00  0.00     0.128 C
HETATM    5  N4  UNL     1      15.880   6.396  14.436  1.00  0.00    -0.327 N
ATOM      6  H4  UNL     1      15.684   6.783  15.359  1.00  0.00     0.169 HD
HETATM    7  C8  UNL     1      16.685   5.211  14.331  1.00  0.00     0.135 C
HETATM    8  N5  UNL     1      16.806   4.379  15.268  1.00  0.00    -0.385 N
ATOM      9  H51 UNL     1      17.377   3.537  15.194  1.00  0.00     0.157 HD
ATOM     10  H52 UNL     1      16.331   4.507  16.161  1.00  0.00     0.157 HD
HETATM   11  C9  UNL     1      17.367   5.028  13.049  1.00  0.00     0.237 A
HETATM   12  N9  UNL     1      17.928   3.788  12.713  1.00  0.00    -0.312 N
ATOM     13  H9  UNL     1      18.603   3.274  13.280  1.00  0.00     0.166 HD
HETATM   14  C10 UNL     1      17.459   3.397  11.580  1.00  0.00     0.264 A
HETATM   15  F1  UNL     1      17.788   2.232  10.941  1.00  0.00    -0.165 F
HETATM   16  N10 UNL     1      16.500   4.358  11.121  1.00  0.00    -0.316 N
ATOM     17  H10 UNL     1      15.981   4.285  10.245  1.00  0.00     0.169 HD
HETATM   18  C11 UNL     1      16.383   5.301  11.940  1.00  0.00     0.096 A
ENDROOT
BRANCH   4  19
HETATM   19  N2  UNL     1      14.572   8.231  13.414  1.00  0.00    -0.363 N
HETATM   20  C4  UNL     1      13.131   8.290  13.507  1.00  0.00     0.143 C
HETATM   21  C5  UNL     1      12.636   9.709  13.696  1.00  0.00     0.133 C
HETATM   22  N3  UNL     1      13.344  10.463  14.655  1.00  0.00    -0.418 N
HETATM   23  C6  UNL     1      14.757  10.172  14.764  1.00  0.00     0.133 C
ATOM     24  H3  UNL     1      12.889  11.168  15.235  1.00  0.00     0.153 HD
HETATM   25  C7  UNL     1      15.223   9.524  13.485  1.00  0.00     0.143 C
ENDBRANCH   4  19
BRANCH  11  26
HETATM   26  N6  UNL     1      18.465   6.029  12.937  1.00  0.00    -0.209 N
ATOM     27  H6  UNL     1      18.798   6.341  12.025  1.00  0.00     0.201 HD
BRANCH  26  28
HETATM   28  N7  UNL     1      18.960   6.470  13.975  1.00  0.00    -0.245 NA
BRANCH  28  29
HETATM   29  N8  UNL     1      19.418   7.046  14.973  1.00  0.00    -0.261 N
ATOM     30  H82 UNL     1      18.884   7.842  14.623  1.00  0.00     0.193 HD
ATOM     31  H81 UNL     1      19.851   7.416  15.819  1.00  0.00     0.193 HD
ENDBRANCH  28  29
ENDBRANCH  26  28
ENDBRANCH  11  26
TORSDOF 4
ENDMDL