MODEL 4
REMARK VINA RESULT: -6.421419369      2.314      4.431
REMARK  4 active torsions:
REMARK  status: ('A' for Active; 'I' for Inactive)
REMARK    1  A    between atoms: O1_2  and  C2_3
REMARK    2  A    between atoms: C2_3  and  O2_4
REMARK    3  A    between atoms: C2_3  and  C3_6
REMARK    4  A    between atoms: N3_24  and  O4_26
ROOT
HETATM    1  C3  UNL     1      13.798   7.564  11.955  1.00  0.00     0.168 C
HETATM    2  C4  UNL     1      14.998   7.536  11.069  1.00  0.00     0.057 C
HETATM    3  O3  UNL     1      12.623   7.896  11.246  1.00  0.00    -0.361 OA
HETATM    4  C5  UNL     1      12.886   8.893  10.333  1.00  0.00     0.182 A
HETATM    5  C6  UNL     1      11.683   9.634   9.817  1.00  0.00     0.267 A
HETATM    6  N1  UNL     1      12.079  10.765  10.622  1.00  0.00    -0.063 N
ATOM      7  H11 UNL     1      11.426  11.118  11.323  1.00  0.00     0.277 HD
ATOM      8  H12 UNL     1      12.141  11.682  10.178  1.00  0.00     0.277 HD
HETATM    9  C7  UNL     1      13.298  10.127  11.069  1.00  0.00     0.260 A
HETATM   10  C8  UNL     1      13.458   9.957  12.537  1.00  0.00     0.191 C
HETATM   11  C9  UNL     1      12.188  10.298  13.297  1.00  0.00     0.059 C
HETATM   12  F1  UNL     1      14.401  10.922  12.930  1.00  0.00    -0.236 F
HETATM   13  C10 UNL     1      13.985   8.629  12.991  1.00  0.00     0.306 C
HETATM   14  N2  UNL     1      15.374   8.697  13.404  1.00  0.00    -0.029 N
ATOM     15  H21 UNL     1      15.955   9.250  12.774  1.00  0.00     0.281 HD
ATOM     16  H22 UNL     1      15.871   7.812  13.292  1.00  0.00     0.281 HD
HETATM   17  C11 UNL     1      15.381   9.191  14.775  1.00  0.00     0.322 C
HETATM   18  C12 UNL     1      14.004   8.988  15.256  1.00  0.00     0.166 C
HETATM   19  N3  UNL     1      13.492   9.376  16.350  1.00  0.00    -0.249 N
ATOM     20  H3  UNL     1      12.515   9.159  16.548  1.00  0.00     0.196 HD
HETATM   21  O5  UNL     1      13.369   8.264  14.236  1.00  0.00    -0.291 OA
ENDROOT
BRANCH   1  22
HETATM   22  C2  UNL     1      13.532   6.203  12.522  1.00  0.00     0.295 C
BRANCH  22  23
HETATM   23  O1  UNL     1      13.346   5.206  11.595  1.00  0.00    -0.363 OA
HETATM   24  C1  UNL     1      14.093   4.064  11.890  1.00  0.00     0.204 C
ENDBRANCH  22  23
BRANCH  22  25
HETATM   25  O2  UNL     1      14.509   5.838  13.468  1.00  0.00    -0.368 OA
ATOM     26  H2  UNL     1      15.339   6.261  13.281  1.00  0.00     0.212 HD
ENDBRANCH  22  25
ENDBRANCH   1  22
BRANCH  19  27
HETATM   27  O4  UNL     1      14.218  10.076  17.266  1.00  0.00    -0.288 OA
ATOM     28  H4  UNL     1      14.059  10.999  17.424  1.00  0.00     0.244 HD
ENDBRANCH  19  27
TORSDOF 4
ENDMDL