MODEL 2
REMARK VINA RESULT: -8.832430020      1.713      2.385
REMARK  3 active torsions:
REMARK  status: ('A' for Active; 'I' for Inactive)
REMARK    1  A    between atoms: C4_9  and  N4_10
REMARK    2  A    between atoms: C6_20  and  N8_21
REMARK    3  A    between atoms: C10_28  and  N9_29
ROOT
HETATM    1  C1  UNL     1      11.029  12.098   9.325  1.00  0.00     0.179 C
HETATM    2  N1  UNL     1      11.550  11.706  10.620  1.00  0.00    -0.279 N
HETATM    3  N2  UNL     1      12.338  10.673  10.832  1.00  0.00    -0.295 N
ATOM      4  H2  UNL     1      12.567  10.146   9.989  1.00  0.00     0.187 HD
HETATM    5  C2  UNL     1      12.872  10.206  11.896  1.00  0.00     0.079 A
HETATM    6  C3  UNL     1      13.706   9.055  12.143  1.00  0.00     0.095 A
HETATM    7  N3  UNL     1      14.416   9.032  13.319  1.00  0.00    -0.189 N
ATOM      8  H3  UNL     1      14.234   9.779  13.991  1.00  0.00     0.184 HD
HETATM    9  C4  UNL     1      15.313   8.125  13.652  1.00  0.00     0.678 A
HETATM   10  N5  UNL     1      15.574   7.129  12.788  1.00  0.00    -0.175 N
ATOM     11  H5  UNL     1      16.265   6.411  13.008  1.00  0.00     0.186 HD
HETATM   12  C5  UNL     1      14.904   7.106  11.636  1.00  0.00     0.152 A
HETATM   13  N6  UNL     1      14.958   6.225  10.610  1.00  0.00    -0.282 N
ATOM     14  H6  UNL     1      15.574   5.413  10.572  1.00  0.00     0.188 HD
HETATM   15  N7  UNL     1      14.119   6.557   9.685  1.00  0.00    -0.278 N
ATOM     16  H7  UNL     1      13.983   6.043   8.814  1.00  0.00     0.189 HD
HETATM   17  C6  UNL     1      13.423   7.717  10.043  1.00  0.00     0.204 A
HETATM   18  C7  UNL     1      13.938   8.059  11.263  1.00  0.00     0.091 A
HETATM   19  C8  UNL     1      12.540  10.950  13.070  1.00  0.00     0.079 A
HETATM   20  C9  UNL     1      11.727  12.039  12.942  1.00  0.00     0.163 A
HETATM   21  F1  UNL     1      11.397  12.776  14.072  1.00  0.00    -0.202 F
HETATM   22  C10 UNL     1      11.224  12.430  11.731  1.00  0.00     0.154 A
ENDROOT
BRANCH   9  23
HETATM   23  N4  UNL     1      15.960   8.148  14.790  1.00  0.00    -0.234 N
ATOM     24  H42 UNL     1      15.796   7.393  15.456  1.00  0.00     0.174 HD
ATOM     25  H41 UNL     1      16.618   8.888  15.039  1.00  0.00     0.174 HD
ENDBRANCH   9  23
BRANCH  17  26
HETATM   26  N8  UNL     1      12.410   8.221   9.221  1.00  0.00    -0.095 N
HETATM   27  O1  UNL     1      12.406   9.152   8.407  1.00  0.00    -0.530 OA
HETATM   28  O2  UNL     1      11.113   7.760   9.502  1.00  0.00    -0.530 OA
ENDBRANCH  17  26
BRANCH  22  29
HETATM   29  N9  UNL     1      10.460  13.463  11.619  1.00  0.00    -0.382 N
ATOM     30  H92 UNL     1      10.797  14.334  11.209  1.00  0.00     0.157 HD
ATOM     31  H91 UNL     1       9.494  13.415  11.943  1.00  0.00     0.157 HD
ENDBRANCH  22  29
TORSDOF 3
ENDMDL