MODEL 4
REMARK VINA RESULT: -7.852497014      0.756      1.067
REMARK  3 active torsions:
REMARK  status: ('A' for Active; 'I' for Inactive)
REMARK    1  A    between atoms: N1_2  and  C2_4
REMARK    2  A    between atoms: C3_7  and  C4_8
REMARK    3  A    between atoms: C5_15  and  N6_16
ROOT
HETATM    1  C2  UNL     1      13.054  10.096  14.002  1.00  0.00     0.134 A
HETATM    2  N2  UNL     1      13.468   8.847  13.622  1.00  0.00    -0.324 N
ATOM      3  H2  UNL     1      13.856   8.225  14.332  1.00  0.00     0.169 HD
HETATM    4  C3  UNL     1      13.387   8.407  12.365  1.00  0.00     0.154 A
HETATM    5  N7  UNL     1      12.857   9.286  11.462  1.00  0.00    -0.274 N
ATOM      6  H7  UNL     1      12.782   8.979  10.493  1.00  0.00     0.189 HD
HETATM    7  N8  UNL     1      12.441  10.488  11.748  1.00  0.00    -0.221 N
HETATM    8  C6  UNL     1      11.893  11.511  11.033  1.00  0.00     0.202 A
HETATM    9 CL1  UNL     1      11.576  11.422   9.301  1.00  0.00    -0.043 Cl
HETATM   10  N9  UNL     1      11.668  12.519  11.880  1.00  0.00    -0.320 N
ATOM     11  H9  UNL     1      11.263  13.419  11.625  1.00  0.00     0.169 HD
HETATM   12  C7  UNL     1      12.053  12.174  13.105  1.00  0.00     0.149 A
HETATM   13  C8  UNL     1      11.947  13.035  14.257  1.00  0.00     0.120 C
HETATM   14  N10 UNL     1      11.860  13.747  15.176  1.00  0.00    -0.190 NA
HETATM   15  C9  UNL     1      12.540  10.896  13.025  1.00  0.00     0.140 A
ENDROOT
BRANCH   1  16
HETATM   16  N1  UNL     1      13.136  10.506  15.201  1.00  0.00    -0.379 N
HETATM   17  C1  UNL     1      14.282  10.330  16.058  1.00  0.00     0.147 C
ATOM     18  H1  UNL     1      12.330  10.998  15.587  1.00  0.00     0.160 HD
ENDBRANCH   1  16
BRANCH   4  19
HETATM   19  C4  UNL     1      13.811   7.097  11.916  1.00  0.00     0.140 A
HETATM   20  N3  UNL     1      13.641   5.926  12.600  1.00  0.00    -0.279 N
HETATM   21  N4  UNL     1      14.143   4.925  11.904  1.00  0.00    -0.240 N
ATOM     22  H3  UNL     1      13.193   5.839  13.512  1.00  0.00     0.189 HD
HETATM   23  N5  UNL     1      14.648   5.379  10.771  1.00  0.00    -0.269 N
ATOM     24  H4  UNL     1      14.143   3.948  12.196  1.00  0.00     0.208 HD
HETATM   25  C5  UNL     1      14.446   6.740  10.764  1.00  0.00     0.147 A
ATOM     26  H5  UNL     1      15.100   4.827  10.042  1.00  0.00     0.190 HD
BRANCH  25  27
HETATM   27  N6  UNL     1      14.827   7.475   9.791  1.00  0.00    -0.382 N
ATOM     28  H62 UNL     1      15.148   8.433   9.932  1.00  0.00     0.157 HD
ATOM     29  H61 UNL     1      14.872   7.254   8.796  1.00  0.00     0.157 HD
ENDBRANCH  25  27
ENDBRANCH   4  19
TORSDOF 3
ENDMDL