MODEL 5
REMARK VINA RESULT: -7.649407330      1.674      2.224
REMARK  4 active torsions:
REMARK  status: ('A' for Active; 'I' for Inactive)
REMARK    1  A    between atoms: N1_1  and  C1_4
REMARK    2  A    between atoms: C2_7  and  N3_8
REMARK    3  A    between atoms: N3_8  and  C3_10
REMARK    4  A    between atoms: C5_23  and  C6_24
REMARK       I    between atoms: C6_24  and  N9_26
ROOT
HETATM    1  C1  UNL     1      12.567   6.847  10.348  1.00  0.00     0.135 A
HETATM    2  N2  UNL     1      13.141   5.728  10.822  1.00  0.00    -0.175 N
ATOM      3  H2  UNL     1      12.647   4.843  10.710  1.00  0.00     0.186 HD
HETATM    4  C2  UNL     1      14.338   5.723  11.439  1.00  0.00     0.700 A
HETATM    5  N8  UNL     1      14.963   6.906  11.570  1.00  0.00    -0.164 N
ATOM      6  H8  UNL     1      15.871   6.935  12.032  1.00  0.00     0.186 HD
HETATM    7  C4  UNL     1      14.422   8.070  11.104  1.00  0.00     0.222 A
HETATM    8  F1  UNL     1      15.129   9.227  11.245  1.00  0.00    -0.184 F
HETATM    9  C5  UNL     1      13.204   8.076  10.477  1.00  0.00     0.133 A
ENDROOT
BRANCH   4  10
HETATM   10  N3  UNL     1      14.925   4.519  11.935  1.00  0.00    -0.019 N
ATOM     11  H3  UNL     1      14.991   3.716  11.310  1.00  0.00     0.203 HD
BRANCH  10  12
HETATM   12  C3  UNL     1      15.375   4.402  13.134  1.00  0.00     0.728 A
HETATM   13  N4  UNL     1      15.144   3.321  13.925  1.00  0.00    -0.115 N
HETATM   14  N5  UNL     1      15.748   3.529  15.084  1.00  0.00    -0.213 N
ATOM     15  H4  UNL     1      14.601   2.496  13.671  1.00  0.00     0.207 HD
HETATM   16  N6  UNL     1      16.363   4.697  15.084  1.00  0.00    -0.213 N
ATOM     17  H5  UNL     1      15.739   2.877  15.869  1.00  0.00     0.210 HD
HETATM   18  N7  UNL     1      16.126   5.223  13.880  1.00  0.00    -0.115 N
ATOM     19  H6  UNL     1      16.904   5.110  15.843  1.00  0.00     0.210 HD
ATOM     20  H7  UNL     1      16.472   6.131  13.570  1.00  0.00     0.207 HD
ENDBRANCH  10  12
ENDBRANCH   4  10
BRANCH   1  21
HETATM   21  N1  UNL     1      11.415   6.774   9.768  1.00  0.00    -0.384 N
ATOM     22  H12 UNL     1      10.650   6.271  10.217  1.00  0.00     0.157 HD
ATOM     23  H11 UNL     1      11.280   7.222   8.862  1.00  0.00     0.157 HD
ENDBRANCH   1  21
BRANCH   9  24
HETATM   24  C6  UNL     1      12.550   9.241   9.917  1.00  0.00     0.271 C
HETATM   25  O1  UNL     1      12.282   9.148   8.660  1.00  0.00    -0.266 OA
HETATM   26  N9  UNL     1      12.194  10.417  10.590  1.00  0.00    -0.283 N
HETATM   27  C7  UNL     1      12.321  10.782  11.863  1.00  0.00     0.118 A
HETATM   28  C9  UNL     1      11.615  11.479   9.960  1.00  0.00     0.191 A
HETATM   29  C8  UNL     1      11.832  12.068  12.058  1.00  0.00     0.106 A
HETATM   30  N10 UNL     1      11.404  12.462  10.849  1.00  0.00    -0.360 N
ATOM     31  H10 UNL     1      10.984  13.367  10.638  1.00  0.00     0.166 HD
ENDBRANCH   9  24
TORSDOF 4
ENDMDL