MODEL 1
REMARK VINA RESULT: -7.393444598      0.000      0.000
REMARK  6 active torsions:
REMARK  status: ('A' for Active; 'I' for Inactive)
REMARK    1  A    between atoms: C3_5  and  N2_6
REMARK    2  A    between atoms: C5_14  and  S1_15
REMARK    3  A    between atoms: S1_15  and  C6_16
REMARK    4  A    between atoms: C6_16  and  C7_18
REMARK    5  A    between atoms: C8_20  and  N5_21
REMARK    6  A    between atoms: N5_21  and  O3_23
ROOT
HETATM    1  C1  UNL     1      12.672  12.325  15.738  1.00  0.00     0.161 C
HETATM    2  N1  UNL     1      13.159  11.380  14.767  1.00  0.00    -0.298 N
HETATM    3  C2  UNL     1      14.067  10.415  15.033  1.00  0.00     0.292 A
HETATM    4  O1  UNL     1      14.526  10.327  16.201  1.00  0.00    -0.264 OA
HETATM    5  C3  UNL     1      14.522   9.516  14.091  1.00  0.00     0.170 A
HETATM    6  N3  UNL     1      14.031   9.611  12.845  1.00  0.00    -0.321 N
ATOM      7  H3  UNL     1      14.344   8.962  12.123  1.00  0.00     0.169 HD
HETATM    8  C4  UNL     1      13.116  10.571  12.544  1.00  0.00     0.153 A
HETATM    9  N4  UNL     1      12.615  10.680  11.293  1.00  0.00    -0.330 N
ATOM     10  H4  UNL     1      12.936  10.026  10.579  1.00  0.00     0.168 HD
HETATM   11  C5  UNL     1      11.709  11.618  10.952  1.00  0.00     0.125 A
HETATM   12  C8  UNL     1      11.277  12.506  11.929  1.00  0.00     0.161 A
HETATM   13  N6  UNL     1      11.780  12.395  13.181  1.00  0.00    -0.322 N
ATOM     14  H6  UNL     1      11.463  13.046  13.899  1.00  0.00     0.169 HD
HETATM   15  C9  UNL     1      12.683  11.455  13.511  1.00  0.00     0.157 A
ENDROOT
BRANCH  11  16
HETATM   16  S1  UNL     1      11.033  11.766   9.303  1.00  0.00    -0.028 SA
BRANCH  16  17
HETATM   17  C6  UNL     1      10.084  10.313   8.905  1.00  0.00     0.220 C
HETATM   18  O2  UNL     1       8.866  10.315   8.828  1.00  0.00    -0.282 OA
BRANCH  17  19
HETATM   19  C7  UNL     1      10.796   9.036   8.654  1.00  0.00     0.313 C
HETATM   20  F1  UNL     1      12.072   9.305   8.198  1.00  0.00    -0.247 F
ENDBRANCH  17  19
ENDBRANCH  16  17
ENDBRANCH  11  16
BRANCH  12  21
HETATM   21  N5  UNL     1      10.410  13.432  11.664  1.00  0.00    -0.251 N
ATOM     22  H5  UNL     1      10.252  13.708  10.695  1.00  0.00     0.196 HD
BRANCH  21  23
HETATM   23  O3  UNL     1       9.701  14.048  12.667  1.00  0.00    -0.288 OA
ATOM     24  H3  UNL     1       8.801  14.321  12.534  1.00  0.00     0.244 HD
ENDBRANCH  21  23
ENDBRANCH  12  21
BRANCH   5  25
HETATM   25  N2  UNL     1      15.399   8.615  14.418  1.00  0.00    -0.381 N
ATOM     26  H22 UNL     1      15.873   8.625  15.321  1.00  0.00     0.157 HD
ATOM     27  H21 UNL     1      15.632   7.865  13.766  1.00  0.00     0.157 HD
ENDBRANCH   5  25
TORSDOF 6
ENDMDL