MODEL 3
REMARK VINA RESULT: -8.540257533      3.007      4.934
REMARK  4 active torsions:
REMARK  status: ('A' for Active; 'I' for Inactive)
REMARK    1  A    between atoms: C3_3  and  O1_5
REMARK    2  A    between atoms: O1_5  and  C4_6
REMARK    3  A    between atoms: C6_11  and  O2_12
REMARK    4  A    between atoms: C11_20  and  N4_21
ROOT
HETATM    1  C1  UNL     1       9.561  13.357  12.062  1.00  0.00     0.017 C
HETATM    2  C2  UNL     1      10.429  13.102  12.856  1.00  0.00    -0.052 C
HETATM    3  C3  UNL     1      11.493  12.764  13.842  1.00  0.00     0.395 C
HETATM    4  F1  UNL     1      11.662  13.863  14.701  1.00  0.00    -0.205 F
ENDROOT
BRANCH   3   5
HETATM    5  O1  UNL     1      12.653  12.462  13.157  1.00  0.00    -0.284 OA
BRANCH   5   6
HETATM    6  C4  UNL     1      13.095  11.240  12.704  1.00  0.00     0.213 A
HETATM    7  N1  UNL     1      13.951  10.409  13.373  1.00  0.00    -0.164 N
HETATM    8  C5  UNL     1      14.167   9.317  12.651  1.00  0.00     0.717 A
ATOM      9  H1  UNL     1      14.361  10.600  14.287  1.00  0.00     0.186 HD
HETATM   10  N2  UNL     1      13.480   9.381  11.511  1.00  0.00    -0.087 N
HETATM   11  N6  UNL     1      14.982   8.155  12.917  1.00  0.00    -0.086 N
HETATM   12  C6  UNL     1      12.822  10.561  11.540  1.00  0.00     0.218 A
HETATM   13  C7  UNL     1      13.532   8.345  10.558  1.00  0.00     0.251 A
HETATM   14  O3  UNL     1      12.847   8.486   9.496  1.00  0.00    -0.272 OA
HETATM   15  C8  UNL     1      14.330   7.135  10.740  1.00  0.00     0.166 A
HETATM   16  C9  UNL     1      15.054   7.157  12.036  1.00  0.00     0.089 A
HETATM   17  C10 UNL     1      15.916   6.199  12.588  1.00  0.00     0.116 A
HETATM   18  N3  UNL     1      16.264   4.967  11.959  1.00  0.00    -0.096 NA
HETATM   19  C11 UNL     1      16.320   6.693  13.797  1.00  0.00     0.141 A
HETATM   20  N5  UNL     1      15.746   7.888  13.991  1.00  0.00    -0.263 N
ATOM     21  H5  UNL     1      15.865   8.488  14.807  1.00  0.00     0.190 HD
BRANCH  12  22
HETATM   22  O2  UNL     1      11.998  10.982  10.515  1.00  0.00    -0.342 OA
ATOM     23  H2  UNL     1      11.264  10.505  10.145  1.00  0.00     0.219 HD
ENDBRANCH  12  22
BRANCH  19  24
HETATM   24  N4  UNL     1      17.137   6.080  14.616  1.00  0.00    -0.383 N
ATOM     25  H42 UNL     1      17.261   6.276  15.610  1.00  0.00     0.157 HD
ATOM     26  H41 UNL     1      17.759   5.317  14.350  1.00  0.00     0.157 HD
ENDBRANCH  19  24
ENDBRANCH   5   6
ENDBRANCH   3   5
TORSDOF 4
ENDMDL