MODEL 3
REMARK VINA RESULT: -7.170569269      1.170      1.189
REMARK  5 active torsions:
REMARK  status: ('A' for Active; 'I' for Inactive)
REMARK    1  A    between atoms: O1_2  and  N1_3
REMARK       I    between atoms: N1_3  and  C2_5
REMARK    2  A    between atoms: C2_5  and  C3_7
REMARK    3  A    between atoms: C6_12  and  N3_13
REMARK    4  A    between atoms: N3_13  and  C7_15
REMARK    5  A    between atoms: N6_23  and  O3_24
ROOT
HETATM    1  C3  UNL     1      12.703  10.725  12.239  1.00  0.00     0.174 A
HETATM    2  N2  UNL     1      12.390  11.658  13.161  1.00  0.00    -0.348 N
ATOM      3  H2  UNL     1      11.773  12.419  12.879  1.00  0.00     0.166 HD
HETATM    4  C4  UNL     1      12.845  11.649  14.446  1.00  0.00     0.053 A
HETATM    5  C5  UNL     1      12.455  12.803  15.329  1.00  0.00     0.072 C
HETATM    6  C6  UNL     1      13.672  10.645  14.862  1.00  0.00     0.162 A
HETATM    7  N6  UNL     1      14.012   9.672  13.931  1.00  0.00    -0.167 N
HETATM    8  C10 UNL     1      13.542   9.720  12.683  1.00  0.00     0.305 A
HETATM    9  O4  UNL     1      13.907   8.784  11.900  1.00  0.00    -0.263 OA
ENDROOT
BRANCH   6  10
HETATM   10  N3  UNL     1      14.139  10.430  16.163  1.00  0.00    -0.311 N
ATOM     11  H3  UNL     1      13.477   9.986  16.799  1.00  0.00     0.170 HD
BRANCH  10  12
HETATM   12  C7  UNL     1      15.392  10.740  16.712  1.00  0.00     0.179 C
HETATM   13  N4  UNL     1      15.644  11.703  17.552  1.00  0.00    -0.358 N
HETATM   14  C8  UNL     1      17.036  11.744  17.917  1.00  0.00     0.181 C
ATOM     15  H4  UNL     1      14.941  12.350  17.909  1.00  0.00     0.162 HD
HETATM   16  C9  UNL     1      17.423  10.269  17.713  1.00  0.00     0.289 C
HETATM   17  F1  UNL     1      16.819   9.576  18.750  1.00  0.00    -0.225 F
HETATM   18  N5  UNL     1      16.632  10.018  16.504  1.00  0.00    -0.330 N
ATOM     19  H5  UNL     1      16.897   9.458  15.694  1.00  0.00     0.165 HD
ENDBRANCH  10  12
ENDBRANCH   6  10
BRANCH   7  20
HETATM   20  O3  UNL     1      14.850   8.649  14.342  1.00  0.00    -0.278 OA
ATOM     21  H3  UNL     1      15.571   8.409  13.770  1.00  0.00     0.245 HD
ENDBRANCH   7  20
BRANCH   1  22
HETATM   22  C2  UNL     1      12.188  10.781  10.899  1.00  0.00     0.297 C
HETATM   23  N1  UNL     1      12.156   9.677  10.052  1.00  0.00    -0.230 N
ATOM     24  H1  UNL     1      12.504   8.785  10.404  1.00  0.00     0.197 HD
HETATM   25  O2  UNL     1      11.747  11.896  10.480  1.00  0.00    -0.264 OA
BRANCH  23  26
HETATM   26  O1  UNL     1      11.682   9.731   8.779  1.00  0.00    -0.282 OA
HETATM   27  C1  UNL     1      11.432   8.427   8.325  1.00  0.00     0.237 C
ENDBRANCH  23  26
ENDBRANCH   1  22
TORSDOF 5
ENDMDL