MODEL 3
REMARK VINA RESULT: -7.835165958      1.610      2.165
REMARK  3 active torsions:
REMARK  status: ('A' for Active; 'I' for Inactive)
REMARK    1  A    between atoms: N1_1  and  C1_4
REMARK    2  A    between atoms: C3_6  and  C4_7
REMARK    3  A    between atoms: N6_16  and  C5_17
ROOT
HETATM    1  C1  UNL     1      12.035  12.913  14.003  1.00  0.00     0.104 A
HETATM    2  C2  UNL     1      12.867  12.206  14.837  1.00  0.00     0.083 A
HETATM    3  C3  UNL     1      13.430  11.029  14.318  1.00  0.00     0.112 A
HETATM    4  N6  UNL     1      13.174  10.620  13.087  1.00  0.00    -0.091 N
HETATM    5  C7  UNL     1      12.333  11.358  12.277  1.00  0.00     0.347 A
HETATM    6  O1  UNL     1      12.114  10.928  11.102  1.00  0.00    -0.245 OA
HETATM    7  N10 UNL     1      11.790  12.474  12.750  1.00  0.00    -0.294 N
ATOM      8  H10 UNL     1      11.169  13.015  12.149  1.00  0.00     0.172 HD
ENDROOT
BRANCH   3   9
HETATM    9  C4  UNL     1      14.306  10.294  15.213  1.00  0.00     0.165 A
HETATM   10  N2  UNL     1      13.958   9.437  16.198  1.00  0.00    -0.267 N
HETATM   11  N3  UNL     1      15.069   9.005  16.751  1.00  0.00    -0.227 N
ATOM     12  H2  UNL     1      13.008   9.176  16.464  1.00  0.00     0.190 HD
HETATM   13  N4  UNL     1      16.136   9.542  16.168  1.00  0.00    -0.227 N
ATOM     14  H3  UNL     1      15.107   8.342  17.526  1.00  0.00     0.210 HD
HETATM   15  N5  UNL     1      15.641  10.319  15.240  1.00  0.00    -0.267 N
ATOM     16  H4  UNL     1      17.119   9.385  16.394  1.00  0.00     0.210 HD
ATOM     17  H5  UNL     1      16.210  10.881  14.607  1.00  0.00     0.190 HD
ENDBRANCH   3   9
BRANCH   4  18
HETATM   18  C5  UNL     1      13.729   9.434  12.534  1.00  0.00     0.710 A
HETATM   19  N7  UNL     1      14.836   9.276  11.782  1.00  0.00    -0.129 N
HETATM   20  N8  UNL     1      15.051   8.014  11.490  1.00  0.00    -0.261 N
ATOM     21  H7  UNL     1      15.435  10.043  11.477  1.00  0.00     0.205 HD
HETATM   22  C6  UNL     1      14.078   7.286  12.046  1.00  0.00     0.208 A
ATOM     23  H8  UNL     1      15.827   7.651  10.935  1.00  0.00     0.190 HD
HETATM   24 CL1  UNL     1      13.868   5.543  11.977  1.00  0.00    -0.043 Cl
HETATM   25  N9  UNL     1      13.265   8.170  12.689  1.00  0.00    -0.162 N
ATOM     26  H9  UNL     1      12.427   7.917  13.212  1.00  0.00     0.187 HD
ENDBRANCH   4  18
BRANCH   1  27
HETATM   27  N1  UNL     1      11.462  14.014  14.381  1.00  0.00    -0.385 N
ATOM     28  H12 UNL     1      11.955  14.599  15.056  1.00  0.00     0.157 HD
ATOM     29  H11 UNL     1      10.549  14.295  14.023  1.00  0.00     0.157 HD
ENDBRANCH   1  27
TORSDOF 3
ENDMDL