MODEL 5
REMARK VINA RESULT: -7.541266981      2.604      3.600
REMARK  3 active torsions:
REMARK  status: ('A' for Active; 'I' for Inactive)
REMARK       I    between atoms: C2_2  and  N1_4
REMARK    1  A    between atoms: N1_4  and  N2_6
REMARK    2  A    between atoms: C4_9  and  N3_10
REMARK    3  A    between atoms: C7_20  and  N6_21
ROOT
HETATM    1  N2  UNL     1      15.616   6.537  11.588  1.00  0.00    -0.278 N
ATOM      2  H2  UNL     1      16.278   5.774  11.450  1.00  0.00     0.189 HD
HETATM    3  C3  UNL     1      15.774   7.106  12.681  1.00  0.00     0.196 A
HETATM    4  C4  UNL     1      16.780   6.650  13.525  1.00  0.00     0.236 A
HETATM    5  N4  UNL     1      16.990   7.235  14.720  1.00  0.00    -0.276 N
ATOM      6  H4  UNL     1      17.730   6.895  15.333  1.00  0.00     0.189 HD
HETATM    7  N5  UNL     1      16.225   8.261  15.098  1.00  0.00    -0.281 N
ATOM      8  H5  UNL     1      16.384   8.702  16.004  1.00  0.00     0.188 HD
HETATM    9  C5  UNL     1      15.247   8.718  14.298  1.00  0.00     0.169 A
HETATM   10  C6  UNL     1      14.358   9.744  14.489  1.00  0.00     0.126 A
HETATM   11 CL1  UNL     1      14.242  10.787  15.877  1.00  0.00    -0.076 Cl
HETATM   12  C7  UNL     1      13.576   9.781  13.356  1.00  0.00     0.140 A
HETATM   13  N7  UNL     1      14.003   8.812  12.553  1.00  0.00    -0.274 N
ATOM     14  H7  UNL     1      13.598   8.611  11.638  1.00  0.00     0.189 HD
HETATM   15  N8  UNL     1      15.011   8.140  13.075  1.00  0.00    -0.214 N
ENDROOT
BRANCH   1  16
HETATM   16  N1  UNL     1      14.775   6.683  10.533  1.00  0.00    -0.269 N
HETATM   17  C2  UNL     1      13.564   5.945  10.439  1.00  0.00     0.232 C
HETATM   18  C1  UNL     1      12.607   6.053   9.324  1.00  0.00     0.119 C
HETATM   19  O1  UNL     1      13.268   5.136  11.358  1.00  0.00    -0.272 OA
ATOM     20  H1  UNL     1      15.018   7.339   9.790  1.00  0.00     0.190 HD
ENDBRANCH   1  16
BRANCH   4  21
HETATM   21  N3  UNL     1      17.558   5.561  13.073  1.00  0.00    -0.092 N
HETATM   22  O2  UNL     1      17.242   4.410  13.406  1.00  0.00    -0.530 OA
HETATM   23  O3  UNL     1      18.657   5.724  12.277  1.00  0.00    -0.530 OA
ENDBRANCH   4  21
BRANCH  12  24
HETATM   24  N6  UNL     1      12.608  10.601  13.116  1.00  0.00    -0.383 N
ATOM     25  H62 UNL     1      11.681  10.581  13.542  1.00  0.00     0.157 HD
ATOM     26  H61 UNL     1      12.624  11.388  12.468  1.00  0.00     0.157 HD
ENDBRANCH  12  24
TORSDOF 3
ENDMDL