MODEL 5
REMARK VINA RESULT: -6.262666584      2.723      5.217
REMARK  3 active torsions:
REMARK  status: ('A' for Active; 'I' for Inactive)
REMARK    1  A    between atoms: C2_5  and  C3_6
REMARK    2  A    between atoms: C2_5  and  C5_13
REMARK    3  A    between atoms: C3_6  and  N4_7
ROOT
HETATM    1  C3  UNL     1      12.131   7.157   9.932  1.00  0.00     0.322 C
HETATM    2  C4  UNL     1      12.505   5.804   9.442  1.00  0.00     0.095 C
HETATM    3  N5  UNL     1      12.784   4.736   9.072  1.00  0.00    -0.195 NA
ENDROOT
BRANCH   1   4
HETATM    4  C2  UNL     1      13.295   7.765  10.601  1.00  0.00     0.170 C
HETATM    5  N3  UNL     1      14.478   7.478   9.780  1.00  0.00    -0.110 NA
HETATM    6  N2  UNL     1      15.493   7.674  10.723  1.00  0.00    -0.053 NA
HETATM    7  N1  UNL     1      15.116   6.705  11.682  1.00  0.00    -0.186 NA
HETATM    8  C1  UNL     1      15.877   7.003  12.882  1.00  0.00     0.136 C
HETATM    9  C10 UNL     1      13.699   7.040  11.883  1.00  0.00     0.294 C
HETATM   10  F1  UNL     1      12.950   5.938  12.149  1.00  0.00    -0.229 F
BRANCH   4  11
HETATM   11  C5  UNL     1      13.289   9.200  10.875  1.00  0.00     0.233 C
HETATM   12  N6  UNL     1      12.272   9.991  10.212  1.00  0.00    -0.112 NA
HETATM   13  N7  UNL     1      12.269  11.208  10.909  1.00  0.00    -0.289 N
HETATM   14  C6  UNL     1      12.800  11.027  12.093  1.00  0.00     0.116 C
ATOM     15  H7  UNL     1      11.911  12.094  10.551  1.00  0.00     0.183 HD
HETATM   16  C7  UNL     1      13.010  12.038  13.185  1.00  0.00     0.245 C
HETATM   17  N8  UNL     1      13.174   9.654  12.215  1.00  0.00    -0.344 N
HETATM   18  O1  UNL     1      13.269  11.410  14.397  1.00  0.00    -0.382 OA
HETATM   19  C8  UNL     1      12.577  10.230  14.431  1.00  0.00     0.188 C
HETATM   20  C9  UNL     1      13.313   9.176  13.580  1.00  0.00     0.152 C
ENDBRANCH   4  11
ENDBRANCH   1   4
BRANCH   1  21
HETATM   21  N4  UNL     1      11.859   7.905   8.710  1.00  0.00    -0.060 N
ATOM     22  H43 UNL     1      12.547   8.638   8.537  1.00  0.00     0.276 HD
ATOM     23  H42 UNL     1      12.027   7.355   7.868  1.00  0.00     0.276 HD
ATOM     24  H41 UNL     1      10.907   8.266   8.757  1.00  0.00     0.276 HD
ENDBRANCH   1  21
TORSDOF 3
ENDMDL