MODEL 1
REMARK VINA RESULT: -8.659205057      0.000      0.000
REMARK  3 active torsions:
REMARK  status: ('A' for Active; 'I' for Inactive)
REMARK    1  A    between atoms: N1_1  and  C1_4
REMARK    2  A    between atoms: C2_7  and  C3_8
REMARK    3  A    between atoms: C5_10  and  C6_11
ROOT
HETATM    1  C3  UNL     1      12.976  10.576  13.765  1.00  0.00     0.082 A
HETATM    2  C4  UNL     1      13.903  11.041  14.666  1.00  0.00     0.068 A
HETATM    3  C5  UNL     1      14.599  10.164  15.506  1.00  0.00     0.097 A
HETATM    4  N7  UNL     1      14.350   8.853  15.417  1.00  0.00    -0.283 N
ATOM      5  H7  UNL     1      14.843   8.191  16.016  1.00  0.00     0.188 HD
HETATM    6  N8  UNL     1      13.458   8.431  14.546  1.00  0.00    -0.242 N
ATOM      7  H8  UNL     1      13.272   7.430  14.485  1.00  0.00     0.208 HD
HETATM    8  N9  UNL     1      12.792   9.245  13.748  1.00  0.00    -0.284 N
ATOM      9  H9  UNL     1      12.114   8.849  13.096  1.00  0.00     0.188 HD
ENDROOT
BRANCH   1  10
HETATM   10  C2  UNL     1      12.214  11.425  12.862  1.00  0.00     0.121 A
HETATM   11  N2  UNL     1      11.371  12.379  13.292  1.00  0.00    -0.186 N
HETATM   12  C1  UNL     1      10.677  13.151  12.450  1.00  0.00     0.679 A
ATOM     13  H2  UNL     1      11.257  12.520  14.296  1.00  0.00     0.184 HD
HETATM   14  N10 UNL     1      10.805  12.994  11.127  1.00  0.00    -0.154 N
HETATM   15  C8  UNL     1      11.627  12.062  10.590  1.00  0.00     0.300 A
ATOM     16  H10 UNL     1      10.265  13.595  10.504  1.00  0.00     0.187 HD
HETATM   17  C7  UNL     1      12.330  11.279  11.481  1.00  0.00     0.214 A
HETATM   18  O1  UNL     1      11.757  11.903   9.349  1.00  0.00    -0.264 OA
HETATM   19  F1  UNL     1      13.165  10.334  10.979  1.00  0.00    -0.198 F
BRANCH  12  20
HETATM   20  N1  UNL     1       9.872  14.063  12.875  1.00  0.00    -0.234 N
ATOM     21  H12 UNL     1       9.191  13.805  13.589  1.00  0.00     0.174 HD
ATOM     22  H11 UNL     1       9.904  15.017  12.515  1.00  0.00     0.174 HD
ENDBRANCH  12  20
ENDBRANCH   1  10
BRANCH   3  23
HETATM   23  C6  UNL     1      15.580  10.710  16.452  1.00  0.00     0.159 A
HETATM   24  N3  UNL     1      15.438  11.866  17.122  1.00  0.00    -0.268 N
HETATM   25  N4  UNL     1      16.506  12.069  17.897  1.00  0.00    -0.007 NA
ATOM     26  H3  UNL     1      14.636  12.492  17.049  1.00  0.00     0.185 HD
HETATM   27  N5  UNL     1      17.314  11.032  17.703  1.00  0.00    -0.007 NA
HETATM   28  N6  UNL     1      16.760  10.191  16.820  1.00  0.00    -0.268 N
ATOM     29  H6  UNL     1      17.163   9.314  16.488  1.00  0.00     0.185 HD
ENDBRANCH   3  23
TORSDOF 3
ENDMDL