MODEL 4
REMARK VINA RESULT: -8.144373378      2.932      4.997
REMARK  4 active torsions:
REMARK  status: ('A' for Active; 'I' for Inactive)
REMARK    1  A    between atoms: C3_4  and  N2_5
REMARK    2  A    between atoms: C4_12  and  N6_13
REMARK    3  A    between atoms: C5_18  and  N8_19
REMARK    4  A    between atoms: C10_26  and  N10_27
ROOT
HETATM    1  N1  UNL     1      14.471   3.255  10.774  1.00  0.00    -0.191 NA
HETATM    2  C1  UNL     1      14.007   4.298  10.587  1.00  0.00     0.107 C
HETATM    3  C2  UNL     1      13.443   5.611  10.344  1.00  0.00     0.135 A
HETATM    4  C3  UNL     1      13.936   6.706  11.014  1.00  0.00     0.186 A
HETATM    5  N7  UNL     1      13.379   7.891  10.751  1.00  0.00    -0.172 N
ATOM      6  H7  UNL     1      13.733   8.714  11.240  1.00  0.00     0.186 HD
HETATM    7  C5  UNL     1      12.359   8.052   9.860  1.00  0.00     0.683 A
HETATM    8  N9  UNL     1      11.907   6.964   9.228  1.00  0.00    -0.175 N
ATOM      9  H9  UNL     1      11.145   7.074   8.560  1.00  0.00     0.186 HD
HETATM   10  C10 UNL     1      12.402   5.742   9.428  1.00  0.00     0.139 A
ENDROOT
BRANCH   4  11
HETATM   11  N2  UNL     1      14.987   6.566  11.939  1.00  0.00    -0.051 N
HETATM   12  N3  UNL     1      16.240   6.182  11.761  1.00  0.00    -0.205 N
HETATM   13  N4  UNL     1      16.922   6.179  12.875  1.00  0.00    -0.213 N
ATOM     14  H3  UNL     1      16.629   5.918  10.857  1.00  0.00     0.211 HD
HETATM   15  N5  UNL     1      16.063   6.580  13.814  1.00  0.00    -0.115 N
ATOM     16  H4  UNL     1      17.901   5.923  13.001  1.00  0.00     0.210 HD
HETATM   17  C4  UNL     1      14.867   6.823  13.251  1.00  0.00     0.716 A
ATOM     18  H5  UNL     1      16.280   6.686  14.805  1.00  0.00     0.207 HD
BRANCH  17  19
HETATM   19  N6  UNL     1      13.833   7.226  13.912  1.00  0.00    -0.231 N
ATOM     20  H62 UNL     1      13.032   6.632  14.125  1.00  0.00     0.174 HD
ATOM     21  H61 UNL     1      13.642   8.144  14.311  1.00  0.00     0.174 HD
ENDBRANCH  17  19
ENDBRANCH   4  11
BRANCH  10  22
HETATM   22  N10 UNL     1      11.940   4.695   8.795  1.00  0.00    -0.384 N
ATOM     23 2H10 UNL     1      12.552   4.059   8.282  1.00  0.00     0.157 HD
ATOM     24 1H10 UNL     1      10.941   4.486   8.801  1.00  0.00     0.157 HD
ENDBRANCH  10  22
BRANCH   7  25
HETATM   25  N8  UNL     1      11.796   9.329   9.611  1.00  0.00    -0.217 N
HETATM   26  C6  UNL     1      10.671   9.567   8.740  1.00  0.00     0.141 C
HETATM   27  C7  UNL     1      10.197  10.963   9.005  1.00  0.00     0.022 C
HETATM   28  C8  UNL     1      11.425  11.662   9.527  1.00  0.00     0.022 C
HETATM   29  C9  UNL     1      12.249  10.574  10.178  1.00  0.00     0.141 C
ENDBRANCH   7  25
TORSDOF 4
ENDMDL