MODEL 4
REMARK VINA RESULT: -7.117501375      2.293      3.226
REMARK  5 active torsions:
REMARK  status: ('A' for Active; 'I' for Inactive)
REMARK    1  A    between atoms: N1_2  and  C2_4
REMARK    2  A    between atoms: C3_10  and  N4_11
REMARK    3  A    between atoms: N4_11  and  N5_13
REMARK    4  A    between atoms: N5_13  and  C4_15
REMARK    5  A    between atoms: N8_23  and  N9_25
ROOT
HETATM    1  C4  UNL     1      12.567   9.136  10.065  1.00  0.00     0.169 A
HETATM    2  N6  UNL     1      13.038   9.883  11.082  1.00  0.00    -0.312 N
ATOM      3  H6  UNL     1      12.995  10.896  10.980  1.00  0.00     0.170 HD
HETATM    4  C5  UNL     1      13.557   9.403  12.211  1.00  0.00     0.182 A
HETATM    5 CL1  UNL     1      14.108  10.604  13.394  1.00  0.00    -0.045 Cl
HETATM    6  N7  UNL     1      13.709   8.133  12.556  1.00  0.00    -0.312 N
ATOM      7  H7  UNL     1      14.129   7.955  13.469  1.00  0.00     0.170 HD
HETATM    8  C6  UNL     1      13.370   7.058  11.832  1.00  0.00     0.168 A
HETATM    9  N8  UNL     1      13.562   5.835  12.260  1.00  0.00    -0.286 N
ATOM     10  H8  UNL     1      13.295   5.032  11.690  1.00  0.00     0.188 HD
HETATM   11  S1  UNL     1      12.677   7.440  10.322  1.00  0.00    -0.015 SA
ENDROOT
BRANCH   1  12
HETATM   12  N5  UNL     1      12.072   9.645   8.986  1.00  0.00    -0.278 N
ATOM     13  H5  UNL     1      12.018   9.098   8.127  1.00  0.00     0.189 HD
BRANCH  12  14
HETATM   14  N4  UNL     1      11.614  10.963   9.026  1.00  0.00    -0.279 N
ATOM     15  H4  UNL     1      12.285  11.726   8.941  1.00  0.00     0.189 HD
BRANCH  14  16
HETATM   16  C3  UNL     1      10.345  11.240   9.168  1.00  0.00     0.188 A
HETATM   17  C2  UNL     1       9.752  12.034  10.127  1.00  0.00     0.170 A
HETATM   18  N2  UNL     1       8.411  12.030   9.875  1.00  0.00    -0.222 N
HETATM   19  O1  UNL     1       8.226  11.287   8.839  1.00  0.00    -0.153 OA
ATOM     20  H2  UNL     1       7.692  12.522  10.406  1.00  0.00     0.198 HD
HETATM   21  N3  UNL     1       9.344  10.800   8.389  1.00  0.00    -0.221 N
ATOM     22  H3  UNL     1       9.444  10.187   7.580  1.00  0.00     0.198 HD
BRANCH  17  23
HETATM   23  N1  UNL     1      10.403  12.627  11.049  1.00  0.00    -0.376 N
HETATM   24  C1  UNL     1       9.798  13.444  12.076  1.00  0.00     0.148 C
ATOM     25  H1  UNL     1      11.417  12.518  11.063  1.00  0.00     0.160 HD
ENDBRANCH  17  23
ENDBRANCH  14  16
ENDBRANCH  12  14
ENDBRANCH   1  12
BRANCH   9  26
HETATM   26  N9  UNL     1      14.140   5.660  13.519  1.00  0.00    -0.343 N
ATOM     27  H92 UNL     1      14.882   6.287  13.830  1.00  0.00     0.176 HD
ATOM     28  H91 UNL     1      13.800   4.897  14.103  1.00  0.00     0.176 HD
ENDBRANCH   9  26
TORSDOF 5
ENDMDL