MODEL 5
REMARK VINA RESULT: -7.441315166      2.421      4.913
REMARK  4 active torsions:
REMARK  status: ('A' for Active; 'I' for Inactive)
REMARK    1  A    between atoms: C2_2  and  C3_8
REMARK    2  A    between atoms: N1_3  and  N2_5
REMARK    3  A    between atoms: C4_12  and  N5_13
REMARK    4  A    between atoms: C5_18  and  N7_19
ROOT
HETATM    1  C3  UNL     1      14.179   9.212  14.154  1.00  0.00     0.141 A
HETATM    2  N3  UNL     1      14.176   7.907  13.924  1.00  0.00    -0.271 N
ATOM      3  H3  UNL     1      14.529   7.260  14.629  1.00  0.00     0.188 HD
HETATM    4  N4  UNL     1      13.710   7.452  12.771  1.00  0.00    -0.067 N
HETATM    5  C4  UNL     1      13.742   6.109  12.615  1.00  0.00     0.700 A
HETATM    6  N6  UNL     1      13.289   5.570  11.475  1.00  0.00    -0.174 N
ATOM      7  H6  UNL     1      13.315   4.557  11.359  1.00  0.00     0.186 HD
HETATM    8  C5  UNL     1      12.801   6.330  10.483  1.00  0.00     0.140 A
HETATM    9  C6  UNL     1      12.768   7.712  10.646  1.00  0.00     0.124 A
HETATM   10 CL1  UNL     1      12.137   8.708   9.361  1.00  0.00    -0.076 Cl
HETATM   11  C7  UNL     1      13.227   8.288  11.802  1.00  0.00     0.175 A
HETATM   12  N8  UNL     1      13.208   9.618  11.987  1.00  0.00    -0.299 N
HETATM   13  C8  UNL     1      12.713  10.507  11.002  1.00  0.00     0.161 C
HETATM   14  C9  UNL     1      13.698  10.057  13.194  1.00  0.00     0.279 A
HETATM   15  O1  UNL     1      13.687  11.327  13.388  1.00  0.00    -0.265 OA
ENDROOT
BRANCH   1  16
HETATM   16  C2  UNL     1      14.688   9.714  15.416  1.00  0.00     0.055 C
HETATM   17  C1  UNL     1      13.838   9.729  16.621  1.00  0.00     0.072 C
HETATM   18  N1  UNL     1      15.883  10.141  15.474  1.00  0.00    -0.309 N
ATOM     19  H1  UNL     1      16.421  10.104  14.608  1.00  0.00     0.186 HD
BRANCH  18  20
HETATM   20  N2  UNL     1      16.530  10.648  16.577  1.00  0.00    -0.345 N
ATOM     21  H22 UNL     1      16.396  11.646  16.740  1.00  0.00     0.176 HD
ATOM     22  H21 UNL     1      17.118  10.136  17.234  1.00  0.00     0.176 HD
ENDBRANCH  18  20
ENDBRANCH   1  16
BRANCH   5  23
HETATM   23  N5  UNL     1      14.211   5.351  13.561  1.00  0.00    -0.233 N
ATOM     24  H52 UNL     1      14.459   5.749  14.466  1.00  0.00     0.174 HD
ATOM     25  H51 UNL     1      14.331   4.350  13.405  1.00  0.00     0.174 HD
ENDBRANCH   5  23
BRANCH   8  26
HETATM   26  N7  UNL     1      12.364   5.845   9.392  1.00  0.00    -0.384 N
ATOM     27  H72 UNL     1      12.982   5.235   8.856  1.00  0.00     0.157 HD
ATOM     28  H71 UNL     1      11.429   6.039   9.034  1.00  0.00     0.157 HD
ENDBRANCH   8  26
TORSDOF 4
ENDMDL