MODEL 1
REMARK VINA RESULT: -7.365224955      0.000      0.000
REMARK  5 active torsions:
REMARK  status: ('A' for Active; 'I' for Inactive)
REMARK    1  A    between atoms: C2_3  and  N2_4
REMARK    2  A    between atoms: C6_13  and  C7_14
REMARK    3  A    between atoms: C7_14  and  O1_15
REMARK    4  A    between atoms: C7_14  and  O2_17
REMARK    5  A    between atoms: N4_19  and  N5_20
ROOT
HETATM    1  C1  UNL     1      11.103  11.994   9.413  1.00  0.00     0.179 C
HETATM    2  N1  UNL     1      11.847  11.229  10.431  1.00  0.00    -0.151 N
HETATM    3  C2  UNL     1      12.354  10.023  10.183  1.00  0.00     0.682 A
HETATM    4  N3  UNL     1      13.054   9.303  11.081  1.00  0.00    -0.174 N
ATOM      5  H3  UNL     1      13.426   8.382  10.849  1.00  0.00     0.186 HD
HETATM    6  C3  UNL     1      13.242   9.849  12.295  1.00  0.00     0.166 A
HETATM    7  C4  UNL     1      12.741  11.097  12.612  1.00  0.00     0.103 A
HETATM    8  C5  UNL     1      13.086  11.395  13.895  1.00  0.00     0.083 A
HETATM    9 CL1  UNL     1      12.686  12.879  14.745  1.00  0.00    -0.081 Cl
HETATM   10  C6  UNL     1      13.806  10.332  14.381  1.00  0.00     0.119 A
HETATM   11  N4  UNL     1      13.883   9.423  13.398  1.00  0.00    -0.177 N
HETATM   12  C8  UNL     1      12.027  11.787  11.640  1.00  0.00     0.277 A
HETATM   13  O5  UNL     1      11.560  12.910  11.893  1.00  0.00    -0.266 OA
ENDROOT
BRANCH  10  14
HETATM   14  C7  UNL     1      14.361  10.289  15.764  1.00  0.00     0.309 C
BRANCH  14  15
HETATM   15  O1  UNL     1      13.869   9.133  16.376  1.00  0.00    -0.366 OA
ATOM     16  H1  UNL     1      13.851   9.294  17.312  1.00  0.00     0.213 HD
ENDBRANCH  14  15
BRANCH  14  17
HETATM   17  O2  UNL     1      15.729  10.400  15.808  1.00  0.00    -0.366 OA
ATOM     18  H2  UNL     1      16.081  10.395  16.690  1.00  0.00     0.213 HD
ENDBRANCH  14  17
ENDBRANCH  10  14
BRANCH  11  19
HETATM   19  N5  UNL     1      14.533   8.184  13.497  1.00  0.00    -0.030 N
HETATM   20  O3  UNL     1      13.960   7.123  13.154  1.00  0.00    -0.516 OA
HETATM   21  O4  UNL     1      15.815   8.081  13.975  1.00  0.00    -0.516 OA
ENDBRANCH  11  19
BRANCH   3  22
HETATM   22  N2  UNL     1      12.160   9.535   9.006  1.00  0.00    -0.234 N
ATOM     23  H22 UNL     1      12.859   9.702   8.281  1.00  0.00     0.174 HD
ATOM     24  H21 UNL     1      11.302   9.005   8.857  1.00  0.00     0.174 HD
ENDBRANCH   3  22
TORSDOF 5
ENDMDL