MODEL 2
REMARK VINA RESULT: -7.617167111      3.484      6.700
REMARK  5 active torsions:
REMARK  status: ('A' for Active; 'I' for Inactive)
REMARK    1  A    between atoms: N1_1  and  C1_4
REMARK    2  A    between atoms: C2_7  and  O1_8
REMARK    3  A    between atoms: O1_8  and  N3_9
REMARK    4  A    between atoms: N3_9  and  O2_10
REMARK    5  A    between atoms: N3_9  and  N4_12
ROOT
HETATM    1  C1  UNL     1      13.570   9.837  14.923  1.00  0.00     0.133 A
HETATM    2  N2  UNL     1      13.165  11.103  14.742  1.00  0.00    -0.305 N
ATOM      3  H2  UNL     1      13.124  11.719  15.554  1.00  0.00     0.171 HD
HETATM    4  C2  UNL     1      12.810  11.599  13.545  1.00  0.00     0.255 A
HETATM    5  N5  UNL     1      12.873  10.773  12.493  1.00  0.00    -0.304 N
ATOM      6  H5  UNL     1      12.610  11.131  11.575  1.00  0.00     0.171 HD
HETATM    7  C3  UNL     1      13.274   9.473  12.596  1.00  0.00     0.141 A
HETATM    8  N6  UNL     1      13.311   8.694  11.485  1.00  0.00    -0.325 N
ATOM      9  H6  UNL     1      13.045   9.057  10.570  1.00  0.00     0.169 HD
HETATM   10  C4  UNL     1      13.722   7.399  11.647  1.00  0.00     0.134 A
HETATM   11  C5  UNL     1      14.078   6.914  12.878  1.00  0.00     0.125 A
HETATM   12  N7  UNL     1      14.035   7.713  13.987  1.00  0.00    -0.344 N
ATOM     13  H7  UNL     1      14.299   7.355  14.905  1.00  0.00     0.166 HD
HETATM   14  C6  UNL     1      13.634   8.979  13.828  1.00  0.00     0.121 A
HETATM   15  C7  UNL     1      14.468   5.507  12.724  1.00  0.00     0.197 C
HETATM   16  O3  UNL     1      14.565   4.658  13.648  1.00  0.00    -0.289 OA
HETATM   17  C8  UNL     1      14.715   5.315  11.264  1.00  0.00     0.207 C
HETATM   18  N8  UNL     1      13.865   6.354  10.685  1.00  0.00    -0.367 N
ATOM     19  H8  UNL     1      13.445   6.336   9.755  1.00  0.00     0.161 HD
ENDROOT
BRANCH   4  20
HETATM   20  O1  UNL     1      12.390  12.933  13.393  1.00  0.00    -0.156 OA
BRANCH  20  21
HETATM   21  N3  UNL     1      11.544  13.536  14.260  1.00  0.00    -0.022 N
BRANCH  21  22
HETATM   22  O2  UNL     1      11.785  13.653  15.475  1.00  0.00    -0.246 OA
ATOM     23  H2  UNL     1      12.339  13.049  15.955  1.00  0.00     0.249 HD
ENDBRANCH  21  22
BRANCH  21  24
HETATM   24  N4  UNL     1      10.340  14.058  13.783  1.00  0.00    -0.116 N
HETATM   25  F1  UNL     1       9.634  13.356  12.871  1.00  0.00    -0.081 F
ATOM     26  H4  UNL     1       9.999  14.957  14.120  1.00  0.00     0.226 HD
ENDBRANCH  21  24
ENDBRANCH  20  21
ENDBRANCH   4  20
BRANCH   1  27
HETATM   27  N1  UNL     1      13.900   9.400  16.088  1.00  0.00    -0.383 N
ATOM     28  H12 UNL     1      14.627   8.690  16.168  1.00  0.00     0.157 HD
ATOM     29  H11 UNL     1      13.449   9.751  16.933  1.00  0.00     0.157 HD
ENDBRANCH   1  27
TORSDOF 5
ENDMDL