MODEL 5
REMARK VINA RESULT: -6.749828198      2.289      3.063
REMARK  8 active torsions:
REMARK  status: ('A' for Active; 'I' for Inactive)
REMARK    1  A    between atoms: O1_2  and  C2_3
REMARK    2  A    between atoms: C3_6  and  N2_7
REMARK    3  A    between atoms: C4_12  and  C5_13
REMARK    4  A    between atoms: C6_14  and  C7_15
REMARK    5  A    between atoms: C7_15  and  O2_16
REMARK    6  A    between atoms: C7_15  and  C8_18
REMARK    7  A    between atoms: C8_18  and  O3_20
REMARK    8  A    between atoms: C10_23  and  N4_24
ROOT
HETATM    1  C2  UNL     1      12.710  11.800  13.532  1.00  0.00     0.193 A
HETATM    2  N1  UNL     1      12.023  12.698  12.792  1.00  0.00    -0.168 N
ATOM      3  H1  UNL     1      11.701  13.570  13.210  1.00  0.00     0.186 HD
HETATM    4  C3  UNL     1      11.767  12.434  11.504  1.00  0.00     0.678 A
HETATM    5  N3  UNL     1      12.203  11.264  10.958  1.00  0.00    -0.181 N
ATOM      6  H3  UNL     1      11.998  11.082   9.976  1.00  0.00     0.185 HD
HETATM    7  C4  UNL     1      12.886  10.346  11.647  1.00  0.00     0.140 A
HETATM    8  C10 UNL     1      13.154  10.616  12.983  1.00  0.00     0.190 A
ENDROOT
BRANCH   7   9
HETATM    9  C5  UNL     1      13.353   9.110  11.078  1.00  0.00    -0.043 C
HETATM   10  C6  UNL     1      13.730   8.063  10.613  1.00  0.00    -0.062 C
BRANCH  10  11
HETATM   11  C7  UNL     1      14.162   6.783  10.051  1.00  0.00     0.263 C
BRANCH  11  12
HETATM   12  O2  UNL     1      15.141   6.203  10.827  1.00  0.00    -0.378 OA
ATOM     13  H2  UNL     1      14.762   5.677  11.521  1.00  0.00     0.211 HD
ENDBRANCH  11  12
BRANCH  11  14
HETATM   14  C8  UNL     1      12.946   5.887  10.005  1.00  0.00     0.236 C
HETATM   15  C9  UNL     1      13.210   4.671   9.158  1.00  0.00     0.088 C
HETATM   16  F1  UNL     1      11.931   6.614   9.366  1.00  0.00    -0.208 F
BRANCH  14  17
HETATM   17  O3  UNL     1      12.463   5.600  11.268  1.00  0.00    -0.359 OA
ATOM     18  H3  UNL     1      11.560   5.872  11.375  1.00  0.00     0.213 HD
ENDBRANCH  14  17
ENDBRANCH  11  14
ENDBRANCH  10  11
ENDBRANCH   7   9
BRANCH   8  19
HETATM   19  N4  UNL     1      13.866   9.704  13.783  1.00  0.00    -0.108 N
HETATM   20  O4  UNL     1      13.264   8.819  14.392  1.00  0.00    -0.532 OA
HETATM   21  O5  UNL     1      15.219   9.807  13.879  1.00  0.00    -0.532 OA
ENDBRANCH   8  19
BRANCH   4  22
HETATM   22  N2  UNL     1      11.112  13.294  10.804  1.00  0.00    -0.234 N
ATOM     23  H22 UNL     1      11.059  14.274  11.084  1.00  0.00     0.174 HD
ATOM     24  H21 UNL     1      10.638  12.988   9.955  1.00  0.00     0.174 HD
ENDBRANCH   4  22
BRANCH   1  25
HETATM   25  O1  UNL     1      12.957  12.106  14.861  1.00  0.00    -0.338 OA
HETATM   26  C1  UNL     1      12.306  13.260  15.386  1.00  0.00     0.211 C
ENDBRANCH   1  25
TORSDOF 8
ENDMDL