MODEL 3
REMARK VINA RESULT: -6.893476351      2.250      2.653
REMARK  4 active torsions:
REMARK  status: ('A' for Active; 'I' for Inactive)
REMARK    1  A    between atoms: O1_2  and  C2_3
REMARK    2  A    between atoms: C2_3  and  C3_5
REMARK    3  A    between atoms: C6_13  and  N3_14
REMARK       I    between atoms: N5_20  and  C8_21
REMARK    4  A    between atoms: C8_21  and  O5_23
ROOT
HETATM    1  C3  UNL     1      47.600  46.407   7.435  1.00  0.00     0.195 A
HETATM    2  N1  UNL     1      47.336  45.895   6.176  1.00  0.00    -0.329 N
ATOM      3  H1  UNL     1      46.533  46.141   5.595  1.00  0.00     0.168 HD
HETATM    4  C4  UNL     1      48.290  45.034   5.842  1.00  0.00     0.149 A
HETATM    5  C5  UNL     1      48.473  44.271   4.700  1.00  0.00     0.290 A
HETATM    6  O3  UNL     1      47.608  44.381   3.795  1.00  0.00    -0.265 OA
HETATM    7  N2  UNL     1      49.541  43.490   4.652  1.00  0.00    -0.154 N
ATOM      8  H2  UNL     1      49.685  42.924   3.815  1.00  0.00     0.187 HD
HETATM    9  C6  UNL     1      50.442  43.398   5.636  1.00  0.00     0.680 A
HETATM   10  N4  UNL     1      50.256  44.147   6.748  1.00  0.00    -0.174 N
ATOM     11  H4  UNL     1      50.935  44.088   7.507  1.00  0.00     0.186 HD
HETATM   12  C7  UNL     1      49.200  44.966   6.877  1.00  0.00     0.166 A
HETATM   13  N5  UNL     1      48.738  45.833   7.853  1.00  0.00    -0.220 N
HETATM   14  C8  UNL     1      49.436  46.006   9.057  1.00  0.00     0.374 C
HETATM   15  O4  UNL     1      50.513  45.362   9.269  1.00  0.00    -0.237 OA
ENDROOT
BRANCH   1  16
HETATM   16  C2  UNL     1      46.765  47.369   8.105  1.00  0.00     0.328 C
HETATM   17  O2  UNL     1      46.094  47.236   9.114  1.00  0.00    -0.256 OA
BRANCH  16  18
HETATM   18  O1  UNL     1      46.698  48.669   7.525  1.00  0.00    -0.320 OA
HETATM   19  C1  UNL     1      45.474  49.380   7.463  1.00  0.00     0.213 C
ENDBRANCH  16  18
ENDBRANCH   1  16
BRANCH  14  20
HETATM   20  O5  UNL     1      49.069  46.832  10.077  1.00  0.00    -0.308 OA
HETATM   21  C9  UNL     1      49.856  47.131  11.213  1.00  0.00     0.215 C
ENDBRANCH  14  20
BRANCH   9  22
HETATM   22  N3  UNL     1      51.476  42.607   5.529  1.00  0.00    -0.234 N
ATOM     23  H32 UNL     1      51.799  42.061   6.328  1.00  0.00     0.174 HD
ATOM     24  H31 UNL     1      51.982  42.520   4.648  1.00  0.00     0.174 HD
ENDBRANCH   9  22
TORSDOF 4
ENDMDL