MODEL 4
REMARK VINA RESULT: -7.332061991      3.599      5.176
REMARK  5 active torsions:
REMARK  status: ('A' for Active; 'I' for Inactive)
REMARK    1  A    between atoms: C3_4  and  O1_5
REMARK    2  A    between atoms: O1_5  and  N2_6
REMARK    3  A    between atoms: N2_6  and  O2_7
REMARK    4  A    between atoms: N2_6  and  O3_9
REMARK    5  A    between atoms: C7_18  and  N5_19
ROOT
HETATM    1  C1  UNL     1      47.635  47.011   9.094  1.00  0.00     0.151 C
HETATM    2  N1  UNL     1      48.561  46.305   8.234  1.00  0.00    -0.367 N
HETATM    3  C2  UNL     1      49.820  45.838   8.774  1.00  0.00     0.159 C
HETATM    4  C3  UNL     1      50.058  44.448   8.226  1.00  0.00     0.186 C
HETATM    5  C4  UNL     1      50.894  44.480   6.968  1.00  0.00     0.155 C
HETATM    6  N3  UNL     1      50.131  45.021   5.843  1.00  0.00    -0.382 N
ATOM      7  H3  UNL     1      50.606  45.003   4.940  1.00  0.00     0.160 HD
HETATM    8  C5  UNL     1      48.828  45.564   5.834  1.00  0.00     0.111 A
HETATM    9  C6  UNL     1      48.123  46.135   6.892  1.00  0.00     0.148 A
HETATM   10  N4  UNL     1      46.881  46.602   6.698  1.00  0.00    -0.175 N
ATOM     11  H4  UNL     1      46.364  47.020   7.472  1.00  0.00     0.186 HD
HETATM   12  C7  UNL     1      46.321  46.516   5.483  1.00  0.00     0.678 A
HETATM   13  N6  UNL     1      47.009  45.964   4.470  1.00  0.00    -0.180 N
ATOM     14  H6  UNL     1      46.559  45.913   3.556  1.00  0.00     0.185 HD
HETATM   15  C8  UNL     1      48.251  45.476   4.587  1.00  0.00     0.159 A
HETATM   16  C9  UNL     1      48.989  44.887   3.515  1.00  0.00     0.120 C
HETATM   17  N7  UNL     1      49.574  44.415   2.634  1.00  0.00    -0.190 NA
ENDROOT
BRANCH  12  18
HETATM   18  N5  UNL     1      45.104  46.969   5.272  1.00  0.00    -0.234 N
ATOM     19  H52 UNL     1      44.426  46.970   6.034  1.00  0.00     0.174 HD
ATOM     20  H51 UNL     1      44.830  47.317   4.353  1.00  0.00     0.174 HD
ENDBRANCH  12  18
BRANCH   4  21
HETATM   21  O1  UNL     1      50.729  43.721   9.182  1.00  0.00    -0.247 OA
BRANCH  21  22
HETATM   22  N2  UNL     1      52.072  43.814   9.078  1.00  0.00     0.074 NA
BRANCH  22  23
HETATM   23  O2  UNL     1      52.643  44.351  10.166  1.00  0.00    -0.265 OA
ATOM     24  H2  UNL     1      53.591  44.290  10.154  1.00  0.00     0.242 HD
ENDBRANCH  22  23
BRANCH  22  25
HETATM   25  O3  UNL     1      52.605  42.610   8.765  1.00  0.00    -0.265 OA
ATOM     26  H3  UNL     1      53.434  42.488   9.213  1.00  0.00     0.242 HD
ENDBRANCH  22  25
ENDBRANCH  21  22
ENDBRANCH   4  21
TORSDOF 5
ENDMDL