MODEL 5
REMARK VINA RESULT: -7.656578984      2.201      4.830
REMARK  1 active torsions:
REMARK  status: ('A' for Active; 'I' for Inactive)
REMARK    1  A    between atoms: O1_2  and  C2_3
ROOT
HETATM    1  C2  UNL     1      48.403  47.177  10.037  1.00  0.00     0.149 C
HETATM    2  C3  UNL     1      47.549  48.254  10.053  1.00  0.00     0.233 C
HETATM    3  O2  UNL     1      47.434  48.900  11.114  1.00  0.00    -0.283 OA
HETATM    4  C4  UNL     1      46.755  48.757   9.014  1.00  0.00     0.122 C
HETATM    5  N1  UNL     1      46.176  50.034   9.203  1.00  0.00    -0.096 NA
HETATM    6  C5  UNL     1      46.451  48.177   7.812  1.00  0.00     0.099 C
HETATM    7  C6  UNL     1      45.563  48.853   6.904  1.00  0.00     0.103 C
HETATM    8  N2  UNL     1      44.863  49.399   6.162  1.00  0.00    -0.191 NA
HETATM    9  C7  UNL     1      46.917  46.958   7.343  1.00  0.00     0.098 C
HETATM   10  N3  UNL     1      46.164  46.292   6.356  1.00  0.00    -0.098 NA
HETATM   11  C8  UNL     1      48.064  46.281   7.731  1.00  0.00     0.094 A
HETATM   12  C9  UNL     1      48.728  46.389   8.962  1.00  0.00     0.103 A
HETATM   13  N4  UNL     1      49.779  45.556   8.893  1.00  0.00    -0.304 N
ATOM     14  H4  UNL     1      50.465  45.403   9.633  1.00  0.00     0.171 HD
HETATM   15  C10 UNL     1      49.778  44.956   7.691  1.00  0.00     0.327 A
HETATM   16  O3  UNL     1      50.587  44.109   7.226  1.00  0.00    -0.246 OA
HETATM   17  N5  UNL     1      48.714  45.398   6.954  1.00  0.00    -0.300 N
HETATM   18  C11 UNL     1      48.344  45.020   5.622  1.00  0.00     0.161 C
ENDROOT
BRANCH   1  19
HETATM   19  O1  UNL     1      48.994  46.857  11.231  1.00  0.00    -0.350 OA
HETATM   20  C1  UNL     1      50.287  47.211  11.620  1.00  0.00     0.210 C
ENDBRANCH   1  19
TORSDOF 1
ENDMDL