MODEL 2
REMARK VINA RESULT: -7.524459669      2.478      4.467
REMARK  4 active torsions:
REMARK  status: ('A' for Active; 'I' for Inactive)
REMARK    1  A    between atoms: N1_2  and  C2_4
REMARK    2  A    between atoms: N2_7  and  O1_8
REMARK    3  A    between atoms: C6_11  and  O2_12
REMARK    4  A    between atoms: O2_12  and  C7_13
ROOT
HETATM    1  C2  UNL     1      48.825  45.636   8.292  1.00  0.00     0.112 A
HETATM    2  C3  UNL     1      50.065  45.147   8.622  1.00  0.00     0.112 A
HETATM    3  C4  UNL     1      50.715  45.655   9.718  1.00  0.00     0.165 A
HETATM    4  N2  UNL     1      50.133  46.620  10.452  1.00  0.00    -0.200 N
HETATM    5  C5  UNL     1      48.926  47.135  10.177  1.00  0.00     0.139 A
HETATM    6  C6  UNL     1      48.436  48.079  10.950  1.00  0.00     0.182 C
HETATM    7  C9  UNL     1      48.252  46.639   9.079  1.00  0.00     0.231 A
HETATM    8  O4  UNL     1      47.124  47.069   8.759  1.00  0.00    -0.283 OA
HETATM    9  N3  UNL     1      51.861  45.078   9.873  1.00  0.00    -0.311 N
ATOM     10  H3  UNL     1      52.523  45.288  10.620  1.00  0.00     0.170 HD
HETATM   11  C10 UNL     1      52.064  44.124   8.871  1.00  0.00     0.179 A
HETATM   12  N4  UNL     1      53.121  43.380   8.757  1.00  0.00    -0.371 N
ATOM     13  H41 UNL     1      53.269  42.684   8.026  1.00  0.00     0.159 HD
ATOM     14  H42 UNL     1      53.951  43.360   9.350  1.00  0.00     0.159 HD
HETATM   15  N5  UNL     1      50.911  44.151   8.049  1.00  0.00    -0.323 N
ATOM     16  H5  UNL     1      50.726  43.582   7.223  1.00  0.00     0.169 HD
ENDROOT
BRANCH   4  17
HETATM   17  O1  UNL     1      50.814  47.104  11.544  1.00  0.00    -0.281 OA
ATOM     18  H1  UNL     1      50.533  47.930  11.918  1.00  0.00     0.245 HD
ENDBRANCH   4  17
BRANCH   6  19
HETATM   19  O2  UNL     1      47.212  48.698  10.789  1.00  0.00    -0.289 OA
BRANCH  19  20
HETATM   20  C7  UNL     1      47.048  50.018  10.389  1.00  0.00     0.259 C
HETATM   21  C8  UNL     1      46.181  50.433   9.275  1.00  0.00     0.126 C
HETATM   22  O3  UNL     1      47.682  50.900  11.022  1.00  0.00    -0.265 OA
ENDBRANCH  19  20
ENDBRANCH   6  19
BRANCH   1  23
HETATM   23  N1  UNL     1      48.170  45.098   7.155  1.00  0.00    -0.389 N
HETATM   24  C1  UNL     1      48.389  45.596   5.812  1.00  0.00     0.146 C
ATOM     25  H1  UNL     1      47.516  44.326   7.288  1.00  0.00     0.159 HD
ENDBRANCH   1  23
TORSDOF 4
ENDMDL