MODEL 1
REMARK VINA RESULT: -7.856765153      0.000      0.000
REMARK  4 active torsions:
REMARK  status: ('A' for Active; 'I' for Inactive)
REMARK    1  A    between atoms: N1_2  and  C3_4
REMARK    2  A    between atoms: C4_7  and  N3_8
REMARK    3  A    between atoms: C6_14  and  N5_15
REMARK    4  A    between atoms: N5_15  and  C7_17
ROOT
HETATM    1  C3  UNL     1      47.132  48.274   8.920  1.00  0.00     0.682 A
HETATM    2  N2  UNL     1      46.363  48.231   7.795  1.00  0.00    -0.175 N
ATOM      3  H2  UNL     1      45.653  48.950   7.653  1.00  0.00     0.186 HD
HETATM    4  C4  UNL     1      46.511  47.272   6.868  1.00  0.00     0.145 A
HETATM    5  C5  UNL     1      47.452  46.280   7.011  1.00  0.00     0.123 A
HETATM    6  N4  UNL     1      47.641  45.302   6.128  1.00  0.00    -0.335 N
ATOM      7  H4  UNL     1      47.062  45.272   5.289  1.00  0.00     0.168 HD
HETATM    8  C6  UNL     1      48.573  44.354   6.310  1.00  0.00     0.137 A
HETATM    9  C8  UNL     1      49.384  44.375   7.464  1.00  0.00     0.139 A
HETATM   10  N10 UNL     1      49.193  45.355   8.348  1.00  0.00    -0.346 N
ATOM     11  H10 UNL     1      49.770  45.390   9.190  1.00  0.00     0.167 HD
HETATM   12  C9  UNL     1      48.241  46.312   8.148  1.00  0.00     0.151 A
HETATM   13  N11 UNL     1      48.044  47.294   9.033  1.00  0.00    -0.174 N
ATOM     14  H11 UNL     1      48.637  47.300   9.863  1.00  0.00     0.186 HD
ENDROOT
BRANCH   8  15
HETATM   15  N5  UNL     1      48.796  43.287   5.433  1.00  0.00    -0.172 N
ATOM     16  H5  UNL     1      48.696  42.362   5.848  1.00  0.00     0.186 HD
BRANCH  15  17
HETATM   17  C7  UNL     1      49.099  43.289   4.226  1.00  0.00     0.715 A
HETATM   18  N6  UNL     1      48.606  42.384   3.315  1.00  0.00    -0.115 N
HETATM   19  N7  UNL     1      49.126  42.665   2.126  1.00  0.00    -0.213 N
ATOM     20  H6  UNL     1      47.953  41.627   3.518  1.00  0.00     0.207 HD
HETATM   21  N8  UNL     1      49.912  43.686   2.235  1.00  0.00    -0.213 N
ATOM     22  H7  UNL     1      48.936  42.155   1.262  1.00  0.00     0.210 HD
HETATM   23  N9  UNL     1      49.915  44.083   3.496  1.00  0.00    -0.115 N
ATOM     24  H8  UNL     1      50.442  44.113   1.475  1.00  0.00     0.210 HD
ATOM     25  H9  UNL     1      50.452  44.868   3.863  1.00  0.00     0.207 HD
ENDBRANCH  15  17
ENDBRANCH   8  15
BRANCH   4  26
HETATM   26  N3  UNL     1      45.761  47.249   5.799  1.00  0.00    -0.383 N
ATOM     27  H32 UNL     1      45.821  48.043   5.161  1.00  0.00     0.157 HD
ATOM     28  H31 UNL     1      45.140  46.462   5.612  1.00  0.00     0.157 HD
ENDBRANCH   4  26
BRANCH   1  29
HETATM   29  N1  UNL     1      46.979  49.277   9.905  1.00  0.00    -0.226 N
HETATM   30  C1  UNL     1      46.258  50.475   9.558  1.00  0.00     0.168 C
HETATM   31  C2  UNL     1      47.502  49.157  11.243  1.00  0.00     0.168 C
ENDBRANCH   1  29
TORSDOF 4
ENDMDL