MODEL 4
REMARK VINA RESULT: -8.015817758      1.595      1.786
REMARK  4 active torsions:
REMARK  status: ('A' for Active; 'I' for Inactive)
REMARK    1  A    between atoms: C2_2  and  C3_3
REMARK       I    between atoms: C3_3  and  N1_5
REMARK    2  A    between atoms: N1_5  and  O2_7
REMARK    3  A    between atoms: O2_7  and  C4_8
REMARK       I    between atoms: C4_8  and  N2_10
REMARK    4  A    between atoms: C7_20  and  N6_21
ROOT
HETATM    1  C4  UNL     1      48.344  46.704   9.325  1.00  0.00     0.411 C
HETATM    2  O3  UNL     1      49.469  46.612   9.870  1.00  0.00    -0.234 OA
HETATM    3  N2  UNL     1      48.167  46.360   7.956  1.00  0.00    -0.164 N
HETATM    4  N3  UNL     1      47.020  46.420   7.280  1.00  0.00    -0.229 N
ATOM      5  H3  UNL     1      46.130  46.722   7.678  1.00  0.00     0.209 HD
HETATM    6  N4  UNL     1      47.187  46.038   6.030  1.00  0.00    -0.277 N
ATOM      7  H4  UNL     1      46.471  45.991   5.305  1.00  0.00     0.189 HD
HETATM    8  C5  UNL     1      48.483  45.721   5.896  1.00  0.00     0.165 A
HETATM    9  C6  UNL     1      49.259  45.267   4.859  1.00  0.00     0.291 A
HETATM   10  O4  UNL     1      48.712  45.072   3.728  1.00  0.00    -0.265 OA
HETATM   11  N5  UNL     1      50.559  45.029   5.012  1.00  0.00    -0.154 N
ATOM     12  H5  UNL     1      51.102  44.691   4.218  1.00  0.00     0.187 HD
HETATM   13  C7  UNL     1      51.172  45.224   6.194  1.00  0.00     0.680 A
HETATM   14  N7  UNL     1      50.418  45.673   7.231  1.00  0.00    -0.172 N
ATOM     15  H7  UNL     1      50.871  45.824   8.132  1.00  0.00     0.186 HD
HETATM   16  C8  UNL     1      49.102  45.928   7.125  1.00  0.00     0.183 A
ENDROOT
BRANCH   1  17
HETATM   17  O2  UNL     1      47.302  47.156  10.120  1.00  0.00    -0.177 OA
BRANCH  17  18
HETATM   18  N1  UNL     1      47.206  48.482  10.446  1.00  0.00    -0.224 N
HETATM   19  C3  UNL     1      46.652  49.438   9.550  1.00  0.00     0.241 C
HETATM   20  O1  UNL     1      46.234  49.089   8.436  1.00  0.00    -0.271 OA
ATOM     21  H1  UNL     1      47.540  48.794  11.358  1.00  0.00     0.198 HD
BRANCH  19  22
HETATM   22  C2  UNL     1      46.587  50.854   9.980  1.00  0.00     0.100 C
HETATM   23  C1  UNL     1      47.475  51.047  11.192  1.00  0.00     0.014 C
ENDBRANCH  19  22
ENDBRANCH  17  18
ENDBRANCH   1  17
BRANCH  13  24
HETATM   24  N6  UNL     1      52.420  44.980   6.289  1.00  0.00    -0.234 N
ATOM     25  H62 UNL     1      53.139  45.700   6.210  1.00  0.00     0.174 HD
ATOM     26  H61 UNL     1      52.725  44.021   6.456  1.00  0.00     0.174 HD
ENDBRANCH  13  24
TORSDOF 4
ENDMDL