MODEL 5
REMARK VINA RESULT: -7.235309638      1.392      1.878
REMARK  2 active torsions:
REMARK  status: ('A' for Active; 'I' for Inactive)
REMARK    1  A    between atoms: C3_3  and  C4_4
REMARK    2  A    between atoms: C9_17  and  C10_18
ROOT
HETATM    1  C1  UNL     1      51.953  46.619   9.862  1.00  0.00     0.052 C
HETATM    2  C2  UNL     1      50.620  46.376   9.322  1.00  0.00    -0.000 C
HETATM    3  C3  UNL     1      49.624  46.940   9.966  1.00  0.00     0.102 C
HETATM    4  C5  UNL     1      48.201  46.870   9.538  1.00  0.00     0.228 C
HETATM    5  O3  UNL     1      47.327  47.041  10.418  1.00  0.00    -0.284 OA
HETATM    6  C6  UNL     1      47.678  46.624   8.191  1.00  0.00     0.189 A
HETATM    7  O4  UNL     1      46.450  46.857   7.795  1.00  0.00    -0.228 OA
HETATM    8  N1  UNL     1      46.295  46.535   6.549  1.00  0.00    -0.223 N
ATOM      9  H1  UNL     1      45.424  46.628   6.027  1.00  0.00     0.198 HD
HETATM   10  C7  UNL     1      47.447  46.059   6.042  1.00  0.00     0.302 A
HETATM   11  O5  UNL     1      47.694  45.646   4.872  1.00  0.00    -0.263 OA
HETATM   12  C8  UNL     1      48.346  46.114   7.098  1.00  0.00     0.185 A
HETATM   13  O6  UNL     1      49.678  45.717   7.036  1.00  0.00    -0.294 OA
HETATM   14  C9  UNL     1      50.571  45.514   8.109  1.00  0.00     0.159 C
ENDROOT
BRANCH   3  15
HETATM   15  C4  UNL     1      49.872  47.742  11.142  1.00  0.00     0.214 C
HETATM   16  O1  UNL     1      49.949  47.042  12.346  1.00  0.00    -0.644 OA
HETATM   17  O2  UNL     1      49.188  48.935  11.251  1.00  0.00    -0.644 OA
ENDBRANCH   3  15
BRANCH  14  18
HETATM   18  C10 UNL     1      51.414  44.516   8.062  1.00  0.00     0.234 C
HETATM   19  O7  UNL     1      51.511  43.478   8.951  1.00  0.00    -0.642 OA
HETATM   20  O8  UNL     1      52.328  44.485   6.998  1.00  0.00    -0.642 OA
ENDBRANCH  14  18
TORSDOF 2
ENDMDL