MODEL 4
REMARK VINA RESULT: -7.397242227      2.147      6.777
REMARK  5 active torsions:
REMARK  status: ('A' for Active; 'I' for Inactive)
REMARK    1  A    between atoms: C3_7  and  C4_8
REMARK    2  A    between atoms: C4_8  and  C5_9
REMARK    3  A    between atoms: C5_9  and  N2_10
REMARK    4  A    between atoms: N2_10  and  N3_12
REMARK    5  A    between atoms: N5_19  and  O4_20
ROOT
HETATM    1  N2  UNL     1      47.403  47.005   8.995  1.00  0.00    -0.286 N
ATOM      2  H2  UNL     1      46.524  46.502   8.877  1.00  0.00     0.188 HD
ENDROOT
BRANCH   1   3
HETATM    3  C5  UNL     1      48.448  46.461   8.517  1.00  0.00     0.112 C
BRANCH   3   4
HETATM    4  C4  UNL     1      48.420  45.309   7.624  1.00  0.00     0.054 C
BRANCH   4   5
HETATM    5  C3  UNL     1      48.325  45.436   6.309  1.00  0.00     0.106 A
HETATM    6  C2  UNL     1      47.274  46.031   5.532  1.00  0.00     0.276 A
HETATM    7  N1  UNL     1      47.644  45.918   4.149  1.00  0.00    -0.274 N
HETATM    8  O2  UNL     1      46.225  46.554   5.987  1.00  0.00    -0.266 OA
HETATM    9  C1  UNL     1      48.902  45.266   4.047  1.00  0.00     0.327 A
ATOM     10  H1  UNL     1      47.089  46.255   3.362  1.00  0.00     0.173 HD
HETATM   11  O1  UNL     1      49.526  45.002   2.973  1.00  0.00    -0.247 OA
HETATM   12  N6  UNL     1      49.318  44.970   5.379  1.00  0.00    -0.304 N
ATOM     13  H6  UNL     1      50.188  44.500   5.634  1.00  0.00     0.171 HD
ENDBRANCH   4   5
ENDBRANCH   3   4
ENDBRANCH   1   3
BRANCH   1  14
HETATM   14  N3  UNL     1      47.350  48.213   9.658  1.00  0.00    -0.137 N
HETATM   15  C6  UNL     1      46.606  49.269   9.316  1.00  0.00     0.220 A
HETATM   16  S1  UNL     1      45.573  49.430   8.046  1.00  0.00    -0.037 SA
HETATM   17  N4  UNL     1      46.818  50.269  10.206  1.00  0.00    -0.279 N
HETATM   18  C7  UNL     1      47.717  49.797  11.108  1.00  0.00     0.370 A
ATOM     19  H4  UNL     1      46.387  51.194  10.200  1.00  0.00     0.173 HD
HETATM   20  O3  UNL     1      48.191  50.407  12.106  1.00  0.00    -0.243 OA
HETATM   21  N5  UNL     1      48.027  48.520  10.741  1.00  0.00    -0.082 N
BRANCH  21  22
HETATM   22  O4  UNL     1      48.927  47.746  11.463  1.00  0.00    -0.262 OA
ATOM     23  H4  UNL     1      49.425  47.972  12.241  1.00  0.00     0.247 HD
ENDBRANCH  21  22
ENDBRANCH   1  14
TORSDOF 5
ENDMDL