MODEL 5
REMARK VINA RESULT: -6.687714113      3.084      5.072
REMARK  3 active torsions:
REMARK  status: ('A' for Active; 'I' for Inactive)
REMARK    1  A    between atoms: S1_2  and  C2_5
REMARK    2  A    between atoms: C4_9  and  N2_10
REMARK    3  A    between atoms: C5_15  and  N4_16
ROOT
HETATM    1  C2  UNL     1      49.863  45.534   8.245  1.00  0.00     0.204 A
HETATM    2  N1  UNL     1      49.954  45.139   6.963  1.00  0.00    -0.327 N
ATOM      3  H1  UNL     1      50.745  44.639   6.558  1.00  0.00     0.168 HD
HETATM    4  C3  UNL     1      48.847  45.503   6.295  1.00  0.00     0.131 A
HETATM    5  C4  UNL     1      48.390  45.372   4.992  1.00  0.00     0.218 A
HETATM    6  N3  UNL     1      47.181  45.861   4.604  1.00  0.00    -0.169 N
ATOM      7  H3  UNL     1      46.864  45.754   3.641  1.00  0.00     0.186 HD
HETATM    8  C5  UNL     1      46.412  46.486   5.509  1.00  0.00     0.679 A
HETATM    9  N5  UNL     1      46.835  46.619   6.758  1.00  0.00    -0.174 N
ATOM     10  H5  UNL     1      46.233  47.098   7.428  1.00  0.00     0.186 HD
HETATM   11  C6  UNL     1      48.040  46.144   7.188  1.00  0.00     0.154 A
HETATM   12  N6  UNL     1      48.679  46.151   8.364  1.00  0.00    -0.317 N
ATOM     13  H6  UNL     1      48.318  46.564   9.223  1.00  0.00     0.169 HD
ENDROOT
BRANCH   1  14
HETATM   14  S1  UNL     1      51.082  45.278   9.501  1.00  0.00     0.203 S
HETATM   15  C1  UNL     1      52.669  45.695   8.796  1.00  0.00     0.170 C
HETATM   16  O1  UNL     1      50.852  46.189  10.672  1.00  0.00    -0.220 OA
HETATM   17  O2  UNL     1      51.078  43.818   9.928  1.00  0.00    -0.220 OA
ENDBRANCH   1  14
BRANCH   5  18
HETATM   18  N2  UNL     1      49.209  44.713   4.048  1.00  0.00    -0.095 N
HETATM   19  O3  UNL     1      49.485  45.252   2.967  1.00  0.00    -0.530 OA
HETATM   20  O4  UNL     1      49.709  43.468   4.314  1.00  0.00    -0.530 OA
ENDBRANCH   5  18
BRANCH   8  21
HETATM   21  N4  UNL     1      45.253  46.962   5.161  1.00  0.00    -0.234 N
ATOM     22  H42 UNL     1      45.196  47.845   4.654  1.00  0.00     0.174 HD
ATOM     23  H41 UNL     1      44.400  46.453   5.394  1.00  0.00     0.174 HD
ENDBRANCH   8  21
TORSDOF 3
ENDMDL