MODEL 3
REMARK VINA RESULT: -8.220763428      1.281      1.581
REMARK  3 active torsions:
REMARK  status: ('A' for Active; 'I' for Inactive)
REMARK    1  A    between atoms: N1_1  and  C1_4
REMARK    2  A    between atoms: C3_12  and  C4_13
REMARK    3  A    between atoms: C5_16  and  N6_17
ROOT
HETATM    1  C4  UNL     1      49.544  45.477   6.129  1.00  0.00     0.126 A
HETATM    2  N5  UNL     1      48.768  46.284   6.945  1.00  0.00    -0.184 N
ATOM      3  H5  UNL     1      49.121  46.524   7.872  1.00  0.00     0.184 HD
HETATM    4  C5  UNL     1      47.596  46.753   6.577  1.00  0.00     0.695 A
HETATM    5  N7  UNL     1      47.127  46.441   5.359  1.00  0.00    -0.130 N
ATOM      6  H7  UNL     1      46.219  46.802   5.068  1.00  0.00     0.205 HD
HETATM    7  N8  UNL     1      47.804  45.690   4.543  1.00  0.00    -0.270 N
ATOM      8  H8  UNL     1      47.419  45.473   3.624  1.00  0.00     0.189 HD
HETATM    9  C10 UNL     1      49.036  45.182   4.902  1.00  0.00     0.144 A
HETATM   10  N9  UNL     1      49.627  44.456   4.039  1.00  0.00    -0.383 N
ATOM     11  H91 UNL     1      49.247  44.235   3.119  1.00  0.00     0.157 HD
ATOM     12  H92 UNL     1      50.538  44.081   4.304  1.00  0.00     0.157 HD
ENDROOT
BRANCH   1  13
HETATM   13  C3  UNL     1      50.803  45.042   6.674  1.00  0.00     0.123 A
HETATM   14  C1  UNL     1      51.069  44.302   7.764  1.00  0.00     0.130 A
HETATM   15  N2  UNL     1      52.371  43.986   8.121  1.00  0.00    -0.336 N
HETATM   16  C2  UNL     1      53.401  44.403   7.400  1.00  0.00     0.199 A
ATOM     17  H2  UNL     1      52.539  43.422   8.954  1.00  0.00     0.168 HD
HETATM   18  N3  UNL     1      53.142  45.139   6.317  1.00  0.00    -0.296 N
HETATM   19  N4  UNL     1      51.924  45.443   5.969  1.00  0.00    -0.294 N
ATOM     20  H3  UNL     1      53.919  45.472   5.746  1.00  0.00     0.187 HD
ATOM     21  H4  UNL     1      51.789  46.008   5.130  1.00  0.00     0.187 HD
BRANCH  14  22
HETATM   22  N1  UNL     1      50.137  43.861   8.513  1.00  0.00    -0.383 N
ATOM     23  H12 UNL     1      50.221  43.870   9.530  1.00  0.00     0.157 HD
ATOM     24  H11 UNL     1      49.302  43.498   8.053  1.00  0.00     0.157 HD
ENDBRANCH  14  22
ENDBRANCH   1  13
BRANCH   4  25
HETATM   25  N6  UNL     1      46.817  47.589   7.450  1.00  0.00    -0.212 N
HETATM   26  C6  UNL     1      46.955  47.414   8.860  1.00  0.00     0.167 C
HETATM   27  C7  UNL     1      46.570  48.611   9.665  1.00  0.00     0.188 C
HETATM   28  O1  UNL     1      46.045  49.648   8.913  1.00  0.00    -0.388 OA
HETATM   29  C8  UNL     1      45.140  49.209   7.953  1.00  0.00     0.188 C
HETATM   30  C9  UNL     1      45.933  48.566   6.840  1.00  0.00     0.167 C
ENDBRANCH   4  25
TORSDOF 3
ENDMDL