MODEL 3
REMARK VINA RESULT: -9.196787369      3.722      6.314
REMARK  4 active torsions:
REMARK  status: ('A' for Active; 'I' for Inactive)
REMARK       I    between atoms: C2_5  and  N3_6
REMARK       I    between atoms: C2_5  and  N5_10
REMARK    1  A    between atoms: N5_10  and  N6_12
REMARK    2  A    between atoms: N6_12  and  C4_14
REMARK    3  A    between atoms: C4_14  and  C6_19
REMARK       I    between atoms: N9_21  and  C8_22
REMARK    4  A    between atoms: C8_22  and  C9_24
ROOT
HETATM    1  N1  UNL     1      61.220  29.221  17.535  1.00  0.00    -0.171 NA
HETATM    2  C1  UNL     1      62.347  28.948  17.342  1.00  0.00     0.196 C
HETATM    3  N2  UNL     1      63.687  28.619  17.130  1.00  0.00    -0.124 N
ATOM      4  H2  UNL     1      64.247  28.271  17.909  1.00  0.00     0.197 HD
HETATM    5  C2  UNL     1      64.229  28.747  15.975  1.00  0.00     0.715 C
HETATM    6  N3  UNL     1      65.590  28.406  15.790  1.00  0.00    -0.124 N
ATOM      7  H3  UNL     1      66.311  29.081  16.046  1.00  0.00     0.197 HD
HETATM    8  C3  UNL     1      65.977  27.153  15.260  1.00  0.00     0.196 C
HETATM    9  N4  UNL     1      66.296  26.126  14.819  1.00  0.00    -0.171 NA
HETATM   10  N5  UNL     1      63.443  29.232  14.900  1.00  0.00    -0.129 N
ATOM     11  H5  UNL     1      63.139  28.577  14.180  1.00  0.00     0.205 HD
ENDROOT
BRANCH  10  12
HETATM   12  N6  UNL     1      63.070  30.575  14.790  1.00  0.00    -0.270 N
ATOM     13  H6  UNL     1      62.573  31.016  15.564  1.00  0.00     0.189 HD
BRANCH  12  14
HETATM   14  C4  UNL     1      63.357  31.339  13.643  1.00  0.00     0.146 C
HETATM   15  N7  UNL     1      62.684  32.394  13.383  1.00  0.00    -0.277 N
HETATM   16  C5  UNL     1      61.641  32.866  14.186  1.00  0.00     0.183 C
ATOM     17  H7  UNL     1      62.921  32.921  12.543  1.00  0.00     0.179 HD
HETATM   18  N8  UNL     1      60.782  33.275  14.865  1.00  0.00    -0.172 NA
BRANCH  14  19
HETATM   19  C6  UNL     1      64.421  30.931  12.743  1.00  0.00     0.097 A
HETATM   20  C7  UNL     1      64.825  29.636  12.505  1.00  0.00     0.141 A
HETATM   21  N9  UNL     1      65.854  29.620  11.599  1.00  0.00    -0.227 N
HETATM   22  C8  UNL     1      66.514  28.446  11.153  1.00  0.00     0.276 C
HETATM   23  N10 UNL     1      66.063  30.883  11.301  1.00  0.00    -0.256 N
HETATM   24  O1  UNL     1      66.191  27.305  11.591  1.00  0.00    -0.265 OA
HETATM   25  C15 UNL     1      65.236  31.712  11.955  1.00  0.00     0.275 A
ATOM     26  H10 UNL     1      66.777  31.199  10.644  1.00  0.00     0.191 HD
HETATM   27  O2  UNL     1      65.179  32.977  11.891  1.00  0.00    -0.266 OA
BRANCH  22  28
HETATM   28  C9  UNL     1      67.581  28.499  10.182  1.00  0.00     0.034 A
HETATM   29  C10 UNL     1      67.616  29.358   9.110  1.00  0.00     0.019 A
HETATM   30  C11 UNL     1      68.690  29.361   8.225  1.00  0.00     0.025 A
HETATM   31  C12 UNL     1      69.753  28.517   8.380  1.00  0.00     0.034 A
HETATM   32 CL1  UNL     1      71.133  28.480   7.295  1.00  0.00    -0.084 Cl
HETATM   33  C13 UNL     1      69.736  27.646   9.451  1.00  0.00     0.025 A
HETATM   34  C14 UNL     1      68.683  27.647  10.313  1.00  0.00     0.019 A
ENDBRANCH  22  28
ENDBRANCH  14  19
ENDBRANCH  12  14
ENDBRANCH  10  12
TORSDOF 4
ENDMDL