MODEL 1
REMARK VINA RESULT: -10.808961801      0.000      0.000
REMARK  3 active torsions:
REMARK  status: ('A' for Active; 'I' for Inactive)
REMARK    1  A    between atoms: C5_9  and  N3_10
REMARK    2  A    between atoms: N3_10  and  C6_12
REMARK    3  A    between atoms: C8_14  and  C9_15
ROOT
HETATM    1  N3  UNL     1      66.011  28.426  10.624  1.00  0.00    -0.189 N
ATOM      2  H3  UNL     1      65.235  27.793  10.436  1.00  0.00     0.184 HD
ENDROOT
BRANCH   1   3
HETATM    3  C5  UNL     1      65.787  29.647  10.931  1.00  0.00     0.687 A
HETATM    4  N2  UNL     1      66.089  30.704  10.165  1.00  0.00    -0.173 N
HETATM    5  C4  UNL     1      65.709  31.848  10.808  1.00  0.00     0.160 A
ATOM      6  H2  UNL     1      66.533  30.661   9.248  1.00  0.00     0.186 HD
HETATM    7  C3  UNL     1      65.159  31.412  12.005  1.00  0.00     0.164 A
HETATM    8  N7  UNL     1      65.778  33.154  10.494  1.00  0.00    -0.287 N
HETATM    9  C2  UNL     1      64.677  32.362  12.885  1.00  0.00     0.282 A
HETATM   10  N6  UNL     1      65.217  30.060  12.063  1.00  0.00    -0.178 N
HETATM   11  N1  UNL     1      64.757  33.660  12.550  1.00  0.00    -0.269 N
HETATM   12  O1  UNL     1      64.170  32.004  13.985  1.00  0.00    -0.265 OA
HETATM   13  C1  UNL     1      64.237  34.628  13.504  1.00  0.00     0.164 C
HETATM   14  C16 UNL     1      65.302  34.032  11.368  1.00  0.00     0.332 A
HETATM   15  O5  UNL     1      65.359  35.271  11.090  1.00  0.00    -0.246 OA
HETATM   16  C14 UNL     1      64.717  29.314  13.197  1.00  0.00     0.176 C
HETATM   17  C15 UNL     1      66.370  33.506   9.217  1.00  0.00     0.163 C
ENDBRANCH   1   3
BRANCH   1  18
HETATM   18  C6  UNL     1      67.350  27.961  10.546  1.00  0.00     0.079 A
HETATM   19  C7  UNL     1      68.191  28.303   9.508  1.00  0.00     0.054 A
HETATM   20  C8  UNL     1      69.481  27.815   9.496  1.00  0.00     0.084 A
HETATM   21  C10 UNL     1      69.914  27.003  10.505  1.00  0.00     0.162 A
HETATM   22  F1  UNL     1      71.196  26.548  10.447  1.00  0.00    -0.203 F
HETATM   23  C11 UNL     1      69.100  26.634  11.569  1.00  0.00     0.105 A
HETATM   24  N4  UNL     1      69.287  25.865  12.657  1.00  0.00    -0.304 N
HETATM   25  C13 UNL     1      67.797  27.138  11.564  1.00  0.00     0.094 A
HETATM   26  C12 UNL     1      68.129  25.873  13.340  1.00  0.00     0.325 A
ATOM     27  H4  UNL     1      70.142  25.372  12.915  1.00  0.00     0.171 HD
HETATM   28  O4  UNL     1      67.891  25.273  14.420  1.00  0.00    -0.247 OA
HETATM   29  N5  UNL     1      67.234  26.639  12.683  1.00  0.00    -0.304 N
ATOM     30  H5  UNL     1      66.275  26.813  12.985  1.00  0.00     0.171 HD
BRANCH  20  31
HETATM   31  C9  UNL     1      70.384  28.171   8.398  1.00  0.00     0.212 C
HETATM   32  O2  UNL     1      69.918  28.459   7.269  1.00  0.00    -0.644 OA
HETATM   33  O3  UNL     1      71.751  28.195   8.585  1.00  0.00    -0.644 OA
ENDBRANCH  20  31
ENDBRANCH   1  18
TORSDOF 3
ENDMDL