MODEL 1
REMARK VINA RESULT: -8.491985920      0.000      0.000
REMARK  5 active torsions:
REMARK  status: ('A' for Active; 'I' for Inactive)
REMARK    1  A    between atoms: O1_2  and  C2_3
REMARK    2  A    between atoms: C2_3  and  C3_5
REMARK    3  A    between atoms: N1_10  and  C7_11
REMARK    4  A    between atoms: C7_11  and  C8_12
REMARK    5  A    between atoms: N2_13  and  C9_15
ROOT
HETATM    1  C3  UNL     1      67.455  27.799  11.089  1.00  0.00     0.103 C
HETATM    2  C4  UNL     1      66.314  28.045  12.067  1.00  0.00     0.025 C
HETATM    3  C5  UNL     1      66.821  28.840  13.248  1.00  0.00     0.105 C
HETATM    4  C6  UNL     1      65.908  28.676  14.391  1.00  0.00     0.235 C
HETATM    5  O3  UNL     1      66.104  27.692  15.177  1.00  0.00    -0.272 OA
HETATM    6  N1  UNL     1      64.824  29.524  14.690  1.00  0.00    -0.260 N
HETATM    7  N4  UNL     1      64.211  30.254  13.651  1.00  0.00    -0.134 NA
HETATM    8  C10 UNL     1      64.599  31.627  13.816  1.00  0.00     0.161 C
HETATM    9  C11 UNL     1      64.314  32.376  12.531  1.00  0.00     0.185 C
HETATM   10  O4  UNL     1      65.311  32.051  11.628  1.00  0.00    -0.388 OA
HETATM   11  C12 UNL     1      64.939  32.305  10.305  1.00  0.00     0.195 C
HETATM   12  C13 UNL     1      66.234  32.571   9.538  1.00  0.00     0.258 C
HETATM   13  N5  UNL     1      67.061  31.396   9.713  1.00  0.00    -0.072 N
ATOM     14  H51 UNL     1      66.890  30.952  10.616  1.00  0.00     0.277 HD
ATOM     15  H52 UNL     1      68.041  31.648   9.843  1.00  0.00     0.277 HD
HETATM   16  C14 UNL     1      66.896  30.447   8.613  1.00  0.00     0.251 C
HETATM   17  C15 UNL     1      68.053  29.496   8.632  1.00  0.00     0.141 C
HETATM   18  N6  UNL     1      67.719  28.125   8.681  1.00  0.00    -0.419 N
ATOM     19  H6  UNL     1      68.109  27.460   8.013  1.00  0.00     0.153 HD
HETATM   20  C16 UNL     1      66.824  27.709   9.693  1.00  0.00     0.128 C
ENDROOT
BRANCH   6  21
HETATM   21  C7  UNL     1      64.296  29.689  16.040  1.00  0.00     0.192 C
BRANCH  21  22
HETATM   22  C8  UNL     1      62.958  29.095  16.184  1.00  0.00     0.086 C
HETATM   23  N2  UNL     1      62.199  29.469  17.138  1.00  0.00    -0.331 N
ATOM     24  H2  UNL     1      62.563  30.181  17.771  1.00  0.00     0.168 HD
BRANCH  23  25
HETATM   25  C9  UNL     1      60.906  28.988  17.392  1.00  0.00     0.259 C
HETATM   26  N3  UNL     1      59.849  29.717  17.140  1.00  0.00    -0.361 N
ATOM     27  H32 UNL     1      59.953  30.654  16.751  1.00  0.00     0.160 HD
ATOM     28  H31 UNL     1      58.909  29.367  17.324  1.00  0.00     0.160 HD
HETATM   29  F1  UNL     1      60.767  27.745  17.907  1.00  0.00    -0.166 F
ENDBRANCH  23  25
ENDBRANCH  21  22
ENDBRANCH   6  21
BRANCH   1  30
HETATM   30  C2  UNL     1      68.118  26.514  11.420  1.00  0.00     0.264 C
HETATM   31  O2  UNL     1      67.928  25.508  10.691  1.00  0.00    -0.265 OA
BRANCH  30  32
HETATM   32  O1  UNL     1      68.955  26.366  12.514  1.00  0.00    -0.326 OA
HETATM   33  C1  UNL     1      68.613  25.589  13.643  1.00  0.00     0.213 C
ENDBRANCH  30  32
ENDBRANCH   1  30
TORSDOF 5
ENDMDL