MODEL 2
REMARK VINA RESULT: -8.333860331      1.287      2.312
REMARK  3 active torsions:
REMARK  status: ('A' for Active; 'I' for Inactive)
REMARK    1  A    between atoms: N1_2  and  C2_4
REMARK    2  A    between atoms: C7_12  and  C8_13
REMARK    3  A    between atoms: C9_16  and  N4_17
ROOT
HETATM    1  C8  UNL     1      64.741  33.322  11.434  1.00  0.00     0.151 A
HETATM    2  N3  UNL     1      63.527  33.785  10.997  1.00  0.00    -0.172 N
ATOM      3  H3  UNL     1      63.087  33.519  10.116  1.00  0.00     0.186 HD
HETATM    4  C9  UNL     1      62.999  34.640  11.889  1.00  0.00     0.706 A
HETATM    5  N8  UNL     1      63.892  34.711  12.891  1.00  0.00    -0.126 N
HETATM    6  C16 UNL     1      63.748  35.523  14.091  1.00  0.00     0.197 C
HETATM    7  N9  UNL     1      64.918  33.926  12.610  1.00  0.00    -0.268 N
ATOM      8  H9  UNL     1      65.735  33.800  13.210  1.00  0.00     0.189 HD
ENDROOT
BRANCH   4   9
HETATM    9  N4  UNL     1      61.738  35.306  11.739  1.00  0.00    -0.127 N
HETATM   10  C10 UNL     1      60.514  34.810  12.318  1.00  0.00     0.224 C
HETATM   11  C11 UNL     1      59.520  35.947  12.381  1.00  0.00     0.318 C
HETATM   12  C12 UNL     1      59.257  36.369  10.932  1.00  0.00     0.196 C
HETATM   13  N6  UNL     1      60.149  37.040  13.059  1.00  0.00    -0.035 N
HETATM   14  N7  UNL     1      58.311  35.592  13.053  1.00  0.00    -0.035 N
HETATM   15  N5  UNL     1      60.460  37.047  10.512  1.00  0.00    -0.338 N
HETATM   16  C13 UNL     1      61.701  36.528  10.965  1.00  0.00     0.337 C
ATOM     17  H5  UNL     1      60.419  37.871   9.911  1.00  0.00     0.164 HD
HETATM   18  O1  UNL     1      62.798  37.086  10.724  1.00  0.00    -0.246 OA
HETATM   19  C14 UNL     1      59.796  36.831  14.435  1.00  0.00     0.263 C
ATOM     20  H62 UNL     1      61.152  37.121  12.887  1.00  0.00     0.280 HD
ATOM     21  H61 UNL     1      59.903  37.960  12.694  1.00  0.00     0.280 HD
HETATM   22  C15 UNL     1      58.546  35.986  14.424  1.00  0.00     0.263 C
ATOM     23  H72 UNL     1      57.468  35.991  12.639  1.00  0.00     0.280 HD
ATOM     24  H71 UNL     1      58.037  34.616  12.937  1.00  0.00     0.280 HD
ENDBRANCH   4   9
BRANCH   1  25
HETATM   25  C7  UNL     1      65.516  32.407  10.650  1.00  0.00     0.075 A
HETATM   26  C2  UNL     1      66.418  32.786   9.718  1.00  0.00     0.046 A
HETATM   27  C3  UNL     1      67.155  31.782   9.023  1.00  0.00     0.054 A
HETATM   28  C4  UNL     1      66.927  30.475   9.318  1.00  0.00     0.008 A
HETATM   29  C5  UNL     1      67.688  29.383   8.606  1.00  0.00     0.068 C
HETATM   30  N2  UNL     1      66.032  30.098  10.241  1.00  0.00    -0.350 N
HETATM   31  C6  UNL     1      65.346  31.045  10.889  1.00  0.00     0.120 A
ATOM     32  H2  UNL     1      65.877  29.111  10.445  1.00  0.00     0.166 HD
HETATM   33 CL1  UNL     1      64.190  30.535  12.084  1.00  0.00    -0.063 Cl
BRANCH  26  34
HETATM   34  N1  UNL     1      66.678  33.942   9.378  1.00  0.00    -0.393 N
HETATM   35  C1  UNL     1      66.100  34.959   8.637  1.00  0.00     0.146 C
ATOM     36  H1  UNL     1      67.581  34.235   9.752  1.00  0.00     0.159 HD
ENDBRANCH  26  34
ENDBRANCH   1  25
TORSDOF 3
ENDMDL