MODEL 1
REMARK VINA RESULT: -8.018709700      0.000      0.000
REMARK  2 active torsions:
REMARK  status: ('A' for Active; 'I' for Inactive)
REMARK       I    between atoms: N1_2  and  C2_4
REMARK    1  A    between atoms: C2_4  and  C3_6
REMARK    2  A    between atoms: C4_9  and  N3_10
ROOT
HETATM    1  C3  UNL     1      64.863  29.594  13.945  1.00  0.00     0.153 C
HETATM    2  N2  UNL     1      64.768  30.774  13.272  1.00  0.00    -0.332 N
ATOM      3  H2  UNL     1      64.349  31.534  13.808  1.00  0.00     0.168 HD
HETATM    4  C4  UNL     1      65.132  31.108  12.020  1.00  0.00     0.146 C
HETATM    5  C9  UNL     1      65.726  30.274  11.100  1.00  0.00     0.187 C
HETATM    6  F1  UNL     1      66.033  30.873   9.932  1.00  0.00    -0.200 F
HETATM    7  C10 UNL     1      66.053  28.915  11.194  1.00  0.00     0.089 C
HETATM    8  C11 UNL     1      65.847  28.061  12.261  1.00  0.00     0.051 C
HETATM    9  C12 UNL     1      65.260  28.359  13.474  1.00  0.00     0.214 C
HETATM   10  O2  UNL     1      65.049  27.404  14.273  1.00  0.00    -0.285 OA
HETATM   11  C13 UNL     1      66.362  26.708  11.919  1.00  0.00     0.182 C
HETATM   12  N5  UNL     1      67.336  26.340  12.945  1.00  0.00    -0.380 N
ATOM     13  H5  UNL     1      67.122  25.868  13.824  1.00  0.00     0.160 HD
HETATM   14  C14 UNL     1      68.649  26.752  12.512  1.00  0.00     0.002 C
HETATM   15  C15 UNL     1      69.854  26.728  13.407  1.00  0.00     0.067 C
HETATM   16  C16 UNL     1      68.614  27.137  11.251  1.00  0.00     0.061 C
HETATM   17  C17 UNL     1      67.256  27.004  10.756  1.00  0.00     0.248 C
HETATM   18  N6  UNL     1      67.022  26.368   9.507  1.00  0.00    -0.026 N
ATOM     19  H61 UNL     1      66.178  25.821   9.333  1.00  0.00     0.282 HD
ATOM     20  H62 UNL     1      67.564  25.558   9.207  1.00  0.00     0.282 HD
HETATM   21  C18 UNL     1      67.220  27.707   8.906  1.00  0.00     0.363 C
HETATM   22  N7  UNL     1      66.676  28.216  10.134  1.00  0.00    -0.315 N
ENDROOT
BRANCH   4  23
HETATM   23  N3  UNL     1      64.858  32.453  11.666  1.00  0.00    -0.361 N
HETATM   24  C5  UNL     1      65.861  33.442  11.381  1.00  0.00     0.152 C
HETATM   25  C6  UNL     1      65.384  34.215  10.153  1.00  0.00     0.252 C
HETATM   26  N4  UNL     1      64.215  34.986  10.522  1.00  0.00    -0.072 N
HETATM   27  C7  UNL     1      63.477  34.413  11.614  1.00  0.00     0.252 C
ATOM     28  H42 UNL     1      64.469  35.953  10.725  1.00  0.00     0.277 HD
ATOM     29  H41 UNL     1      63.611  35.136   9.715  1.00  0.00     0.277 HD
HETATM   30  C8  UNL     1      63.458  32.894  11.573  1.00  0.00     0.152 C
ENDBRANCH   4  23
BRANCH   1  31
HETATM   31  C2  UNL     1      64.496  29.628  15.359  1.00  0.00     0.272 C
HETATM   32  N1  UNL     1      63.273  29.109  15.828  1.00  0.00    -0.360 N
HETATM   33  C1  UNL     1      62.940  29.155  17.220  1.00  0.00     0.149 C
ATOM     34  H1  UNL     1      62.616  28.695  15.167  1.00  0.00     0.162 HD
HETATM   35  O1  UNL     1      65.291  30.136  16.187  1.00  0.00    -0.266 OA
ENDBRANCH   1  31
TORSDOF 2
ENDMDL