MODEL 3
REMARK VINA RESULT: -6.962497279      1.117      1.233
REMARK  3 active torsions:
REMARK  status: ('A' for Active; 'I' for Inactive)
REMARK    1  A    between atoms: C4_11  and  C6_13
REMARK    2  A    between atoms: C6_13  and  N3_14
REMARK    3  A    between atoms: C10_25  and  N7_26
ROOT
HETATM    1  N3  UNL     1      63.316  33.586  13.565  1.00  0.00     0.112 N
HETATM    2  C7  UNL     1      64.531  34.426  13.331  1.00  0.00     0.397 C
HETATM    3  N4  UNL     1      64.838  34.460  11.917  1.00  0.00    -0.350 N
ATOM      4  H4  UNL     1      64.877  35.323  11.375  1.00  0.00     0.162 HD
HETATM    5  C8  UNL     1      65.080  33.171  11.353  1.00  0.00     0.116 A
HETATM    6  N5  UNL     1      65.900  32.989  10.294  1.00  0.00    -0.318 N
ATOM      7  H5  UNL     1      66.359  33.796   9.871  1.00  0.00     0.170 HD
HETATM    8  C9  UNL     1      66.121  31.766   9.790  1.00  0.00     0.182 A
HETATM    9 CL1  UNL     1      67.184  31.510   8.441  1.00  0.00    -0.045 Cl
HETATM   10  N6  UNL     1      65.513  30.715  10.353  1.00  0.00    -0.319 N
ATOM     11  H6  UNL     1      65.683  29.785   9.968  1.00  0.00     0.170 HD
HETATM   12  C10 UNL     1      64.673  30.838  11.425  1.00  0.00     0.112 A
HETATM   13  C11 UNL     1      64.456  32.113  11.936  1.00  0.00     0.058 A
HETATM   14  C12 UNL     1      63.556  32.264  13.089  1.00  0.00     0.321 C
ENDROOT
BRANCH   1  15
HETATM   15  C6  UNL     1      62.265  34.330  12.968  1.00  0.00     0.311 C
BRANCH  15  16
HETATM   16  C4  UNL     1      61.002  34.520  13.716  1.00  0.00     0.186 C
HETATM   17  S1  UNL     1      59.780  35.010  12.482  1.00  0.00     0.252 S
HETATM   18  N2  UNL     1      60.388  36.457  11.790  1.00  0.00    -0.249 N
HETATM   19  O2  UNL     1      58.433  35.217  13.111  1.00  0.00    -0.204 OA
HETATM   20  O3  UNL     1      59.758  33.869  11.472  1.00  0.00    -0.204 OA
HETATM   21  C3  UNL     1      60.860  37.593  12.473  1.00  0.00     0.270 C
ATOM     22  H2  UNL     1      60.411  36.498  10.771  1.00  0.00     0.182 HD
HETATM   23  C2  UNL     1      60.706  37.933  13.876  1.00  0.00     0.168 C
HETATM   24  O1  UNL     1      61.496  38.413  11.766  1.00  0.00    -0.266 OA
HETATM   25  N1  UNL     1      60.891  36.934  14.848  1.00  0.00    -0.326 N
HETATM   26  C1  UNL     1      60.750  37.434  16.229  1.00  0.00     0.159 C
HETATM   27  C13 UNL     1      61.178  35.573  14.750  1.00  0.00     0.250 C
HETATM   28  O4  UNL     1      61.734  35.095  15.799  1.00  0.00    -0.271 OA
HETATM   29  C5  UNL     1      60.400  33.341  14.416  1.00  0.00     0.046 C
ENDBRANCH  15  16
ENDBRANCH   1  15
BRANCH  12  30
HETATM   30  N7  UNL     1      64.102  29.832  11.948  1.00  0.00    -0.385 N
ATOM     31  H72 UNL     1      64.589  29.266  12.642  1.00  0.00     0.157 HD
ATOM     32  H71 UNL     1      63.151  29.563  11.697  1.00  0.00     0.157 HD
ENDBRANCH  12  30
TORSDOF 3
ENDMDL