MODEL 3
REMARK VINA RESULT: -10.003353259      2.882      5.736
REMARK  6 active torsions:
REMARK  status: ('A' for Active; 'I' for Inactive)
REMARK    1  A    between atoms: C4_5  and  C5_6
REMARK       I    between atoms: C5_6  and  N2_8
REMARK    2  A    between atoms: N2_8  and  C6_10
REMARK    3  A    between atoms: C7_16  and  N5_17
REMARK    4  A    between atoms: N5_17  and  N6_19
REMARK       I    between atoms: N6_19  and  C8_21
REMARK    5  A    between atoms: C8_21  and  C9_23
REMARK    6  A    between atoms: C13_29  and  O6_30
ROOT
HETATM    1  N1  UNL     1      66.865  29.248   8.887  1.00  0.00    -0.191 NA
HETATM    2  C1  UNL     1      67.206  28.569   9.765  1.00  0.00     0.102 C
HETATM    3  C2  UNL     1      67.621  27.743  10.865  1.00  0.00     0.084 A
HETATM    4  C3  UNL     1      66.815  27.509  11.956  1.00  0.00     0.045 A
HETATM    5  C4  UNL     1      67.212  26.702  13.035  1.00  0.00     0.067 A
HETATM    6  C13 UNL     1      68.454  26.146  12.967  1.00  0.00     0.084 A
HETATM    7  C14 UNL     1      69.289  26.382  11.848  1.00  0.00     0.081 A
HETATM    8  C15 UNL     1      68.882  27.166  10.817  1.00  0.00     0.139 A
HETATM    9  F1  UNL     1      69.663  27.415   9.721  1.00  0.00    -0.204 F
ENDROOT
BRANCH   5  10
HETATM   10  C5  UNL     1      66.274  26.535  14.120  1.00  0.00     0.260 C
HETATM   11  O1  UNL     1      66.425  25.716  15.028  1.00  0.00    -0.267 OA
HETATM   12  N2  UNL     1      65.080  27.332  14.210  1.00  0.00    -0.304 N
ATOM     13  H2  UNL     1      64.186  27.005  13.845  1.00  0.00     0.171 HD
BRANCH  12  14
HETATM   14  C6  UNL     1      65.205  28.484  14.777  1.00  0.00     0.178 A
HETATM   15  N3  UNL     1      65.676  28.788  16.008  1.00  0.00    -0.222 N
HETATM   16  O2  UNL     1      65.620  30.068  16.162  1.00  0.00    -0.153 OA
ATOM     17  H3  UNL     1      66.018  28.118  16.697  1.00  0.00     0.198 HD
HETATM   18  N4  UNL     1      65.142  30.653  15.117  1.00  0.00    -0.221 N
HETATM   19  C7  UNL     1      64.860  29.702  14.206  1.00  0.00     0.189 A
ATOM     20  H4  UNL     1      65.003  31.657  15.002  1.00  0.00     0.198 HD
BRANCH  19  21
HETATM   21  N5  UNL     1      64.372  29.808  13.024  1.00  0.00    -0.278 N
ATOM     22  H5  UNL     1      63.565  29.236  12.774  1.00  0.00     0.189 HD
BRANCH  21  23
HETATM   23  N6  UNL     1      64.902  30.676  12.070  1.00  0.00    -0.262 N
HETATM   24  C8  UNL     1      64.637  32.060  12.038  1.00  0.00     0.295 C
HETATM   25  O3  UNL     1      63.899  32.627  12.872  1.00  0.00    -0.264 OA
ATOM     26  H6  UNL     1      65.516  30.287  11.354  1.00  0.00     0.190 HD
BRANCH  24  27
HETATM   27  C9  UNL     1      65.237  32.910  10.995  1.00  0.00     0.160 C
HETATM   28  C10 UNL     1      65.379  34.208  11.162  1.00  0.00     0.177 C
HETATM   29  O4  UNL     1      65.940  34.996  10.184  1.00  0.00    -0.358 OA
HETATM   30  C11 UNL     1      66.044  34.495   8.869  1.00  0.00     0.201 C
HETATM   31  C12 UNL     1      66.603  33.074   9.013  1.00  0.00     0.202 C
HETATM   32  O5  UNL     1      65.673  32.356   9.796  1.00  0.00    -0.342 OA
ENDBRANCH  24  27
ENDBRANCH  21  23
ENDBRANCH  19  21
ENDBRANCH  12  14
ENDBRANCH   5  10
BRANCH   6  33
HETATM   33  O6  UNL     1      68.951  25.347  13.949  1.00  0.00    -0.360 OA
ATOM     34  H6  UNL     1      69.821  24.969  13.906  1.00  0.00     0.217 HD
ENDBRANCH   6  33
TORSDOF 6
ENDMDL