MODEL 3
REMARK VINA RESULT: -9.409817069      4.956      7.927
REMARK  4 active torsions:
REMARK  status: ('A' for Active; 'I' for Inactive)
REMARK    1  A    between atoms: C4_8  and  N4_9
REMARK    2  A    between atoms: N4_9  and  N5_11
REMARK    3  A    between atoms: N5_11  and  C5_13
REMARK    4  A    between atoms: N8_24  and  N9_26
ROOT
HETATM    1  N1  UNL     1      63.939  35.449  13.296  1.00  0.00    -0.191 NA
HETATM    2  C1  UNL     1      63.923  34.275  13.218  1.00  0.00     0.107 C
HETATM    3  C2  UNL     1      63.933  32.862  13.099  1.00  0.00     0.132 A
HETATM    4  C3  UNL     1      64.845  32.310  12.194  1.00  0.00     0.156 A
HETATM    5  N2  UNL     1      65.707  33.160  11.446  1.00  0.00    -0.080 NA
HETATM    6  N3  UNL     1      64.900  30.963  12.035  1.00  0.00    -0.176 N
ATOM      7  H3  UNL     1      65.564  30.558  11.375  1.00  0.00     0.185 HD
HETATM    8  C4  UNL     1      64.088  30.162  12.742  1.00  0.00     0.699 A
HETATM    9  N7  UNL     1      63.216  30.690  13.607  1.00  0.00    -0.172 N
ATOM     10  H7  UNL     1      62.607  30.064  14.134  1.00  0.00     0.186 HD
HETATM   11  C10 UNL     1      63.111  32.052  13.814  1.00  0.00     0.160 A
HETATM   12  N8  UNL     1      62.268  32.486  14.645  1.00  0.00    -0.283 N
ATOM     13  H8  UNL     1      61.694  31.798  15.134  1.00  0.00     0.188 HD
ENDROOT
BRANCH  12  14
HETATM   14  N9  UNL     1      62.060  33.800  14.944  1.00  0.00    -0.289 N
HETATM   15  C11 UNL     1      60.969  34.378  15.234  1.00  0.00     0.131 C
HETATM   16  S1  UNL     1      60.765  36.109  15.617  1.00  0.00    -0.107 SA
HETATM   17  C14 UNL     1      59.640  33.810  15.331  1.00  0.00     0.184 C
HETATM   18  C12 UNL     1      58.952  36.054  15.947  1.00  0.00     0.089 C
HETATM   19  C13 UNL     1      58.788  34.582  16.272  1.00  0.00     0.097 C
HETATM   20  O1  UNL     1      59.259  32.771  14.683  1.00  0.00    -0.290 OA
ATOM     21  H9  UNL     1      62.889  34.395  14.932  1.00  0.00     0.188 HD
ENDBRANCH  12  14
BRANCH   8  22
HETATM   22  N4  UNL     1      64.136  28.863  12.592  1.00  0.00    -0.130 N
ATOM     23  H4  UNL     1      63.392  28.384  12.085  1.00  0.00     0.205 HD
BRANCH  22  24
HETATM   24  N5  UNL     1      65.206  28.123  13.124  1.00  0.00    -0.271 N
ATOM     25  H5  UNL     1      65.140  27.773  14.080  1.00  0.00     0.189 HD
BRANCH  24  26
HETATM   26  C5  UNL     1      66.271  27.872  12.434  1.00  0.00     0.120 A
HETATM   27  C6  UNL     1      67.268  27.153  13.049  1.00  0.00     0.051 A
HETATM   28  C7  UNL     1      68.414  26.863  12.362  1.00  0.00     0.029 A
HETATM   29  C8  UNL     1      68.557  27.288  11.075  1.00  0.00     0.049 A
HETATM   30 CL1  UNL     1      70.029  26.923  10.176  1.00  0.00    -0.083 Cl
HETATM   31  C9  UNL     1      67.557  28.008  10.464  1.00  0.00     0.113 A
HETATM   32  N6  UNL     1      66.445  28.270  11.178  1.00  0.00    -0.350 N
ATOM     33  H6  UNL     1      65.698  28.802  10.731  1.00  0.00     0.166 HD
ENDBRANCH  24  26
ENDBRANCH  22  24
ENDBRANCH   8  22
TORSDOF 4
ENDMDL