MODEL 2
REMARK VINA RESULT: -7.751947476      3.450      5.372
REMARK  3 active torsions:
REMARK  status: ('A' for Active; 'I' for Inactive)
REMARK    1  A    between atoms: C2_3  and  N2_4
REMARK       I    between atoms: N2_4  and  C3_6
REMARK    2  A    between atoms: C3_6  and  C4_8
REMARK    3  A    between atoms: C11_17  and  O2_18
ROOT
HETATM    1  N1  UNL     1      62.683  26.999  17.813  1.00  0.00    -0.196 NA
HETATM    2  C1  UNL     1      62.673  27.958  17.159  1.00  0.00     0.078 C
HETATM    3  C2  UNL     1      62.647  29.174  16.355  1.00  0.00     0.247 C
ENDROOT
BRANCH   3   4
HETATM    4  N2  UNL     1      63.966  29.543  15.909  1.00  0.00    -0.348 N
HETATM    5  C3  UNL     1      64.291  29.466  14.537  1.00  0.00     0.227 C
HETATM    6  O1  UNL     1      63.379  29.063  13.745  1.00  0.00    -0.273 OA
ATOM      7  H2  UNL     1      64.665  29.858  16.582  1.00  0.00     0.163 HD
BRANCH   5   8
HETATM    8  C4  UNL     1      65.617  29.824  13.994  1.00  0.00     0.123 C
HETATM    9  C5  UNL     1      66.480  28.673  13.732  1.00  0.00     0.099 C
HETATM   10  S1  UNL     1      66.023  28.241  12.014  1.00  0.00    -0.121 SA
HETATM   11  C6  UNL     1      65.613  29.940  11.624  1.00  0.00     0.051 A
HETATM   12  S2  UNL     1      65.364  31.032  10.380  1.00  0.00    -0.065 SA
HETATM   13  C9  UNL     1      65.434  30.680  12.758  1.00  0.00    -0.011 A
HETATM   14  C7  UNL     1      65.028  32.450  11.292  1.00  0.00     0.081 A
HETATM   15  C8  UNL     1      65.126  31.999  12.581  1.00  0.00    -0.011 A
HETATM   16  N5  UNL     1      64.716  33.813  10.961  1.00  0.00    -0.337 N
HETATM   17  C10 UNL     1      64.852  33.105  13.610  1.00  0.00     0.109 C
HETATM   18  C11 UNL     1      63.703  33.938  13.102  1.00  0.00     0.205 C
HETATM   19  N3  UNL     1      62.535  33.148  12.817  1.00  0.00    -0.306 N
HETATM   20  C14 UNL     1      64.090  34.723  11.883  1.00  0.00     0.308 C
HETATM   21  C12 UNL     1      61.370  33.810  12.353  1.00  0.00     0.325 C
ATOM     22  H3  UNL     1      62.545  32.136  12.946  1.00  0.00     0.167 HD
HETATM   23  O3  UNL     1      60.211  33.416  12.585  1.00  0.00    -0.247 OA
HETATM   24  N4  UNL     1      61.566  35.000  11.572  1.00  0.00    -0.275 N
HETATM   25  C13 UNL     1      62.912  35.410  11.333  1.00  0.00     0.292 C
ATOM     26  H4  UNL     1      60.777  35.530  11.204  1.00  0.00     0.173 HD
HETATM   27  O4  UNL     1      63.097  36.422  10.606  1.00  0.00    -0.267 OA
HETATM   28  F1  UNL     1      65.069  35.621  12.291  1.00  0.00    -0.203 F
ATOM     29  H5  UNL     1      64.950  34.152  10.028  1.00  0.00     0.164 HD
BRANCH  18  30
HETATM   30  O2  UNL     1      63.380  34.844  14.110  1.00  0.00    -0.365 OA
ATOM     31  H2  UNL     1      64.198  35.143  14.488  1.00  0.00     0.212 HD
ENDBRANCH  18  30
ENDBRANCH   5   8
ENDBRANCH   3   4
TORSDOF 3
ENDMDL