MODEL 3
REMARK VINA RESULT: -8.059247923      1.893      2.768
REMARK  6 active torsions:
REMARK  status: ('A' for Active; 'I' for Inactive)
REMARK    1  A    between atoms: N1_2  and  C2_4
REMARK    2  A    between atoms: C4_9  and  O1_10
REMARK    3  A    between atoms: C6_12  and  N3_13
REMARK       I    between atoms: N3_13  and  C7_15
REMARK       I    between atoms: C7_15  and  N4_17
REMARK    4  A    between atoms: N4_17  and  C8_19
REMARK    5  A    between atoms: C9_24  and  C10_25
REMARK       I    between atoms: C10_25  and  N7_27
REMARK    6  A    between atoms: N7_27  and  N8_29
ROOT
HETATM    1  N3  UNL     1      66.046  29.514  12.993  1.00  0.00    -0.300 N
ATOM      2  H3  UNL     1      66.889  30.073  13.131  1.00  0.00     0.171 HD
HETATM    3  C7  UNL     1      66.198  28.549  12.055  1.00  0.00     0.327 C
HETATM    4  O2  UNL     1      66.138  27.310  12.377  1.00  0.00    -0.247 OA
HETATM    5  N4  UNL     1      66.433  28.866  10.676  1.00  0.00    -0.287 N
ATOM      6  H4  UNL     1      65.735  29.337  10.099  1.00  0.00     0.172 HD
ENDROOT
BRANCH   1   7
HETATM    7  C6  UNL     1      65.097  29.872  13.727  1.00  0.00     0.118 A
HETATM    8  C4  UNL     1      64.838  29.491  15.012  1.00  0.00     0.141 A
HETATM    9  C3  UNL     1      63.803  29.954  15.802  1.00  0.00     0.141 A
HETATM   10  N2  UNL     1      62.877  30.840  15.468  1.00  0.00    -0.325 N
HETATM   11 CL1  UNL     1      63.721  29.275  17.443  1.00  0.00    -0.061 Cl
HETATM   12  C2  UNL     1      62.763  31.464  14.288  1.00  0.00     0.147 A
ATOM     13  H2  UNL     1      62.182  31.069  16.178  1.00  0.00     0.169 HD
HETATM   14  S2  UNL     1      63.938  31.053  13.145  1.00  0.00    -0.033 SA
BRANCH   8  15
HETATM   15  O1  UNL     1      65.702  28.535  15.599  1.00  0.00    -0.350 OA
HETATM   16  C5  UNL     1      65.394  27.147  15.488  1.00  0.00     0.210 C
ENDBRANCH   8  15
BRANCH  12  17
HETATM   17  N1  UNL     1      61.802  32.329  14.061  1.00  0.00    -0.375 N
HETATM   18  C1  UNL     1      62.039  33.316  13.033  1.00  0.00     0.148 C
ATOM     19  H1  UNL     1      60.928  32.305  14.586  1.00  0.00     0.161 HD
ENDBRANCH  12  17
ENDBRANCH   1   7
BRANCH   5  20
HETATM   20  C8  UNL     1      67.601  28.512  10.208  1.00  0.00     0.169 A
HETATM   21  N5  UNL     1      68.377  27.475  10.523  1.00  0.00    -0.278 N
HETATM   22  N6  UNL     1      69.487  27.332   9.927  1.00  0.00    -0.287 N
ATOM     23  H5  UNL     1      68.082  26.805  11.234  1.00  0.00     0.189 HD
HETATM   24  C9  UNL     1      69.867  28.204   9.004  1.00  0.00     0.162 A
ATOM     25  H6  UNL     1      70.091  26.543  10.159  1.00  0.00     0.188 HD
HETATM   26  S1  UNL     1      68.546  29.287   8.999  1.00  0.00    -0.028 SA
BRANCH  24  27
HETATM   27  C10 UNL     1      71.102  28.227   8.198  1.00  0.00     0.294 C
HETATM   28  O3  UNL     1      72.155  27.965   8.786  1.00  0.00    -0.264 OA
HETATM   29  N7  UNL     1      70.995  28.543   6.823  1.00  0.00    -0.271 N
ATOM     30  H7  UNL     1      70.090  28.749   6.399  1.00  0.00     0.189 HD
BRANCH  29  31
HETATM   31  N8  UNL     1      72.167  28.564   6.063  1.00  0.00    -0.342 N
ATOM     32  H82 UNL     1      72.201  29.089   5.190  1.00  0.00     0.176 HD
ATOM     33  H81 UNL     1      72.971  28.042   6.412  1.00  0.00     0.176 HD
ENDBRANCH  29  31
ENDBRANCH  24  27
ENDBRANCH   5  20
TORSDOF 6
ENDMDL