MODEL 1
REMARK VINA RESULT: -9.767706880      0.000      0.000
REMARK  5 active torsions:
REMARK  status: ('A' for Active; 'I' for Inactive)
REMARK    1  A    between atoms: C2_2  and  O1_3
REMARK    2  A    between atoms: O1_3  and  C3_4
REMARK       I    between atoms: C3_4  and  N1_6
REMARK    3  A    between atoms: N1_6  and  C4_8
REMARK    4  A    between atoms: C8_17  and  N4_18
REMARK    5  A    between atoms: N4_18  and  C9_20
ROOT
HETATM    1  C9  UNL     1      15.016  10.406  14.971  1.00  0.00     0.245 C
HETATM    2  C10 UNL     1      15.142   9.690  16.245  1.00  0.00     0.078 C
HETATM    3  N5  UNL     1      15.249   9.120  17.248  1.00  0.00    -0.196 NA
ENDROOT
BRANCH   1   4
HETATM    4  N4  UNL     1      13.980   9.788  14.193  1.00  0.00    -0.362 N
ATOM      5  H4  UNL     1      13.163   9.451  14.704  1.00  0.00     0.162 HD
BRANCH   4   6
HETATM    6  C8  UNL     1      13.976   9.615  12.926  1.00  0.00     0.134 C
HETATM    7  C7  UNL     1      13.003  10.300  12.201  1.00  0.00     0.106 A
HETATM    8  N3  UNL     1      12.281  11.320  12.687  1.00  0.00    -0.347 N
HETATM    9  C13 UNL     1      12.606  10.077  10.901  1.00  0.00     0.096 A
HETATM   10  C6  UNL     1      11.429  11.747  11.710  1.00  0.00     0.102 A
ATOM     11  H3  UNL     1      12.355  11.710  13.626  1.00  0.00     0.166 HD
HETATM   12  C5  UNL     1      10.477  12.742  11.650  1.00  0.00     0.148 A
HETATM   13  C14 UNL     1      11.612  10.978  10.567  1.00  0.00     0.108 A
HETATM   14  N2  UNL     1       9.773  12.931  10.513  1.00  0.00    -0.178 N
HETATM   15 CL1  UNL     1      10.240  13.714  13.085  1.00  0.00    -0.061 Cl
HETATM   16  C4  UNL     1       9.950  12.187   9.405  1.00  0.00     0.688 A
ATOM     17  H2  UNL     1       9.073  13.673  10.493  1.00  0.00     0.185 HD
HETATM   18  N8  UNL     1      10.882  11.212   9.462  1.00  0.00    -0.187 N
ATOM     19  H8  UNL     1      11.039  10.631   8.638  1.00  0.00     0.184 HD
HETATM   20  N7  UNL     1      13.091   9.138  10.066  1.00  0.00    -0.315 N
HETATM   21  C12 UNL     1      13.953   8.116  10.310  1.00  0.00     0.314 C
ATOM     22  H7  UNL     1      12.761   9.204   9.103  1.00  0.00     0.169 HD
HETATM   23  C11 UNL     1      14.819   7.981  11.369  1.00  0.00     0.315 C
HETATM   24  O4  UNL     1      13.958   7.168   9.457  1.00  0.00    -0.262 OA
HETATM   25  N6  UNL     1      14.937   8.776  12.473  1.00  0.00    -0.303 N
HETATM   26  O3  UNL     1      15.598   7.001  11.306  1.00  0.00    -0.262 OA
ATOM     27  H6  UNL     1      15.813   8.734  12.994  1.00  0.00     0.171 HD
BRANCH  16  28
HETATM   28  N1  UNL     1       9.236  12.444   8.383  1.00  0.00    -0.135 N
HETATM   29  C3  UNL     1       8.219  11.636   7.855  1.00  0.00     0.379 C
HETATM   30  O2  UNL     1       7.198  11.422   8.559  1.00  0.00    -0.238 OA
ATOM     31  H1  UNL     1       9.421  13.325   7.902  1.00  0.00     0.189 HD
BRANCH  29  32
HETATM   32  O1  UNL     1       8.273  11.054   6.597  1.00  0.00    -0.304 OA
BRANCH  32  33
HETATM   33  C2  UNL     1       7.101  11.093   5.769  1.00  0.00     0.176 C
HETATM   34  C1  UNL     1       7.429  11.564   4.395  1.00  0.00     0.034 C
ENDBRANCH  32  33
ENDBRANCH  29  32
ENDBRANCH  16  28
ENDBRANCH   4   6
ENDBRANCH   1   4
TORSDOF 5
ENDMDL