MODEL 1
REMARK VINA RESULT: -8.774548214      0.000      0.000
REMARK  4 active torsions:
REMARK  status: ('A' for Active; 'I' for Inactive)
REMARK    1  A    between atoms: C1_2  and  C2_4
REMARK       I    between atoms: C2_4  and  N1_6
REMARK    2  A    between atoms: N1_6  and  C3_8
REMARK    3  A    between atoms: C4_11  and  C5_12
REMARK    4  A    between atoms: C8_19  and  C9_20
REMARK       I    between atoms: C9_20  and  N4_22
ROOT
HETATM    1  C3  UNL     1       8.232  12.263   8.879  1.00  0.00     0.152 A
HETATM    2  N2  UNL     1       9.198  11.423   8.545  1.00  0.00    -0.335 N
ATOM      3  H2  UNL     1       9.139  10.892   7.676  1.00  0.00     0.168 HD
HETATM    4  C4  UNL     1      10.243  11.275   9.347  1.00  0.00     0.090 A
HETATM    5  C8  UNL     1      10.268  12.010  10.492  1.00  0.00     0.103 A
HETATM    6  S2  UNL     1       8.760  12.889  10.357  1.00  0.00    -0.046 SA
ENDROOT
BRANCH   5   7
HETATM    7  C9  UNL     1      11.235  12.185  11.571  1.00  0.00     0.266 C
HETATM    8  O5  UNL     1      11.235  13.353  12.116  1.00  0.00    -0.267 OA
HETATM    9  N4  UNL     1      12.131  11.288  12.070  1.00  0.00    -0.301 N
HETATM   10  C10 UNL     1      12.737  11.246  13.205  1.00  0.00     0.169 A
ATOM     11  H4  UNL     1      12.361  10.522  11.437  1.00  0.00     0.171 HD
HETATM   12  N5  UNL     1      12.718  12.029  14.282  1.00  0.00    -0.278 N
HETATM   13  S1  UNL     1      13.866  10.032  13.701  1.00  0.00    -0.021 SA
HETATM   14  N6  UNL     1      13.446  11.726  15.280  1.00  0.00    -0.282 N
ATOM     15  H5  UNL     1      12.128  12.861  14.308  1.00  0.00     0.189 HD
HETATM   16  C11 UNL     1      14.210  10.649  15.255  1.00  0.00     0.163 A
ATOM     17  H6  UNL     1      13.439  12.320  16.109  1.00  0.00     0.188 HD
HETATM   18 CL1  UNL     1      15.288  10.048  16.520  1.00  0.00    -0.055 Cl
ENDBRANCH   5   7
BRANCH   4  19
HETATM   19  C5  UNL     1      11.284  10.238   8.949  1.00  0.00     0.373 C
HETATM   20  N3  UNL     1      10.592   9.061   8.395  1.00  0.00    -0.041 N
HETATM   21  C6  UNL     1      11.694   8.110   8.366  1.00  0.00     0.262 C
ATOM     22  H32 UNL     1       9.757   8.760   8.898  1.00  0.00     0.280 HD
ATOM     23  H31 UNL     1      10.106   9.207   7.510  1.00  0.00     0.280 HD
HETATM   24  C7  UNL     1      12.688   8.685   9.370  1.00  0.00     0.198 C
HETATM   25  O4  UNL     1      11.894   9.635  10.012  1.00  0.00    -0.353 OA
ENDBRANCH   4  19
BRANCH   1  26
HETATM   26  N1  UNL     1       7.128  12.526   8.194  1.00  0.00    -0.298 N
HETATM   27  C2  UNL     1       7.320  12.745   6.813  1.00  0.00     0.324 C
HETATM   28  O3  UNL     1       7.164  13.910   6.374  1.00  0.00    -0.260 OA
ATOM     29  H1  UNL     1       6.208  12.567   8.632  1.00  0.00     0.171 HD
BRANCH  27  30
HETATM   30  C1  UNL     1       7.689  11.680   5.883  1.00  0.00     0.270 C
HETATM   31  O1  UNL     1       8.212  11.939   4.768  1.00  0.00    -0.640 OA
HETATM   32  O2  UNL     1       7.483  10.341   6.180  1.00  0.00    -0.640 OA
ENDBRANCH  27  30
ENDBRANCH   1  26
TORSDOF 4
ENDMDL