MODEL 4
REMARK VINA RESULT: -9.099461901      2.774      3.991
REMARK  5 active torsions:
REMARK  status: ('A' for Active; 'I' for Inactive)
REMARK    1  A    between atoms: C2_2  and  N1_3
REMARK    2  A    between atoms: C2_2  and  C9_27
REMARK    3  A    between atoms: N1_3  and  C3_5
REMARK    4  A    between atoms: C5_12  and  N4_13
REMARK       I    between atoms: N4_13  and  C6_15
REMARK    5  A    between atoms: C6_15  and  C7_17
ROOT
HETATM    1  C3  UNL     1      11.939  11.287  11.542  1.00  0.00     0.695 A
HETATM    2  N2  UNL     1      11.864  11.901  12.735  1.00  0.00    -0.165 N
ATOM      3  H2  UNL     1      11.080  12.518  12.946  1.00  0.00     0.186 HD
HETATM    4  C4  UNL     1      12.827  11.699  13.644  1.00  0.00     0.208 A
HETATM    5 CL1  UNL     1      12.754  12.486  15.207  1.00  0.00    -0.044 Cl
HETATM    6  N3  UNL     1      13.850  10.900  13.383  1.00  0.00    -0.164 N
ATOM      7  H3  UNL     1      14.574  10.755  14.086  1.00  0.00     0.186 HD
HETATM    8  C5  UNL     1      13.936  10.288  12.209  1.00  0.00     0.702 A
HETATM    9  N7  UNL     1      12.974  10.477  11.269  1.00  0.00    -0.022 N
ATOM     10  H7  UNL     1      13.037  10.008  10.366  1.00  0.00     0.203 HD
ENDROOT
BRANCH   8  11
HETATM   11  N4  UNL     1      14.936   9.509  11.957  1.00  0.00    -0.153 N
HETATM   12  C6  UNL     1      14.744   8.299  11.262  1.00  0.00     0.295 C
HETATM   13  O1  UNL     1      14.605   8.237  10.015  1.00  0.00    -0.265 OA
ATOM     14  H4  UNL     1      15.873   9.773  12.264  1.00  0.00     0.187 HD
BRANCH  12  15
HETATM   15  C7  UNL     1      14.696   7.011  11.994  1.00  0.00     0.163 A
HETATM   16  N5  UNL     1      13.841   6.617  12.920  1.00  0.00    -0.286 N
HETATM   17  N6  UNL     1      13.951   5.465  13.448  1.00  0.00    -0.259 N
ATOM     18  H5  UNL     1      13.089   7.240  13.213  1.00  0.00     0.188 HD
HETATM   19  C8  UNL     1      14.947   4.669  13.044  1.00  0.00     0.304 A
ATOM     20  H6  UNL     1      13.294   5.155  14.163  1.00  0.00     0.191 HD
HETATM   21  O2  UNL     1      15.200   3.486  13.469  1.00  0.00    -0.258 OA
HETATM   22  S1  UNL     1      15.718   5.648  11.874  1.00  0.00    -0.003 SA
ENDBRANCH  12  15
ENDBRANCH   8  11
BRANCH   1  23
HETATM   23  N1  UNL     1      11.005  11.492  10.673  1.00  0.00    -0.220 N
ATOM     24  H1  UNL     1      10.600  10.680  10.207  1.00  0.00     0.178 HD
BRANCH  23  25
HETATM   25  C2  UNL     1      10.504  12.782  10.324  1.00  0.00     0.115 C
HETATM   26  C1  UNL     1      11.520  13.595   9.584  1.00  0.00     0.034 C
BRANCH  25  27
HETATM   27  C9  UNL     1       9.237  12.558   9.486  1.00  0.00     0.119 C
HETATM   28  C10 UNL     1       9.421  11.320   8.702  1.00  0.00     0.116 C
HETATM   29  C11 UNL     1       8.552  11.351   7.509  1.00  0.00     0.203 C
HETATM   30  O3  UNL     1       8.157  10.431   6.880  1.00  0.00    -0.284 OA
HETATM   31  S2  UNL     1       8.220  13.080   7.215  1.00  0.00     0.013 SA
HETATM   32  N8  UNL     1       9.134  13.707   8.623  1.00  0.00    -0.164 NA
ENDBRANCH  25  27
ENDBRANCH  23  25
ENDBRANCH   1  23
TORSDOF 5
ENDMDL