MODEL 3
REMARK VINA RESULT: -10.352982914      1.850      2.820
REMARK  3 active torsions:
REMARK  status: ('A' for Active; 'I' for Inactive)
REMARK    1  A    between atoms: N3_9  and  C5_11
REMARK    2  A    between atoms: C9_16  and  S1_17
REMARK    3  A    between atoms: S1_17  and  N4_18
ROOT
HETATM    1  N1  UNL     1      14.757   8.740  15.875  1.00  0.00    -0.388 N
ATOM      2  H11 UNL     1      15.081   7.793  15.678  1.00  0.00     0.157 HD
ATOM      3  H12 UNL     1      14.753   9.037  16.851  1.00  0.00     0.157 HD
HETATM    4  C1  UNL     1      14.368   9.518  14.955  1.00  0.00     0.089 C
HETATM    5  C2  UNL     1      13.902  10.879  15.237  1.00  0.00     0.097 C
HETATM    6  C3  UNL     1      12.835  11.376  14.318  1.00  0.00     0.157 C
HETATM    7  N2  UNL     1      12.927  10.891  12.983  1.00  0.00    -0.164 N
HETATM    8  C4  UNL     1      12.388  11.279  11.781  1.00  0.00     0.687 A
HETATM    9  N3  UNL     1      11.629  12.272  11.630  1.00  0.00    -0.191 N
ATOM     10  H3  UNL     1      11.416  12.807  12.472  1.00  0.00     0.184 HD
HETATM   11  N5  UNL     1      12.799  10.439  10.819  1.00  0.00    -0.182 N
ATOM     12  H5  UNL     1      12.544  10.502   9.833  1.00  0.00     0.184 HD
HETATM   13  C11 UNL     1      13.607   9.490  11.360  1.00  0.00     0.162 A
HETATM   14  C12 UNL     1      14.318   8.404  10.940  1.00  0.00     0.280 A
HETATM   15  O3  UNL     1      14.280   8.104   9.730  1.00  0.00    -0.265 OA
HETATM   16  N6  UNL     1      15.035   7.698  11.860  1.00  0.00    -0.273 N
ATOM     17  H6  UNL     1      15.566   6.885  11.549  1.00  0.00     0.173 HD
HETATM   18  C13 UNL     1      15.067   8.035  13.164  1.00  0.00     0.336 A
HETATM   19  O4  UNL     1      15.729   7.379  13.995  1.00  0.00    -0.246 OA
HETATM   20  N7  UNL     1      14.373   9.101  13.586  1.00  0.00    -0.235 N
HETATM   21  C14 UNL     1      13.659   9.810  12.703  1.00  0.00     0.168 A
ENDROOT
BRANCH   9  22
HETATM   22  C5  UNL     1      11.047  12.728  10.448  1.00  0.00     0.053 A
HETATM   23  C6  UNL     1      11.411  13.957   9.941  1.00  0.00     0.072 A
HETATM   24  C7  UNL     1      10.849  14.447   8.760  1.00  0.00     0.120 A
HETATM   25  F1  UNL     1      11.194  15.653   8.246  1.00  0.00    -0.206 F
HETATM   26  C8  UNL     1       9.914  13.677   8.095  1.00  0.00     0.067 A
HETATM   27  C9  UNL     1       9.530  12.435   8.586  1.00  0.00     0.084 A
HETATM   28  C10 UNL     1      10.112  11.991   9.756  1.00  0.00     0.055 A
BRANCH  27  29
HETATM   29  S1  UNL     1       8.342  11.455   7.744  1.00  0.00     0.256 S
HETATM   30  O1  UNL     1       8.898  10.099   7.416  1.00  0.00    -0.201 OA
HETATM   31  O2  UNL     1       7.095  11.288   8.573  1.00  0.00    -0.201 OA
BRANCH  29  32
HETATM   32  N4  UNL     1       7.879  12.307   6.298  1.00  0.00    -0.324 N
ATOM     33  H42 UNL     1       8.087  13.286   6.098  1.00  0.00     0.169 HD
ATOM     34  H41 UNL     1       7.371  11.654   5.701  1.00  0.00     0.169 HD
ENDBRANCH  29  32
ENDBRANCH  27  29
ENDBRANCH   9  22
TORSDOF 3
ENDMDL