MODEL 5
REMARK VINA RESULT: -5.401823563      2.727      4.573
REMARK  8 active torsions:
REMARK  status: ('A' for Active; 'I' for Inactive)
REMARK    1  A    between atoms: O1_2  and  C2_3
REMARK    2  A    between atoms: C2_3  and  O2_4
REMARK    3  A    between atoms: C2_3  and  C3_6
REMARK    4  A    between atoms: C3_6  and  C4_7
REMARK    5  A    between atoms: C8_14  and  O5_15
REMARK    6  A    between atoms: C8_14  and  C9_17
REMARK    7  A    between atoms: C10_20  and  C12_22
REMARK    8  A    between atoms: N2_24  and  O7_26
ROOT
HETATM    1  C4  UNL     1      16.257   2.928  11.610  1.00  0.00     0.013 C
HETATM    2  C5  UNL     1      14.832   3.124  11.611  1.00  0.00     0.173 C
HETATM    3  O3  UNL     1      14.169   2.066  11.472  1.00  0.00    -0.291 OA
HETATM    4  C6  UNL     1      14.029   4.346  11.751  1.00  0.00     0.156 C
HETATM    5 BR1  UNL     1      14.014   5.467  10.195  1.00  0.00    -0.081 Br
HETATM    6  C7  UNL     1      14.457   5.194  12.930  1.00  0.00     0.196 C
HETATM    7  O4  UNL     1      15.813   5.367  12.943  1.00  0.00    -0.345 OA
HETATM    8  C8  UNL     1      16.531   4.385  13.626  1.00  0.00     0.260 C
HETATM    9  C10 UNL     1      17.214   3.547  12.597  1.00  0.00     0.092 C
HETATM   10  C11 UNL     1      18.055   4.497  11.726  1.00  0.00     0.033 C
ENDROOT
BRANCH   9  11
HETATM   11  C12 UNL     1      18.066   2.470  13.119  1.00  0.00     0.025 C
HETATM   12  C13 UNL     1      19.495   2.328  12.818  1.00  0.00     0.066 C
HETATM   13  N2  UNL     1      17.538   1.578  13.892  1.00  0.00    -0.277 N
ATOM     14  H2  UNL     1      16.545   1.658  14.113  1.00  0.00     0.193 HD
BRANCH  13  15
HETATM   15  O7  UNL     1      18.241   0.532  14.433  1.00  0.00    -0.290 OA
ATOM     16  H7  UNL     1      17.833  -0.265  14.751  1.00  0.00     0.244 HD
ENDBRANCH  13  15
ENDBRANCH   9  11
BRANCH   1  17
HETATM   17  C3  UNL     1      16.838   2.209  10.699  1.00  0.00     0.075 C
BRANCH  17  18
HETATM   18  C2  UNL     1      16.750   2.201   9.270  1.00  0.00     0.178 C
BRANCH  18  19
HETATM   19  O1  UNL     1      15.800   1.693   8.445  1.00  0.00    -0.336 OA
HETATM   20  C1  UNL     1      14.816   2.515   7.870  1.00  0.00     0.212 C
ENDBRANCH  18  19
BRANCH  18  21
HETATM   21  O2  UNL     1      17.733   2.775   8.641  1.00  0.00    -0.341 OA
ATOM     22  H2  UNL     1      18.377   3.166   9.219  1.00  0.00     0.220 HD
ENDBRANCH  18  21
ENDBRANCH  17  18
ENDBRANCH   1  17
BRANCH   8  23
HETATM   23  O5  UNL     1      15.715   3.660  14.489  1.00  0.00    -0.357 OA
ATOM     24  H5  UNL     1      16.189   2.947  14.902  1.00  0.00     0.213 HD
ENDBRANCH   8  23
BRANCH   8  25
HETATM   25  C9  UNL     1      17.531   5.077  14.473  1.00  0.00     0.295 C
HETATM   26  N1  UNL     1      17.804   6.470  14.374  1.00  0.00    -0.057 NA
HETATM   27  O6  UNL     1      18.186   4.435  15.325  1.00  0.00    -0.271 OA
ENDBRANCH   8  25
TORSDOF 8
ENDMDL