MODEL 1
REMARK VINA RESULT: -10.847009153      0.000      0.000
REMARK  3 active torsions:
REMARK  status: ('A' for Active; 'I' for Inactive)
REMARK    1  A    between atoms: N1_5  and  C5_6
REMARK    2  A    between atoms: C7_14  and  C8_15
REMARK       I    between atoms: C8_15  and  N5_17
REMARK    3  A    between atoms: N5_17  and  C9_19
ROOT
HETATM    1  C1  UNL     1       7.627  12.077   4.647  1.00  0.00     0.012 C
HETATM    2  C2  UNL     1       7.780  12.266   5.801  1.00  0.00    -0.109 C
HETATM    3  C3  UNL     1       7.975  12.503   7.232  1.00  0.00     0.100 C
HETATM    4  C4  UNL     1       9.307  13.113   7.573  1.00  0.00     0.143 C
HETATM    5  N1  UNL     1       9.440  12.163   8.644  1.00  0.00    -0.363 N
HETATM    6  C14 UNL     1       8.505  11.304   7.973  1.00  0.00     0.143 C
ENDROOT
BRANCH   5   7
HETATM    7  C5  UNL     1      10.182  12.119   9.848  1.00  0.00     0.143 A
HETATM    8  N2  UNL     1       9.953  12.969  10.860  1.00  0.00    -0.175 N
HETATM    9  C6  UNL     1      10.632  12.969  12.002  1.00  0.00     0.686 A
ATOM     10  H2  UNL     1       9.210  13.658  10.746  1.00  0.00     0.186 HD
HETATM   11  N3  UNL     1      10.304  13.847  12.874  1.00  0.00    -0.234 N
HETATM   12  N4  UNL     1      11.625  12.078  12.207  1.00  0.00    -0.122 N
ATOM     13  H32 UNL     1       9.554  14.521  12.719  1.00  0.00     0.174 HD
ATOM     14  H31 UNL     1      10.826  13.848  13.751  1.00  0.00     0.174 HD
HETATM   15  C7  UNL     1      12.467  11.842  13.220  1.00  0.00     0.199 A
HETATM   16  C12 UNL     1      11.893  11.191  11.195  1.00  0.00     0.122 A
HETATM   17  N10 UNL     1      13.278  10.791  12.845  1.00  0.00    -0.326 N
HETATM   18  C10 UNL     1      12.930  10.405  11.631  1.00  0.00     0.145 A
ATOM     19  H10 UNL     1      14.022  10.381  13.409  1.00  0.00     0.168 HD
HETATM   20  C11 UNL     1      13.538   9.323  10.858  1.00  0.00     0.120 C
HETATM   21  N11 UNL     1      14.035   8.471  10.228  1.00  0.00    -0.190 NA
HETATM   22  C13 UNL     1      11.195  11.187  10.018  1.00  0.00     0.109 A
HETATM   23 CL1  UNL     1      11.590  10.023   8.763  1.00  0.00    -0.078 Cl
BRANCH  15  24
HETATM   24  C8  UNL     1      12.568  12.504  14.513  1.00  0.00     0.305 C
HETATM   25  O1  UNL     1      12.546  13.726  14.658  1.00  0.00    -0.263 OA
HETATM   26  N5  UNL     1      12.709  11.660  15.694  1.00  0.00    -0.150 N
ATOM     27  H5  UNL     1      11.972  11.645  16.399  1.00  0.00     0.188 HD
BRANCH  26  28
HETATM   28  C9  UNL     1      13.738  10.947  15.844  1.00  0.00     0.716 A
HETATM   29  N6  UNL     1      15.047  11.290  15.876  1.00  0.00    -0.115 N
HETATM   30  N7  UNL     1      15.741  10.192  16.048  1.00  0.00    -0.213 N
ATOM     31  H6  UNL     1      15.424  12.233  15.784  1.00  0.00     0.207 HD
HETATM   32  N8  UNL     1      14.944   9.136  16.130  1.00  0.00    -0.213 N
ATOM     33  H7  UNL     1      16.759  10.155  16.109  1.00  0.00     0.210 HD
HETATM   34  N9  UNL     1      13.728   9.590  16.008  1.00  0.00    -0.115 N
ATOM     35  H8  UNL     1      15.226   8.164  16.263  1.00  0.00     0.210 HD
ATOM     36  H9  UNL     1      12.887   9.013  16.031  1.00  0.00     0.207 HD
ENDBRANCH  26  28
ENDBRANCH  15  24
ENDBRANCH   5   7
TORSDOF 3
ENDMDL