MODEL 4
REMARK VINA RESULT: -8.475222476      1.094      1.704
REMARK  9 active torsions:
REMARK  status: ('A' for Active; 'I' for Inactive)
REMARK    1  A    between atoms: O1_2  and  C2_3
REMARK    2  A    between atoms: C4_5  and  C5_6
REMARK    3  A    between atoms: C6_7  and  C7_8
REMARK    4  A    between atoms: C9_12  and  N2_13
REMARK    5  A    between atoms: N2_13  and  C10_15
REMARK    6  A    between atoms: C10_15  and  N3_17
REMARK    7  A    between atoms: N3_17  and  N4_19
REMARK    8  A    between atoms: N5_22  and  N6_23
REMARK    9  A    between atoms: C12_28  and  N7_29
ROOT
HETATM    1  C7  UNL     1      12.987   8.995  10.326  1.00  0.00     0.104 A
HETATM    2  C8  UNL     1      13.300   7.780   9.760  1.00  0.00     0.132 A
HETATM    3  N1  UNL     1      14.263   7.055  10.306  1.00  0.00    -0.198 N
ATOM      4  H1  UNL     1      14.487   6.156   9.878  1.00  0.00     0.183 HD
HETATM    5  C9  UNL     1      14.978   7.438  11.415  1.00  0.00     0.708 A
HETATM    6  N5  UNL     1      14.698   8.604  11.983  1.00  0.00    -0.053 N
HETATM    7  C11 UNL     1      13.708   9.363  11.431  1.00  0.00     0.301 A
HETATM    8  O2  UNL     1      13.408  10.493  11.948  1.00  0.00    -0.264 OA
ENDROOT
BRANCH   1   9
HETATM    9  C6  UNL     1      11.947   9.803   9.755  1.00  0.00    -0.054 C
HETATM   10  C5  UNL     1      11.082  10.500   9.281  1.00  0.00    -0.059 C
BRANCH  10  11
HETATM   11  C4  UNL     1      10.035  11.311   8.721  1.00  0.00     0.053 A
HETATM   12  C3  UNL     1       9.036  10.732   7.961  1.00  0.00     0.063 A
HETATM   13  C2  UNL     1       8.033  11.515   7.429  1.00  0.00     0.108 A
HETATM   14  C14 UNL     1       7.981  12.887   7.628  1.00  0.00     0.152 A
HETATM   15  C13 UNL     1       8.974  13.459   8.383  1.00  0.00     0.082 A
HETATM   16  F1  UNL     1       6.960  13.613   7.074  1.00  0.00    -0.203 F
HETATM   17  C12 UNL     1       9.988  12.676   8.921  1.00  0.00     0.124 A
BRANCH  13  18
HETATM   18  O1  UNL     1       7.036  10.940   6.672  1.00  0.00    -0.353 OA
HETATM   19  C1  UNL     1       7.038  10.915   5.277  1.00  0.00     0.210 C
ENDBRANCH  13  18
BRANCH  17  20
HETATM   20  N7  UNL     1      10.977  13.346   9.692  1.00  0.00    -0.114 N
HETATM   21  O3  UNL     1      11.990  13.865   9.162  1.00  0.00    -0.532 OA
HETATM   22  O4  UNL     1      10.895  13.470  11.052  1.00  0.00    -0.532 OA
ENDBRANCH  17  20
ENDBRANCH  10  11
ENDBRANCH   1   9
BRANCH   6  23
HETATM   23  N6  UNL     1      15.328   9.135  13.109  1.00  0.00    -0.321 N
ATOM     24  H62 UNL     1      15.718   8.462  13.769  1.00  0.00     0.178 HD
ATOM     25  H61 UNL     1      15.431  10.127  13.323  1.00  0.00     0.178 HD
ENDBRANCH   6  23
BRANCH   5  26
HETATM   26  N2  UNL     1      15.875   6.660  11.847  1.00  0.00    -0.163 N
ATOM     27  H2  UNL     1      16.743   6.690  11.312  1.00  0.00     0.187 HD
BRANCH  26  28
HETATM   28  C10 UNL     1      15.901   5.774  12.913  1.00  0.00     0.204 C
HETATM   29  S1  UNL     1      14.911   4.449  12.855  1.00  0.00    -0.039 SA
BRANCH  28  30
HETATM   30  N3  UNL     1      16.716   5.951  14.056  1.00  0.00    -0.282 N
ATOM     31  H3  UNL     1      16.458   5.495  14.931  1.00  0.00     0.189 HD
BRANCH  30  32
HETATM   32  N4  UNL     1      17.865   6.739  14.005  1.00  0.00    -0.343 N
ATOM     33  H42 UNL     1      18.722   6.376  14.424  1.00  0.00     0.176 HD
ATOM     34  H41 UNL     1      17.855   7.657  13.562  1.00  0.00     0.176 HD
ENDBRANCH  30  32
ENDBRANCH  28  30
ENDBRANCH  26  28
ENDBRANCH   5  26
TORSDOF 9
ENDMDL