MODEL 5
REMARK VINA RESULT: -8.366289272      3.270      8.426
REMARK  4 active torsions:
REMARK  status: ('A' for Active; 'I' for Inactive)
REMARK    1  A    between atoms: C2_3  and  N2_4
REMARK    2  A    between atoms: C4_8  and  N3_9
REMARK       I    between atoms: N3_9  and  C5_11
REMARK    3  A    between atoms: C5_11  and  C6_13
REMARK    4  A    between atoms: C8_17  and  N5_18
ROOT
HETATM    1  C1  UNL     1      15.260   3.302  13.966  1.00  0.00     0.163 C
HETATM    2  N1  UNL     1      14.972   3.924  12.701  1.00  0.00    -0.289 N
HETATM    3  C2  UNL     1      15.117   5.257  12.611  1.00  0.00     0.122 A
HETATM    4  C3  UNL     1      14.847   5.866  11.413  1.00  0.00     0.099 A
HETATM    5  C4  UNL     1      14.888   7.174  10.977  1.00  0.00     0.141 A
HETATM    6  N7  UNL     1      14.513   7.149   9.700  1.00  0.00    -0.283 N
ATOM      7  H7  UNL     1      14.445   7.972   9.103  1.00  0.00     0.188 HD
HETATM    8  N8  UNL     1      14.240   5.909   9.306  1.00  0.00    -0.283 N
ATOM      9  H8  UNL     1      13.933   5.632   8.373  1.00  0.00     0.188 HD
HETATM   10  C11 UNL     1      14.437   5.086  10.345  1.00  0.00     0.143 A
HETATM   11  N9  UNL     1      14.295   3.752  10.447  1.00  0.00    -0.288 N
HETATM   12  C12 UNL     1      13.861   2.947   9.305  1.00  0.00     0.163 C
HETATM   13  C13 UNL     1      14.572   3.174  11.652  1.00  0.00     0.331 A
HETATM   14  O4  UNL     1      14.447   1.925  11.775  1.00  0.00    -0.246 OA
ENDROOT
BRANCH   5  15
HETATM   15  N3  UNL     1      15.228   8.217  11.681  1.00  0.00    -0.304 N
HETATM   16  C5  UNL     1      14.275   8.945  12.402  1.00  0.00     0.291 C
HETATM   17  O1  UNL     1      14.267   8.806  13.667  1.00  0.00    -0.264 OA
ATOM     18  H3  UNL     1      16.205   8.508  11.707  1.00  0.00     0.171 HD
BRANCH  16  19
HETATM   19  C6  UNL     1      13.297   9.847  11.811  1.00  0.00     0.175 A
HETATM   20  N4  UNL     1      13.003   9.812  10.563  1.00  0.00    -0.345 N
HETATM   21  C7  UNL     1      12.054  10.682   9.966  1.00  0.00     0.128 A
ATOM     22  H4  UNL     1      13.474   9.127   9.972  1.00  0.00     0.167 HD
HETATM   23  C8  UNL     1      11.407  11.598  10.694  1.00  0.00     0.145 A
HETATM   24  C9  UNL     1      11.669  11.712  12.099  1.00  0.00     0.079 A
HETATM   25  C10 UNL     1      11.087  12.577  12.896  1.00  0.00     0.116 C
HETATM   26  N6  UNL     1      12.654  10.790  12.646  1.00  0.00    -0.335 N
HETATM   27 CL1  UNL     1       9.899  13.749  12.442  1.00  0.00    -0.095 Cl
ATOM     28  H6  UNL     1      12.882  10.826  13.640  1.00  0.00     0.168 HD
BRANCH  23  29
HETATM   29  N5  UNL     1      10.468  12.444  10.056  1.00  0.00    -0.112 N
HETATM   30  O2  UNL     1       9.294  11.999   9.884  1.00  0.00    -0.532 OA
HETATM   31  O3  UNL     1      10.748  13.688   9.607  1.00  0.00    -0.532 OA
ENDBRANCH  23  29
ENDBRANCH  16  19
ENDBRANCH   5  15
BRANCH   3  32
HETATM   32  N2  UNL     1      15.499   5.984  13.604  1.00  0.00    -0.384 N
ATOM     33  H22 UNL     1      15.502   6.999  13.499  1.00  0.00     0.157 HD
ATOM     34  H21 UNL     1      15.799   5.586  14.495  1.00  0.00     0.157 HD
ENDBRANCH   3  32
TORSDOF 4
ENDMDL