MODEL 1
REMARK VINA RESULT: -9.479060786      0.000      0.000
REMARK  5 active torsions:
REMARK  status: ('A' for Active; 'I' for Inactive)
REMARK       I    between atoms: N2_3  and  C2_5
REMARK       I    between atoms: C2_5  and  N3_6
REMARK       I    between atoms: C2_5  and  N12_32
REMARK    1  A    between atoms: N3_6  and  C3_8
REMARK    2  A    between atoms: C4_13  and  C5_14
REMARK    3  A    between atoms: C6_16  and  N6_17
REMARK    4  A    between atoms: N6_17  and  N7_19
REMARK    5  A    between atoms: C7_21  and  N8_22
ROOT
HETATM    1  N1  UNL     1      13.626   5.760  11.424  1.00  0.00    -0.171 NA
HETATM    2  C1  UNL     1      14.025   6.283  12.384  1.00  0.00     0.196 C
HETATM    3  N2  UNL     1      14.525   6.906  13.533  1.00  0.00    -0.125 N
ATOM      4  H2  UNL     1      14.464   6.437  14.437  1.00  0.00     0.197 HD
HETATM    5  C2  UNL     1      15.063   8.076  13.445  1.00  0.00     0.702 C
HETATM    6  N3  UNL     1      15.157   8.733  12.213  1.00  0.00    -0.167 N
ATOM      7  H3  UNL     1      16.039   8.728  11.701  1.00  0.00     0.186 HD
HETATM    8  N12 UNL     1      15.573   8.712  14.611  1.00  0.00    -0.125 N
ATOM      9  H12 UNL     1      16.567   8.921  14.703  1.00  0.00     0.197 HD
HETATM   10  C10 UNL     1      14.670   9.043  15.631  1.00  0.00     0.196 C
HETATM   11  N13 UNL     1      13.924   9.317  16.490  1.00  0.00    -0.171 NA
ENDROOT
BRANCH   6  12
HETATM   12  C3  UNL     1      14.116   9.357  11.711  1.00  0.00     0.180 A
HETATM   13  N4  UNL     1      13.490   9.113  10.553  1.00  0.00    -0.278 N
HETATM   14  N5  UNL     1      12.493   9.833  10.239  1.00  0.00    -0.289 N
ATOM     15  H4  UNL     1      13.807   8.365   9.937  1.00  0.00     0.189 HD
HETATM   16  C4  UNL     1      12.088  10.802  11.044  1.00  0.00     0.130 A
ATOM     17  H5  UNL     1      12.002   9.663   9.362  1.00  0.00     0.188 HD
HETATM   18  S1  UNL     1      13.209  10.665  12.325  1.00  0.00    -0.030 SA
BRANCH  16  19
HETATM   19  C5  UNL     1      10.960  11.715  10.827  1.00  0.00     0.153 A
HETATM   20  O1  UNL     1      10.142  11.747   9.813  1.00  0.00    -0.272 OA
HETATM   21  C6  UNL     1       9.254  12.707   9.969  1.00  0.00     0.245 A
HETATM   22  N11 UNL     1       9.526  13.314  11.144  1.00  0.00    -0.309 N
HETATM   23  C9  UNL     1      10.580  12.716  11.692  1.00  0.00     0.143 A
ATOM     24  H11 UNL     1       9.010  14.098  11.544  1.00  0.00     0.170 HD
HETATM   25 CL1  UNL     1      11.345  13.108  13.213  1.00  0.00    -0.061 Cl
BRANCH  21  26
HETATM   26  N6  UNL     1       8.292  13.057   9.201  1.00  0.00    -0.264 N
ATOM     27  H6  UNL     1       7.486  13.509   9.633  1.00  0.00     0.190 HD
BRANCH  26  28
HETATM   28  N7  UNL     1       8.259  12.870   7.836  1.00  0.00    -0.293 N
HETATM   29  C7  UNL     1       7.205  12.850   7.112  1.00  0.00     0.199 C
ATOM     30  H7  UNL     1       9.152  12.737   7.362  1.00  0.00     0.187 HD
BRANCH  29  31
HETATM   31  N8  UNL     1       7.359  12.645   5.717  1.00  0.00    -0.328 N
HETATM   32  C8  UNL     1       7.468  11.455   5.256  1.00  0.00     0.201 C
HETATM   33  N9  UNL     1       7.623  11.188   3.880  1.00  0.00    -0.066 NA
HETATM   34  N10 UNL     1       7.433  10.362   6.160  1.00  0.00    -0.066 NA
ATOM     35  H8  UNL     1       7.382  13.444   5.083  1.00  0.00     0.168 HD
ENDBRANCH  29  31
ENDBRANCH  26  28
ENDBRANCH  21  26
ENDBRANCH  16  19
ENDBRANCH   6  12
TORSDOF 5
ENDMDL