MODEL 1
REMARK VINA RESULT: -7.608557241      0.000      0.000
REMARK  5 active torsions:
REMARK  status: ('A' for Active; 'I' for Inactive)
REMARK    1  A    between atoms: O1_2  and  C2_3
REMARK    2  A    between atoms: C5_8  and  N2_9
REMARK    3  A    between atoms: N2_9  and  N3_11
REMARK    4  A    between atoms: C6_16  and  N5_17
REMARK    5  A    between atoms: N5_17  and  C7_19
ROOT
HETATM    1  C7  UNL     1      16.251   4.814  13.485  1.00  0.00     0.192 C
HETATM    2  C8  UNL     1      16.735   3.752  12.507  1.00  0.00     0.045 C
HETATM    3  C9  UNL     1      17.744   4.265  11.538  1.00  0.00     0.025 C
HETATM    4  C10 UNL     1      19.106   3.709  11.969  1.00  0.00     0.155 C
HETATM    5  N6  UNL     1      19.340   3.894  13.377  1.00  0.00    -0.198 N
HETATM    6  C11 UNL     1      20.199   2.972  13.981  1.00  0.00     0.195 C
HETATM    7  N7  UNL     1      20.927   2.204  14.475  1.00  0.00    -0.171 NA
HETATM    8  S1  UNL     1      18.702   5.101  14.420  1.00  0.00     0.329 S
HETATM    9  O2  UNL     1      18.862   6.478  13.850  1.00  0.00    -0.186 OA
HETATM   10  O3  UNL     1      19.410   5.090  15.746  1.00  0.00    -0.186 OA
HETATM   11  N8  UNL     1      17.052   4.744  14.720  1.00  0.00    -0.076 NA
HETATM   12 CL1  UNL     1      16.917   3.169  15.433  1.00  0.00    -0.002 Cl
ENDROOT
BRANCH   1  13
HETATM   13  N5  UNL     1      16.192   6.094  12.967  1.00  0.00    -0.355 N
ATOM     14  H5  UNL     1      16.811   6.136  12.158  1.00  0.00     0.162 HD
BRANCH  13  15
HETATM   15  C6  UNL     1      15.677   7.202  13.111  1.00  0.00     0.147 A
HETATM   16  N4  UNL     1      15.960   7.930  14.250  1.00  0.00    -0.173 N
HETATM   17  C5  UNL     1      15.454   9.128  14.494  1.00  0.00     0.698 A
ATOM     18  H4  UNL     1      16.592   7.524  14.939  1.00  0.00     0.186 HD
HETATM   19  N1  UNL     1      14.622   9.710  13.629  1.00  0.00    -0.188 N
HETATM   20  C4  UNL     1      14.282   9.084  12.488  1.00  0.00     0.084 A
ATOM     21  H1  UNL     1      14.242  10.635  13.834  1.00  0.00     0.184 HD
HETATM   22  C3  UNL     1      13.450   9.464  11.439  1.00  0.00     0.088 A
HETATM   23  C12 UNL     1      14.819   7.817  12.235  1.00  0.00     0.106 A
HETATM   24  C2  UNL     1      13.486   8.427  10.555  1.00  0.00     0.144 A
HETATM   25  N9  UNL     1      14.305   7.473  11.060  1.00  0.00    -0.332 N
ATOM     26  H9  UNL     1      14.505   6.590  10.589  1.00  0.00     0.168 HD
BRANCH  17  27
HETATM   27  N2  UNL     1      15.725   9.812  15.571  1.00  0.00    -0.138 N
ATOM     28  H2  UNL     1      16.614   9.660  16.047  1.00  0.00     0.205 HD
BRANCH  27  29
HETATM   29  N3  UNL     1      14.830  10.747  16.090  1.00  0.00    -0.331 N
ATOM     30  H32 UNL     1      14.429  10.570  17.011  1.00  0.00     0.177 HD
ATOM     31  H31 UNL     1      14.574  11.588  15.573  1.00  0.00     0.177 HD
ENDBRANCH  27  29
ENDBRANCH  17  27
BRANCH  24  32
HETATM   32  O1  UNL     1      12.802   8.354   9.341  1.00  0.00    -0.341 OA
HETATM   33  C1  UNL     1      12.012   9.433   8.951  1.00  0.00     0.211 C
ENDBRANCH  24  32
ENDBRANCH  13  15
ENDBRANCH   1  13
TORSDOF 5
ENDMDL