MODEL 3
REMARK VINA RESULT: -6.135849825      1.267      1.909
REMARK  8 active torsions:
REMARK  status: ('A' for Active; 'I' for Inactive)
REMARK    1  A    between atoms: O1_2  and  C2_3
REMARK    2  A    between atoms: C2_3  and  O2_4
REMARK    3  A    between atoms: C2_3  and  C3_6
REMARK    4  A    between atoms: C5_9  and  S1_10
REMARK    5  A    between atoms: S1_10  and  C6_11
REMARK    6  A    between atoms: C6_11  and  C7_12
REMARK    7  A    between atoms: C8_13  and  C9_14
REMARK    8  A    between atoms: C10_17  and  O6_18
ROOT
HETATM    1  C3  UNL     1      -3.269   0.465  11.858  1.00  0.00     0.067 C
HETATM    2  C4  UNL     1      -3.949   0.572  13.183  1.00  0.00     0.178 C
HETATM    3  O3  UNL     1      -5.007   1.492  13.146  1.00  0.00    -0.372 OA
HETATM    4  C5  UNL     1      -4.444   2.749  12.970  1.00  0.00     0.211 C
HETATM    5  C10 UNL     1      -3.993   2.859  11.532  1.00  0.00     0.157 C
HETATM    6  C11 UNL     1      -2.955   1.817  11.265  1.00  0.00     0.047 C
ENDROOT
BRANCH   4   7
HETATM    7  S1  UNL     1      -5.612   4.067  13.408  1.00  0.00    -0.131 SA
BRANCH   7   8
HETATM    8  C6  UNL     1      -5.834   4.173  15.196  1.00  0.00     0.104 C
BRANCH   8   9
HETATM    9  C7  UNL     1      -6.369   2.885  15.715  1.00  0.00    -0.010 C
HETATM   10  C8  UNL     1      -5.632   2.141  16.512  1.00  0.00     0.081 C
BRANCH  10  11
HETATM   11  C9  UNL     1      -6.142   0.870  17.034  1.00  0.00     0.198 C
HETATM   12  O4  UNL     1      -7.274   0.450  16.683  1.00  0.00    -0.645 OA
HETATM   13  O5  UNL     1      -5.399   0.105  17.920  1.00  0.00    -0.645 OA
ENDBRANCH  10  11
ENDBRANCH   8   9
ENDBRANCH   7   8
ENDBRANCH   4   7
BRANCH   5  14
HETATM   14  O6  UNL     1      -5.090   2.771  10.665  1.00  0.00    -0.392 OA
ATOM     15  H6  UNL     1      -5.699   3.481  10.827  1.00  0.00     0.210 HD
ENDBRANCH   5  14
BRANCH   1  16
HETATM   16  C2  UNL     1      -4.171  -0.255  10.879  1.00  0.00     0.262 C
BRANCH  16  17
HETATM   17  O1  UNL     1      -4.387  -1.582  11.223  1.00  0.00    -0.366 OA
HETATM   18  C1  UNL     1      -3.151  -2.208  11.334  1.00  0.00     0.204 C
ENDBRANCH  16  17
BRANCH  16  19
HETATM   19  O2  UNL     1      -3.513  -0.299   9.635  1.00  0.00    -0.371 OA
ATOM     20  H2  UNL     1      -3.916   0.387   9.116  1.00  0.00     0.212 HD
ENDBRANCH  16  19
ENDBRANCH   1  16
TORSDOF 8
ENDMDL