MODEL 4
REMARK VINA RESULT: -6.979604871      1.713      1.935
REMARK  9 active torsions:
REMARK  status: ('A' for Active; 'I' for Inactive)
REMARK    1  A    between atoms: O1_2  and  C2_3
REMARK    2  A    between atoms: C5_6  and  C6_7
REMARK    3  A    between atoms: C6_7  and  C7_8
REMARK    4  A    between atoms: C7_8  and  C8_9
REMARK    5  A    between atoms: C8_9  and  O2_10
REMARK    6  A    between atoms: C8_9  and  C9_12
REMARK    7  A    between atoms: C9_12  and  O3_13
REMARK    8  A    between atoms: C9_12  and  C10_15
REMARK    9  A    between atoms: C14_21  and  O6_22
ROOT
HETATM    1  C7  UNL     1      -2.876   4.999  13.118  1.00  0.00     0.039 C
ENDROOT
BRANCH   1   2
HETATM    2  C6  UNL     1      -3.527   5.262  14.475  1.00  0.00     0.041 C
BRANCH   2   3
HETATM    3  C5  UNL     1      -4.255   4.072  14.949  1.00  0.00    -0.055 A
HETATM    4  C4  UNL     1      -5.636   4.069  14.925  1.00  0.00     0.010 A
HETATM    5  C3  UNL     1      -6.286   2.958  15.369  1.00  0.00     0.040 A
HETATM    6  C2  UNL     1      -5.632   1.823  15.844  1.00  0.00     0.101 A
HETATM    7  C14 UNL     1      -4.259   1.829  15.867  1.00  0.00     0.099 A
HETATM    8  C13 UNL     1      -3.588   2.940  15.424  1.00  0.00     0.046 A
BRANCH   6   9
HETATM    9  O1  UNL     1      -6.307   0.706  16.290  1.00  0.00    -0.353 OA
HETATM   10  C1  UNL     1      -7.365   0.876  17.220  1.00  0.00     0.210 C
ENDBRANCH   6   9
BRANCH   7  11
HETATM   11  O6  UNL     1      -3.560   0.725  16.330  1.00  0.00    -0.358 OA
ATOM     12  H6  UNL     1      -3.934  -0.146  16.257  1.00  0.00     0.217 HD
ENDBRANCH   7  11
ENDBRANCH   2   3
ENDBRANCH   1   2
BRANCH   1  13
HETATM   13  C8  UNL     1      -1.358   5.193  13.258  1.00  0.00     0.149 C
BRANCH  13  14
HETATM   14  O2  UNL     1      -0.944   4.288  14.286  1.00  0.00    -0.393 OA
ATOM     15  H2  UNL     1      -1.218   4.683  15.105  1.00  0.00     0.210 HD
ENDBRANCH  13  14
BRANCH  13  16
HETATM   16  C9  UNL     1      -0.689   4.789  11.996  1.00  0.00     0.178 C
BRANCH  16  17
HETATM   17  O3  UNL     1       0.692   4.893  11.995  1.00  0.00    -0.390 OA
ATOM     18  H3  UNL     1       1.035   5.774  11.900  1.00  0.00     0.210 HD
ENDBRANCH  16  17
BRANCH  16  19
HETATM   19  C10 UNL     1      -1.132   3.578  11.318  1.00  0.00     0.179 C
HETATM   20  C11 UNL     1      -0.733   3.306   9.914  1.00  0.00     0.205 C
HETATM   21  O4  UNL     1      -1.366   2.024   9.764  1.00  0.00    -0.364 OA
HETATM   22  C12 UNL     1      -1.350   1.455  11.008  1.00  0.00     0.338 C
HETATM   23  O5  UNL     1      -0.761   2.357  11.920  1.00  0.00    -0.357 OA
ENDBRANCH  16  19
ENDBRANCH  13  16
ENDBRANCH   1  13
TORSDOF 9
ENDMDL