MODEL 1
REMARK VINA RESULT: -6.458209488      0.000      0.000
REMARK  9 active torsions:
REMARK  status: ('A' for Active; 'I' for Inactive)
REMARK    1  A    between atoms: O1_2  and  C2_3
REMARK    2  A    between atoms: C2_3  and  C3_4
REMARK    3  A    between atoms: C3_4  and  C4_5
REMARK    4  A    between atoms: C4_5  and  C5_6
REMARK    5  A    between atoms: C5_6  and  O2_7
REMARK    6  A    between atoms: C6_9  and  O3_10
REMARK    7  A    between atoms: O3_10  and  C7_11
REMARK    8  A    between atoms: C13_17  and  O4_18
REMARK    9  A    between atoms: C14_20  and  O5_21
ROOT
HETATM    1  C3  UNL     1      -3.743   1.160  11.337  1.00  0.00     0.038 C
HETATM    2  C6  UNL     1      -4.361   0.831  12.666  1.00  0.00     0.137 C
HETATM    3  C12 UNL     1      -4.019  -0.620  12.928  1.00  0.00     0.067 C
HETATM    4  C13 UNL     1      -4.116  -1.236  11.575  1.00  0.00     0.150 C
HETATM    5  C14 UNL     1      -4.160  -0.112  10.565  1.00  0.00     0.160 C
ENDROOT
BRANCH   1   6
HETATM    6  C2  UNL     1      -2.286   1.300  11.314  1.00  0.00     0.181 C
BRANCH   6   7
HETATM    7  O1  UNL     1      -1.745   1.788  10.130  1.00  0.00    -0.395 OA
HETATM    8  C1  UNL     1      -0.623   2.576  10.375  1.00  0.00     0.201 C
ENDBRANCH   6   7
ENDBRANCH   1   6
BRANCH   1   9
HETATM    9  C4  UNL     1      -4.410   2.366  10.797  1.00  0.00     0.043 C
BRANCH   9  10
HETATM   10  C5  UNL     1      -4.000   3.702  11.274  1.00  0.00     0.165 C
BRANCH  10  11
HETATM   11  O2  UNL     1      -4.802   4.323  12.203  1.00  0.00    -0.401 OA
ATOM     12  H2  UNL     1      -5.159   5.174  11.977  1.00  0.00     0.209 HD
ENDBRANCH  10  11
ENDBRANCH   9  10
ENDBRANCH   1   9
BRANCH   2  13
HETATM   13  O3  UNL     1      -4.072   1.662  13.699  1.00  0.00    -0.380 OA
BRANCH  13  14
HETATM   14  C7  UNL     1      -5.030   1.569  14.690  1.00  0.00     0.122 C
HETATM   15  C8  UNL     1      -4.352   1.134  15.996  1.00  0.00     0.032 C
HETATM   16  C9  UNL     1      -5.198   1.713  17.106  1.00  0.00     0.002 C
HETATM   17  C10 UNL     1      -6.330   2.453  16.431  1.00  0.00     0.002 C
HETATM   18  C11 UNL     1      -5.661   2.850  15.107  1.00  0.00     0.032 C
ENDBRANCH  13  14
ENDBRANCH   2  13
BRANCH   5  19
HETATM   19  O5  UNL     1      -3.272  -0.353   9.531  1.00  0.00    -0.392 OA
ATOM     20  H5  UNL     1      -3.675  -0.140   8.698  1.00  0.00     0.210 HD
ENDBRANCH   5  19
BRANCH   4  21
HETATM   21  O4  UNL     1      -3.108  -2.159  11.301  1.00  0.00    -0.393 OA
ATOM     22  H4  UNL     1      -2.839  -2.177  10.391  1.00  0.00     0.210 HD
ENDBRANCH   4  21
TORSDOF 9
ENDMDL