MODEL 3
REMARK VINA RESULT: -7.102318146      2.730      3.869
REMARK  8 active torsions:
REMARK  status: ('A' for Active; 'I' for Inactive)
REMARK    1  A    between atoms: C2_2  and  C3_3
REMARK    2  A    between atoms: C3_3  and  C5_5
REMARK    3  A    between atoms: C5_5  and  O1_6
REMARK    4  A    between atoms: C5_5  and  C6_8
REMARK    5  A    between atoms: N1_9  and  O2_11
REMARK    6  A    between atoms: O2_11  and  C7_12
REMARK    7  A    between atoms: C10_16  and  O4_17
REMARK    8  A    between atoms: C11_19  and  O5_20
ROOT
HETATM    1  C7  UNL     1      -2.634   3.441  12.412  1.00  0.00     0.295 C
HETATM    2  O3  UNL     1      -1.394   2.885  12.340  1.00  0.00    -0.351 OA
HETATM    3  C8  UNL     1      -0.938   2.549  11.104  1.00  0.00     0.152 C
HETATM    4  C9  UNL     1      -1.560   1.295  10.529  1.00  0.00     0.042 C
HETATM    5  C10 UNL     1      -1.032   3.651  10.080  1.00  0.00     0.176 C
HETATM    6  C11 UNL     1      -2.444   4.182  10.018  1.00  0.00     0.158 C
HETATM    7  C12 UNL     1      -2.843   4.565  11.425  1.00  0.00     0.070 C
HETATM    8  C13 UNL     1      -4.278   4.998  11.397  1.00  0.00     0.017 C
ENDROOT
BRANCH   1   9
HETATM    9  O2  UNL     1      -2.751   4.033  13.715  1.00  0.00    -0.248 OA
BRANCH   9  10
HETATM   10  N1  UNL     1      -3.136   3.350  14.815  1.00  0.00    -0.276 N
HETATM   11  C6  UNL     1      -4.100   2.500  14.874  1.00  0.00     0.119 C
ATOM     12  H1  UNL     1      -2.615   3.523  15.675  1.00  0.00     0.193 HD
BRANCH  11  13
HETATM   13  C5  UNL     1      -4.346   1.863  16.203  1.00  0.00     0.162 C
BRANCH  13  14
HETATM   14  C3  UNL     1      -5.814   1.578  16.298  1.00  0.00     0.015 C
HETATM   15  C4  UNL     1      -6.533   2.930  16.215  1.00  0.00     0.012 C
BRANCH  14  16
HETATM   16  C2  UNL     1      -6.212   0.961  17.613  1.00  0.00     0.002 C
HETATM   17  C1  UNL     1      -6.216   1.931  18.751  1.00  0.00     0.005 C
ENDBRANCH  14  16
ENDBRANCH  13  14
BRANCH  13  18
HETATM   18  O1  UNL     1      -3.555   0.733  16.273  1.00  0.00    -0.390 OA
ATOM     19  H1  UNL     1      -3.624   0.170  15.511  1.00  0.00     0.210 HD
ENDBRANCH  13  18
ENDBRANCH  11  13
ENDBRANCH   9  10
ENDBRANCH   1   9
BRANCH   6  20
HETATM   20  O5  UNL     1      -2.490   5.348   9.248  1.00  0.00    -0.392 OA
ATOM     21  H5  UNL     1      -2.951   5.185   8.433  1.00  0.00     0.210 HD
ENDBRANCH   6  20
BRANCH   5  22
HETATM   22  O4  UNL     1      -0.727   3.092   8.839  1.00  0.00    -0.390 OA
ATOM     23  H4  UNL     1      -0.052   3.632   8.444  1.00  0.00     0.210 HD
ENDBRANCH   5  22
TORSDOF 8
ENDMDL