MODEL 2
REMARK VINA RESULT: -6.674196484      0.639      1.144
REMARK  10 active torsions:
REMARK  status: ('A' for Active; 'I' for Inactive)
REMARK    1  A    between atoms: C2_2  and  C5_5
REMARK    2  A    between atoms: C5_5  and  C6_6
REMARK    3  A    between atoms: C6_6  and  N1_7
REMARK    4  A    between atoms: N1_7  and  O1_8
REMARK    5  A    between atoms: N1_7  and  C7_10
REMARK    6  A    between atoms: C8_11  and  C9_12
REMARK    7  A    between atoms: C10_14  and  C11_15
REMARK    8  A    between atoms: C11_15  and  O3_16
REMARK    9  A    between atoms: C11_15  and  C12_18
REMARK   10  A    between atoms: C12_18  and  O4_19
ROOT
HETATM    1  C9  UNL     1      -3.515   3.217  12.827  1.00  0.00     0.215 C
HETATM    2  O2  UNL     1      -3.667   1.858  13.151  1.00  0.00    -0.366 OA
HETATM    3  C10 UNL     1      -3.141   1.078  12.171  1.00  0.00     0.160 C
HETATM    4  C13 UNL     1      -2.556   2.007  11.097  1.00  0.00     0.116 C
HETATM    5  C14 UNL     1      -2.334   3.188  11.952  1.00  0.00     0.161 C
HETATM    6  O5  UNL     1      -1.404   3.925  11.920  1.00  0.00    -0.295 OA
ENDROOT
BRANCH   1   7
HETATM    7  C8  UNL     1      -3.365   4.050  14.009  1.00  0.00     0.031 C
HETATM    8  C7  UNL     1      -4.375   4.510  14.700  1.00  0.00     0.115 C
BRANCH   8   9
HETATM    9  N1  UNL     1      -5.749   4.319  14.478  1.00  0.00    -0.272 N
BRANCH   9  10
HETATM   10  C6  UNL     1      -6.363   3.090  14.943  1.00  0.00     0.155 C
BRANCH  10  11
HETATM   11  C5  UNL     1      -6.502   3.248  16.450  1.00  0.00     0.030 C
BRANCH  11  12
HETATM   12  C2  UNL     1      -6.295   1.956  17.190  1.00  0.00    -0.050 C
HETATM   13  C1  UNL     1      -6.156   2.127  18.669  1.00  0.00     0.014 C
HETATM   14  C3  UNL     1      -4.991   1.360  16.656  1.00  0.00     0.014 C
HETATM   15  C4  UNL     1      -7.404   1.008  16.876  1.00  0.00     0.014 C
ENDBRANCH  11  12
ENDBRANCH  10  11
ENDBRANCH   9  10
BRANCH   9  16
HETATM   16  O1  UNL     1      -6.535   5.199  13.866  1.00  0.00    -0.288 OA
ATOM     17  H1  UNL     1      -6.269   6.111  13.889  1.00  0.00     0.244 HD
ENDBRANCH   9  16
ENDBRANCH   8   9
ENDBRANCH   1   7
BRANCH   3  18
HETATM   18  C11 UNL     1      -4.021   0.018  11.602  1.00  0.00     0.171 C
BRANCH  18  19
HETATM   19  O3  UNL     1      -3.169  -1.004  11.121  1.00  0.00    -0.391 OA
ATOM     20  H3  UNL     1      -2.300  -0.816  11.455  1.00  0.00     0.210 HD
ENDBRANCH  18  19
BRANCH  18  21
HETATM   21  C12 UNL     1      -4.903   0.498  10.491  1.00  0.00     0.198 C
BRANCH  21  22
HETATM   22  O4  UNL     1      -5.794   1.448  11.024  1.00  0.00    -0.398 OA
ATOM     23  H4  UNL     1      -5.395   2.306  10.934  1.00  0.00     0.209 HD
ENDBRANCH  21  22
ENDBRANCH  18  21
ENDBRANCH   3  18
TORSDOF 10
ENDMDL