MODEL 4
REMARK VINA RESULT: -6.806807258      2.077      3.793
REMARK  9 active torsions:
REMARK  status: ('A' for Active; 'I' for Inactive)
REMARK    1  A    between atoms: O1_2  and  C2_3
REMARK    2  A    between atoms: C4_5  and  O2_7
REMARK    3  A    between atoms: O2_7  and  C6_8
REMARK    4  A    between atoms: C6_8  and  C7_9
REMARK    5  A    between atoms: C7_9  and  C8_10
REMARK    6  A    between atoms: C8_10  and  C9_11
REMARK    7  A    between atoms: C9_11  and  O3_14
REMARK    8  A    between atoms: C12_17  and  O5_18
REMARK    9  A    between atoms: C13_20  and  O6_21
ROOT
HETATM    1  C2  UNL     1      -4.080   3.241  11.264  1.00  0.00     0.159 C
HETATM    2  C3  UNL     1      -4.674   1.895  10.884  1.00  0.00     0.102 C
HETATM    3  C4  UNL     1      -4.235   0.902  11.916  1.00  0.00     0.166 C
HETATM    4  C5  UNL     1      -4.331  -0.485  11.301  1.00  0.00     0.079 C
HETATM    5  O4  UNL     1      -2.874   1.050  12.215  1.00  0.00    -0.323 OA
HETATM    6  C12 UNL     1      -2.141   1.736  11.317  1.00  0.00     0.291 C
HETATM    7  C13 UNL     1      -2.611   3.140  11.024  1.00  0.00     0.202 C
ENDROOT
BRANCH   3   8
HETATM    8  O2  UNL     1      -4.861   0.965  13.102  1.00  0.00    -0.355 OA
BRANCH   8   9
HETATM    9  C6  UNL     1      -4.322   0.689  14.279  1.00  0.00     0.171 C
BRANCH   9  10
HETATM   10  C7  UNL     1      -4.507   1.652  15.422  1.00  0.00     0.029 C
BRANCH  10  11
HETATM   11  C8  UNL     1      -4.352   3.105  14.926  1.00  0.00     0.039 C
BRANCH  11  12
HETATM   12  C9  UNL     1      -5.736   3.716  15.014  1.00  0.00     0.051 C
HETATM   13  C10 UNL     1      -5.601   5.203  15.067  1.00  0.00     0.045 C
HETATM   14  C11 UNL     1      -6.522   3.154  16.173  1.00  0.00     0.045 C
BRANCH  12  15
HETATM   15  O3  UNL     1      -6.415   3.390  13.839  1.00  0.00    -0.391 OA
ATOM     16  H3  UNL     1      -6.352   2.448  13.724  1.00  0.00     0.210 HD
ENDBRANCH  12  15
ENDBRANCH  11  12
ENDBRANCH  10  11
ENDBRANCH   9  10
ENDBRANCH   8   9
ENDBRANCH   3   8
BRANCH   1  17
HETATM   17  O1  UNL     1      -4.633   4.186  10.409  1.00  0.00    -0.388 OA
HETATM   18  C1  UNL     1      -4.607   5.413  11.095  1.00  0.00     0.202 C
ENDBRANCH   1  17
BRANCH   6  19
HETATM   19  O5  UNL     1      -1.879   1.040  10.120  1.00  0.00    -0.368 OA
ATOM     20  H5  UNL     1      -2.308   1.399   9.352  1.00  0.00     0.212 HD
ENDBRANCH   6  19
BRANCH   7  21
HETATM   21  O6  UNL     1      -2.396   3.384   9.652  1.00  0.00    -0.388 OA
ATOM     22  H6  UNL     1      -2.185   4.305   9.563  1.00  0.00     0.210 HD
ENDBRANCH   7  21
TORSDOF 9
ENDMDL