MODEL 4
REMARK VINA RESULT: -6.362463265      1.348      1.778
REMARK  9 active torsions:
REMARK  status: ('A' for Active; 'I' for Inactive)
REMARK    1  A    between atoms: C2_2  and  O1_4
REMARK    2  A    between atoms: C2_2  and  C4_6
REMARK    3  A    between atoms: C4_6  and  C5_7
REMARK    4  A    between atoms: C5_7  and  C6_8
REMARK    5  A    between atoms: C6_8  and  O2_11
REMARK    6  A    between atoms: O2_11  and  C9_12
REMARK    7  A    between atoms: C11_14  and  N1_16
REMARK    8  A    between atoms: C13_20  and  C14_21
REMARK    9  A    between atoms: C14_21  and  O3_22
ROOT
HETATM    1  C9  UNL     1      -4.858   2.329  12.549  1.00  0.00     0.264 C
HETATM    2  C10 UNL     1      -4.093   1.134  13.070  1.00  0.00     0.102 C
HETATM    3  C11 UNL     1      -3.444   0.685  11.752  1.00  0.00     0.152 C
HETATM    4  C12 UNL     1      -2.117   1.363  11.544  1.00  0.00     0.049 C
HETATM    5  C13 UNL     1      -4.474   1.129  10.763  1.00  0.00     0.183 C
HETATM    6  O4  UNL     1      -5.516   1.720  11.475  1.00  0.00    -0.351 OA
ENDROOT
BRANCH   1   7
HETATM    7  O2  UNL     1      -5.766   2.843  13.407  1.00  0.00    -0.351 OA
BRANCH   7   8
HETATM    8  C6  UNL     1      -5.320   3.833  14.248  1.00  0.00     0.057 C
HETATM    9  C7  UNL     1      -3.973   4.316  13.707  1.00  0.00     0.045 C
HETATM   10  C8  UNL     1      -6.227   4.993  14.409  1.00  0.00     0.045 C
BRANCH   8  11
HETATM   11  C5  UNL     1      -5.054   3.279  15.636  1.00  0.00     0.040 C
BRANCH  11  12
HETATM   12  C4  UNL     1      -6.385   2.661  16.088  1.00  0.00     0.040 C
BRANCH  12  13
HETATM   13  C2  UNL     1      -6.146   1.431  16.930  1.00  0.00     0.051 C
HETATM   14  C1  UNL     1      -6.166   1.753  18.393  1.00  0.00     0.045 C
HETATM   15  C3  UNL     1      -4.776   0.902  16.559  1.00  0.00     0.045 C
BRANCH  13  16
HETATM   16  O1  UNL     1      -7.058   0.407  16.628  1.00  0.00    -0.391 OA
ATOM     17  H1  UNL     1      -6.749  -0.120  15.901  1.00  0.00     0.210 HD
ENDBRANCH  13  16
ENDBRANCH  12  13
ENDBRANCH  11  12
ENDBRANCH   8  11
ENDBRANCH   7   8
ENDBRANCH   1   7
BRANCH   3  18
HETATM   18  N1  UNL     1      -3.250  -0.721  11.824  1.00  0.00    -0.068 N
ATOM     19  H13 UNL     1      -2.754  -1.011  12.667  1.00  0.00     0.275 HD
ATOM     20  H12 UNL     1      -4.115  -1.234  11.994  1.00  0.00     0.275 HD
ATOM     21  H11 UNL     1      -2.779  -1.013  10.967  1.00  0.00     0.275 HD
ENDBRANCH   3  18
BRANCH   5  22
HETATM   22  C14 UNL     1      -4.955  -0.041   9.933  1.00  0.00     0.198 C
BRANCH  22  23
HETATM   23  O3  UNL     1      -3.956  -0.522   9.118  1.00  0.00    -0.398 OA
ATOM     24  H3  UNL     1      -4.312  -1.029   8.398  1.00  0.00     0.209 HD
ENDBRANCH  22  23
ENDBRANCH   5  22
TORSDOF 9
ENDMDL