MODEL 5
REMARK VINA RESULT: -6.170327281      2.242      3.428
REMARK  7 active torsions:
REMARK  status: ('A' for Active; 'I' for Inactive)
REMARK    1  A    between atoms: N1_2  and  C2_4
REMARK    2  A    between atoms: C5_7  and  C6_8
REMARK    3  A    between atoms: N2_9  and  O1_11
REMARK    4  A    between atoms: O1_11  and  C7_12
REMARK    5  A    between atoms: C8_13  and  O2_14
REMARK    6  A    between atoms: C11_17  and  O3_18
REMARK    7  A    between atoms: C12_20  and  O4_21
ROOT
HETATM    1  C6  UNL     1      -3.984   2.421  12.656  1.00  0.00     0.125 C
HETATM    2  N2  UNL     1      -3.929   2.833  13.803  1.00  0.00    -0.277 N
ATOM      3  H2  UNL     1      -4.275   3.791  13.870  1.00  0.00     0.193 HD
ENDROOT
BRANCH   2   4
HETATM    4  O1  UNL     1      -3.549   2.382  14.976  1.00  0.00    -0.270 OA
BRANCH   4   5
HETATM    5  C7  UNL     1      -4.390   2.207  16.075  1.00  0.00     0.212 C
HETATM    6  C8  UNL     1      -5.497   3.221  16.126  1.00  0.00     0.157 C
HETATM    7  C10 UNL     1      -6.418   2.552  17.143  1.00  0.00     0.069 C
HETATM    8  C11 UNL     1      -6.248   1.063  16.933  1.00  0.00     0.152 C
HETATM    9  C12 UNL     1      -5.257   0.944  15.813  1.00  0.00     0.180 C
BRANCH   6  10
HETATM   10  O2  UNL     1      -6.095   3.274  14.878  1.00  0.00    -0.388 OA
HETATM   11  C9  UNL     1      -6.497   4.505  14.449  1.00  0.00     0.202 C
ENDBRANCH   6  10
BRANCH   8  12
HETATM   12  O3  UNL     1      -7.441   0.462  16.592  1.00  0.00    -0.393 OA
ATOM     13  H3  UNL     1      -7.335  -0.129  15.856  1.00  0.00     0.210 HD
ENDBRANCH   8  12
BRANCH   9  14
HETATM   14  O4  UNL     1      -4.481  -0.193  15.864  1.00  0.00    -0.390 OA
ATOM     15  H4  UNL     1      -4.604  -0.715  15.080  1.00  0.00     0.210 HD
ENDBRANCH   9  14
ENDBRANCH   4   5
ENDBRANCH   2   4
BRANCH   1  16
HETATM   16  C5  UNL     1      -3.574   1.101  12.188  1.00  0.00    -0.019 A
HETATM   17  C4  UNL     1      -2.440   0.861  11.460  1.00  0.00     0.015 A
HETATM   18  C3  UNL     1      -2.097  -0.389  11.048  1.00  0.00     0.030 A
HETATM   19  C2  UNL     1      -2.859  -1.497  11.332  1.00  0.00     0.027 A
HETATM   20  C14 UNL     1      -4.014  -1.269  12.072  1.00  0.00     0.030 A
HETATM   21  C13 UNL     1      -4.368  -0.018  12.490  1.00  0.00     0.015 A
BRANCH  19  22
HETATM   22  N1  UNL     1      -2.508  -2.805  10.903  1.00  0.00    -0.394 N
HETATM   23  C1  UNL     1      -3.358  -3.911  11.274  1.00  0.00     0.146 C
ATOM     24  H1  UNL     1      -1.670  -2.960  10.342  1.00  0.00     0.159 HD
ENDBRANCH  19  22
ENDBRANCH   1  16
TORSDOF 7
ENDMDL