MODEL 5
REMARK VINA RESULT: -5.431525639      2.912      3.919
REMARK  9 active torsions:
REMARK  status: ('A' for Active; 'I' for Inactive)
REMARK    1  A    between atoms: C2_2  and  C3_3
REMARK    2  A    between atoms: C3_3  and  N1_4
REMARK    3  A    between atoms: C4_5  and  C5_6
REMARK    4  A    between atoms: C5_6  and  O1_7
REMARK    5  A    between atoms: C6_9  and  O2_10
REMARK    6  A    between atoms: C7_12  and  O3_13
REMARK    7  A    between atoms: C8_15  and  C9_16
REMARK    8  A    between atoms: C9_16  and  C10_17
REMARK    9  A    between atoms: C10_17  and  C11_18
ROOT
HETATM    1  N1  UNL     1      -5.067   3.249  14.121  1.00  0.00     0.105 N
HETATM    2  C4  UNL     1      -5.172   2.006  13.464  1.00  0.00     0.277 C
HETATM    3  C6  UNL     1      -4.233   1.087  14.201  1.00  0.00     0.184 C
HETATM    4  C7  UNL     1      -4.331   1.661  15.622  1.00  0.00     0.182 C
HETATM    5  C8  UNL     1      -4.268   3.131  15.318  1.00  0.00     0.255 C
ENDROOT
BRANCH   5   6
HETATM    6  C9  UNL     1      -2.888   3.558  14.936  1.00  0.00     0.040 C
BRANCH   6   7
HETATM    7  C10 UNL     1      -2.633   5.009  14.758  1.00  0.00     0.017 C
BRANCH   7   8
HETATM    8  C11 UNL     1      -1.481   5.090  13.726  1.00  0.00     0.048 C
HETATM    9  C12 UNL     1      -1.706   4.252  12.514  1.00  0.00     0.025 C
HETATM   10  C13 UNL     1      -0.807   5.217  11.739  1.00  0.00     0.075 C
HETATM   11  S1  UNL     1      -1.542   6.570  12.715  1.00  0.00    -0.164 SA
ENDBRANCH   7   8
ENDBRANCH   6   7
ENDBRANCH   5   6
BRANCH   1  12
HETATM   12  C3  UNL     1      -6.251   4.005  14.239  1.00  0.00     0.273 C
BRANCH  12  13
HETATM   13  C2  UNL     1      -6.133   5.475  14.161  1.00  0.00     0.026 C
HETATM   14  C1  UNL     1      -5.402   5.795  12.846  1.00  0.00     0.007 C
ENDBRANCH  12  13
ENDBRANCH   1  12
BRANCH   4  15
HETATM   15  O3  UNL     1      -3.406   1.151  16.471  1.00  0.00    -0.391 OA
ATOM     16  H3  UNL     1      -2.514   1.270  16.170  1.00  0.00     0.210 HD
ENDBRANCH   4  15
BRANCH   2  17
HETATM   17  C5  UNL     1      -4.686   2.081  12.010  1.00  0.00     0.202 C
BRANCH  17  18
HETATM   18  O1  UNL     1      -5.694   1.613  11.175  1.00  0.00    -0.399 OA
ATOM     19  H1  UNL     1      -5.382   1.631  10.278  1.00  0.00     0.209 HD
ENDBRANCH  17  18
ENDBRANCH   2  17
BRANCH   3  20
HETATM   20  O2  UNL     1      -4.687  -0.234  14.189  1.00  0.00    -0.391 OA
ATOM     21  H2  UNL     1      -4.647  -0.627  15.053  1.00  0.00     0.210 HD
ENDBRANCH   3  20
TORSDOF 9
ENDMDL