MODEL 1
REMARK VINA RESULT: -6.513353480      0.000      0.000
REMARK  10 active torsions:
REMARK  status: ('A' for Active; 'I' for Inactive)
REMARK    1  A    between atoms: C2_2  and  C3_3
REMARK    2  A    between atoms: C3_3  and  C4_4
REMARK    3  A    between atoms: C3_3  and  C14_19
REMARK    4  A    between atoms: C4_4  and  O1_5
REMARK    5  A    between atoms: C4_4  and  C5_7
REMARK    6  A    between atoms: C7_9  and  O2_10
REMARK    7  A    between atoms: C9_12  and  O3_13
REMARK    8  A    between atoms: C11_15  and  O4_16
REMARK    9  A    between atoms: C14_19  and  O5_20
REMARK   10  A    between atoms: C14_19  and  O6_22
ROOT
HETATM    1  C5  UNL     1      -4.277   1.553  14.258  1.00  0.00     0.003 A
HETATM    2  C6  UNL     1      -3.694   2.749  13.784  1.00  0.00     0.054 A
HETATM    3  C7  UNL     1      -3.185   2.947  12.544  1.00  0.00     0.105 A
HETATM    4  C9  UNL     1      -3.241   1.889  11.665  1.00  0.00     0.135 A
HETATM    5  C11 UNL     1      -3.787   0.691  12.037  1.00  0.00     0.105 A
HETATM    6  C13 UNL     1      -4.302   0.536  13.339  1.00  0.00     0.054 A
ENDROOT
BRANCH   1   7
HETATM    7  C4  UNL     1      -4.668   1.425  15.620  1.00  0.00     0.086 C
BRANCH   7   8
HETATM    8  C3  UNL     1      -5.755   1.712  16.469  1.00  0.00     0.026 C
BRANCH   8   9
HETATM    9  C2  UNL     1      -6.554   2.698  16.563  1.00  0.00    -0.016 C
HETATM   10  C1  UNL     1      -6.513   4.046  16.036  1.00  0.00     0.037 C
ENDBRANCH   8   9
BRANCH   8  11
HETATM   11  C14 UNL     1      -6.075   0.593  17.522  1.00  0.00     0.290 C
BRANCH  11  12
HETATM   12  O5  UNL     1      -5.427   0.859  18.695  1.00  0.00    -0.367 OA
ATOM     13  H5  UNL     1      -6.038   1.213  19.330  1.00  0.00     0.213 HD
ENDBRANCH  11  12
BRANCH  11  14
HETATM   14  O6  UNL     1      -5.812  -0.614  17.003  1.00  0.00    -0.367 OA
ATOM     15  H6  UNL     1      -4.891  -0.821  17.110  1.00  0.00     0.213 HD
ENDBRANCH  11  14
ENDBRANCH   8  11
ENDBRANCH   7   8
BRANCH   7  16
HETATM   16  O1  UNL     1      -3.652   0.833  16.312  1.00  0.00    -0.359 OA
ATOM     17  H1  UNL     1      -2.898   1.409  16.364  1.00  0.00     0.217 HD
ENDBRANCH   7  16
ENDBRANCH   1   7
BRANCH   3  18
HETATM   18  O2  UNL     1      -2.618   4.136  12.111  1.00  0.00    -0.353 OA
HETATM   19  C8  UNL     1      -1.440   4.699  12.591  1.00  0.00     0.210 C
ENDBRANCH   3  18
BRANCH   5  20
HETATM   20  O4  UNL     1      -3.852  -0.370  11.179  1.00  0.00    -0.353 OA
HETATM   21  C12 UNL     1      -3.162  -1.573  11.423  1.00  0.00     0.210 C
ENDBRANCH   5  20
BRANCH   4  22
HETATM   22  O3  UNL     1      -2.736   2.038  10.385  1.00  0.00    -0.351 OA
HETATM   23  C10 UNL     1      -1.343   1.838  10.134  1.00  0.00     0.210 C
ENDBRANCH   4  22
TORSDOF 10
ENDMDL