MODEL 5
REMARK VINA RESULT: -5.463278196      1.093      1.804
REMARK  12 active torsions:
REMARK  status: ('A' for Active; 'I' for Inactive)
REMARK    1  A    between atoms: C2_2  and  O1_3
REMARK    2  A    between atoms: C3_5  and  C4_6
REMARK       I    between atoms: C4_6  and  N1_8
REMARK    3  A    between atoms: N1_8  and  C5_10
REMARK    4  A    between atoms: C5_10  and  C6_11
REMARK    5  A    between atoms: C6_11  and  C7_12
REMARK    6  A    between atoms: C7_12  and  C8_13
REMARK    7  A    between atoms: C8_13  and  N2_14
REMARK    8  A    between atoms: C12_18  and  O3_19
REMARK    9  A    between atoms: C13_21  and  O4_22
REMARK   10  A    between atoms: C14_24  and  C15_25
REMARK   11  A    between atoms: C15_25  and  O5_26
REMARK   12  A    between atoms: C15_25  and  O6_28
ROOT
HETATM    1  C1  UNL     1     -18.292  34.870  42.993  1.00  0.00     0.047 C
HETATM    2  C2  UNL     1     -17.188  35.815  42.634  1.00  0.00     0.079 C
HETATM    3  C3  UNL     1     -17.820  37.143  42.270  1.00  0.00     0.143 C
HETATM    4  C12 UNL     1     -18.512  36.760  40.972  1.00  0.00     0.163 C
HETATM    5  C13 UNL     1     -17.573  35.757  40.307  1.00  0.00     0.159 C
HETATM    6  C14 UNL     1     -16.526  35.501  41.320  1.00  0.00     0.106 C
ENDROOT
BRANCH   3   7
HETATM    7  C4  UNL     1     -18.711  37.704  43.272  1.00  0.00     0.227 C
HETATM    8  O2  UNL     1     -19.945  37.693  43.073  1.00  0.00    -0.273 OA
HETATM    9  N1  UNL     1     -18.205  38.258  44.461  1.00  0.00    -0.361 N
ATOM     10  H1  UNL     1     -17.192  38.246  44.587  1.00  0.00     0.162 HD
BRANCH   9  11
HETATM   11  C5  UNL     1     -18.995  38.843  45.520  1.00  0.00     0.122 C
BRANCH  11  12
HETATM   12  C6  UNL     1     -18.620  38.311  46.864  1.00  0.00     0.021 C
BRANCH  12  13
HETATM   13  C7  UNL     1     -19.571  37.241  47.357  1.00  0.00     0.029 C
BRANCH  13  14
HETATM   14  C8  UNL     1     -20.970  37.450  46.809  1.00  0.00     0.236 C
BRANCH  14  15
HETATM   15  N2  UNL     1     -21.516  36.176  46.395  1.00  0.00    -0.079 N
HETATM   16  C9  UNL     1     -22.403  36.296  45.255  1.00  0.00     0.271 C
HETATM   17  C10 UNL     1     -20.430  35.288  46.002  1.00  0.00     0.271 C
HETATM   18  C11 UNL     1     -22.192  35.572  47.511  1.00  0.00     0.271 C
ENDBRANCH  14  15
ENDBRANCH  13  14
ENDBRANCH  12  13
ENDBRANCH  11  12
ENDBRANCH   9  11
ENDBRANCH   3   7
BRANCH   2  19
HETATM   19  O1  UNL     1     -16.242  35.923  43.624  1.00  0.00    -0.389 OA
ATOM     20  H1  UNL     1     -15.363  35.753  43.308  1.00  0.00     0.210 HD
ENDBRANCH   2  19
BRANCH   4  21
HETATM   21  O3  UNL     1     -18.652  37.927  40.221  1.00  0.00    -0.392 OA
ATOM     22  H3  UNL     1     -19.523  38.267  40.392  1.00  0.00     0.210 HD
ENDBRANCH   4  21
BRANCH   6  23
HETATM   23  C15 UNL     1     -15.883  34.160  41.261  1.00  0.00     0.263 C
BRANCH  23  24
HETATM   24  O5  UNL     1     -15.697  33.652  40.005  1.00  0.00    -0.371 OA
ATOM     25  H5  UNL     1     -15.589  34.297  39.315  1.00  0.00     0.212 HD
ENDBRANCH  23  24
BRANCH  23  26
HETATM   26  O6  UNL     1     -14.623  34.271  41.866  1.00  0.00    -0.371 OA
ATOM     27  H6  UNL     1     -14.433  35.197  41.962  1.00  0.00     0.212 HD
ENDBRANCH  23  26
ENDBRANCH   6  23
BRANCH   5  28
HETATM   28  O4  UNL     1     -18.223  34.652  39.813  1.00  0.00    -0.392 OA
ATOM     29  H4  UNL     1     -17.691  34.141  39.215  1.00  0.00     0.210 HD
ENDBRANCH   5  28
TORSDOF 12
ENDMDL