MODEL 3
REMARK VINA RESULT: -5.804788231      2.088      6.589
REMARK  13 active torsions:
REMARK  status: ('A' for Active; 'I' for Inactive)
REMARK    1  A    between atoms: O1_1  and  C1_3
REMARK    2  A    between atoms: C1_3  and  C2_4
REMARK    3  A    between atoms: C2_4  and  N1_5
REMARK    4  A    between atoms: N1_5  and  C3_7
REMARK    5  A    between atoms: C7_13  and  C8_14
REMARK    6  A    between atoms: C8_14  and  C9_15
REMARK    7  A    between atoms: C9_15  and  N3_16
REMARK    8  A    between atoms: C11_18  and  O2_19
REMARK    9  A    between atoms: C12_21  and  O3_22
REMARK   10  A    between atoms: C13_24  and  O4_25
REMARK   11  A    between atoms: C14_27  and  C15_28
REMARK   12  A    between atoms: C15_28  and  C16_29
REMARK   13  A    between atoms: C16_29  and  O5_30
ROOT
HETATM    1  N3  UNL     1     -20.024  36.653  46.154  1.00  0.00    -0.403 N
HETATM    2  C10 UNL     1     -19.218  36.280  47.248  1.00  0.00     0.151 C
HETATM    3  C11 UNL     1     -17.992  37.195  47.381  1.00  0.00     0.167 C
HETATM    4  C12 UNL     1     -18.518  38.577  47.577  1.00  0.00     0.179 C
HETATM    5  C13 UNL     1     -19.263  38.987  46.326  1.00  0.00     0.172 C
HETATM    6  C14 UNL     1     -20.348  38.009  45.963  1.00  0.00     0.112 C
ENDROOT
BRANCH   1   7
HETATM    7  C9  UNL     1     -19.932  35.885  44.964  1.00  0.00     0.122 C
BRANCH   7   8
HETATM    8  C8  UNL     1     -18.565  35.940  44.323  1.00  0.00     0.062 C
BRANCH   8   9
HETATM    9  C7  UNL     1     -18.652  36.447  42.919  1.00  0.00    -0.013 A
HETATM   10  C3  UNL     1     -17.753  35.957  41.963  1.00  0.00     0.107 A
HETATM   11  N2  UNL     1     -17.819  36.412  40.709  1.00  0.00    -0.352 N
HETATM   12  C4  UNL     1     -18.750  37.339  40.390  1.00  0.00     0.089 A
ATOM     13  H2  UNL     1     -17.173  36.064  40.000  1.00  0.00     0.166 HD
HETATM   14  C5  UNL     1     -19.651  37.847  41.303  1.00  0.00     0.018 A
HETATM   15  C6  UNL     1     -19.601  37.389  42.601  1.00  0.00     0.012 A
BRANCH  10  16
HETATM   16  N1  UNL     1     -16.918  35.082  42.374  1.00  0.00    -0.374 N
ATOM     17  H1  UNL     1     -16.324  35.318  43.169  1.00  0.00     0.161 HD
BRANCH  16  18
HETATM   18  C2  UNL     1     -16.770  33.781  41.777  1.00  0.00     0.147 C
BRANCH  18  19
HETATM   19  C1  UNL     1     -15.493  33.656  40.973  1.00  0.00     0.183 C
BRANCH  19  20
HETATM   20  O1  UNL     1     -15.754  34.075  39.668  1.00  0.00    -0.399 OA
ATOM     21  H1  UNL     1     -15.168  34.794  39.462  1.00  0.00     0.209 HD
ENDBRANCH  19  20
ENDBRANCH  18  19
ENDBRANCH  16  18
ENDBRANCH  10  16
ENDBRANCH   8   9
ENDBRANCH   7   8
ENDBRANCH   1   7
BRANCH   6  22
HETATM   22  C15 UNL     1     -21.596  38.435  46.747  1.00  0.00     0.053 C
BRANCH  22  23
HETATM   23  C16 UNL     1     -22.861  37.982  46.051  1.00  0.00     0.166 C
BRANCH  23  24
HETATM   24  O5  UNL     1     -22.606  38.032  44.684  1.00  0.00    -0.401 OA
ATOM     25  H5  UNL     1     -22.782  37.164  44.340  1.00  0.00     0.209 HD
ENDBRANCH  23  24
ENDBRANCH  22  23
ENDBRANCH   6  22
BRANCH   3  26
HETATM   26  O2  UNL     1     -17.277  36.780  48.519  1.00  0.00    -0.391 OA
ATOM     27  H2  UNL     1     -17.904  36.414  49.132  1.00  0.00     0.210 HD
ENDBRANCH   3  26
BRANCH   5  28
HETATM   28  O4  UNL     1     -18.398  39.244  45.258  1.00  0.00    -0.391 OA
ATOM     29  H4  UNL     1     -18.854  39.609  44.509  1.00  0.00     0.210 HD
ENDBRANCH   5  28
BRANCH   4  30
HETATM   30  O3  UNL     1     -17.525  39.516  47.827  1.00  0.00    -0.390 OA
ATOM     31  H3  UNL     1     -16.883  39.227  48.464  1.00  0.00     0.210 HD
ENDBRANCH   4  30
TORSDOF 13
ENDMDL