MODEL 3
REMARK VINA RESULT: -7.188389567      1.869      3.341
REMARK  10 active torsions:
REMARK  status: ('A' for Active; 'I' for Inactive)
REMARK    1  A    between atoms: C3_3  and  C4_4
REMARK    2  A    between atoms: C3_3  and  C6_12
REMARK    3  A    between atoms: C4_4  and  N1_5
REMARK    4  A    between atoms: C4_4  and  C5_9
REMARK    5  A    between atoms: C6_12  and  O3_13
REMARK    6  A    between atoms: C6_12  and  C7_15
REMARK    7  A    between atoms: C7_15  and  O4_16
REMARK    8  A    between atoms: C7_15  and  C8_18
REMARK    9  A    between atoms: C12_24  and  C13_25
REMARK   10  A    between atoms: C13_25  and  N3_27
REMARK       I    between atoms: N3_27  and  C15_29
ROOT
HETATM    1  C1  UNL     1     -19.336  37.699  40.596  1.00  0.00     0.012 C
HETATM    2  C2  UNL     1     -18.467  37.048  41.117  1.00  0.00    -0.107 C
HETATM    3  C3  UNL     1     -17.443  36.249  41.703  1.00  0.00     0.136 C
ENDROOT
BRANCH   3   4
HETATM    4  C4  UNL     1     -17.286  35.021  40.756  1.00  0.00     0.301 C
BRANCH   4   5
HETATM    5  N1  UNL     1     -16.760  35.551  39.512  1.00  0.00    -0.064 N
ATOM      6  H13 UNL     1     -16.098  36.316  39.640  1.00  0.00     0.275 HD
ATOM      7  H12 UNL     1     -16.121  34.916  39.034  1.00  0.00     0.275 HD
ATOM      8  H11 UNL     1     -17.576  35.806  38.955  1.00  0.00     0.275 HD
ENDBRANCH   4   5
BRANCH   4   9
HETATM    9  C5  UNL     1     -16.317  34.071  41.338  1.00  0.00     0.205 C
HETATM   10  O1  UNL     1     -15.098  34.340  41.397  1.00  0.00    -0.646 OA
HETATM   11  O2  UNL     1     -16.743  32.855  41.832  1.00  0.00    -0.646 OA
ENDBRANCH   4   9
ENDBRANCH   3   4
BRANCH   3  12
HETATM   12  C6  UNL     1     -17.536  35.720  43.039  1.00  0.00     0.165 C
BRANCH  12  13
HETATM   13  O3  UNL     1     -16.904  36.827  43.846  1.00  0.00    -0.392 OA
ATOM     14  H3  UNL     1     -17.550  36.956  44.530  1.00  0.00     0.210 HD
ENDBRANCH  12  13
BRANCH  12  15
HETATM   15  C7  UNL     1     -18.735  35.388  43.817  1.00  0.00     0.154 C
BRANCH  15  16
HETATM   16  O4  UNL     1     -18.623  33.932  44.046  1.00  0.00    -0.393 OA
ATOM     17  H4  UNL     1     -18.330  33.590  43.210  1.00  0.00     0.210 HD
ENDBRANCH  15  16
BRANCH  15  18
HETATM   18  C8  UNL     1     -19.103  35.896  45.121  1.00  0.00     0.041 C
HETATM   19  C9  UNL     1     -19.191  35.086  46.335  1.00  0.00     0.011 C
HETATM   20  C10 UNL     1     -18.712  35.986  47.493  1.00  0.00     0.020 C
HETATM   21  C11 UNL     1     -19.122  37.392  47.303  1.00  0.00     0.114 C
HETATM   22  N2  UNL     1     -20.169  37.664  46.398  1.00  0.00    -0.415 N
HETATM   23  C12 UNL     1     -20.129  36.999  45.129  1.00  0.00     0.105 C
ATOM     24  H2  UNL     1     -20.924  38.307  46.637  1.00  0.00     0.153 HD
BRANCH  23  25
HETATM   25  C13 UNL     1     -21.485  36.718  44.612  1.00  0.00     0.103 C
HETATM   26  C14 UNL     1     -21.728  37.714  43.424  1.00  0.00     0.034 C
BRANCH  25  27
HETATM   27  N3  UNL     1     -22.591  36.927  45.526  1.00  0.00    -0.355 N
HETATM   28  C15 UNL     1     -23.344  35.905  46.150  1.00  0.00     0.213 C
HETATM   29  C16 UNL     1     -24.467  36.141  47.083  1.00  0.00     0.117 C
HETATM   30  O5  UNL     1     -23.043  34.715  45.898  1.00  0.00    -0.274 OA
ATOM     31  H3  UNL     1     -22.848  37.891  45.737  1.00  0.00     0.162 HD
ENDBRANCH  25  27
ENDBRANCH  23  25
ENDBRANCH  15  18
ENDBRANCH  12  15
ENDBRANCH   3  12
TORSDOF 10
ENDMDL