MODEL 1
REMARK VINA RESULT: -6.893017097      0.000      0.000
REMARK  13 active torsions:
REMARK  status: ('A' for Active; 'I' for Inactive)
REMARK    1  A    between atoms: C2_2  and  O1_3
REMARK    2  A    between atoms: C2_2  and  C3_5
REMARK    3  A    between atoms: C3_5  and  C4_6
REMARK    4  A    between atoms: C3_5  and  N1_9
REMARK    5  A    between atoms: C4_6  and  O2_7
REMARK    6  A    between atoms: N1_9  and  C5_11
REMARK    7  A    between atoms: C6_14  and  N3_15
REMARK    8  A    between atoms: N3_15  and  C7_17
REMARK    9  A    between atoms: C7_17  and  C8_18
REMARK   10  A    between atoms: C8_18  and  O3_19
REMARK   11  A    between atoms: C9_23  and  N5_24
REMARK   12  A    between atoms: N5_24  and  C10_26
REMARK   13  A    between atoms: C10_26  and  C11_27
ROOT
HETATM    1  C5  UNL     1     -18.081  36.846  42.290  1.00  0.00     0.707 A
HETATM    2  N2  UNL     1     -17.434  37.254  43.422  1.00  0.00    -0.022 N
ATOM      3  H2  UNL     1     -16.417  37.205  43.466  1.00  0.00     0.203 HD
HETATM    4  C6  UNL     1     -18.121  37.717  44.474  1.00  0.00     0.707 A
HETATM    5  N4  UNL     1     -19.454  37.794  44.447  1.00  0.00    -0.022 N
ATOM      6  H4  UNL     1     -19.974  38.147  45.250  1.00  0.00     0.203 HD
HETATM    7  C9  UNL     1     -20.100  37.389  43.323  1.00  0.00     0.707 A
HETATM    8  N6  UNL     1     -19.416  36.923  42.262  1.00  0.00    -0.021 N
ATOM      9  H6  UNL     1     -19.921  36.625  41.428  1.00  0.00     0.203 HD
ENDROOT
BRANCH   1  10
HETATM   10  N1  UNL     1     -17.361  36.412  41.319  1.00  0.00    -0.216 N
ATOM     11  H1  UNL     1     -16.830  37.090  40.771  1.00  0.00     0.178 HD
BRANCH  10  12
HETATM   12  C3  UNL     1     -17.261  35.019  40.961  1.00  0.00     0.151 C
BRANCH  12  13
HETATM   13  C2  UNL     1     -16.870  34.969  39.503  1.00  0.00     0.139 C
HETATM   14  C1  UNL     1     -16.596  36.334  38.928  1.00  0.00     0.041 C
BRANCH  13  15
HETATM   15  O1  UNL     1     -15.803  34.097  39.273  1.00  0.00    -0.394 OA
ATOM     16  H1  UNL     1     -15.034  34.351  39.769  1.00  0.00     0.210 HD
ENDBRANCH  13  15
ENDBRANCH  12  13
BRANCH  12  17
HETATM   17  C4  UNL     1     -16.314  34.266  41.851  1.00  0.00     0.192 C
BRANCH  17  18
HETATM   18  O2  UNL     1     -16.560  32.895  41.834  1.00  0.00    -0.399 OA
ATOM     19  H2  UNL     1     -15.982  32.438  41.235  1.00  0.00     0.209 HD
ENDBRANCH  17  18
ENDBRANCH  12  17
ENDBRANCH  10  12
ENDBRANCH   1  10
BRANCH   4  20
HETATM   20  N3  UNL     1     -17.475  38.089  45.515  1.00  0.00    -0.223 N
ATOM     21  H3  UNL     1     -16.578  38.559  45.393  1.00  0.00     0.177 HD
BRANCH  20  22
HETATM   22  C7  UNL     1     -17.966  37.868  46.858  1.00  0.00     0.164 C
BRANCH  22  23
HETATM   23  C8  UNL     1     -18.441  39.180  47.476  1.00  0.00     0.184 C
BRANCH  23  24
HETATM   24  O3  UNL     1     -17.333  39.932  47.863  1.00  0.00    -0.399 OA
ATOM     25  H3  UNL     1     -17.288  40.719  47.333  1.00  0.00     0.209 HD
ENDBRANCH  23  24
ENDBRANCH  22  23
ENDBRANCH  20  22
ENDBRANCH   4  20
BRANCH   7  26
HETATM   26  N5  UNL     1     -21.407  37.476  43.324  1.00  0.00    -0.221 N
ATOM     27  H5  UNL     1     -21.972  37.009  42.615  1.00  0.00     0.178 HD
BRANCH  26  28
HETATM   28  C10 UNL     1     -22.009  38.260  44.366  1.00  0.00     0.176 C
BRANCH  28  29
HETATM   29  C11 UNL     1     -22.723  37.339  45.290  1.00  0.00    -0.040 A
HETATM   30  C12 UNL     1     -22.794  35.981  45.081  1.00  0.00     0.009 A
HETATM   31  C13 UNL     1     -23.467  35.160  45.966  1.00  0.00     0.001 A
HETATM   32  C14 UNL     1     -24.090  35.660  47.086  1.00  0.00     0.000 A
HETATM   33  C15 UNL     1     -24.006  37.032  47.280  1.00  0.00     0.001 A
HETATM   34  C16 UNL     1     -23.339  37.864  46.407  1.00  0.00     0.009 A
ENDBRANCH  28  29
ENDBRANCH  26  28
ENDBRANCH   7  26
TORSDOF 13
ENDMDL