MODEL 1
REMARK VINA RESULT: -6.761796267      0.000      0.000
REMARK  12 active torsions:
REMARK  status: ('A' for Active; 'I' for Inactive)
REMARK    1  A    between atoms: C6_7  and  C7_8
REMARK    2  A    between atoms: C7_8  and  C8_9
REMARK    3  A    between atoms: C8_9  and  C9_10
REMARK    4  A    between atoms: C9_10  and  C10_11
REMARK    5  A    between atoms: C10_11  and  O1_12
REMARK    6  A    between atoms: C10_11  and  N2_14
REMARK    7  A    between atoms: N2_14  and  C11_16
REMARK    8  A    between atoms: C12_17  and  O2_18
REMARK    9  A    between atoms: C13_21  and  C14_22
REMARK   10  A    between atoms: C14_22  and  O4_23
REMARK   11  A    between atoms: C15_25  and  O5_26
REMARK   12  A    between atoms: C16_28  and  O6_29
ROOT
HETATM    1  C11 UNL     1     -17.278  37.438  42.414  1.00  0.00     0.165 C
HETATM    2  C12 UNL     1     -16.886  36.444  43.476  1.00  0.00     0.282 C
HETATM    3  O3  UNL     1     -16.113  35.460  42.927  1.00  0.00    -0.349 OA
HETATM    4  C13 UNL     1     -16.769  34.651  42.020  1.00  0.00     0.179 C
HETATM    5  C15 UNL     1     -17.333  35.465  40.869  1.00  0.00     0.180 C
HETATM    6  C16 UNL     1     -17.997  36.710  41.307  1.00  0.00     0.176 C
ENDROOT
BRANCH   1   7
HETATM    7  N2  UNL     1     -18.123  38.481  42.928  1.00  0.00    -0.386 N
ATOM      8  H2  UNL     1     -18.205  39.380  42.452  1.00  0.00     0.156 HD
BRANCH   7   9
HETATM    9  C10 UNL     1     -18.829  38.216  44.103  1.00  0.00     0.213 C
BRANCH   9  10
HETATM   10  C9  UNL     1     -20.312  38.105  44.067  1.00  0.00     0.053 C
BRANCH  10  11
HETATM   11  C8  UNL     1     -20.805  36.689  44.008  1.00  0.00     0.010 C
BRANCH  11  12
HETATM   12  C7  UNL     1     -20.494  35.892  45.224  1.00  0.00     0.057 C
BRANCH  12  13
HETATM   13  C6  UNL     1     -21.624  35.595  46.121  1.00  0.00     0.010 A
HETATM   14  N1  UNL     1     -21.294  35.340  47.407  1.00  0.00    -0.364 N
HETATM   15  C1  UNL     1     -19.918  35.353  47.894  1.00  0.00     0.155 C
HETATM   16  C2  UNL     1     -22.228  35.035  48.346  1.00  0.00     0.090 A
HETATM   17  C3  UNL     1     -23.558  34.977  48.004  1.00  0.00     0.017 A
HETATM   18  C4  UNL     1     -23.893  35.236  46.691  1.00  0.00     0.003 A
HETATM   19  C5  UNL     1     -22.933  35.543  45.753  1.00  0.00     0.025 A
ENDBRANCH  12  13
ENDBRANCH  11  12
ENDBRANCH  10  11
ENDBRANCH   9  10
BRANCH   9  20
HETATM   20  O1  UNL     1     -18.428  39.127  45.116  1.00  0.00    -0.377 OA
ATOM     21  H1  UNL     1     -18.336  38.677  45.947  1.00  0.00     0.212 HD
ENDBRANCH   9  20
ENDBRANCH   7   9
ENDBRANCH   1   7
BRANCH   2  22
HETATM   22  O2  UNL     1     -16.194  37.052  44.525  1.00  0.00    -0.369 OA
ATOM     23  H2  UNL     1     -15.278  37.183  44.313  1.00  0.00     0.212 HD
ENDBRANCH   2  22
BRANCH   6  24
HETATM   24  O6  UNL     1     -18.137  37.552  40.176  1.00  0.00    -0.391 OA
ATOM     25  H6  UNL     1     -18.179  37.032  39.382  1.00  0.00     0.210 HD
ENDBRANCH   6  24
BRANCH   5  26
HETATM   26  O5  UNL     1     -16.365  35.660  39.900  1.00  0.00    -0.390 OA
ATOM     27  H5  UNL     1     -16.031  36.548  39.941  1.00  0.00     0.210 HD
ENDBRANCH   5  26
BRANCH   4  28
HETATM   28  C14 UNL     1     -17.862  33.801  42.632  1.00  0.00     0.198 C
BRANCH  28  29
HETATM   29  O4  UNL     1     -17.375  32.472  42.628  1.00  0.00    -0.398 OA
ATOM     30  H4  UNL     1     -17.748  32.053  43.395  1.00  0.00     0.209 HD
ENDBRANCH  28  29
ENDBRANCH   4  28
TORSDOF 12
ENDMDL