MODEL 5
REMARK VINA RESULT: -6.031718200      1.873      3.159
REMARK  12 active torsions:
REMARK  status: ('A' for Active; 'I' for Inactive)
REMARK    1  A    between atoms: C2_2  and  C3_3
REMARK    2  A    between atoms: C3_3  and  C4_4
REMARK    3  A    between atoms: C4_4  and  C5_5
REMARK    4  A    between atoms: C5_5  and  O1_6
REMARK    5  A    between atoms: C5_5  and  N1_8
REMARK       I    between atoms: N1_8  and  C6_10
REMARK    6  A    between atoms: C6_10  and  C7_12
REMARK    7  A    between atoms: C8_13  and  C9_14
REMARK    8  A    between atoms: C9_14  and  N2_15
REMARK    9  A    between atoms: C12_18  and  O3_19
REMARK   10  A    between atoms: C13_21  and  O4_22
REMARK   11  A    between atoms: C14_24  and  O5_25
REMARK   12  A    between atoms: C15_27  and  O6_28
ROOT
HETATM    1  N2  UNL     1     -20.555  38.196  45.946  1.00  0.00    -0.037 N
HETATM    2  C10 UNL     1     -20.532  39.106  47.088  1.00  0.00     0.276 C
HETATM    3  C11 UNL     1     -20.276  36.860  46.378  1.00  0.00     0.274 C
HETATM    4  C12 UNL     1     -21.451  36.276  47.139  1.00  0.00     0.175 C
HETATM    5  C13 UNL     1     -22.582  36.161  46.106  1.00  0.00     0.181 C
HETATM    6  C14 UNL     1     -22.926  37.576  45.707  1.00  0.00     0.206 C
HETATM    7  C15 UNL     1     -21.762  38.349  45.200  1.00  0.00     0.355 C
ENDROOT
BRANCH   1   8
HETATM    8  C9  UNL     1     -19.434  38.606  45.087  1.00  0.00     0.267 C
BRANCH   8   9
HETATM    9  C8  UNL     1     -18.515  37.491  44.822  1.00  0.00     0.006 C
HETATM   10  C7  UNL     1     -18.118  37.225  43.600  1.00  0.00     0.072 C
BRANCH  10  11
HETATM   11  C6  UNL     1     -17.211  36.138  43.273  1.00  0.00     0.242 C
HETATM   12  N1  UNL     1     -17.654  35.100  42.427  1.00  0.00    -0.331 N
ATOM     13  H1  UNL     1     -18.605  35.129  42.058  1.00  0.00     0.165 HD
HETATM   14  O2  UNL     1     -16.056  36.143  43.748  1.00  0.00    -0.269 OA
BRANCH  12  15
HETATM   15  C5  UNL     1     -16.796  33.999  42.072  1.00  0.00     0.220 C
BRANCH  15  16
HETATM   16  C4  UNL     1     -16.431  33.989  40.625  1.00  0.00     0.053 C
BRANCH  16  17
HETATM   17  C3  UNL     1     -17.435  34.738  39.771  1.00  0.00     0.004 C
BRANCH  17  18
HETATM   18  C2  UNL     1     -16.822  35.969  39.148  1.00  0.00    -0.004 C
HETATM   19  C1  UNL     1     -17.364  37.239  39.711  1.00  0.00     0.005 C
ENDBRANCH  17  18
ENDBRANCH  16  17
ENDBRANCH  15  16
BRANCH  15  20
HETATM   20  O1  UNL     1     -17.404  32.814  42.484  1.00  0.00    -0.377 OA
ATOM     21  H1  UNL     1     -16.853  32.298  43.060  1.00  0.00     0.212 HD
ENDBRANCH  15  20
ENDBRANCH  12  15
ENDBRANCH  10  11
ENDBRANCH   8   9
ENDBRANCH   1   8
BRANCH   7  22
HETATM   22  O6  UNL     1     -21.599  38.042  43.834  1.00  0.00    -0.367 OA
ATOM     23  H6  UNL     1     -22.414  38.085  43.349  1.00  0.00     0.212 HD
ENDBRANCH   7  22
BRANCH   4  24
HETATM   24  O3  UNL     1     -21.149  35.039  47.662  1.00  0.00    -0.391 OA
ATOM     25  H3  UNL     1     -21.597  34.343  47.195  1.00  0.00     0.210 HD
ENDBRANCH   4  24
BRANCH   6  26
HETATM   26  O5  UNL     1     -23.596  38.200  46.760  1.00  0.00    -0.388 OA
ATOM     27  H5  UNL     1     -24.222  37.592  47.136  1.00  0.00     0.210 HD
ENDBRANCH   6  26
BRANCH   5  28
HETATM   28  O4  UNL     1     -23.686  35.562  46.661  1.00  0.00    -0.390 OA
ATOM     29  H4  UNL     1     -23.896  34.757  46.202  1.00  0.00     0.210 HD
ENDBRANCH   5  28
TORSDOF 12
ENDMDL