MODEL 5
REMARK VINA RESULT: -5.396296947      1.364      1.817
REMARK  11 active torsions:
REMARK  status: ('A' for Active; 'I' for Inactive)
REMARK    1  A    between atoms: C2_2  and  N1_4
REMARK    2  A    between atoms: N1_4  and  C4_6
REMARK    3  A    between atoms: C5_9  and  N3_10
REMARK    4  A    between atoms: C6_15  and  N5_16
REMARK    5  A    between atoms: N5_16  and  C7_18
REMARK    6  A    between atoms: C7_18  and  C8_19
REMARK    7  A    between atoms: C8_19  and  C9_20
REMARK    8  A    between atoms: C9_20  and  C10_21
REMARK    9  A    between atoms: C10_21  and  N6_22
REMARK   10  A    between atoms: N6_22  and  C12_24
REMARK   11  A    between atoms: C15_30  and  O1_31
ROOT
HETATM    1  C4  UNL     1     -18.257  37.131  42.251  1.00  0.00     0.707 A
HETATM    2  N2  UNL     1     -17.526  37.367  43.348  1.00  0.00    -0.022 N
ATOM      3  H2  UNL     1     -16.513  37.253  43.315  1.00  0.00     0.203 HD
HETATM    4  C5  UNL     1     -18.120  37.755  44.500  1.00  0.00     0.705 A
HETATM    5  N4  UNL     1     -19.468  37.910  44.562  1.00  0.00    -0.022 N
ATOM      6  H4  UNL     1     -19.905  38.202  45.436  1.00  0.00     0.203 HD
HETATM    7  C6  UNL     1     -20.230  37.683  43.481  1.00  0.00     0.707 A
HETATM    8  N8  UNL     1     -19.615  37.303  42.363  1.00  0.00    -0.022 N
ATOM      9  H8  UNL     1     -20.189  37.129  41.537  1.00  0.00     0.203 HD
ENDROOT
BRANCH   7  10
HETATM   10  N5  UNL     1     -21.493  37.819  43.497  1.00  0.00    -0.225 N
ATOM     11  H5  UNL     1     -21.901  38.122  42.612  1.00  0.00     0.177 HD
BRANCH  10  12
HETATM   12  C7  UNL     1     -22.423  37.621  44.536  1.00  0.00     0.138 C
BRANCH  12  13
HETATM   13  C8  UNL     1     -22.673  36.140  44.832  1.00  0.00     0.022 C
BRANCH  13  14
HETATM   14  C9  UNL     1     -22.494  35.996  46.336  1.00  0.00     0.032 C
BRANCH  14  15
HETATM   15  C10 UNL     1     -21.123  35.432  46.579  1.00  0.00     0.272 C
BRANCH  15  16
HETATM   16  N6  UNL     1     -20.522  35.836  47.818  1.00  0.00     0.093 N
HETATM   17  C11 UNL     1     -20.788  37.287  47.911  1.00  0.00     0.310 C
BRANCH  16  18
HETATM   18  C12 UNL     1     -19.102  35.712  47.853  1.00  0.00     0.278 C
HETATM   19  C13 UNL     1     -18.483  36.715  48.782  1.00  0.00     0.270 C
HETATM   20  N7  UNL     1     -18.244  35.926  50.002  1.00  0.00    -0.070 N
HETATM   21  C14 UNL     1     -17.551  34.773  49.432  1.00  0.00     0.266 C
ATOM     22  H72 UNL     1     -17.755  36.409  50.756  1.00  0.00     0.277 HD
ATOM     23  H71 UNL     1     -19.069  35.715  50.563  1.00  0.00     0.277 HD
HETATM   24  C15 UNL     1     -18.496  34.444  48.264  1.00  0.00     0.178 C
BRANCH  24  25
HETATM   25  O1  UNL     1     -19.284  33.423  48.681  1.00  0.00    -0.392 OA
ATOM     26  H1  UNL     1     -18.974  32.527  48.611  1.00  0.00     0.210 HD
ENDBRANCH  24  25
ENDBRANCH  16  18
ENDBRANCH  15  16
ENDBRANCH  14  15
ENDBRANCH  13  14
ENDBRANCH  12  13
ENDBRANCH  10  12
ENDBRANCH   7  10
BRANCH   4  27
HETATM   27  N3  UNL     1     -17.381  37.975  45.537  1.00  0.00    -0.234 N
ATOM     28  H32 UNL     1     -17.026  38.910  45.737  1.00  0.00     0.174 HD
ATOM     29  H31 UNL     1     -17.158  37.195  46.154  1.00  0.00     0.174 HD
ENDBRANCH   4  27
BRANCH   1  30
HETATM   30  N1  UNL     1     -17.774  36.772  41.156  1.00  0.00    -0.221 N
ATOM     31  H1  UNL     1     -17.392  37.598  40.695  1.00  0.00     0.178 HD
BRANCH  30  32
HETATM   32  C2  UNL     1     -17.561  35.700  40.339  1.00  0.00     0.091 C
HETATM   33  C1  UNL     1     -16.933  34.446  40.912  1.00  0.00     0.032 C
HETATM   34  C3  UNL     1     -16.670  36.052  39.114  1.00  0.00     0.032 C
ENDBRANCH  30  32
ENDBRANCH   1  30
TORSDOF 11
ENDMDL