MODEL 3
REMARK VINA RESULT: -6.791699321      1.724      2.217
REMARK  8 active torsions:
REMARK  status: ('A' for Active; 'I' for Inactive)
REMARK    1  A    between atoms: C1_2  and  C2_4
REMARK    2  A    between atoms: C2_4  and  C3_5
REMARK    3  A    between atoms: C6_8  and  C7_9
REMARK       I    between atoms: C7_9  and  N1_11
REMARK    4  A    between atoms: N1_11  and  C8_13
REMARK    5  A    between atoms: C8_13  and  C9_14
REMARK    6  A    between atoms: C8_13  and  C10_17
REMARK    7  A    between atoms: C11_20  and  O8_21
REMARK    8  A    between atoms: C11_20  and  C12_23
ROOT
HETATM    1  C3  UNL     1     -20.235  36.898  46.350  1.00  0.00     0.042 C
HETATM    2  C4  UNL     1     -20.693  35.566  45.845  1.00  0.00     0.010 C
HETATM    3  C5  UNL     1     -19.463  34.953  45.156  1.00  0.00     0.018 C
HETATM    4  C6  UNL     1     -18.424  36.053  45.192  1.00  0.00     0.123 C
HETATM    5  C11 UNL     1     -19.295  37.290  45.194  1.00  0.00     0.161 C
ENDROOT
BRANCH   4   6
HETATM    6  C7  UNL     1     -17.519  35.995  44.023  1.00  0.00     0.226 C
HETATM    7  O3  UNL     1     -16.364  36.473  44.176  1.00  0.00    -0.273 OA
HETATM    8  N1  UNL     1     -17.858  35.450  42.773  1.00  0.00    -0.338 N
ATOM      9  H1  UNL     1     -18.787  35.057  42.619  1.00  0.00     0.163 HD
BRANCH   8  10
HETATM   10  C8  UNL     1     -16.881  35.449  41.705  1.00  0.00     0.287 C
BRANCH  10  11
HETATM   11  C9  UNL     1     -17.515  35.730  40.401  1.00  0.00     0.207 C
HETATM   12  O4  UNL     1     -17.796  36.909  40.103  1.00  0.00    -0.646 OA
HETATM   13  O5  UNL     1     -17.785  34.698  39.538  1.00  0.00    -0.646 OA
ENDBRANCH  10  11
BRANCH  10  14
HETATM   14  C10 UNL     1     -16.246  34.105  41.578  1.00  0.00     0.207 C
HETATM   15  O6  UNL     1     -15.124  33.938  41.064  1.00  0.00    -0.646 OA
HETATM   16  O7  UNL     1     -16.971  33.023  42.065  1.00  0.00    -0.646 OA
ENDBRANCH  10  14
ENDBRANCH   8  10
ENDBRANCH   4   6
BRANCH   5  17
HETATM   17  O8  UNL     1     -19.975  37.301  43.986  1.00  0.00    -0.377 OA
ATOM     18  H8  UNL     1     -20.272  38.178  43.774  1.00  0.00     0.211 HD
ENDBRANCH   5  17
BRANCH   5  19
HETATM   19  C12 UNL     1     -18.587  38.534  45.478  1.00  0.00     0.210 C
HETATM   20  O9  UNL     1     -18.738  39.510  44.700  1.00  0.00    -0.646 OA
HETATM   21  O10 UNL     1     -17.747  38.716  46.567  1.00  0.00    -0.646 OA
ENDBRANCH   5  19
BRANCH   1  22
HETATM   22  C2  UNL     1     -21.251  37.921  46.631  1.00  0.00     0.121 C
BRANCH  22  23
HETATM   23  C1  UNL     1     -22.569  37.774  46.041  1.00  0.00     0.173 C
HETATM   24  O1  UNL     1     -23.589  37.432  46.685  1.00  0.00    -0.648 OA
HETATM   25  O2  UNL     1     -22.753  38.014  44.682  1.00  0.00    -0.648 OA
ENDBRANCH  22  23
ENDBRANCH   1  22
TORSDOF 8
ENDMDL