MODEL 5
REMARK VINA RESULT: -5.854069507      3.112      3.695
REMARK  12 active torsions:
REMARK  status: ('A' for Active; 'I' for Inactive)
REMARK    1  A    between atoms: C2_2  and  C3_3
REMARK    2  A    between atoms: C3_3  and  N1_4
REMARK    3  A    between atoms: N1_4  and  C4_6
REMARK    4  A    between atoms: C5_9  and  N3_10
REMARK    5  A    between atoms: N3_10  and  C6_12
REMARK    6  A    between atoms: C6_12  and  N4_13
REMARK    7  A    between atoms: C6_12  and  C7_17
REMARK    8  A    between atoms: C7_17  and  C8_18
REMARK    9  A    between atoms: C8_18  and  C9_19
REMARK   10  A    between atoms: C11_23  and  N6_24
REMARK   11  A    between atoms: N6_24  and  C12_26
REMARK   12  A    between atoms: C15_32  and  O1_33
ROOT
HETATM    1  C4  UNL     1     -20.685  36.758  45.391  1.00  0.00     0.707 A
HETATM    2  N2  UNL     1     -20.173  36.573  44.169  1.00  0.00    -0.021 N
ATOM      3  H2  UNL     1     -20.766  36.645  43.343  1.00  0.00     0.203 HD
HETATM    4  C5  UNL     1     -18.856  36.290  44.046  1.00  0.00     0.709 A
HETATM    5  N5  UNL     1     -18.084  36.198  45.135  1.00  0.00    -0.021 N
ATOM      6  H5  UNL     1     -17.092  35.985  45.040  1.00  0.00     0.203 HD
HETATM    7  C11 UNL     1     -18.621  36.389  46.365  1.00  0.00     0.707 A
HETATM    8  N8  UNL     1     -19.918  36.670  46.518  1.00  0.00    -0.021 N
ATOM      9  H8  UNL     1     -20.323  36.815  47.444  1.00  0.00     0.203 HD
ENDROOT
BRANCH   4  10
HETATM   10  N3  UNL     1     -18.368  36.112  42.871  1.00  0.00    -0.196 N
ATOM     11  H3  UNL     1     -18.395  35.172  42.477  1.00  0.00     0.180 HD
BRANCH  10  12
HETATM   12  C6  UNL     1     -17.785  37.163  42.078  1.00  0.00     0.297 C
BRANCH  12  13
HETATM   13  N4  UNL     1     -18.065  38.483  42.660  1.00  0.00    -0.058 N
ATOM     14  H43 UNL     1     -17.218  39.047  42.735  1.00  0.00     0.276 HD
ATOM     15  H42 UNL     1     -18.589  39.075  42.015  1.00  0.00     0.276 HD
ATOM     16  H41 UNL     1     -18.539  38.396  43.559  1.00  0.00     0.276 HD
ENDBRANCH  12  13
BRANCH  12  17
HETATM   17  C7  UNL     1     -18.348  37.198  40.676  1.00  0.00     0.055 C
BRANCH  17  18
HETATM   18  C8  UNL     1     -17.379  36.697  39.651  1.00  0.00     0.003 C
BRANCH  18  19
HETATM   19  C9  UNL     1     -17.740  35.311  39.174  1.00  0.00    -0.004 C
HETATM   20  C10 UNL     1     -16.607  34.353  39.517  1.00  0.00     0.005 C
ENDBRANCH  18  19
ENDBRANCH  17  18
ENDBRANCH  12  17
ENDBRANCH  10  12
ENDBRANCH   4  10
BRANCH   1  21
HETATM   21  N1  UNL     1     -21.920  37.024  45.610  1.00  0.00    -0.222 N
ATOM     22  H1  UNL     1     -22.167  37.815  46.204  1.00  0.00     0.178 HD
BRANCH  21  23
HETATM   23  C3  UNL     1     -22.960  36.224  45.029  1.00  0.00     0.164 C
BRANCH  23  24
HETATM   24  C2  UNL     1     -23.272  35.095  45.926  1.00  0.00    -0.017 C
HETATM   25  C1  UNL     1     -23.908  35.274  47.050  1.00  0.00     0.008 C
ENDBRANCH  23  24
ENDBRANCH  21  23
ENDBRANCH   1  21
BRANCH   7  26
HETATM   26  N6  UNL     1     -17.876  36.301  47.410  1.00  0.00    -0.216 N
ATOM     27  H6  UNL     1     -17.017  36.850  47.441  1.00  0.00     0.178 HD
BRANCH  26  28
HETATM   28  C12 UNL     1     -18.194  35.472  48.527  1.00  0.00     0.155 C
HETATM   29  C13 UNL     1     -18.613  34.082  48.028  1.00  0.00     0.260 C
HETATM   30  N7  UNL     1     -18.540  33.315  49.254  1.00  0.00    -0.071 N
HETATM   31  C14 UNL     1     -17.280  33.708  49.833  1.00  0.00     0.266 C
ATOM     32  H72 UNL     1     -19.342  33.433  49.873  1.00  0.00     0.277 HD
ATOM     33  H71 UNL     1     -18.648  32.308  49.127  1.00  0.00     0.277 HD
HETATM   34  C15 UNL     1     -17.001  35.122  49.373  1.00  0.00     0.168 C
BRANCH  34  35
HETATM   35  O1  UNL     1     -15.828  35.190  48.616  1.00  0.00    -0.392 OA
ATOM     36  H1  UNL     1     -15.068  35.053  49.169  1.00  0.00     0.210 HD
ENDBRANCH  34  35
ENDBRANCH  26  28
ENDBRANCH   7  26
TORSDOF 12
ENDMDL