MODEL 1
REMARK VINA RESULT: -5.507313651      0.000      0.000
REMARK  4 active torsions:
REMARK  status: ('A' for Active; 'I' for Inactive)
REMARK    1  A    between atoms: N1_1  and  N2_4
REMARK    2  A    between atoms: N2_4  and  C1_5
REMARK    3  A    between atoms: C1_5  and  C2_6
REMARK    4  A    between atoms: C1_5  and  C3_9
REMARK       I    between atoms: N4_11  and  C5_12
ROOT
HETATM    1  C3  UNL     1      53.742   9.943 123.566  1.00  0.00     0.074 A
HETATM    2  C4  UNL     1      53.999   8.973 122.621  1.00  0.00     0.151 A
HETATM    3  N4  UNL     1      54.703   7.982 123.166  1.00  0.00    -0.203 N
HETATM    4  C5  UNL     1      55.143   6.822 122.490  1.00  0.00     0.354 C
HETATM    5  N5  UNL     1      55.885   5.866 123.227  1.00  0.00    -0.038 NA
HETATM    6  O2  UNL     1      54.874   6.657 121.258  1.00  0.00    -0.249 OA
HETATM    7  N6  UNL     1      54.885   8.320 124.425  1.00  0.00    -0.233 N
ATOM      8  H6  UNL     1      55.395   7.756 125.104  1.00  0.00     0.209 HD
HETATM    9  N7  UNL     1      54.321   9.489 124.696  1.00  0.00    -0.286 N
ATOM     10  H7  UNL     1      54.325   9.961 125.600  1.00  0.00     0.188 HD
ENDROOT
BRANCH   1  11
HETATM   11  C1  UNL     1      52.979  11.226 123.371  1.00  0.00     0.240 C
BRANCH  11  12
HETATM   12  N2  UNL     1      53.569  11.875 122.224  1.00  0.00    -0.128 NA
BRANCH  12  13
HETATM   13  N1  UNL     1      53.718  13.237 122.364  1.00  0.00    -0.347 N
ATOM     14  H12 UNL     1      52.925  13.876 122.311  1.00  0.00     0.172 HD
ATOM     15  H11 UNL     1      54.680  13.538 122.522  1.00  0.00     0.172 HD
ENDBRANCH  12  13
ENDBRANCH  11  12
BRANCH  11  16
HETATM   16  C2  UNL     1      53.144  12.053 124.587  1.00  0.00     0.258 C
HETATM   17  N3  UNL     1      54.404  12.353 125.163  1.00  0.00    -0.060 NA
HETATM   18  O1  UNL     1      52.120  12.514 125.141  1.00  0.00    -0.275 OA
ENDBRANCH  11  16
ENDBRANCH   1  11
TORSDOF 4
ENDMDL