MODEL 5
REMARK VINA RESULT: -5.127282794      2.222      5.053
REMARK  4 active torsions:
REMARK  status: ('A' for Active; 'I' for Inactive)
REMARK       I    between atoms: C2_2  and  N1_4
REMARK    1  A    between atoms: N1_4  and  N2_6
REMARK    2  A    between atoms: C4_9  and  C5_10
REMARK    3  A    between atoms: C5_10  and  N4_11
REMARK    4  A    between atoms: C5_10  and  N5_15
ROOT
HETATM    1  N2  UNL     1      52.928   9.805 122.131  1.00  0.00    -0.187 N
HETATM    2  C3  UNL     1      53.256   9.965 120.794  1.00  0.00     0.169 A
HETATM    3  N3  UNL     1      53.633  11.208 120.190  1.00  0.00    -0.078 NA
HETATM    4  C4  UNL     1      53.170   8.781 120.148  1.00  0.00     0.114 A
HETATM    5  N6  UNL     1      52.791   7.890 121.067  1.00  0.00    -0.304 N
ATOM      6  H6  UNL     1      52.636   6.897 120.894  1.00  0.00     0.170 HD
HETATM    7  C6  UNL     1      52.643   8.515 122.283  1.00  0.00     0.347 A
HETATM    8  O2  UNL     1      52.288   7.880 123.320  1.00  0.00    -0.245 OA
ENDROOT
BRANCH   4   9
HETATM    9  C5  UNL     1      53.436   8.506 118.715  1.00  0.00     0.430 C
BRANCH   9  10
HETATM   10  N4  UNL     1      54.803   8.770 118.373  1.00  0.00    -0.045 N
ATOM     11  H43 UNL     1      54.972   8.630 117.377  1.00  0.00     0.277 HD
ATOM     12  H42 UNL     1      55.017   9.765 118.432  1.00  0.00     0.277 HD
ATOM     13  H41 UNL     1      55.445   8.216 118.942  1.00  0.00     0.277 HD
ENDBRANCH   9  10
BRANCH   9  14
HETATM   14  N5  UNL     1      52.590   9.302 117.869  1.00  0.00    -0.045 N
ATOM     15  H53 UNL     1      52.584   8.954 116.910  1.00  0.00     0.277 HD
ATOM     16  H52 UNL     1      51.604   9.167 118.090  1.00  0.00     0.277 HD
ATOM     17  H51 UNL     1      52.851  10.288 117.909  1.00  0.00     0.277 HD
ENDBRANCH   9  14
ENDBRANCH   4   9
BRANCH   1  18
HETATM   18  N1  UNL     1      52.928  10.850 123.042  1.00  0.00    -0.258 N
HETATM   19  C2  UNL     1      53.557  10.912 124.280  1.00  0.00     0.232 C
HETATM   20  C1  UNL     1      53.406  12.187 125.106  1.00  0.00     0.119 C
HETATM   21  O1  UNL     1      54.252  10.039 124.825  1.00  0.00    -0.272 OA
ATOM     22  H1  UNL     1      52.399  11.678 122.770  1.00  0.00     0.190 HD
ENDBRANCH   1  18
TORSDOF 4
ENDMDL