MODEL 1
REMARK VINA RESULT: -6.016863207      0.000      0.000
REMARK  3 active torsions:
REMARK  status: ('A' for Active; 'I' for Inactive)
REMARK    1  A    between atoms: N1_1  and  N2_4
REMARK       I    between atoms: N2_4  and  C1_6
REMARK       I    between atoms: C1_6  and  N3_8
REMARK    2  A    between atoms: N3_8  and  C2_10
REMARK    3  A    between atoms: N7_20  and  C6_21
ROOT
HETATM    1  C2  UNL     1      53.436   7.091 120.390  1.00  0.00     0.155 A
HETATM    2  N4  UNL     1      52.717   5.961 120.314  1.00  0.00    -0.282 N
ATOM      3  H4  UNL     1      52.069   5.600 121.014  1.00  0.00     0.188 HD
HETATM    4  N5  UNL     1      53.015   5.412 119.156  1.00  0.00    -0.281 N
ATOM      5  H5  UNL     1      52.617   4.535 118.820  1.00  0.00     0.188 HD
HETATM    6  C3  UNL     1      53.906   6.147 118.471  1.00  0.00     0.161 A
HETATM    7  C4  UNL     1      54.205   7.259 119.257  1.00  0.00     0.125 A
HETATM    8  N6  UNL     1      55.099   7.989 118.561  1.00  0.00    -0.346 N
ATOM      9  H6  UNL     1      55.507   8.868 118.879  1.00  0.00     0.167 HD
HETATM   10  C5  UNL     1      55.375   7.392 117.387  1.00  0.00     0.193 A
HETATM   11  N7  UNL     1      54.648   6.285 117.349  1.00  0.00    -0.268 N
ENDROOT
BRANCH   1  12
HETATM   12  N3  UNL     1      53.407   7.901 121.387  1.00  0.00    -0.290 N
HETATM   13  C1  UNL     1      54.301   7.738 122.483  1.00  0.00     0.340 C
HETATM   14  N2  UNL     1      55.197   8.775 122.850  1.00  0.00    -0.258 N
HETATM   15  O1  UNL     1      54.299   6.673 123.128  1.00  0.00    -0.245 OA
ATOM     16  H2  UNL     1      55.206   9.650 122.327  1.00  0.00     0.191 HD
ATOM     17  H3  UNL     1      52.737   8.670 121.393  1.00  0.00     0.172 HD
BRANCH  14  18
HETATM   18  N1  UNL     1      56.060   8.594 123.923  1.00  0.00    -0.341 N
ATOM     19  H12 UNL     1      55.750   8.041 124.722  1.00  0.00     0.177 HD
ATOM     20  H11 UNL     1      56.990   9.013 123.902  1.00  0.00     0.177 HD
ENDBRANCH  14  18
ENDBRANCH   1  12
BRANCH  11  21
HETATM   21  C6  UNL     1      54.627   5.342 116.283  1.00  0.00     0.362 C
HETATM   22  O2  UNL     1      55.671   4.839 115.800  1.00  0.00    -0.283 OA
ENDBRANCH  11  21
TORSDOF 3
ENDMDL