MODEL 4
REMARK VINA RESULT: -5.500279346      1.817      2.262
REMARK  3 active torsions:
REMARK  status: ('A' for Active; 'I' for Inactive)
REMARK    1  A    between atoms: N3_7  and  C5_8
REMARK    2  A    between atoms: C5_8  and  C6_9
REMARK       I    between atoms: C6_9  and  N4_11
REMARK    3  A    between atoms: N4_11  and  N5_13
ROOT
HETATM    1  N1  UNL     1      54.502   9.179 124.883  1.00  0.00    -0.191 NA
HETATM    2  C1  UNL     1      54.198   9.751 123.920  1.00  0.00     0.105 C
HETATM    3  C2  UNL     1      53.812  10.450 122.715  1.00  0.00     0.111 A
HETATM    4  C3  UNL     1      53.526  11.785 122.556  1.00  0.00     0.086 A
HETATM    5  N2  UNL     1      53.545  12.757 123.609  1.00  0.00    -0.099 NA
HETATM    6  C4  UNL     1      53.215  11.977 121.241  1.00  0.00     0.121 A
HETATM    7  N3  UNL     1      53.286  10.829 120.553  1.00  0.00    -0.334 N
HETATM    8  C7  UNL     1      53.651   9.890 121.444  1.00  0.00     0.141 A
HETATM    9  N6  UNL     1      53.874   8.520 121.165  1.00  0.00    -0.081 NA
ENDROOT
BRANCH   7  10
HETATM   10  C5  UNL     1      52.978  10.636 119.128  1.00  0.00     0.234 C
BRANCH  10  11
HETATM   11  C6  UNL     1      54.216  10.356 118.367  1.00  0.00     0.253 C
HETATM   12  O1  UNL     1      54.840  11.373 117.915  1.00  0.00    -0.270 OA
HETATM   13  N4  UNL     1      54.753   9.079 118.100  1.00  0.00    -0.275 N
ATOM     14  H4  UNL     1      54.265   8.255 118.452  1.00  0.00     0.189 HD
BRANCH  13  15
HETATM   15  N5  UNL     1      55.938   8.902 117.364  1.00  0.00    -0.343 N
ATOM     16  H52 UNL     1      56.272   9.686 116.803  1.00  0.00     0.176 HD
ATOM     17  H51 UNL     1      56.461   8.027 117.376  1.00  0.00     0.176 HD
ENDBRANCH  13  15
ENDBRANCH  10  11
ENDBRANCH   7  10
TORSDOF 3
ENDMDL