MODEL 4
REMARK VINA RESULT: -5.403815012      0.414      1.292
REMARK  6 active torsions:
REMARK  status: ('A' for Active; 'I' for Inactive)
REMARK    1  A    between atoms: N1_1  and  N2_4
REMARK    2  A    between atoms: N2_4  and  C1_5
REMARK    3  A    between atoms: C2_7  and  O1_8
REMARK    4  A    between atoms: C2_7  and  C3_10
REMARK    5  A    between atoms: C5_14  and  N5_15
REMARK    6  A    between atoms: N5_15  and  N6_17
ROOT
HETATM    1  C3  UNL     1      54.055   9.656 122.486  1.00  0.00     0.034 A
HETATM    2  C4  UNL     1      54.811   8.514 122.380  1.00  0.00     0.122 A
HETATM    3  N4  UNL     1      54.900   7.831 121.203  1.00  0.00    -0.200 N
ATOM      4  H4  UNL     1      55.471   6.987 121.160  1.00  0.00     0.183 HD
HETATM    5  C5  UNL     1      54.261   8.237 120.109  1.00  0.00     0.696 A
HETATM    6  N7  UNL     1      53.518   9.349 120.199  1.00  0.00    -0.200 N
ATOM      7  H7  UNL     1      53.024   9.666 119.365  1.00  0.00     0.183 HD
HETATM    8  C6  UNL     1      53.386  10.067 121.319  1.00  0.00     0.122 A
ENDROOT
BRANCH   1   9
HETATM    9  C2  UNL     1      53.949  10.430 123.695  1.00  0.00     0.136 C
HETATM   10  C1  UNL     1      53.856  11.857 123.893  1.00  0.00     0.246 C
HETATM   11  N3  UNL     1      53.764  12.210 125.333  1.00  0.00    -0.062 NA
BRANCH  10  12
HETATM   12  N2  UNL     1      53.837  12.773 123.150  1.00  0.00    -0.315 NA
BRANCH  12  13
HETATM   13  N1  UNL     1      53.815  13.784 122.330  1.00  0.00    -0.279 N
ATOM     14  H12 UNL     1      53.831  12.977 122.954  1.00  0.00     0.191 HD
ATOM     15  H11 UNL     1      53.799  14.576 121.689  1.00  0.00     0.191 HD
ENDBRANCH  12  13
ENDBRANCH  10  12
BRANCH   9  16
HETATM   16  O1  UNL     1      53.937   9.681 124.777  1.00  0.00    -0.356 OA
ATOM     17  H1  UNL     1      54.668   9.085 124.891  1.00  0.00     0.218 HD
ENDBRANCH   9  16
ENDBRANCH   1   9
BRANCH   5  18
HETATM   18  N5  UNL     1      54.367   7.559 118.983  1.00  0.00    -0.139 N
ATOM     19  H5  UNL     1      53.544   7.159 118.532  1.00  0.00     0.205 HD
BRANCH  18  20
HETATM   20  N6  UNL     1      55.632   7.407 118.429  1.00  0.00    -0.331 N
ATOM     21  H62 UNL     1      56.274   8.198 118.397  1.00  0.00     0.177 HD
ATOM     22  H61 UNL     1      55.888   6.490 118.062  1.00  0.00     0.177 HD
ENDBRANCH  18  20
ENDBRANCH   5  18
TORSDOF 6
ENDMDL