MODEL 4
REMARK VINA RESULT: -5.409492495      2.927      4.737
REMARK  4 active torsions:
REMARK  status: ('A' for Active; 'I' for Inactive)
REMARK    1  A    between atoms: N1_1  and  N2_4
REMARK    2  A    between atoms: C1_6  and  C2_7
REMARK    3  A    between atoms: C1_6  and  C3_14
REMARK       I    between atoms: C2_7  and  N3_9
REMARK    4  A    between atoms: N3_9  and  N4_11
ROOT
HETATM    1  N2  UNL     1      55.380   7.604 119.315  1.00  0.00    -0.300 N
ATOM      2  H2  UNL     1      55.964   8.158 119.942  1.00  0.00     0.186 HD
HETATM    3  C1  UNL     1      54.526   6.942 119.945  1.00  0.00     0.151 C
ENDROOT
BRANCH   3   4
HETATM    4  C2  UNL     1      53.549   6.058 119.337  1.00  0.00     0.290 C
HETATM    5  O1  UNL     1      53.800   5.670 118.128  1.00  0.00    -0.264 OA
HETATM    6  N3  UNL     1      52.371   5.595 119.935  1.00  0.00    -0.271 N
ATOM      7  H3  UNL     1      52.140   5.882 120.886  1.00  0.00     0.189 HD
BRANCH   6   8
HETATM    8  N4  UNL     1      51.500   4.735 119.233  1.00  0.00    -0.342 N
ATOM      9  H42 UNL     1      50.674   5.132 118.785  1.00  0.00     0.176 HD
ATOM     10  H41 UNL     1      51.695   3.735 119.174  1.00  0.00     0.176 HD
ENDBRANCH   6   8
ENDBRANCH   3   4
BRANCH   3  11
HETATM   11  C3  UNL     1      54.536   7.090 121.403  1.00  0.00     0.150 A
HETATM   12  N5  UNL     1      54.788   6.068 122.222  1.00  0.00    -0.293 N
HETATM   13  N6  UNL     1      54.788   6.250 123.557  1.00  0.00    -0.295 N
ATOM     14  H5  UNL     1      54.982   5.144 121.836  1.00  0.00     0.187 HD
HETATM   15  C4  UNL     1      54.539   7.445 124.119  1.00  0.00     0.200 A
ATOM     16  H6  UNL     1      54.984   5.453 124.162  1.00  0.00     0.187 HD
HETATM   17  N7  UNL     1      54.282   8.488 123.313  1.00  0.00    -0.317 N
HETATM   18  C5  UNL     1      54.283   8.305 121.970  1.00  0.00     0.277 A
ATOM     19  H7  UNL     1      54.089   9.408 123.707  1.00  0.00     0.170 HD
HETATM   20  O2  UNL     1      54.035   9.318 121.233  1.00  0.00    -0.266 OA
ENDBRANCH   3  11
BRANCH   1  21
HETATM   21  N1  UNL     1      55.731   7.778 118.026  1.00  0.00    -0.344 N
ATOM     22  H12 UNL     1      56.432   8.515 117.946  1.00  0.00     0.176 HD
ATOM     23  H11 UNL     1      55.478   7.368 117.127  1.00  0.00     0.176 HD
ENDBRANCH   1  21
TORSDOF 4
ENDMDL