MODEL 3
REMARK VINA RESULT: -5.332468785      2.119      4.698
REMARK  3 active torsions:
REMARK  status: ('A' for Active; 'I' for Inactive)
REMARK    1  A    between atoms: N1_1  and  C1_4
REMARK    2  A    between atoms: C2_5  and  C3_6
REMARK    3  A    between atoms: N5_13  and  S1_14
ROOT
HETATM    1  C1  UNL     1      53.689   9.701 121.116  1.00  0.00     0.170 A
HETATM    2  C2  UNL     1      53.515  10.248 122.368  1.00  0.00     0.161 A
HETATM    3  N3  UNL     1      53.361  11.569 122.170  1.00  0.00    -0.277 N
ATOM      4  H3  UNL     1      53.212  12.257 122.908  1.00  0.00     0.189 HD
HETATM    5  N4  UNL     1      53.432  11.847 120.875  1.00  0.00    -0.222 N
ATOM      6  H4  UNL     1      53.348  12.772 120.453  1.00  0.00     0.210 HD
HETATM    7  N5  UNL     1      53.631  10.716 120.233  1.00  0.00    -0.129 N
ENDROOT
BRANCH   7   8
HETATM    8  S1  UNL     1      53.793  10.558 118.517  1.00  0.00     0.233 S
HETATM    9  O2  UNL     1      54.218   9.167 118.198  1.00  0.00    -0.576 OA
HETATM   10  O3  UNL     1      54.814  11.510 118.006  1.00  0.00    -0.576 OA
HETATM   11  O4  UNL     1      52.335  10.879 117.766  1.00  0.00    -0.576 OA
ENDBRANCH   7   8
BRANCH   1  12
HETATM   12  N1  UNL     1      53.869   8.460 120.872  1.00  0.00    -0.381 N
ATOM     13  H12 UNL     1      53.319   7.671 121.210  1.00  0.00     0.157 HD
ATOM     14  H11 UNL     1      54.611   8.077 120.287  1.00  0.00     0.157 HD
ENDBRANCH   1  12
BRANCH   2  15
HETATM   15  C3  UNL     1      53.500   9.541 123.653  1.00  0.00     0.286 C
HETATM   16  N2  UNL     1      52.860   8.291 123.771  1.00  0.00    -0.056 NA
HETATM   17  O1  UNL     1      54.049  10.023 124.671  1.00  0.00    -0.269 OA
ENDBRANCH   2  15
TORSDOF 3
ENDMDL