MODEL 3
REMARK VINA RESULT: -5.844712835      2.521      4.201
REMARK  2 active torsions:
REMARK  status: ('A' for Active; 'I' for Inactive)
REMARK    1  A    between atoms: C1_2  and  C2_4
REMARK    2  A    between atoms: C3_7  and  N3_8
ROOT
HETATM    1  C2  UNL     1      54.862   8.270 122.371  1.00  0.00     0.141 A
HETATM    2  N2  UNL     1      54.409   8.909 121.278  1.00  0.00    -0.326 N
ATOM      3  H2  UNL     1      54.384   9.929 121.268  1.00  0.00     0.168 HD
HETATM    4  C3  UNL     1      53.990   8.227 120.198  1.00  0.00     0.243 A
HETATM    5  C4  UNL     1      54.036   6.846 120.239  1.00  0.00     0.297 A
HETATM    6  O4  UNL     1      53.647   6.198 119.235  1.00  0.00    -0.264 OA
HETATM    7  N4  UNL     1      54.490   6.210 121.333  1.00  0.00    -0.306 N
ATOM      8  H4  UNL     1      54.514   5.190 121.338  1.00  0.00     0.170 HD
HETATM    9  C5  UNL     1      54.912   6.874 122.421  1.00  0.00     0.151 A
HETATM   10  N5  UNL     1      55.386   6.179 123.563  1.00  0.00    -0.080 NA
ENDROOT
BRANCH   1  11
HETATM   11  C1  UNL     1      55.323   8.988 123.554  1.00  0.00     0.284 C
HETATM   12  N1  UNL     1      54.403   9.493 124.512  1.00  0.00    -0.056 NA
HETATM   13  O1  UNL     1      56.543   9.178 123.755  1.00  0.00    -0.269 OA
ENDBRANCH   1  11
BRANCH   4  14
HETATM   14  N3  UNL     1      53.507   8.882 119.030  1.00  0.00    -0.092 N
HETATM   15  O2  UNL     1      54.223   9.188 118.065  1.00  0.00    -0.530 OA
HETATM   16  O3  UNL     1      52.175   9.187 118.980  1.00  0.00    -0.530 OA
ENDBRANCH   4  14
TORSDOF 2
ENDMDL