MODEL 5
REMARK VINA RESULT: -5.433708458      2.816      4.589
REMARK  4 active torsions:
REMARK  status: ('A' for Active; 'I' for Inactive)
REMARK    1  A    between atoms: O1_3  and  N2_4
REMARK    2  A    between atoms: C2_6  and  N3_7
REMARK    3  A    between atoms: N3_7  and  C3_9
REMARK    4  A    between atoms: C4_12  and  N5_13
ROOT
HETATM    1  N1  UNL     1      55.462   6.323 123.450  1.00  0.00    -0.162 NA
HETATM    2  C1  UNL     1      54.736   7.150 123.090  1.00  0.00     0.253 C
HETATM    3  O1  UNL     1      53.885   8.150 122.658  1.00  0.00    -0.158 OA
ENDROOT
BRANCH   3   4
HETATM    4  N2  UNL     1      54.114   9.395 123.199  1.00  0.00    -0.245 N
HETATM    5  C2  UNL     1      53.625  10.414 122.606  1.00  0.00     0.222 C
ATOM      6  H2  UNL     1      54.662   9.500 124.052  1.00  0.00     0.196 HD
BRANCH   5   7
HETATM    7  N3  UNL     1      52.853  10.324 121.412  1.00  0.00    -0.185 N
ATOM      8  H3  UNL     1      51.836  10.381 121.471  1.00  0.00     0.185 HD
BRANCH   7   9
HETATM    9  C3  UNL     1      53.408  10.171 120.262  1.00  0.00     0.701 A
HETATM   10  N4  UNL     1      53.297   8.982 119.667  1.00  0.00    -0.022 N
HETATM   11  C4  UNL     1      53.873   8.788 118.450  1.00  0.00     0.694 A
ATOM     12  H4  UNL     1      52.785   8.225 120.120  1.00  0.00     0.203 HD
HETATM   13  N6  UNL     1      54.541   9.814 117.881  1.00  0.00    -0.141 N
HETATM   14  C5  UNL     1      54.665  11.017 118.462  1.00  0.00     0.352 A
ATOM     15  H6  UNL     1      54.973   9.667 116.969  1.00  0.00     0.189 HD
HETATM   16  O2  UNL     1      55.290  11.955 117.916  1.00  0.00    -0.246 OA
HETATM   17  N7  UNL     1      54.072  11.158 119.674  1.00  0.00    -0.140 N
ATOM     18  H7  UNL     1      54.139  12.056 120.152  1.00  0.00     0.189 HD
BRANCH  11  19
HETATM   19  N5  UNL     1      53.794   7.657 117.835  1.00  0.00    -0.234 N
ATOM     20  H52 UNL     1      52.883   7.304 117.539  1.00  0.00     0.174 HD
ATOM     21  H51 UNL     1      54.623   7.098 117.632  1.00  0.00     0.174 HD
ENDBRANCH  11  19
ENDBRANCH   7   9
ENDBRANCH   5   7
ENDBRANCH   3   4
TORSDOF 4
ENDMDL