MODEL 3
REMARK VINA RESULT: -9.092493855      5.140     10.409
REMARK  10 active torsions:
REMARK  status: ('A' for Active; 'I' for Inactive)
REMARK    1  A    between atoms: O1_2  and  C2_3
REMARK    2  A    between atoms: C5_6  and  O2_7
REMARK    3  A    between atoms: O2_7  and  C6_8
REMARK    4  A    between atoms: C8_11  and  O3_12
REMARK    5  A    between atoms: O3_12  and  C9_13
REMARK    6  A    between atoms: C9_13  and  C10_14
REMARK    7  A    between atoms: C12_16  and  C13_17
REMARK    8  A    between atoms: C17_21  and  N1_22
REMARK    9  A    between atoms: N1_22  and  C18_24
REMARK   10  A    between atoms: C19_27  and  N3_28
ROOT
HETATM    1  C13 UNL     1      19.773 -23.113 -53.608  1.00  0.00    -0.024 A
HETATM    2  C14 UNL     1      19.492 -24.219 -52.843  1.00  0.00     0.012 A
HETATM    3  C15 UNL     1      20.166 -24.487 -51.678  1.00  0.00     0.003 A
HETATM    4  C16 UNL     1      21.162 -23.652 -51.220  1.00  0.00     0.029 A
HETATM    5  C17 UNL     1      21.471 -22.536 -51.958  1.00  0.00     0.034 A
HETATM    6  C26 UNL     1      20.778 -22.296 -53.120  1.00  0.00     0.041 A
ENDROOT
BRANCH   1   7
HETATM    7  C12 UNL     1      19.071 -22.807 -54.849  1.00  0.00    -0.025 A
HETATM    8  C11 UNL     1      17.891 -23.423 -55.148  1.00  0.00     0.024 A
HETATM    9  C10 UNL     1      17.183 -23.170 -56.315  1.00  0.00     0.005 A
HETATM   10  C29 UNL     1      17.673 -22.261 -57.228  1.00  0.00     0.124 A
HETATM   11  C28 UNL     1      18.870 -21.630 -56.937  1.00  0.00     0.044 A
HETATM   12  F1  UNL     1      17.015 -21.973 -58.397  1.00  0.00    -0.205 F
HETATM   13  C27 UNL     1      19.568 -21.897 -55.757  1.00  0.00     0.015 A
BRANCH   9  14
HETATM   14  C9  UNL     1      15.902 -23.860 -56.604  1.00  0.00     0.217 C
BRANCH  14  15
HETATM   15  O3  UNL     1      15.866 -24.398 -57.897  1.00  0.00    -0.344 OA
BRANCH  15  16
HETATM   16  C8  UNL     1      16.257 -25.728 -58.070  1.00  0.00     0.105 A
HETATM   17  C2  UNL     1      15.463 -26.488 -58.921  1.00  0.00     0.101 A
HETATM   18  C3  UNL     1      15.857 -27.796 -59.085  1.00  0.00     0.042 A
HETATM   19  C4  UNL     1      16.953 -28.309 -58.454  1.00  0.00     0.040 A
HETATM   20  C5  UNL     1      17.740 -27.522 -57.598  1.00  0.00     0.073 A
HETATM   21  C7  UNL     1      17.362 -26.225 -57.427  1.00  0.00     0.076 A
BRANCH  17  22
HETATM   22  O1  UNL     1      14.367 -25.928 -59.536  1.00  0.00    -0.353 OA
HETATM   23  C1  UNL     1      13.050 -26.374 -59.370  1.00  0.00     0.210 C
ENDBRANCH  17  22
BRANCH  20  24
HETATM   24  O2  UNL     1      18.845 -28.094 -56.982  1.00  0.00    -0.337 OA
BRANCH  24  25
HETATM   25  C6  UNL     1      18.754 -28.715 -55.741  1.00  0.00     0.290 C
HETATM   26 CL1  UNL     1      18.833 -27.486 -54.462  1.00  0.00    -0.102 Cl
ENDBRANCH  24  25
ENDBRANCH  20  24
ENDBRANCH  15  16
ENDBRANCH  14  15
ENDBRANCH   9  14
ENDBRANCH   1   7
BRANCH   5  27
HETATM   27  N1  UNL     1      22.497 -21.669 -51.494  1.00  0.00    -0.341 N
ATOM     28  H1  UNL     1      22.392 -21.310 -50.546  1.00  0.00     0.167 HD
BRANCH  27  29
HETATM   29  C18 UNL     1      23.516 -21.298 -52.120  1.00  0.00     0.134 A
HETATM   30  N2  UNL     1      23.448 -20.832 -53.367  1.00  0.00    -0.176 N
HETATM   31  C19 UNL     1      24.524 -20.425 -54.065  1.00  0.00     0.677 A
ATOM     32  H2  UNL     1      22.533 -20.782 -53.816  1.00  0.00     0.186 HD
HETATM   33  N4  UNL     1      25.759 -20.466 -53.526  1.00  0.00    -0.191 N
HETATM   34  C20 UNL     1      25.879 -20.928 -52.269  1.00  0.00     0.063 A
ATOM     35  H4  UNL     1      26.575 -20.156 -54.054  1.00  0.00     0.184 HD
HETATM   36  C21 UNL     1      27.153 -20.962 -51.735  1.00  0.00     0.032 A
HETATM   37  C25 UNL     1      24.759 -21.355 -51.536  1.00  0.00     0.037 A
HETATM   38  C22 UNL     1      27.336 -21.425 -50.452  1.00  0.00     0.026 A
HETATM   39  C23 UNL     1      26.249 -21.847 -49.720  1.00  0.00     0.035 A
HETATM   40 CL2  UNL     1      26.459 -22.436 -48.095  1.00  0.00    -0.084 Cl
HETATM   41  C24 UNL     1      24.971 -21.812 -50.259  1.00  0.00     0.041 A
BRANCH  31  42
HETATM   42  N3  UNL     1      24.440 -19.973 -55.283  1.00  0.00    -0.234 N
ATOM     43  H32 UNL     1      23.542 -19.576 -55.556  1.00  0.00     0.174 HD
ATOM     44  H31 UNL     1      25.222 -20.009 -55.937  1.00  0.00     0.174 HD
ENDBRANCH  31  42
ENDBRANCH  27  29
ENDBRANCH   5  27
TORSDOF 10
ENDMDL