MODEL 5
REMARK VINA RESULT: -7.937158190      3.139      4.350
REMARK  12 active torsions:
REMARK  status: ('A' for Active; 'I' for Inactive)
REMARK    1  A    between atoms: C2_2  and  C4_4
REMARK    2  A    between atoms: C4_4  and  N1_5
REMARK    3  A    between atoms: C4_4  and  C5_9
REMARK    4  A    between atoms: C5_9  and  O1_10
REMARK    5  A    between atoms: O1_10  and  C6_11
REMARK    6  A    between atoms: C10_17  and  N3_18
REMARK    7  A    between atoms: N3_18  and  C11_20
REMARK    8  A    between atoms: C14_23  and  O2_24
REMARK    9  A    between atoms: O2_24  and  C15_25
REMARK   10  A    between atoms: C23_35  and  N5_36
REMARK   11  A    between atoms: N5_36  and  C24_38
REMARK   12  A    between atoms: C27_41  and  C28_42
ROOT
HETATM    1  C6  UNL     1      14.708 -28.074 -54.140  1.00  0.00     0.069 A
HETATM    2  C7  UNL     1      14.890 -28.744 -52.921  1.00  0.00     0.039 A
HETATM    3  C8  UNL     1      15.997 -28.433 -52.193  1.00  0.00     0.034 A
HETATM    4  C9  UNL     1      16.925 -27.501 -52.613  1.00  0.00     0.063 A
HETATM    5  N2  UNL     1      18.011 -27.246 -51.846  1.00  0.00    -0.191 N
ATOM      6  H2  UNL     1      18.135 -27.742 -50.964  1.00  0.00     0.184 HD
HETATM    7  C10 UNL     1      18.917 -26.354 -52.232  1.00  0.00     0.684 A
HETATM    8  N4  UNL     1      18.739 -25.686 -53.425  1.00  0.00    -0.175 N
ATOM      9  H4  UNL     1      19.444 -25.001 -53.700  1.00  0.00     0.186 HD
HETATM   10  C23 UNL     1      17.702 -25.878 -54.245  1.00  0.00     0.134 A
HETATM   11  C31 UNL     1      16.757 -26.828 -53.815  1.00  0.00     0.038 A
HETATM   12  C32 UNL     1      15.634 -27.132 -54.567  1.00  0.00     0.054 A
ENDROOT
BRANCH   7  13
HETATM   13  N3  UNL     1      20.006 -26.137 -51.534  1.00  0.00    -0.192 N
ATOM     14  H3  UNL     1      20.384 -26.843 -50.902  1.00  0.00     0.184 HD
BRANCH  13  15
HETATM   15  C11 UNL     1      20.633 -24.878 -51.701  1.00  0.00     0.049 A
HETATM   16  C12 UNL     1      21.912 -24.707 -52.187  1.00  0.00     0.033 A
HETATM   17  C13 UNL     1      22.452 -23.438 -52.361  1.00  0.00     0.039 A
HETATM   18  C14 UNL     1      21.724 -22.343 -52.054  1.00  0.00     0.076 A
HETATM   19  C21 UNL     1      20.447 -22.453 -51.572  1.00  0.00     0.039 A
HETATM   20  C22 UNL     1      19.919 -23.706 -51.402  1.00  0.00     0.033 A
BRANCH  18  21
HETATM   21  O2  UNL     1      22.246 -21.042 -52.207  1.00  0.00    -0.311 OA
BRANCH  21  22
HETATM   22  C15 UNL     1      23.624 -20.996 -52.280  1.00  0.00     0.076 A
HETATM   23  C16 UNL     1      24.146 -20.560 -53.516  1.00  0.00     0.037 A
HETATM   24  C17 UNL     1      25.510 -20.520 -53.614  1.00  0.00     0.003 A
HETATM   25  C18 UNL     1      26.378 -20.872 -52.615  1.00  0.00     0.000 A
HETATM   26  C19 UNL     1      25.873 -21.300 -51.399  1.00  0.00     0.003 A
HETATM   27  C20 UNL     1      24.476 -21.346 -51.283  1.00  0.00     0.037 A
ENDBRANCH  21  22
ENDBRANCH  18  21
ENDBRANCH  13  15
ENDBRANCH   7  13
BRANCH  10  28
HETATM   28  N5  UNL     1      17.555 -25.317 -55.314  1.00  0.00    -0.341 N
ATOM     29  H5  UNL     1      17.237 -26.014 -55.988  1.00  0.00     0.167 HD
BRANCH  28  30
HETATM   30  C24 UNL     1      17.646 -24.122 -55.967  1.00  0.00     0.033 A
HETATM   31  C25 UNL     1      16.635 -23.834 -56.902  1.00  0.00     0.030 A
HETATM   32  C26 UNL     1      16.649 -22.682 -57.653  1.00  0.00     0.018 A
HETATM   33  C27 UNL     1      17.664 -21.783 -57.487  1.00  0.00     0.048 A
HETATM   34  C29 UNL     1      18.657 -22.034 -56.585  1.00  0.00     0.018 A
HETATM   35  C30 UNL     1      18.636 -23.174 -55.853  1.00  0.00     0.030 A
BRANCH  33  36
HETATM   36  C28 UNL     1      17.749 -20.531 -58.304  1.00  0.00     0.417 C
HETATM   37  F1  UNL     1      16.831 -19.606 -57.780  1.00  0.00    -0.166 F
HETATM   38  F2  UNL     1      18.991 -19.921 -58.196  1.00  0.00    -0.166 F
HETATM   39  F3  UNL     1      17.503 -20.728 -59.621  1.00  0.00    -0.166 F
ENDBRANCH  33  36
ENDBRANCH  28  30
ENDBRANCH  10  28
BRANCH   1  40
HETATM   40  O1  UNL     1      13.595 -28.390 -54.878  1.00  0.00    -0.349 OA
BRANCH  40  41
HETATM   41  C5  UNL     1      13.697 -28.783 -56.246  1.00  0.00     0.208 C
BRANCH  41  42
HETATM   42  C4  UNL     1      12.844 -27.829 -57.072  1.00  0.00     0.211 C
BRANCH  42  43
HETATM   43  C2  UNL     1      13.485 -26.564 -57.440  1.00  0.00     0.010 C
HETATM   44  C1  UNL     1      13.035 -25.318 -56.766  1.00  0.00     0.011 C
HETATM   45  C3  UNL     1      13.123 -26.354 -58.964  1.00  0.00     0.011 C
ENDBRANCH  42  43
BRANCH  42  46
HETATM   46  N1  UNL     1      11.534 -27.705 -56.477  1.00  0.00    -0.073 N
ATOM     47  H13 UNL     1      11.018 -26.945 -56.921  1.00  0.00     0.274 HD
ATOM     48  H12 UNL     1      10.950 -28.498 -56.745  1.00  0.00     0.274 HD
ATOM     49  H11 UNL     1      11.526 -27.590 -55.464  1.00  0.00     0.274 HD
ENDBRANCH  42  46
ENDBRANCH  41  42
ENDBRANCH  40  41
ENDBRANCH   1  40
TORSDOF 12
ENDMDL