MODEL 5
REMARK VINA RESULT: -7.691046833      4.128      7.370
REMARK  11 active torsions:
REMARK  status: ('A' for Active; 'I' for Inactive)
REMARK    1  A    between atoms: C3_5  and  C4_6
REMARK    2  A    between atoms: C8_12  and  C9_13
REMARK    3  A    between atoms: C10_16  and  N4_17
REMARK    4  A    between atoms: N4_17  and  C11_19
REMARK    5  A    between atoms: C11_19  and  C12_20
REMARK    6  A    between atoms: N6_27  and  C14_29
REMARK    7  A    between atoms: C14_29  and  C16_31
REMARK    8  A    between atoms: C22_37  and  O1_38
REMARK    9  A    between atoms: O1_38  and  C23_39
REMARK   10  A    between atoms: C26_42  and  O2_43
REMARK   11  A    between atoms: O2_43  and  C27_44
ROOT
HETATM    1  C9  UNL     1      20.151 -22.432 -54.240  1.00  0.00     0.115 A
HETATM    2  N3  UNL     1      20.148 -21.891 -55.502  1.00  0.00    -0.187 N
ATOM      3  H3  UNL     1      20.895 -21.254 -55.774  1.00  0.00     0.184 HD
HETATM    4  C10 UNL     1      19.162 -22.191 -56.400  1.00  0.00     0.680 A
HETATM    5  N5  UNL     1      18.167 -23.027 -56.062  1.00  0.00    -0.174 N
ATOM      6  H5  UNL     1      17.444 -23.232 -56.750  1.00  0.00     0.186 HD
HETATM    7  C13 UNL     1      18.091 -23.599 -54.860  1.00  0.00     0.154 A
HETATM    8  N6  UNL     1      17.231 -24.362 -54.392  1.00  0.00    -0.365 N
ATOM      9  H6  UNL     1      17.414 -24.661 -53.435  1.00  0.00     0.161 HD
HETATM   10  C22 UNL     1      19.141 -23.265 -53.948  1.00  0.00     0.149 A
ENDROOT
BRANCH   1  11
HETATM   11  C8  UNL     1      21.282 -22.076 -53.368  1.00  0.00     0.086 A
HETATM   12  C2  UNL     1      21.358 -21.405 -52.198  1.00  0.00     0.036 A
HETATM   13  C1  UNL     1      20.360 -20.603 -51.461  1.00  0.00     0.070 C
HETATM   14  N1  UNL     1      22.649 -21.490 -51.756  1.00  0.00    -0.347 N
HETATM   15  C3  UNL     1      23.383 -22.191 -52.618  1.00  0.00     0.089 A
ATOM     16  H1  UNL     1      22.999 -21.077 -50.892  1.00  0.00     0.167 HD
HETATM   17  N2  UNL     1      22.557 -22.546 -53.595  1.00  0.00    -0.342 N
ATOM     18  H2  UNL     1      22.832 -23.096 -54.409  1.00  0.00     0.167 HD
BRANCH  15  19
HETATM   19  C4  UNL     1      24.842 -22.515 -52.469  1.00  0.00     0.007 C
HETATM   20  C5  UNL     1      24.980 -24.003 -52.223  1.00  0.00     0.022 C
HETATM   21  C6  UNL     1      25.418 -21.747 -51.328  1.00  0.00     0.022 C
HETATM   22  C7  UNL     1      25.555 -22.112 -53.730  1.00  0.00     0.022 C
ENDBRANCH  15  19
ENDBRANCH   1  11
BRANCH  10  23
HETATM   23  O1  UNL     1      19.014 -23.918 -52.723  1.00  0.00    -0.305 OA
BRANCH  23  24
HETATM   24  C23 UNL     1      19.759 -25.117 -52.655  1.00  0.00     0.076 A
HETATM   25  C24 UNL     1      19.391 -26.284 -53.256  1.00  0.00     0.040 A
HETATM   26  C25 UNL     1      20.132 -27.467 -53.179  1.00  0.00     0.039 A
HETATM   27  C26 UNL     1      21.286 -27.483 -52.475  1.00  0.00     0.069 A
HETATM   28  C30 UNL     1      21.699 -26.318 -51.847  1.00  0.00     0.039 A
HETATM   29  C31 UNL     1      20.956 -25.162 -51.933  1.00  0.00     0.040 A
BRANCH  27  30
HETATM   30  O2  UNL     1      22.046 -28.627 -52.371  1.00  0.00    -0.347 OA
BRANCH  30  31
HETATM   31  C27 UNL     1      23.415 -28.776 -52.518  1.00  0.00     0.120 C
HETATM   32  C28 UNL     1      23.932 -29.973 -51.706  1.00  0.00     0.040 C
HETATM   33  C29 UNL     1      23.802 -28.993 -53.981  1.00  0.00     0.040 C
ENDBRANCH  30  31
ENDBRANCH  27  30
ENDBRANCH  23  24
ENDBRANCH  10  23
BRANCH   4  34
HETATM   34  N4  UNL     1      19.269 -21.648 -57.538  1.00  0.00    -0.217 N
ATOM     35  H4  UNL     1      19.732 -22.180 -58.276  1.00  0.00     0.178 HD
BRANCH  34  36
HETATM   36  C11 UNL     1      18.791 -20.350 -57.863  1.00  0.00     0.255 C
BRANCH  36  37
HETATM   37  C12 UNL     1      17.397 -20.563 -58.489  1.00  0.00     0.403 C
HETATM   38  F1  UNL     1      16.602 -19.513 -58.171  1.00  0.00    -0.169 F
HETATM   39  F2  UNL     1      16.944 -21.771 -58.010  1.00  0.00    -0.169 F
HETATM   40  F3  UNL     1      17.636 -20.634 -59.856  1.00  0.00    -0.169 F
ENDBRANCH  36  37
ENDBRANCH  34  36
ENDBRANCH   4  34
BRANCH   8  41
HETATM   41  C14 UNL     1      16.049 -24.889 -54.947  1.00  0.00     0.112 C
HETATM   42  C15 UNL     1      15.149 -23.903 -55.630  1.00  0.00     0.037 C
BRANCH  41  43
HETATM   43  C16 UNL     1      16.358 -25.998 -55.914  1.00  0.00    -0.036 A
HETATM   44  C17 UNL     1      16.943 -27.181 -55.579  1.00  0.00     0.009 A
HETATM   45  C18 UNL     1      17.209 -28.164 -56.550  1.00  0.00     0.001 A
HETATM   46  C19 UNL     1      16.887 -27.959 -57.869  1.00  0.00     0.000 A
HETATM   47  C20 UNL     1      16.296 -26.761 -58.209  1.00  0.00     0.001 A
HETATM   48  C21 UNL     1      16.043 -25.814 -57.247  1.00  0.00     0.009 A
ENDBRANCH  41  43
ENDBRANCH   8  41
TORSDOF 11
ENDMDL