MODEL 5
REMARK VINA RESULT: -8.032462023      3.230      4.985
REMARK  10 active torsions:
REMARK  status: ('A' for Active; 'I' for Inactive)
REMARK    1  A    between atoms: C2_2  and  C3_3
REMARK    2  A    between atoms: N2_10  and  C7_11
REMARK    3  A    between atoms: C7_11  and  C8_12
REMARK    4  A    between atoms: C11_15  and  C12_16
REMARK    5  A    between atoms: C17_23  and  C18_24
REMARK    6  A    between atoms: C18_24  and  C19_25
REMARK    7  A    between atoms: C25_33  and  C26_34
REMARK    8  A    between atoms: C26_34  and  O1_35
REMARK    9  A    between atoms: C26_34  and  C27_37
REMARK   10  A    between atoms: C27_37  and  O2_38
ROOT
HETATM    1  C12 UNL     1      16.508 -24.276 -56.020  1.00  0.00    -0.024 A
HETATM    2  C13 UNL     1      17.198 -23.575 -56.962  1.00  0.00     0.036 A
HETATM    3  C14 UNL     1      18.226 -22.773 -56.537  1.00  0.00     0.067 A
HETATM    4  C15 UNL     1      18.955 -22.024 -57.525  1.00  0.00     0.101 C
HETATM    5  N3  UNL     1      19.521 -21.421 -58.323  1.00  0.00    -0.191 NA
HETATM    6  C16 UNL     1      18.569 -22.664 -55.179  1.00  0.00     0.061 A
HETATM    7 CL2  UNL     1      19.905 -21.622 -54.771  1.00  0.00    -0.082 Cl
HETATM    8  C17 UNL     1      17.879 -23.364 -54.239  1.00  0.00    -0.030 A
HETATM    9  C29 UNL     1      16.839 -24.174 -54.682  1.00  0.00     0.021 A
ENDROOT
BRANCH   1  10
HETATM   10  C11 UNL     1      15.426 -25.184 -56.393  1.00  0.00    -0.023 A
HETATM   11  C10 UNL     1      15.670 -26.495 -56.754  1.00  0.00     0.013 A
HETATM   12  C9  UNL     1      14.654 -27.352 -57.092  1.00  0.00     0.017 A
HETATM   13  C8  UNL     1      13.310 -26.944 -57.091  1.00  0.00     0.018 A
HETATM   14  C31 UNL     1      13.060 -25.663 -56.742  1.00  0.00     0.128 A
HETATM   15  C30 UNL     1      14.109 -24.786 -56.394  1.00  0.00     0.055 A
HETATM   16  F1  UNL     1      11.799 -25.180 -56.726  1.00  0.00    -0.205 F
BRANCH  13  17
HETATM   17  C7  UNL     1      12.314 -27.959 -57.463  1.00  0.00     0.113 C
BRANCH  17  18
HETATM   18  N2  UNL     1      11.892 -28.896 -56.498  1.00  0.00    -0.312 N
HETATM   19  C3  UNL     1      10.900 -28.758 -55.599  1.00  0.00     0.056 A
HETATM   20  C4  UNL     1      10.865 -29.923 -54.852  1.00  0.00     0.128 A
HETATM   21 CL1  UNL     1       9.790 -30.339 -53.531  1.00  0.00    -0.062 Cl
HETATM   22  N1  UNL     1      11.829 -30.727 -55.318  1.00  0.00    -0.335 N
HETATM   23  C5  UNL     1      12.469 -30.121 -56.324  1.00  0.00     0.085 A
ATOM     24  H1  UNL     1      12.042 -31.658 -54.962  1.00  0.00     0.168 HD
HETATM   25  C6  UNL     1      13.602 -30.695 -57.099  1.00  0.00     0.089 C
BRANCH  19  26
HETATM   26  C2  UNL     1       9.956 -27.619 -55.386  1.00  0.00     0.056 C
HETATM   27  C1  UNL     1      10.289 -26.794 -54.178  1.00  0.00     0.011 C
ENDBRANCH  19  26
ENDBRANCH  17  18
ENDBRANCH  13  17
ENDBRANCH   1  10
BRANCH   8  28
HETATM   28  C18 UNL     1      18.187 -23.346 -52.743  1.00  0.00     0.081 C
BRANCH  28  29
HETATM   29  C19 UNL     1      19.251 -24.334 -52.539  1.00  0.00    -0.025 A
HETATM   30  C20 UNL     1      20.627 -23.985 -52.459  1.00  0.00     0.096 A
HETATM   31  N4  UNL     1      21.367 -25.078 -52.522  1.00  0.00    -0.365 N
HETATM   32  C21 UNL     1      20.558 -26.171 -52.639  1.00  0.00     0.043 A
ATOM     33  H4  UNL     1      22.386 -25.101 -52.488  1.00  0.00     0.165 HD
HETATM   34  C22 UNL     1      20.846 -27.502 -52.760  1.00  0.00     0.030 A
HETATM   35  C28 UNL     1      19.241 -25.697 -52.642  1.00  0.00     0.011 A
HETATM   36  C23 UNL     1      19.832 -28.398 -52.881  1.00  0.00     0.003 A
HETATM   37  C24 UNL     1      18.535 -27.945 -52.873  1.00  0.00     0.015 A
HETATM   38  C25 UNL     1      18.175 -26.585 -52.750  1.00  0.00     0.008 A
BRANCH  38  39
HETATM   39  C26 UNL     1      16.806 -26.191 -52.496  1.00  0.00     0.077 C
BRANCH  39  40
HETATM   40  O1  UNL     1      16.493 -25.121 -51.665  1.00  0.00    -0.362 OA
ATOM     41  H1  UNL     1      15.712 -25.119 -51.123  1.00  0.00     0.217 HD
ENDBRANCH  39  40
BRANCH  39  42
HETATM   42  C27 UNL     1      15.661 -26.928 -53.091  1.00  0.00     0.229 C
BRANCH  42  43
HETATM   43  O2  UNL     1      14.441 -26.276 -53.074  1.00  0.00    -0.394 OA
ATOM     44  H2  UNL     1      14.319 -25.632 -52.387  1.00  0.00     0.209 HD
ENDBRANCH  42  43
ENDBRANCH  39  42
ENDBRANCH  38  39
ENDBRANCH  28  29
ENDBRANCH   8  28
TORSDOF 10
ENDMDL