MODEL 1
REMARK VINA RESULT: -7.948247840      0.000      0.000
REMARK  11 active torsions:
REMARK  status: ('A' for Active; 'I' for Inactive)
REMARK    1  A    between atoms: O1_2  and  C2_3
REMARK    2  A    between atoms: C8_11  and  N2_12
REMARK    3  A    between atoms: N2_12  and  C9_14
REMARK    4  A    between atoms: C9_14  and  C10_15
REMARK    5  A    between atoms: C10_15  and  N3_16
REMARK    6  A    between atoms: N3_16  and  C11_17
REMARK    7  A    between atoms: N3_16  and  C27_40
REMARK    8  A    between atoms: C11_17  and  C12_18
REMARK    9  A    between atoms: N4_19  and  C13_21
REMARK   10  A    between atoms: C21_31  and  C22_32
REMARK   11  A    between atoms: C27_40  and  C29_42
ROOT
HETATM    1  N3  UNL     1      16.761 -28.162 -53.813  1.00  0.00    -0.382 N
ENDROOT
BRANCH   1   2
HETATM    2  C10 UNL     1      15.849 -29.226 -53.712  1.00  0.00     0.142 C
BRANCH   2   3
HETATM    3  C9  UNL     1      14.400 -28.763 -53.909  1.00  0.00     0.139 C
BRANCH   3   4
HETATM    4  N2  UNL     1      14.071 -28.682 -55.294  1.00  0.00    -0.388 N
ATOM      5  H2  UNL     1      14.297 -29.516 -55.836  1.00  0.00     0.159 HD
BRANCH   4   6
HETATM    6  C8  UNL     1      13.545 -27.743 -55.959  1.00  0.00     0.042 A
HETATM    7  C7  UNL     1      12.514 -26.966 -55.475  1.00  0.00     0.047 A
HETATM    8  C6  UNL     1      12.027 -25.964 -56.289  1.00  0.00     0.090 A
HETATM    9  N1  UNL     1      12.546 -25.757 -57.516  1.00  0.00    -0.365 N
HETATM   10  C5  UNL     1      13.551 -26.511 -57.993  1.00  0.00     0.044 A
ATOM     11  H1  UNL     1      12.167 -25.008 -58.097  1.00  0.00     0.165 HD
HETATM   12  C4  UNL     1      14.078 -26.283 -59.267  1.00  0.00     0.033 A
HETATM   13  C32 UNL     1      14.085 -27.525 -57.239  1.00  0.00     0.020 A
HETATM   14  C3  UNL     1      15.123 -27.082 -59.737  1.00  0.00     0.039 A
HETATM   15  C2  UNL     1      15.660 -28.101 -58.980  1.00  0.00     0.069 A
HETATM   16  C33 UNL     1      15.116 -28.296 -57.732  1.00  0.00     0.052 A
BRANCH  15  17
HETATM   17  O1  UNL     1      16.691 -28.843 -59.522  1.00  0.00    -0.356 OA
HETATM   18  C1  UNL     1      16.910 -30.215 -59.255  1.00  0.00     0.210 C
ENDBRANCH  15  17
ENDBRANCH   4   6
ENDBRANCH   3   4
ENDBRANCH   2   3
ENDBRANCH   1   2
BRANCH   1  19
HETATM   19  C11 UNL     1      16.384 -27.085 -52.992  1.00  0.00     0.103 C
BRANCH  19  20
HETATM   20  C12 UNL     1      17.423 -26.163 -52.455  1.00  0.00     0.105 C
HETATM   21  N4  UNL     1      17.680 -24.959 -53.014  1.00  0.00    -0.363 N
ATOM     22  H4  UNL     1      17.242 -24.337 -52.334  1.00  0.00     0.165 HD
BRANCH  21  23
HETATM   23  C13 UNL     1      18.102 -24.156 -53.813  1.00  0.00     0.057 A
HETATM   24  C14 UNL     1      19.293 -23.472 -53.484  1.00  0.00     0.018 A
HETATM   25  C15 UNL     1      19.958 -23.760 -52.321  1.00  0.00     0.016 A
HETATM   26  C19 UNL     1      19.810 -22.532 -54.309  1.00  0.00     0.045 A
HETATM   27  C16 UNL     1      21.117 -23.104 -52.008  1.00  0.00     0.001 A
HETATM   28  C17 UNL     1      21.646 -22.144 -52.847  1.00  0.00     0.002 A
HETATM   29  C18 UNL     1      20.993 -21.843 -54.019  1.00  0.00     0.030 A
HETATM   30  N5  UNL     1      19.198 -22.220 -55.477  1.00  0.00    -0.354 N
HETATM   31  C20 UNL     1      18.068 -22.832 -55.851  1.00  0.00     0.060 A
ATOM     32  H5  UNL     1      19.605 -21.506 -56.081  1.00  0.00     0.166 HD
HETATM   33  C21 UNL     1      17.502 -22.463 -57.075  1.00  0.00     0.075 A
HETATM   34  C26 UNL     1      17.518 -23.795 -55.031  1.00  0.00     0.019 A
HETATM   35  C23 UNL     1      16.332 -23.142 -57.414  1.00  0.00     0.018 A
HETATM   36  C24 UNL     1      15.783 -24.091 -56.618  1.00  0.00     0.002 A
HETATM   37  C25 UNL     1      16.360 -24.433 -55.421  1.00  0.00     0.016 A
BRANCH  33  38
HETATM   38  C22 UNL     1      18.054 -21.444 -57.973  1.00  0.00     0.419 C
HETATM   39  F1  UNL     1      17.146 -21.290 -59.036  1.00  0.00    -0.166 F
HETATM   40  F2  UNL     1      19.232 -21.814 -58.600  1.00  0.00    -0.166 F
HETATM   41  F3  UNL     1      18.120 -20.174 -57.414  1.00  0.00    -0.166 F
ENDBRANCH  33  38
ENDBRANCH  21  23
ENDBRANCH  19  20
ENDBRANCH   1  19
BRANCH   1  42
HETATM   42  C27 UNL     1      17.988 -28.266 -54.425  1.00  0.00     0.083 C
HETATM   43  C28 UNL     1      18.982 -29.164 -53.675  1.00  0.00     0.033 C
BRANCH  42  44
HETATM   44  C29 UNL     1      18.044 -28.580 -55.905  1.00  0.00    -0.000 C
HETATM   45  C30 UNL     1      18.869 -29.766 -56.288  1.00  0.00     0.011 C
HETATM   46  C31 UNL     1      18.454 -27.341 -56.700  1.00  0.00     0.011 C
ENDBRANCH  42  44
ENDBRANCH   1  42
TORSDOF 11
ENDMDL