MODEL 2
REMARK VINA RESULT: -8.842182572      3.636      6.579
REMARK  11 active torsions:
REMARK  status: ('A' for Active; 'I' for Inactive)
REMARK    1  A    between atoms: O1_2  and  C2_3
REMARK    2  A    between atoms: C5_6  and  N1_7
REMARK    3  A    between atoms: N1_7  and  C6_8
REMARK    4  A    between atoms: N3_12  and  C8_14
REMARK    5  A    between atoms: C10_16  and  C11_17
REMARK    6  A    between atoms: C17_23  and  C18_24
REMARK    7  A    between atoms: C18_24  and  O2_25
REMARK    8  A    between atoms: C18_24  and  C19_27
REMARK    9  A    between atoms: C23_36  and  O3_37
REMARK   10  A    between atoms: O3_37  and  C24_38
REMARK   11  A    between atoms: C24_38  and  C25_39
ROOT
HETATM    1  C6  UNL     1      14.231 -25.877 -56.031  1.00  0.00     0.217 A
HETATM    2  N2  UNL     1      15.390 -25.068 -55.857  1.00  0.00    -0.162 N
ATOM      3  H2  UNL     1      15.682 -24.845 -54.905  1.00  0.00     0.187 HD
HETATM    4  C7  UNL     1      16.098 -24.598 -56.838  1.00  0.00     0.685 A
HETATM    5  N3  UNL     1      17.072 -23.880 -56.909  1.00  0.00    -0.191 N
ATOM      6  H3  UNL     1      17.240 -23.802 -57.912  1.00  0.00     0.184 HD
HETATM    7  N4  UNL     1      15.658 -24.938 -58.184  1.00  0.00    -0.200 N
ATOM      8  H4  UNL     1      16.174 -24.591 -58.992  1.00  0.00     0.183 HD
HETATM    9  C20 UNL     1      14.636 -25.663 -58.348  1.00  0.00     0.135 A
HETATM   10  C21 UNL     1      13.901 -26.149 -57.315  1.00  0.00     0.108 A
HETATM   11 CL1  UNL     1      12.511 -27.143 -57.623  1.00  0.00    -0.078 Cl
ENDROOT
BRANCH   5  12
HETATM   12  C8  UNL     1      18.047 -23.135 -56.367  1.00  0.00     0.058 A
HETATM   13  C9  UNL     1      18.384 -23.504 -55.028  1.00  0.00     0.038 A
HETATM   14  C10 UNL     1      19.310 -22.873 -54.252  1.00  0.00    -0.048 A
HETATM   15  C15 UNL     1      19.985 -21.812 -54.786  1.00  0.00     0.009 A
HETATM   16  C16 UNL     1      19.685 -21.413 -56.108  1.00  0.00     0.013 A
HETATM   17  C17 UNL     1      18.748 -22.053 -56.847  1.00  0.00     0.003 A
BRANCH  14  18
HETATM   18  C11 UNL     1      19.519 -23.263 -52.816  1.00  0.00    -0.024 C
HETATM   19  C12 UNL     1      18.182 -23.299 -52.056  1.00  0.00     0.019 C
HETATM   20  C13 UNL     1      20.358 -22.155 -52.160  1.00  0.00     0.019 C
HETATM   21  C14 UNL     1      20.243 -24.531 -52.612  1.00  0.00     0.019 C
ENDBRANCH  14  18
BRANCH  17  22
HETATM   22  C18 UNL     1      18.477 -21.569 -58.244  1.00  0.00     0.218 C
BRANCH  22  23
HETATM   23  O2  UNL     1      19.541 -20.619 -58.474  1.00  0.00    -0.385 OA
ATOM     24  H2  UNL     1      19.371 -19.945 -57.827  1.00  0.00     0.210 HD
ENDBRANCH  22  23
BRANCH  22  25
HETATM   25  C19 UNL     1      17.239 -20.741 -58.410  1.00  0.00     0.386 C
HETATM   26  F1  UNL     1      17.142 -19.555 -57.801  1.00  0.00    -0.211 F
HETATM   27  F2  UNL     1      16.953 -20.626 -59.782  1.00  0.00    -0.211 F
ENDBRANCH  22  25
ENDBRANCH  17  22
ENDBRANCH   5  12
BRANCH   1  28
HETATM   28  N1  UNL     1      13.646 -26.266 -55.058  1.00  0.00    -0.385 NA
BRANCH  28  29
HETATM   29  C5  UNL     1      13.327 -26.901 -53.925  1.00  0.00     0.112 A
HETATM   30  C4  UNL     1      11.919 -26.998 -53.671  1.00  0.00     0.048 A
HETATM   31  C3  UNL     1      11.484 -27.617 -52.574  1.00  0.00     0.043 A
HETATM   32  C2  UNL     1      12.418 -28.192 -51.625  1.00  0.00     0.101 A
HETATM   33  C23 UNL     1      13.792 -28.123 -51.824  1.00  0.00     0.105 A
HETATM   34  C22 UNL     1      14.114 -27.444 -53.031  1.00  0.00     0.084 A
BRANCH  32  35
HETATM   35  O1  UNL     1      11.870 -28.808 -50.533  1.00  0.00    -0.353 OA
HETATM   36  C1  UNL     1      10.561 -29.257 -50.413  1.00  0.00     0.210 C
ENDBRANCH  32  35
BRANCH  33  37
HETATM   37  O3  UNL     1      14.597 -28.645 -50.962  1.00  0.00    -0.344 OA
BRANCH  37  38
HETATM   38  C24 UNL     1      15.525 -28.998 -50.175  1.00  0.00     0.214 C
BRANCH  38  39
HETATM   39  C25 UNL     1      16.962 -28.558 -50.397  1.00  0.00    -0.034 A
HETATM   40  C26 UNL     1      17.907 -29.024 -49.532  1.00  0.00     0.009 A
HETATM   41  C27 UNL     1      19.277 -28.744 -49.674  1.00  0.00     0.001 A
HETATM   42  C28 UNL     1      19.673 -27.960 -50.732  1.00  0.00     0.000 A
HETATM   43  C29 UNL     1      18.711 -27.463 -51.639  1.00  0.00     0.001 A
HETATM   44  C30 UNL     1      17.401 -27.791 -51.423  1.00  0.00     0.009 A
ENDBRANCH  38  39
ENDBRANCH  37  38
ENDBRANCH  33  37
ENDBRANCH  28  29
ENDBRANCH   1  28
TORSDOF 11
ENDMDL