MODEL 1
REMARK VINA RESULT: -8.109350474      0.000      0.000
REMARK  12 active torsions:
REMARK  status: ('A' for Active; 'I' for Inactive)
REMARK    1  A    between atoms: C2_2  and  C3_3
REMARK       I    between atoms: C3_3  and  N1_5
REMARK    2  A    between atoms: N1_5  and  C4_7
REMARK    3  A    between atoms: C6_9  and  O2_10
REMARK    4  A    between atoms: O2_10  and  C7_11
REMARK    5  A    between atoms: C7_11  and  C8_12
REMARK    6  A    between atoms: C14_20  and  N2_21
REMARK    7  A    between atoms: N2_21  and  C15_23
REMARK    8  A    between atoms: C17_27  and  N4_28
REMARK    9  A    between atoms: N4_28  and  C19_30
REMARK   10  A    between atoms: C19_30  and  C20_31
REMARK   11  A    between atoms: C25_36  and  C26_37
REMARK   12  A    between atoms: C26_37  and  O3_38
ROOT
HETATM    1  C4  UNL     1      18.347 -27.582 -54.036  1.00  0.00     0.059 A
HETATM    2  C5  UNL     1      17.364 -26.660 -54.168  1.00  0.00     0.070 A
HETATM    3  C6  UNL     1      17.530 -25.320 -53.745  1.00  0.00     0.098 A
HETATM    4  C14 UNL     1      18.726 -24.917 -53.184  1.00  0.00     0.069 A
HETATM    5  C27 UNL     1      19.725 -25.839 -53.012  1.00  0.00     0.058 A
HETATM    6  C28 UNL     1      19.561 -27.097 -53.417  1.00  0.00     0.063 A
HETATM    7 CL3  UNL     1      20.831 -28.249 -53.170  1.00  0.00    -0.082 Cl
ENDROOT
BRANCH   4   8
HETATM    8  N2  UNL     1      18.933 -23.512 -53.082  1.00  0.00    -0.340 N
ATOM      9  H2  UNL     1      18.080 -22.960 -53.169  1.00  0.00     0.167 HD
BRANCH   8  10
HETATM   10  C15 UNL     1      19.976 -22.823 -52.903  1.00  0.00     0.114 A
HETATM   11  N3  UNL     1      20.774 -22.873 -51.836  1.00  0.00    -0.350 N
HETATM   12  C16 UNL     1      21.982 -22.273 -51.778  1.00  0.00     0.119 A
ATOM     13  H3  UNL     1      20.454 -23.392 -51.019  1.00  0.00     0.166 HD
HETATM   14  C17 UNL     1      22.489 -21.536 -52.885  1.00  0.00     0.049 A
HETATM   15  C24 UNL     1      21.673 -21.473 -53.973  1.00  0.00     0.044 A
HETATM   16  C25 UNL     1      20.422 -22.079 -54.053  1.00  0.00     0.011 A
BRANCH  14  17
HETATM   17  N4  UNL     1      23.875 -21.170 -52.830  1.00  0.00    -0.363 N
HETATM   18  C18 UNL     1      24.562 -20.622 -53.972  1.00  0.00     0.155 C
BRANCH  17  19
HETATM   19  C19 UNL     1      24.547 -21.175 -51.580  1.00  0.00     0.072 C
BRANCH  19  20
HETATM   20  C20 UNL     1      25.734 -21.980 -51.318  1.00  0.00    -0.019 C
HETATM   21  C21 UNL     1      27.071 -21.370 -51.658  1.00  0.00     0.020 C
HETATM   22  C22 UNL     1      25.799 -22.051 -49.743  1.00  0.00     0.020 C
HETATM   23  C23 UNL     1      25.711 -23.409 -51.721  1.00  0.00     0.020 C
ENDBRANCH  19  20
ENDBRANCH  17  19
ENDBRANCH  14  17
BRANCH  16  24
HETATM   24  C26 UNL     1      19.621 -22.250 -55.260  1.00  0.00     0.206 C
BRANCH  24  25
HETATM   25  O3  UNL     1      19.454 -21.084 -56.057  1.00  0.00    -0.396 OA
ATOM     26  H3  UNL     1      20.244 -20.751 -56.467  1.00  0.00     0.209 HD
ENDBRANCH  24  25
ENDBRANCH  16  24
ENDBRANCH   8  10
ENDBRANCH   4   8
BRANCH   3  27
HETATM   27  O2  UNL     1      16.379 -24.492 -53.931  1.00  0.00    -0.344 OA
BRANCH  27  28
HETATM   28  C7  UNL     1      16.385 -23.661 -55.114  1.00  0.00     0.216 C
BRANCH  28  29
HETATM   29  C8  UNL     1      15.617 -24.346 -56.158  1.00  0.00    -0.012 A
HETATM   30  C9  UNL     1      14.288 -24.592 -56.019  1.00  0.00     0.013 A
HETATM   31  C10 UNL     1      13.565 -25.287 -56.938  1.00  0.00     0.024 A
HETATM   32  C11 UNL     1      14.215 -25.773 -58.102  1.00  0.00     0.035 A
HETATM   33 CL1  UNL     1      13.316 -26.709 -59.290  1.00  0.00    -0.084 Cl
HETATM   34  C12 UNL     1      15.569 -25.508 -58.248  1.00  0.00     0.048 A
HETATM   35  C13 UNL     1      16.232 -24.815 -57.289  1.00  0.00     0.044 A
HETATM   36 CL2  UNL     1      17.944 -24.512 -57.585  1.00  0.00    -0.084 Cl
ENDBRANCH  28  29
ENDBRANCH  27  28
ENDBRANCH   3  27
BRANCH   1  37
HETATM   37  N1  UNL     1      18.395 -28.868 -54.669  1.00  0.00    -0.322 N
HETATM   38  C3  UNL     1      18.681 -29.113 -56.050  1.00  0.00     0.244 C
HETATM   39  O1  UNL     1      18.882 -28.194 -56.837  1.00  0.00    -0.268 OA
ATOM     40  H1  UNL     1      18.210 -29.681 -54.083  1.00  0.00     0.169 HD
BRANCH  38  41
HETATM   41  C2  UNL     1      18.770 -30.477 -56.494  1.00  0.00     0.064 C
HETATM   42  C1  UNL     1      19.759 -31.298 -56.331  1.00  0.00     0.017 C
ENDBRANCH  38  41
ENDBRANCH   1  37
TORSDOF 12
ENDMDL