MODEL 4
REMARK VINA RESULT: -7.781655674      0.833      1.430
REMARK  11 active torsions:
REMARK  status: ('A' for Active; 'I' for Inactive)
REMARK    1  A    between atoms: C2_2  and  O1_3
REMARK    2  A    between atoms: O1_3  and  C3_4
REMARK    3  A    between atoms: C6_7  and  C7_8
REMARK    4  A    between atoms: C11_12  and  C12_13
REMARK    5  A    between atoms: C13_14  and  C14_15
REMARK    6  A    between atoms: C17_18  and  C18_19
REMARK    7  A    between atoms: N1_20  and  N2_22
REMARK    8  A    between atoms: N2_22  and  C19_24
REMARK    9  A    between atoms: C19_24  and  N3_26
REMARK   10  A    between atoms: N3_26  and  C20_28
REMARK   11  A    between atoms: C23_31  and  C24_32
ROOT
HETATM    1  C14 UNL     1      15.800 -26.719 -54.434  1.00  0.00     0.032 A
HETATM    2  C15 UNL     1      15.631 -27.969 -54.947  1.00  0.00     0.030 A
HETATM    3  C16 UNL     1      14.592 -28.824 -54.545  1.00  0.00     0.016 A
HETATM    4  C17 UNL     1      13.694 -28.403 -53.595  1.00  0.00    -0.004 A
HETATM    5  C27 UNL     1      13.898 -27.128 -53.097  1.00  0.00     0.101 A
HETATM    6  N4  UNL     1      14.899 -26.323 -53.493  1.00  0.00    -0.365 N
ATOM      7  H4  UNL     1      14.986 -25.394 -53.079  1.00  0.00     0.165 HD
ENDROOT
BRANCH   1   8
HETATM    8  C13 UNL     1      16.844 -25.791 -54.839  1.00  0.00     0.032 C
HETATM    9  C12 UNL     1      16.765 -24.497 -54.682  1.00  0.00     0.034 C
BRANCH   9  10
HETATM   10  C11 UNL     1      17.764 -23.528 -55.061  1.00  0.00     0.060 A
HETATM   11  C10 UNL     1      18.971 -23.179 -54.482  1.00  0.00     0.020 A
HETATM   12  C9  UNL     1      19.592 -23.570 -53.322  1.00  0.00     0.017 A
HETATM   13  C28 UNL     1      19.635 -22.246 -55.262  1.00  0.00     0.061 A
HETATM   14  C8  UNL     1      20.822 -23.037 -52.982  1.00  0.00     0.013 A
HETATM   15  C7  UNL     1      21.488 -22.095 -53.776  1.00  0.00    -0.024 A
HETATM   16  C29 UNL     1      20.858 -21.708 -54.931  1.00  0.00     0.044 A
HETATM   17  N6  UNL     1      18.823 -22.033 -56.300  1.00  0.00    -0.299 N
HETATM   18  N5  UNL     1      17.730 -22.764 -56.208  1.00  0.00    -0.299 N
ATOM     19  H6  UNL     1      19.023 -21.389 -57.065  1.00  0.00     0.187 HD
ATOM     20  H5  UNL     1      16.969 -22.765 -56.887  1.00  0.00     0.187 HD
BRANCH  15  21
HETATM   21  C6  UNL     1      22.763 -21.617 -53.328  1.00  0.00    -0.026 A
HETATM   22  C5  UNL     1      23.650 -20.943 -54.105  1.00  0.00     0.015 A
HETATM   23  C4  UNL     1      24.898 -20.538 -53.613  1.00  0.00     0.037 A
HETATM   24  C3  UNL     1      25.294 -20.797 -52.335  1.00  0.00     0.068 A
HETATM   25  C31 UNL     1      24.378 -21.491 -51.533  1.00  0.00     0.037 A
HETATM   26  C30 UNL     1      23.178 -21.873 -52.022  1.00  0.00     0.015 A
BRANCH  24  27
HETATM   27  O1  UNL     1      26.491 -20.443 -51.762  1.00  0.00    -0.352 OA
BRANCH  27  28
HETATM   28  C2  UNL     1      27.732 -20.760 -52.292  1.00  0.00     0.171 C
HETATM   29  C1  UNL     1      27.873 -22.258 -52.431  1.00  0.00     0.034 C
ENDBRANCH  27  28
ENDBRANCH  24  27
ENDBRANCH  15  21
ENDBRANCH   9  10
ENDBRANCH   1   8
BRANCH   4  30
HETATM   30  C18 UNL     1      12.556 -29.178 -53.146  1.00  0.00     0.120 C
HETATM   31  N1  UNL     1      11.630 -29.590 -53.788  1.00  0.00    -0.309 N
ATOM     32  H1  UNL     1      11.053 -30.084 -53.108  1.00  0.00     0.186 HD
BRANCH  31  33
HETATM   33  N2  UNL     1      10.982 -29.728 -54.922  1.00  0.00    -0.276 N
ATOM     34  H2  UNL     1      11.086 -30.615 -55.414  1.00  0.00     0.189 HD
BRANCH  33  35
HETATM   35  C19 UNL     1      10.140 -28.738 -55.528  1.00  0.00     0.191 C
HETATM   36  S1  UNL     1       8.847 -29.204 -56.359  1.00  0.00    -0.039 SA
BRANCH  35  37
HETATM   37  N3  UNL     1      10.466 -27.379 -55.402  1.00  0.00    -0.332 N
ATOM     38  H3  UNL     1       9.923 -26.748 -54.812  1.00  0.00     0.168 HD
BRANCH  37  39
HETATM   39  C20 UNL     1      11.604 -26.922 -56.147  1.00  0.00     0.034 A
HETATM   40  C21 UNL     1      12.193 -27.781 -57.089  1.00  0.00     0.030 A
HETATM   41  C22 UNL     1      13.299 -27.422 -57.819  1.00  0.00     0.018 A
HETATM   42  C23 UNL     1      13.874 -26.179 -57.648  1.00  0.00     0.048 A
HETATM   43  C25 UNL     1      13.305 -25.330 -56.730  1.00  0.00     0.018 A
HETATM   44  C26 UNL     1      12.177 -25.697 -55.983  1.00  0.00     0.030 A
BRANCH  42  45
HETATM   45  C24 UNL     1      15.081 -25.765 -58.436  1.00  0.00     0.417 C
HETATM   46  F1  UNL     1      14.788 -25.557 -59.761  1.00  0.00    -0.166 F
HETATM   47  F2  UNL     1      15.626 -24.601 -57.930  1.00  0.00    -0.166 F
HETATM   48  F3  UNL     1      16.066 -26.740 -58.359  1.00  0.00    -0.166 F
ENDBRANCH  42  45
ENDBRANCH  37  39
ENDBRANCH  35  37
ENDBRANCH  33  35
ENDBRANCH  31  33
ENDBRANCH   4  30
TORSDOF 11
ENDMDL