MODEL 5
REMARK VINA RESULT: -7.650906987      3.202      4.452
REMARK  11 active torsions:
REMARK  status: ('A' for Active; 'I' for Inactive)
REMARK    1  A    between atoms: C2_2  and  N1_3
REMARK    2  A    between atoms: N1_3  and  C3_4
REMARK    3  A    between atoms: N1_3  and  C10_11
REMARK    4  A    between atoms: C3_4  and  C4_5
REMARK    5  A    between atoms: C10_11  and  C11_12
REMARK    6  A    between atoms: C14_15  and  N2_16
REMARK    7  A    between atoms: N2_16  and  C15_18
REMARK    8  A    between atoms: C20_27  and  N5_28
REMARK    9  A    between atoms: C21_31  and  C22_32
REMARK   10  A    between atoms: C25_35  and  O1_36
REMARK   11  A    between atoms: O1_36  and  C26_37
ROOT
HETATM    1  C11 UNL     1      15.035 -28.105 -52.783  1.00  0.00    -0.009 A
HETATM    2  C12 UNL     1      14.430 -27.569 -53.897  1.00  0.00     0.013 A
HETATM    3  C13 UNL     1      14.881 -26.402 -54.488  1.00  0.00     0.030 A
HETATM    4  C14 UNL     1      15.964 -25.709 -53.993  1.00  0.00     0.034 A
HETATM    5  C30 UNL     1      16.570 -26.239 -52.880  1.00  0.00     0.052 A
HETATM    6  C31 UNL     1      16.122 -27.408 -52.283  1.00  0.00     0.054 A
HETATM    7  C32 UNL     1      16.778 -27.940 -51.123  1.00  0.00     0.100 C
HETATM    8  N6  UNL     1      17.316 -28.378 -50.211  1.00  0.00    -0.191 NA
ENDROOT
BRANCH   1   9
HETATM    9  C10 UNL     1      14.527 -29.316 -52.139  1.00  0.00     0.313 C
BRANCH   9  10
HETATM   10  N1  UNL     1      13.323 -29.100 -51.327  1.00  0.00     0.096 N
BRANCH  10  11
HETATM   11  C2  UNL     1      13.509 -29.893 -50.115  1.00  0.00     0.268 C
HETATM   12  C1  UNL     1      14.614 -30.878 -50.236  1.00  0.00     0.037 C
ENDBRANCH  10  11
BRANCH  10  13
HETATM   13  C3  UNL     1      12.189 -29.717 -52.032  1.00  0.00     0.311 C
BRANCH  13  14
HETATM   14  C4  UNL     1      11.382 -28.798 -52.816  1.00  0.00    -0.030 A
HETATM   15  C5  UNL     1      10.820 -27.682 -52.187  1.00  0.00     0.009 A
HETATM   16  C6  UNL     1      10.026 -26.797 -52.897  1.00  0.00     0.001 A
HETATM   17  C7  UNL     1       9.763 -26.976 -54.237  1.00  0.00     0.000 A
HETATM   18  C8  UNL     1      10.309 -28.076 -54.884  1.00  0.00     0.001 A
HETATM   19  C9  UNL     1      11.097 -28.939 -54.139  1.00  0.00     0.009 A
ENDBRANCH  13  14
ENDBRANCH  10  13
ENDBRANCH   9  10
ENDBRANCH   1   9
BRANCH   4  20
HETATM   20  N2  UNL     1      16.475 -24.518 -54.554  1.00  0.00    -0.355 N
ATOM     21  H2  UNL     1      16.153 -24.224 -55.477  1.00  0.00     0.166 HD
BRANCH  20  22
HETATM   22  C15 UNL     1      17.324 -23.807 -53.938  1.00  0.00     0.047 A
HETATM   23  C16 UNL     1      17.274 -23.708 -52.541  1.00  0.00     0.047 A
HETATM   24  C17 UNL     1      18.250 -22.956 -51.917  1.00  0.00     0.090 A
HETATM   25  N3  UNL     1      19.214 -22.336 -52.579  1.00  0.00    -0.364 N
HETATM   26  C18 UNL     1      19.299 -22.403 -53.919  1.00  0.00     0.061 A
ATOM     27  H3  UNL     1      19.907 -21.794 -52.061  1.00  0.00     0.165 HD
HETATM   28  C19 UNL     1      20.310 -21.741 -54.591  1.00  0.00     0.120 A
HETATM   29  C29 UNL     1      18.339 -23.151 -54.629  1.00  0.00     0.034 A
HETATM   30  N4  UNL     1      20.357 -21.824 -55.916  1.00  0.00    -0.350 N
HETATM   31  C20 UNL     1      19.458 -22.526 -56.618  1.00  0.00     0.111 A
ATOM     32  H4  UNL     1      21.101 -21.336 -56.414  1.00  0.00     0.166 HD
HETATM   33  C21 UNL     1      18.404 -23.221 -55.975  1.00  0.00     0.033 A
BRANCH  31  34
HETATM   34  N5  UNL     1      19.529 -22.584 -57.902  1.00  0.00    -0.385 N
ATOM     35  H52 UNL     1      19.490 -23.501 -58.345  1.00  0.00     0.157 HD
ATOM     36  H51 UNL     1      19.620 -21.732 -58.457  1.00  0.00     0.157 HD
ENDBRANCH  31  34
BRANCH  33  37
HETATM   37  C22 UNL     1      17.486 -23.922 -56.831  1.00  0.00    -0.021 A
HETATM   38  C23 UNL     1      17.659 -25.275 -57.141  1.00  0.00     0.015 A
HETATM   39  C24 UNL     1      16.734 -25.955 -57.900  1.00  0.00     0.038 A
HETATM   40  C25 UNL     1      15.600 -25.324 -58.385  1.00  0.00     0.078 A
HETATM   41  C27 UNL     1      15.436 -23.995 -58.079  1.00  0.00     0.038 A
HETATM   42  C28 UNL     1      16.363 -23.292 -57.310  1.00  0.00     0.015 A
BRANCH  40  43
HETATM   43  O1  UNL     1      14.673 -26.039 -59.156  1.00  0.00    -0.255 OA
BRANCH  43  44
HETATM   44  C26 UNL     1      13.492 -26.569 -58.607  1.00  0.00     0.530 C
HETATM   45  F1  UNL     1      12.582 -26.669 -59.652  1.00  0.00    -0.144 F
HETATM   46  F2  UNL     1      12.906 -25.711 -57.695  1.00  0.00    -0.144 F
HETATM   47  F3  UNL     1      13.662 -27.780 -57.996  1.00  0.00    -0.144 F
ENDBRANCH  43  44
ENDBRANCH  40  43
ENDBRANCH  33  37
ENDBRANCH  20  22
ENDBRANCH   4  20
TORSDOF 11
ENDMDL