MODEL 2
REMARK VINA RESULT: -8.142674034      0.078      1.461
REMARK  11 active torsions:
REMARK  status: ('A' for Active; 'I' for Inactive)
REMARK    1  A    between atoms: C2_2  and  C4_5
REMARK    2  A    between atoms: C4_5  and  C5_6
REMARK    3  A    between atoms: C5_6  and  N1_7
REMARK    4  A    between atoms: C5_6  and  C6_11
REMARK    5  A    between atoms: C6_11  and  O1_14
REMARK    6  A    between atoms: O1_14  and  C9_15
REMARK    7  A    between atoms: C14_22  and  N3_23
REMARK    8  A    between atoms: N3_23  and  C15_25
REMARK    9  A    between atoms: C15_25  and  C16_26
REMARK   10  A    between atoms: C15_25  and  C22_34
REMARK   11  A    between atoms: C20_30  and  O2_31
ROOT
HETATM    1  C9  UNL     1      20.796 -24.502 -52.474  1.00  0.00     0.072 A
HETATM    2  C10 UNL     1      20.947 -25.541 -51.580  1.00  0.00     0.038 A
HETATM    3  C11 UNL     1      19.951 -26.468 -51.406  1.00  0.00     0.018 A
HETATM    4  C12 UNL     1      18.766 -26.382 -52.127  1.00  0.00     0.007 A
HETATM    5  C13 UNL     1      17.770 -27.312 -51.950  1.00  0.00     0.119 A
HETATM    6  N2  UNL     1      16.640 -27.205 -52.657  1.00  0.00    -0.201 N
ATOM      7  H2  UNL     1      15.894 -27.889 -52.534  1.00  0.00     0.183 HD
HETATM    8  C14 UNL     1      16.487 -26.195 -53.528  1.00  0.00     0.679 A
HETATM    9  N4  UNL     1      17.447 -25.267 -53.723  1.00  0.00    -0.191 N
ATOM     10  H4  UNL     1      17.300 -24.512 -54.393  1.00  0.00     0.184 HD
HETATM   11  C28 UNL     1      18.595 -25.339 -53.033  1.00  0.00     0.063 A
HETATM   12  C29 UNL     1      19.617 -24.426 -53.182  1.00  0.00     0.067 A
ENDROOT
BRANCH   8  13
HETATM   13  N3  UNL     1      15.421 -26.079 -54.208  1.00  0.00    -0.213 N
ATOM     14  H3  UNL     1      15.010 -25.146 -54.207  1.00  0.00     0.178 HD
BRANCH  13  15
HETATM   15  C15 UNL     1      14.709 -27.045 -54.971  1.00  0.00     0.169 C
BRANCH  15  16
HETATM   16  C16 UNL     1      13.247 -27.009 -54.602  1.00  0.00    -0.028 A
HETATM   17  C17 UNL     1      12.277 -27.041 -55.573  1.00  0.00     0.010 A
HETATM   18  C18 UNL     1      10.917 -27.009 -55.240  1.00  0.00     0.003 A
HETATM   19  C19 UNL     1      10.558 -26.944 -53.912  1.00  0.00     0.036 A
HETATM   20  C20 UNL     1      11.515 -26.911 -52.926  1.00  0.00     0.066 A
HETATM   21  C21 UNL     1      12.868 -26.945 -53.286  1.00  0.00     0.046 A
BRANCH  20  22
HETATM   22  O2  UNL     1      11.144 -26.846 -51.588  1.00  0.00    -0.361 OA
ATOM     23  H2  UNL     1      11.785 -26.632 -50.922  1.00  0.00     0.217 HD
ENDBRANCH  20  22
ENDBRANCH  15  16
BRANCH  15  24
HETATM   24  C22 UNL     1      14.866 -26.861 -56.437  1.00  0.00     0.013 A
HETATM   25  C23 UNL     1      15.028 -27.959 -57.283  1.00  0.00     0.044 A
HETATM   26 CL2  UNL     1      15.035 -29.575 -56.616  1.00  0.00    -0.084 Cl
HETATM   27  C24 UNL     1      15.180 -27.774 -58.641  1.00  0.00     0.024 A
HETATM   28  C25 UNL     1      15.182 -26.526 -59.221  1.00  0.00     0.003 A
HETATM   29  C26 UNL     1      15.025 -25.439 -58.397  1.00  0.00     0.024 A
HETATM   30  C27 UNL     1      14.870 -25.618 -57.017  1.00  0.00     0.044 A
HETATM   31 CL3  UNL     1      14.690 -24.204 -56.007  1.00  0.00    -0.084 Cl
ENDBRANCH  15  24
ENDBRANCH  13  15
ENDBRANCH   8  13
BRANCH   1  32
HETATM   32  O1  UNL     1      21.836 -23.600 -52.603  1.00  0.00    -0.339 OA
BRANCH  32  33
HETATM   33  C6  UNL     1      21.651 -22.207 -52.785  1.00  0.00     0.088 C
HETATM   34  C7  UNL     1      21.182 -21.987 -54.217  1.00  0.00     0.048 C
HETATM   35  C8  UNL     1      20.557 -21.723 -51.876  1.00  0.00     0.048 C
BRANCH  33  36
HETATM   36  C5  UNL     1      22.952 -21.480 -52.542  1.00  0.00     0.219 C
BRANCH  36  37
HETATM   37  C4  UNL     1      24.056 -22.498 -52.420  1.00  0.00     0.061 C
BRANCH  37  38
HETATM   38  C2  UNL     1      25.354 -22.061 -53.018  1.00  0.00     0.032 C
HETATM   39  C1  UNL     1      26.472 -21.871 -52.048  1.00  0.00     0.032 C
HETATM   40  C3  UNL     1      25.786 -23.168 -53.985  1.00  0.00     0.032 C
HETATM   41 CL1  UNL     1      25.143 -20.576 -53.968  1.00  0.00    -0.120 Cl
ENDBRANCH  37  38
ENDBRANCH  36  37
BRANCH  36  42
HETATM   42  N1  UNL     1      22.816 -20.669 -51.369  1.00  0.00    -0.072 N
ATOM     43  H13 UNL     1      22.383 -19.774 -51.593  1.00  0.00     0.274 HD
ATOM     44  H12 UNL     1      22.103 -21.047 -50.745  1.00  0.00     0.274 HD
ATOM     45  H11 UNL     1      23.700 -20.536 -50.877  1.00  0.00     0.274 HD
ENDBRANCH  36  42
ENDBRANCH  33  36
ENDBRANCH  32  33
ENDBRANCH   1  32
TORSDOF 11
ENDMDL