MODEL 4
REMARK VINA RESULT: -5.322326515      2.963      4.691
REMARK  3 active torsions:
REMARK  status: ('A' for Active; 'I' for Inactive)
REMARK    1  A    between atoms: N1_2  and  C3_5
REMARK    2  A    between atoms: C3_5  and  C4_6
REMARK    3  A    between atoms: C6_8  and  C7_9
ROOT
HETATM    1  C4  UNL     1     -45.887  13.086  -5.092  1.00  0.00     0.024 C
HETATM    2  C5  UNL     1     -47.289  12.567  -4.898  1.00  0.00     0.021 C
HETATM    3  C6  UNL     1     -47.606  12.925  -6.300  1.00  0.00     0.085 C
HETATM    4  C8  UNL     1     -46.298  13.644  -6.419  1.00  0.00    -0.016 C
HETATM    5  C9  UNL     1     -46.529  15.125  -6.504  1.00  0.00    -0.004 C
HETATM    6  C10 UNL     1     -45.323  15.988  -6.553  1.00  0.00     0.010 C
HETATM    7  C11 UNL     1     -44.416  15.502  -7.650  1.00  0.00    -0.013 C
HETATM    8  C12 UNL     1     -45.103  15.767  -8.966  1.00  0.00     0.009 C
HETATM    9  C13 UNL     1     -46.372  14.928  -8.990  1.00  0.00    -0.013 C
HETATM   10  C14 UNL     1     -47.246  15.354  -7.848  1.00  0.00     0.010 C
HETATM   11  C15 UNL     1     -45.931  13.486  -8.904  1.00  0.00     0.010 C
HETATM   12  C16 UNL     1     -45.394  13.226  -7.520  1.00  0.00    -0.004 C
HETATM   13  C17 UNL     1     -44.118  14.043  -7.436  1.00  0.00     0.010 C
ENDROOT
BRANCH   1  14
HETATM   14  C3  UNL     1     -45.393  14.024  -4.037  1.00  0.00     0.263 C
BRANCH  14  15
HETATM   15  N1  UNL     1     -44.039  13.775  -3.614  1.00  0.00     0.007 N
HETATM   16  C1  UNL     1     -44.097  13.397  -2.189  1.00  0.00     0.294 C
HETATM   17  C2  UNL     1     -43.188  14.942  -3.676  1.00  0.00     0.294 C
HETATM   18 CL1  UNL     1     -43.311  12.401  -4.395  1.00  0.00     0.117 Cl
ENDBRANCH  14  15
ENDBRANCH   1  14
BRANCH   3  19
HETATM   19  C7  UNL     1     -47.900  11.762  -7.111  1.00  0.00     0.236 C
HETATM   20  N2  UNL     1     -47.662  10.428  -6.694  1.00  0.00    -0.062 NA
HETATM   21  O1  UNL     1     -48.401  11.887  -8.271  1.00  0.00    -0.276 OA
ENDBRANCH   3  19
TORSDOF 3
ENDMDL