MODEL 4
REMARK VINA RESULT: -6.927122024      1.558      1.952
REMARK  7 active torsions:
REMARK  status: ('A' for Active; 'I' for Inactive)
REMARK    1  A    between atoms: N1_2  and  C2_3
REMARK    2  A    between atoms: N1_2  and  C10_12
REMARK    3  A    between atoms: C2_3  and  C3_4
REMARK    4  A    between atoms: C3_4  and  C4_5
REMARK    5  A    between atoms: C10_12  and  O1_13
REMARK    6  A    between atoms: C10_12  and  N2_15
REMARK    7  A    between atoms: C13_18  and  C14_19
ROOT
HETATM    1  C10 UNL     1     -46.314  14.009  -6.213  1.00  0.00     0.216 C
ENDROOT
BRANCH   1   2
HETATM    2  N1  UNL     1     -46.262  13.041  -5.218  1.00  0.00    -0.352 N
HETATM    3  C1  UNL     1     -45.275  13.313  -4.122  1.00  0.00     0.153 C
BRANCH   2   4
HETATM    4  C2  UNL     1     -47.061  11.857  -5.110  1.00  0.00     0.126 C
BRANCH   4   5
HETATM    5  C3  UNL     1     -47.902  11.991  -3.848  1.00  0.00     0.027 C
BRANCH   5   6
HETATM    6  C4  UNL     1     -49.122  11.106  -3.877  1.00  0.00     0.021 C
HETATM    7  C5  UNL     1     -49.676  10.809  -2.515  1.00  0.00     0.007 C
HETATM    8  C6  UNL     1     -50.697   9.734  -2.544  1.00  0.00     0.001 C
HETATM    9  C7  UNL     1     -51.036   9.202  -3.890  1.00  0.00     0.003 C
HETATM   10  C8  UNL     1     -49.887   8.992  -4.805  1.00  0.00     0.037 C
HETATM   11  C9  UNL     1     -48.650   9.762  -4.448  1.00  0.00     0.174 C
HETATM   12  F1  UNL     1     -48.054   9.100  -3.379  1.00  0.00    -0.249 F
ENDBRANCH   5   6
ENDBRANCH   4   5
ENDBRANCH   2   4
ENDBRANCH   1   2
BRANCH   1  13
HETATM   13  O1  UNL     1     -47.547  14.290  -6.608  1.00  0.00    -0.333 OA
ATOM     14  H1  UNL     1     -48.042  14.790  -5.970  1.00  0.00     0.220 HD
ENDBRANCH   1  13
BRANCH   1  15
HETATM   15  N2  UNL     1     -45.289  14.702  -6.830  1.00  0.00    -0.347 N
HETATM   16  C11 UNL     1     -44.646  15.896  -6.434  1.00  0.00     0.127 C
HETATM   17  C12 UNL     1     -43.420  16.183  -7.325  1.00  0.00     0.034 C
HETATM   18  C13 UNL     1     -43.811  16.256  -8.769  1.00  0.00     0.078 C
HETATM   19  C15 UNL     1     -44.897  15.260  -9.119  1.00  0.00     0.034 C
HETATM   20  C16 UNL     1     -44.764  14.126  -8.103  1.00  0.00     0.127 C
BRANCH  18  21
HETATM   21  C14 UNL     1     -44.268  17.606  -9.171  1.00  0.00     0.235 C
HETATM   22  N3  UNL     1     -43.687  18.756  -8.583  1.00  0.00    -0.062 NA
HETATM   23  O2  UNL     1     -45.167  17.770 -10.030  1.00  0.00    -0.277 OA
ENDBRANCH  18  21
ENDBRANCH   1  15
TORSDOF 7
ENDMDL