MODEL 4
REMARK VINA RESULT: -5.844051875      0.867      1.537
REMARK  5 active torsions:
REMARK  status: ('A' for Active; 'I' for Inactive)
REMARK    1  A    between atoms: C2_2  and  N1_3
REMARK    2  A    between atoms: C5_6  and  C6_7
REMARK    3  A    between atoms: C7_8  and  C8_9
REMARK       I    between atoms: C8_9  and  N2_11
REMARK    4  A    between atoms: N2_11  and  C9_13
REMARK    5  A    between atoms: C10_15  and  C11_16
ROOT
HETATM    1  C6  UNL     1     -45.422  14.152  -6.118  1.00  0.00    -0.011 C
HETATM    2  C7  UNL     1     -46.292  13.539  -6.866  1.00  0.00     0.071 C
ENDROOT
BRANCH   2   3
HETATM    3  C8  UNL     1     -47.238  12.600  -6.318  1.00  0.00     0.246 C
HETATM    4  O1  UNL     1     -48.194  12.133  -7.037  1.00  0.00    -0.268 OA
HETATM    5  N2  UNL     1     -47.159  12.159  -4.988  1.00  0.00    -0.314 N
ATOM      6  H2  UNL     1     -46.418  12.501  -4.376  1.00  0.00     0.170 HD
BRANCH   5   7
HETATM    7  C9  UNL     1     -48.120  11.231  -4.502  1.00  0.00     0.103 C
HETATM    8 CL1  UNL     1     -48.026   9.593  -5.041  1.00  0.00    -0.065 Cl
HETATM    9  C10 UNL     1     -49.041  11.676  -3.657  1.00  0.00     0.024 C
BRANCH   9  10
HETATM   10  C11 UNL     1     -50.039  10.696  -3.158  1.00  0.00    -0.031 C
HETATM   11  C12 UNL     1     -49.313   9.635  -2.381  1.00  0.00     0.019 C
HETATM   12  C13 UNL     1     -50.753  10.109  -4.351  1.00  0.00     0.019 C
HETATM   13  C14 UNL     1     -51.016  11.424  -2.248  1.00  0.00     0.019 C
ENDBRANCH   9  10
ENDBRANCH   5   7
ENDBRANCH   2   3
BRANCH   1  14
HETATM   14  C5  UNL     1     -44.470  15.113  -6.747  1.00  0.00    -0.018 C
HETATM   15  C4  UNL     1     -43.508  15.705  -5.770  1.00  0.00     0.041 C
HETATM   16  C3  UNL     1     -42.909  16.953  -6.430  1.00  0.00     0.238 C
HETATM   17  N1  UNL     1     -42.941  16.763  -7.847  1.00  0.00    -0.067 N
HETATM   18  C16 UNL     1     -44.316  16.993  -8.299  1.00  0.00     0.238 C
HETATM   19  C18 UNL     1     -42.563  15.400  -8.230  1.00  0.00     0.238 C
HETATM   20  C15 UNL     1     -45.265  16.197  -7.440  1.00  0.00     0.041 C
HETATM   21  C17 UNL     1     -43.650  14.420  -7.832  1.00  0.00     0.041 C
BRANCH  17  22
HETATM   22  C2  UNL     1     -42.025  17.650  -8.518  1.00  0.00     0.233 C
HETATM   23  C1  UNL     1     -42.576  19.014  -8.773  1.00  0.00     0.035 C
ENDBRANCH  17  22
ENDBRANCH   1  14
TORSDOF 5
ENDMDL