MODEL 3
REMARK VINA RESULT: -6.167658344      1.825      8.009
REMARK  4 active torsions:
REMARK  status: ('A' for Active; 'I' for Inactive)
REMARK    1  A    between atoms: C2_2  and  C3_3
REMARK    2  A    between atoms: C3_3  and  C4_4
REMARK       I    between atoms: C4_4  and  N1_6
REMARK    3  A    between atoms: C7_9  and  C8_11
REMARK       I    between atoms: C8_11  and  N2_13
REMARK    4  A    between atoms: N2_13  and  C9_15
ROOT
HETATM    1  C4  UNL     1     -44.366  16.268  -8.895  1.00  0.00     0.219 C
HETATM    2  O1  UNL     1     -43.124  16.258  -9.121  1.00  0.00    -0.273 OA
HETATM    3  N1  UNL     1     -45.020  15.184  -8.252  1.00  0.00    -0.352 N
HETATM    4  C5  UNL     1     -44.210  14.042  -7.852  1.00  0.00     0.129 C
HETATM    5  C6  UNL     1     -44.439  13.768  -6.396  1.00  0.00     0.074 C
HETATM    6  C7  UNL     1     -45.855  13.928  -5.962  1.00  0.00     0.189 C
HETATM    7  F1  UNL     1     -45.934  15.121  -5.237  1.00  0.00    -0.232 F
HETATM    8  C15 UNL     1     -46.822  14.063  -7.112  1.00  0.00     0.049 C
HETATM    9  C16 UNL     1     -47.005  12.824  -7.906  1.00  0.00     0.015 C
HETATM   10  C17 UNL     1     -46.430  15.216  -8.006  1.00  0.00     0.133 C
ENDROOT
BRANCH   6  11
HETATM   11  C8  UNL     1     -46.309  12.858  -5.043  1.00  0.00     0.258 C
HETATM   12  O2  UNL     1     -45.511  12.212  -4.323  1.00  0.00    -0.270 OA
HETATM   13  N2  UNL     1     -47.687  12.551  -4.973  1.00  0.00    -0.354 N
ATOM     14  H2  UNL     1     -48.355  13.063  -5.548  1.00  0.00     0.163 HD
BRANCH  13  15
HETATM   15  C9  UNL     1     -48.140  11.518  -4.089  1.00  0.00     0.084 C
HETATM   16  C10 UNL     1     -49.355  11.977  -3.302  1.00  0.00     0.025 C
HETATM   17  C11 UNL     1     -49.953  10.801  -2.574  1.00  0.00     0.002 C
HETATM   18  C12 UNL     1     -50.478   9.756  -3.533  1.00  0.00     0.000 C
HETATM   19  C13 UNL     1     -49.971  10.127  -4.912  1.00  0.00     0.002 C
HETATM   20  C14 UNL     1     -48.460  10.235  -4.818  1.00  0.00     0.025 C
ENDBRANCH  13  15
ENDBRANCH   6  11
BRANCH   1  21
HETATM   21  C3  UNL     1     -45.147  17.436  -9.313  1.00  0.00     0.103 C
BRANCH  21  22
HETATM   22  C2  UNL     1     -44.317  18.695  -9.290  1.00  0.00     0.005 C
HETATM   23  C1  UNL     1     -45.001  19.826 -10.036  1.00  0.00     0.005 C
ENDBRANCH  21  22
ENDBRANCH   1  21
TORSDOF 4
ENDMDL