MODEL 1
REMARK VINA RESULT: -5.657133576      0.000      0.000
REMARK  4 active torsions:
REMARK  status: ('A' for Active; 'I' for Inactive)
REMARK    1  A    between atoms: C3_3  and  C4_5
REMARK    2  A    between atoms: C4_5  and  C5_6
REMARK    3  A    between atoms: C5_6  and  C6_7
REMARK    4  A    between atoms: C6_7  and  C8_9
ROOT
HETATM    1  C4  UNL     1     -48.402  11.075  -4.200  1.00  0.00     0.177 C
HETATM    2  C11 UNL     1     -48.835  10.462  -5.509  1.00  0.00     0.050 C
HETATM    3  C12 UNL     1     -48.126   9.131  -5.642  1.00  0.00     0.031 C
HETATM    4  C13 UNL     1     -47.719   8.834  -4.239  1.00  0.00     0.234 C
HETATM    5  N1  UNL     1     -47.590  10.070  -3.537  1.00  0.00    -0.058 N
ATOM      6  H11 UNL     1     -47.813   9.980  -2.546  1.00  0.00     0.278 HD
ATOM      7  H12 UNL     1     -46.617  10.360  -3.437  1.00  0.00     0.278 HD
ENDROOT
BRANCH   1   8
HETATM    8  C3  UNL     1     -49.662  11.165  -3.387  1.00  0.00     0.024 C
HETATM    9  C2  UNL     1     -49.836  12.126  -2.525  1.00  0.00    -0.013 C
HETATM   10  C1  UNL     1     -51.100  12.233  -1.697  1.00  0.00     0.037 C
HETATM   11 BR1  UNL     1     -51.001   9.848  -3.639  1.00  0.00    -0.053 Br
ENDBRANCH   1   8
BRANCH   1  12
HETATM   12  C5  UNL     1     -47.796  12.389  -4.314  1.00  0.00     0.020 C
BRANCH  12  13
HETATM   13  C6  UNL     1     -46.542  12.673  -5.020  1.00  0.00    -0.079 C
HETATM   14  C7  UNL     1     -45.256  12.542  -4.290  1.00  0.00     0.043 C
BRANCH  13  15
HETATM   15  C8  UNL     1     -46.595  13.930  -5.875  1.00  0.00     0.037 C
HETATM   16  C9  UNL     1     -45.680  13.899  -7.053  1.00  0.00     0.118 C
HETATM   17  S1  UNL     1     -46.799  12.862  -7.968  1.00  0.00     0.016 S
HETATM   18  O1  UNL     1     -46.985  13.334  -9.584  1.00  0.00    -0.258 OA
HETATM   19  C10 UNL     1     -47.779  13.869  -6.859  1.00  0.00     0.118 C
ENDBRANCH  13  15
ENDBRANCH  12  13
ENDBRANCH   1  12
TORSDOF 4
ENDMDL