MODEL 4
REMARK VINA RESULT: -6.582791440      3.123      6.269
REMARK  4 active torsions:
REMARK  status: ('A' for Active; 'I' for Inactive)
REMARK    1  A    between atoms: C2_2  and  C4_4
REMARK    2  A    between atoms: N1_7  and  C7_8
REMARK    3  A    between atoms: C7_8  and  C8_9
REMARK       I    between atoms: N2_15  and  C13_16
REMARK       I    between atoms: C13_16  and  N3_18
REMARK    4  A    between atoms: N3_18  and  C14_20
ROOT
HETATM    1  C8  UNL     1     -46.168  14.188  -6.478  1.00  0.00     0.161 C
HETATM    2  C9  UNL     1     -47.229  14.397  -7.505  1.00  0.00     0.198 C
HETATM    3  F1  UNL     1     -46.977  15.706  -8.019  1.00  0.00    -0.247 F
HETATM    4  C10 UNL     1     -47.128  13.482  -8.703  1.00  0.00     0.041 C
HETATM    5  C11 UNL     1     -45.720  13.168  -9.083  1.00  0.00     0.023 C
HETATM    6  C12 UNL     1     -44.686  14.061  -8.504  1.00  0.00     0.129 C
HETATM    7  N2  UNL     1     -44.901  14.508  -7.165  1.00  0.00    -0.322 N
HETATM    8  C13 UNL     1     -43.906  15.247  -6.506  1.00  0.00     0.319 C
HETATM    9  O1  UNL     1     -42.821  15.513  -7.131  1.00  0.00    -0.247 OA
HETATM   10  N3  UNL     1     -43.984  15.742  -5.187  1.00  0.00    -0.338 N
ATOM     11  H3  UNL     1     -44.826  15.559  -4.641  1.00  0.00     0.164 HD
ENDROOT
BRANCH   1  12
HETATM   12  C7  UNL     1     -46.083  12.891  -5.783  1.00  0.00     0.086 C
BRANCH  12  13
HETATM   13  N1  UNL     1     -47.203  12.159  -5.409  1.00  0.00    -0.391 N
HETATM   14  C6  UNL     1     -47.593  10.954  -5.977  1.00  0.00     0.122 C
HETATM   15  C5  UNL     1     -49.084  10.749  -5.611  1.00  0.00     0.029 C
HETATM   16  C4  UNL     1     -49.052  10.297  -4.158  1.00  0.00     0.016 C
HETATM   17  C18 UNL     1     -48.137  11.177  -3.338  1.00  0.00     0.029 C
HETATM   18  C17 UNL     1     -47.671  12.393  -4.066  1.00  0.00     0.122 C
BRANCH  16  19
HETATM   19  C2  UNL     1     -50.407  10.166  -3.573  1.00  0.00    -0.089 C
HETATM   20  C1  UNL     1     -51.276   9.337  -4.107  1.00  0.00     0.014 C
HETATM   21  C3  UNL     1     -50.780  10.971  -2.391  1.00  0.00     0.043 C
ENDBRANCH  16  19
ENDBRANCH  12  13
ENDBRANCH   1  12
BRANCH  10  22
HETATM   22  C14 UNL     1     -42.912  16.497  -4.586  1.00  0.00     0.086 A
HETATM   23  C15 UNL     1     -42.916  16.689  -3.098  1.00  0.00     0.027 A
HETATM   24  C16 UNL     1     -41.923  15.789  -3.761  1.00  0.00     0.027 A
ENDBRANCH  10  22
TORSDOF 4
ENDMDL