MODEL 1
REMARK VINA RESULT: -6.494679603      0.000      0.000
REMARK  4 active torsions:
REMARK  status: ('A' for Active; 'I' for Inactive)
REMARK    1  A    between atoms: C2_2  and  C3_3
REMARK    2  A    between atoms: C3_3  and  C4_4
REMARK       I    between atoms: C4_4  and  N1_6
REMARK    3  A    between atoms: N1_6  and  C5_8
REMARK    4  A    between atoms: C5_8  and  C6_9
ROOT
HETATM    1  C6  UNL     1     -47.659  11.658  -4.762  1.00  0.00    -0.022 C
HETATM    2  C7  UNL     1     -48.250  10.927  -5.917  1.00  0.00     0.015 C
HETATM    3  C8  UNL     1     -48.937   9.686  -5.400  1.00  0.00    -0.012 C
HETATM    4  C9  UNL     1     -48.015   8.790  -4.623  1.00  0.00     0.009 C
HETATM    5  C10 UNL     1     -47.508   9.554  -3.414  1.00  0.00    -0.012 C
HETATM    6  C11 UNL     1     -48.633  10.025  -2.531  1.00  0.00     0.025 C
HETATM    7  C12 UNL     1     -49.573  10.889  -3.363  1.00  0.00     0.019 C
HETATM    8 BR1  UNL     1     -50.983  11.493  -2.205  1.00  0.00    -0.085 Br
HETATM    9  C13 UNL     1     -50.094  10.064  -4.501  1.00  0.00     0.025 C
HETATM   10  C14 UNL     1     -48.827  12.099  -3.868  1.00  0.00     0.032 C
HETATM   11  C15 UNL     1     -46.773  10.762  -3.907  1.00  0.00     0.015 C
ENDROOT
BRANCH   1  12
HETATM   12  C5  UNL     1     -46.828  12.838  -5.139  1.00  0.00     0.132 C
BRANCH  12  13
HETATM   13  N1  UNL     1     -46.513  12.949  -6.516  1.00  0.00    -0.360 N
HETATM   14  C4  UNL     1     -47.043  14.035  -7.260  1.00  0.00     0.221 C
HETATM   15  O1  UNL     1     -47.797  14.909  -6.707  1.00  0.00    -0.273 OA
ATOM     16  H1  UNL     1     -45.915  12.257  -6.967  1.00  0.00     0.162 HD
BRANCH  14  17
HETATM   17  C3  UNL     1     -46.765  14.227  -8.701  1.00  0.00     0.129 C
BRANCH  17  18
HETATM   18  C2  UNL     1     -45.985  13.094  -9.217  1.00  0.00    -0.028 C
HETATM   19  C1  UNL     1     -46.486  12.302 -10.155  1.00  0.00     0.007 C
ENDBRANCH  17  18
ENDBRANCH  14  17
ENDBRANCH  12  13
ENDBRANCH   1  12
TORSDOF 4
ENDMDL