MODEL 2
REMARK VINA RESULT: -7.168667497      1.102      2.107
REMARK  4 active torsions:
REMARK  status: ('A' for Active; 'I' for Inactive)
REMARK    1  A    between atoms: C10_11  and  C11_12
REMARK    2  A    between atoms: C11_12  and  N1_13
REMARK       I    between atoms: N1_13  and  C12_15
REMARK    3  A    between atoms: C12_15  and  C13_17
REMARK    4  A    between atoms: C13_17  and  N2_18
ROOT
HETATM    1  C1  UNL     1     -46.994  12.505  -7.963  1.00  0.00     0.052 C
HETATM    2  C2  UNL     1     -46.497  13.699  -8.702  1.00  0.00     0.107 C
HETATM    3  F1  UNL     1     -47.016  13.614 -10.004  1.00  0.00    -0.243 F
HETATM    4  C3  UNL     1     -45.024  13.784  -8.821  1.00  0.00     0.026 C
HETATM    5  C4  UNL     1     -44.231  13.438  -7.610  1.00  0.00     0.008 C
HETATM    6  C5  UNL     1     -44.345  14.298  -6.441  1.00  0.00     0.005 C
HETATM    7  C6  UNL     1     -45.243  15.492  -6.551  1.00  0.00    -0.013 C
HETATM    8  C7  UNL     1     -46.713  15.110  -6.671  1.00  0.00     0.012 C
HETATM    9  C8  UNL     1     -47.125  14.926  -8.089  1.00  0.00     0.027 C
HETATM   10  C9  UNL     1     -46.817  16.096  -8.941  1.00  0.00     0.023 C
HETATM   11  C10 UNL     1     -45.288  16.294  -8.958  1.00  0.00    -0.007 C
HETATM   12  C17 UNL     1     -44.814  16.520  -7.526  1.00  0.00     0.019 C
HETATM   13  C18 UNL     1     -44.601  15.104  -9.463  1.00  0.00     0.022 C
ENDROOT
BRANCH  11  14
HETATM   14  C11 UNL     1     -45.055  17.550  -9.697  1.00  0.00     0.073 C
BRANCH  14  15
HETATM   15  N1  UNL     1     -44.070  18.494  -9.353  1.00  0.00    -0.338 N
HETATM   16  C12 UNL     1     -44.091  19.884  -9.383  1.00  0.00     0.255 C
HETATM   17  O1  UNL     1     -45.133  20.534  -9.740  1.00  0.00    -0.271 OA
ATOM     18  H1  UNL     1     -43.192  18.091  -9.026  1.00  0.00     0.167 HD
BRANCH  16  19
HETATM   19  C13 UNL     1     -42.957  20.755  -9.021  1.00  0.00     0.414 C
BRANCH  19  20
HETATM   20  N2  UNL     1     -42.008  20.171  -8.148  1.00  0.00     0.022 N
HETATM   21  O2  UNL     1     -42.553  19.402  -7.173  1.00  0.00    -0.064 OA
HETATM   22  C14 UNL     1     -41.151  21.191  -7.493  1.00  0.00     0.315 C
HETATM   23  C15 UNL     1     -40.191  21.068  -8.629  1.00  0.00     0.073 C
HETATM   24  C16 UNL     1     -40.781  19.679  -8.744  1.00  0.00     0.315 C
ENDBRANCH  19  20
ENDBRANCH  16  19
ENDBRANCH  14  15
ENDBRANCH  11  14
TORSDOF 4
ENDMDL