MODEL 2
REMARK VINA RESULT: -7.798194347      2.745      6.235
REMARK  11 active torsions:
REMARK  status: ('A' for Active; 'I' for Inactive)
REMARK    1  A    between atoms: C2_2  and  C3_3
REMARK    2  A    between atoms: C2_2  and  N3_15
REMARK    3  A    between atoms: C3_3  and  C4_4
REMARK    4  A    between atoms: C4_4  and  C5_5
REMARK    5  A    between atoms: C5_5  and  N1_6
REMARK    6  A    between atoms: N1_6  and  C6_8
REMARK    7  A    between atoms: N3_15  and  C11_17
REMARK    8  A    between atoms: C12_20  and  S1_21
REMARK    9  A    between atoms: S1_21  and  C13_22
REMARK   10  A    between atoms: C17_30  and  C18_31
REMARK   11  A    between atoms: C23_36  and  C24_37
ROOT
HETATM    1  C11 UNL     1      10.000 -29.293 -60.393  1.00  0.00     0.134 A
HETATM    2  N4  UNL     1       9.113 -30.158 -60.952  1.00  0.00    -0.321 N
ATOM      3  H4  UNL     1       9.306 -30.560 -61.869  1.00  0.00     0.169 HD
HETATM    4  C12 UNL     1       7.998 -30.482 -60.310  1.00  0.00     0.147 A
HETATM    5  N5  UNL     1       7.749 -29.951 -59.102  1.00  0.00    -0.321 N
ATOM      6  H5  UNL     1       6.887 -30.209 -58.620  1.00  0.00     0.169 HD
HETATM    7  C16 UNL     1       8.604 -29.078 -58.494  1.00  0.00     0.140 A
HETATM    8  N6  UNL     1       8.626 -28.421 -57.359  1.00  0.00    -0.326 N
ATOM      9  H6  UNL     1       7.890 -28.476 -56.655  1.00  0.00     0.169 HD
HETATM   10  C17 UNL     1       9.769 -27.638 -57.226  1.00  0.00     0.118 A
HETATM   11  N7  UNL     1      10.420 -27.867 -58.335  1.00  0.00    -0.336 N
ATOM     12  H7  UNL     1      11.319 -27.444 -58.566  1.00  0.00     0.168 HD
HETATM   13  C25 UNL     1       9.748 -28.748 -59.158  1.00  0.00     0.122 A
ENDROOT
BRANCH   1  14
HETATM   14  N3  UNL     1      11.070 -28.982 -61.008  1.00  0.00    -0.370 N
ATOM     15  H3  UNL     1      10.973 -28.347 -61.801  1.00  0.00     0.161 HD
BRANCH  14  16
HETATM   16  C2  UNL     1      12.396 -29.429 -60.705  1.00  0.00     0.079 C
HETATM   17  C1  UNL     1      13.002 -30.367 -61.694  1.00  0.00     0.032 C
BRANCH  16  18
HETATM   18  C3  UNL     1      13.323 -28.211 -60.623  1.00  0.00     0.026 C
BRANCH  18  19
HETATM   19  C4  UNL     1      14.044 -28.290 -59.293  1.00  0.00     0.022 C
BRANCH  19  20
HETATM   20  C5  UNL     1      15.030 -27.134 -59.272  1.00  0.00     0.121 C
BRANCH  20  21
HETATM   21  N1  UNL     1      15.812 -27.243 -58.077  1.00  0.00    -0.376 N
ATOM     22  H1  UNL     1      16.225 -28.146 -57.849  1.00  0.00     0.161 HD
BRANCH  21  23
HETATM   23  C6  UNL     1      16.018 -26.256 -57.281  1.00  0.00     0.100 A
HETATM   24  C7  UNL     1      15.746 -24.977 -57.699  1.00  0.00     0.048 A
HETATM   25  C8  UNL     1      15.971 -23.935 -56.831  1.00  0.00     0.005 A
HETATM   26  C9  UNL     1      16.462 -24.173 -55.567  1.00  0.00     0.017 A
HETATM   27  C10 UNL     1      16.718 -25.466 -55.195  1.00  0.00     0.089 A
HETATM   28  N2  UNL     1      16.495 -26.476 -56.048  1.00  0.00    -0.353 N
ATOM     29  H2  UNL     1      16.692 -27.432 -55.753  1.00  0.00     0.166 HD
ENDBRANCH  21  23
ENDBRANCH  20  21
ENDBRANCH  19  20
ENDBRANCH  18  19
ENDBRANCH  16  18
ENDBRANCH  14  16
ENDBRANCH   1  14
BRANCH   4  30
HETATM   30  S1  UNL     1       6.874 -31.623 -61.103  1.00  0.00    -0.090 SA
BRANCH  30  31
HETATM   31  C13 UNL     1       5.984 -32.505 -59.797  1.00  0.00     0.047 C
HETATM   32  C14 UNL     1       6.952 -33.493 -59.169  1.00  0.00     0.021 C
HETATM   33  C15 UNL     1       4.749 -33.191 -60.334  1.00  0.00     0.021 C
ENDBRANCH  30  31
ENDBRANCH   4  30
BRANCH  10  34
HETATM   34  C18 UNL     1       9.957 -26.769 -56.068  1.00  0.00     0.023 A
HETATM   35  C19 UNL     1       8.786 -26.446 -55.337  1.00  0.00     0.016 A
HETATM   36  C20 UNL     1       8.722 -25.586 -54.291  1.00  0.00     0.001 A
HETATM   37  C21 UNL     1       9.896 -24.972 -53.906  1.00  0.00     0.001 A
HETATM   38  C22 UNL     1      11.062 -25.244 -54.574  1.00  0.00     0.017 A
HETATM   39  C23 UNL     1      11.088 -26.152 -55.663  1.00  0.00     0.061 A
BRANCH  39  40
HETATM   40  C24 UNL     1      12.403 -26.411 -56.292  1.00  0.00     0.418 C
HETATM   41  F1  UNL     1      12.797 -27.723 -56.260  1.00  0.00    -0.166 F
HETATM   42  F2  UNL     1      12.531 -25.824 -57.543  1.00  0.00    -0.166 F
HETATM   43  F3  UNL     1      13.368 -25.751 -55.494  1.00  0.00    -0.166 F
ENDBRANCH  39  40
ENDBRANCH  10  34
TORSDOF 11
ENDMDL