MODEL 1
REMARK VINA RESULT: -8.414048194      0.000      0.000
REMARK  10 active torsions:
REMARK  status: ('A' for Active; 'I' for Inactive)
REMARK    1  A    between atoms: C2_2  and  C18_31
REMARK    2  A    between atoms: N1_3  and  N2_5
REMARK    3  A    between atoms: N2_5  and  C3_7
REMARK    4  A    between atoms: C9_15  and  C10_16
REMARK    5  A    between atoms: C13_22  and  C14_23
REMARK    6  A    between atoms: C14_23  and  C17_26
REMARK    7  A    between atoms: C17_26  and  O1_27
REMARK    8  A    between atoms: C18_31  and  N5_34
REMARK    9  A    between atoms: N5_34  and  C21_36
REMARK   10  A    between atoms: C21_36  and  C23_38
ROOT
HETATM    1  C3  UNL     1      15.478 -29.454 -59.081  1.00  0.00     0.697 A
HETATM    2  N3  UNL     1      14.169 -29.233 -59.024  1.00  0.00    -0.190 N
ATOM      3  H3  UNL     1      13.785 -28.874 -58.150  1.00  0.00     0.184 HD
HETATM    4  C4  UNL     1      13.294 -29.455 -60.068  1.00  0.00     0.061 A
HETATM    5  C5  UNL     1      11.917 -29.065 -59.911  1.00  0.00    -0.008 A
HETATM    6  C6  UNL     1      11.713 -27.860 -59.247  1.00  0.00     0.014 A
HETATM    7  C7  UNL     1      10.447 -27.424 -58.942  1.00  0.00     0.002 A
HETATM    8  C8  UNL     1       9.347 -28.170 -59.283  1.00  0.00     0.016 A
HETATM    9  C9  UNL     1       9.569 -29.386 -59.943  1.00  0.00     0.048 A
HETATM   10  C11 UNL     1      10.831 -29.842 -60.265  1.00  0.00     0.029 A
HETATM   11  C12 UNL     1      13.875 -29.947 -61.214  1.00  0.00     0.057 A
HETATM   12  C13 UNL     1      15.210 -30.174 -61.292  1.00  0.00     0.039 A
HETATM   13  N4  UNL     1      16.016 -29.924 -60.207  1.00  0.00    -0.193 N
ATOM     14  H4  UNL     1      17.019 -30.098 -60.263  1.00  0.00     0.184 HD
ENDROOT
BRANCH   1  15
HETATM   15  N2  UNL     1      16.249 -29.257 -58.060  1.00  0.00    -0.132 N
ATOM     16  H2  UNL     1      16.679 -30.053 -57.589  1.00  0.00     0.205 HD
BRANCH  15  17
HETATM   17  N1  UNL     1      16.488 -28.010 -57.615  1.00  0.00    -0.292 N
HETATM   18  C2  UNL     1      16.022 -27.295 -56.673  1.00  0.00     0.027 C
HETATM   19  C1  UNL     1      16.644 -25.902 -56.565  1.00  0.00     0.068 C
ATOM     20  H1  UNL     1      17.206 -27.529 -58.157  1.00  0.00     0.187 HD
BRANCH  18  21
HETATM   21  C18 UNL     1      15.029 -27.638 -55.650  1.00  0.00     0.058 C
HETATM   22  C19 UNL     1      15.490 -26.899 -54.421  1.00  0.00     0.044 C
HETATM   23  C20 UNL     1      14.947 -29.090 -55.348  1.00  0.00     0.044 C
BRANCH  21  24
HETATM   24  N5  UNL     1      13.731 -27.225 -56.113  1.00  0.00    -0.401 N
ATOM     25  H5  UNL     1      13.215 -27.834 -56.749  1.00  0.00     0.155 HD
BRANCH  24  26
HETATM   26  C21 UNL     1      13.157 -26.012 -55.717  1.00  0.00     0.107 C
HETATM   27  C22 UNL     1      12.998 -25.132 -56.966  1.00  0.00     0.037 C
BRANCH  26  28
HETATM   28  C23 UNL     1      11.707 -26.382 -55.413  1.00  0.00    -0.036 A
HETATM   29  C24 UNL     1      10.908 -25.333 -55.043  1.00  0.00     0.009 A
HETATM   30  C25 UNL     1       9.556 -25.567 -54.796  1.00  0.00     0.001 A
HETATM   31  C26 UNL     1       9.022 -26.837 -54.920  1.00  0.00     0.000 A
HETATM   32  C27 UNL     1       9.864 -27.874 -55.298  1.00  0.00     0.001 A
HETATM   33  C28 UNL     1      11.165 -27.601 -55.521  1.00  0.00     0.009 A
ENDBRANCH  26  28
ENDBRANCH  24  26
ENDBRANCH  21  24
ENDBRANCH  18  21
ENDBRANCH  15  17
ENDBRANCH   1  15
BRANCH  12  34
HETATM   34  C14 UNL     1      15.983 -30.569 -62.517  1.00  0.00     0.017 C
HETATM   35  C15 UNL     1      17.017 -31.579 -61.924  1.00  0.00     0.023 C
HETATM   36  C16 UNL     1      15.097 -31.288 -63.472  1.00  0.00     0.023 C
BRANCH  34  37
HETATM   37  C17 UNL     1      16.695 -29.452 -63.176  1.00  0.00     0.179 C
BRANCH  37  38
HETATM   38  O1  UNL     1      16.006 -28.255 -62.915  1.00  0.00    -0.400 OA
ATOM     39  H1  UNL     1      16.421 -27.550 -63.397  1.00  0.00     0.209 HD
ENDBRANCH  37  38
ENDBRANCH  34  37
ENDBRANCH  12  34
BRANCH   9  40
HETATM   40  C10 UNL     1       8.400 -30.231 -60.271  1.00  0.00     0.417 C
HETATM   41  F1  UNL     1       7.590 -30.399 -59.159  1.00  0.00    -0.166 F
HETATM   42  F2  UNL     1       8.923 -31.521 -60.575  1.00  0.00    -0.166 F
HETATM   43  F3  UNL     1       7.683 -29.788 -61.339  1.00  0.00    -0.166 F
ENDBRANCH   9  40
TORSDOF 10
ENDMDL