MODEL 3
REMARK VINA RESULT: -7.490693851      3.812      6.158
REMARK  8 active torsions:
REMARK  status: ('A' for Active; 'I' for Inactive)
REMARK    1  A    between atoms: C3_5  and  S1_6
REMARK    2  A    between atoms: S1_6  and  N2_9
REMARK    3  A    between atoms: N2_9  and  C5_11
REMARK    4  A    between atoms: C5_11  and  C6_12
REMARK    5  A    between atoms: C6_12  and  C7_13
REMARK    6  A    between atoms: C7_13  and  N3_14
REMARK    7  A    between atoms: N3_14  and  C8_17
REMARK    8  A    between atoms: C8_17  and  C9_18
ROOT
HETATM    1  N2  UNL     1      18.702 -24.686 -61.134  1.00  0.00    -0.347 N
ATOM      2  H2  UNL     1      19.604 -25.033 -61.459  1.00  0.00     0.169 HD
ENDROOT
BRANCH   1   3
HETATM    3  S1  UNL     1      17.201 -25.809 -60.654  1.00  0.00     0.065 S
HETATM    4  C4  UNL     1      18.061 -27.289 -61.344  1.00  0.00     0.143 C
HETATM    5  O1  UNL     1      16.590 -24.505 -59.996  1.00  0.00    -0.244 OA
BRANCH   3   6
HETATM    6  C3  UNL     1      17.424 -26.534 -58.812  1.00  0.00     0.121 A
HETATM    7  N1  UNL     1      18.572 -26.311 -58.204  1.00  0.00    -0.338 N
HETATM    8  C2  UNL     1      18.728 -26.826 -56.954  1.00  0.00     0.078 A
ATOM      9  H1  UNL     1      19.315 -25.775 -58.653  1.00  0.00     0.168 HD
HETATM   10  C1  UNL     1      20.001 -26.616 -56.202  1.00  0.00     0.089 C
HETATM   11  N5  UNL     1      17.723 -27.525 -56.409  1.00  0.00    -0.344 N
HETATM   12  C22 UNL     1      16.545 -27.759 -57.023  1.00  0.00     0.068 A
ATOM     13  H5  UNL     1      17.857 -27.904 -55.472  1.00  0.00     0.167 HD
HETATM   14  C17 UNL     1      16.397 -27.231 -58.291  1.00  0.00     0.031 A
HETATM   15  C21 UNL     1      15.548 -28.481 -56.419  1.00  0.00     0.063 A
HETATM   16  C18 UNL     1      15.202 -27.458 -58.934  1.00  0.00     0.040 A
HETATM   17  C19 UNL     1      14.164 -28.186 -58.354  1.00  0.00     0.036 A
HETATM   18 CL2  UNL     1      12.669 -28.436 -59.233  1.00  0.00    -0.084 Cl
HETATM   19  C20 UNL     1      14.363 -28.692 -57.086  1.00  0.00     0.050 A
HETATM   20 CL3  UNL     1      15.780 -29.133 -54.803  1.00  0.00    -0.082 Cl
ENDBRANCH   3   6
ENDBRANCH   1   3
BRANCH   1  21
HETATM   21  C5  UNL     1      18.382 -23.336 -60.976  1.00  0.00     0.131 C
BRANCH  21  22
HETATM   22  C6  UNL     1      19.495 -22.477 -60.447  1.00  0.00     0.048 C
BRANCH  22  23
HETATM   23  C7  UNL     1      19.400 -22.184 -58.990  1.00  0.00     0.234 C
BRANCH  23  24
HETATM   24  N3  UNL     1      18.136 -22.485 -58.396  1.00  0.00    -0.070 N
ATOM     25  H32 UNL     1      17.475 -21.716 -58.505  1.00  0.00     0.277 HD
ATOM     26  H31 UNL     1      17.630 -23.198 -58.922  1.00  0.00     0.277 HD
BRANCH  24  27
HETATM   27  C8  UNL     1      18.300 -22.854 -57.027  1.00  0.00     0.289 C
BRANCH  27  28
HETATM   28  C9  UNL     1      17.083 -23.563 -56.535  1.00  0.00     0.036 A
HETATM   29  C10 UNL     1      15.857 -23.671 -57.169  1.00  0.00     0.040 A
HETATM   30  C11 UNL     1      15.017 -24.411 -56.362  1.00  0.00    -0.006 A
HETATM   31  C12 UNL     1      13.708 -24.827 -56.478  1.00  0.00     0.037 A
HETATM   32  C16 UNL     1      15.753 -24.744 -55.240  1.00  0.00     0.042 A
HETATM   33  C13 UNL     1      13.118 -25.576 -55.483  1.00  0.00     0.035 A
HETATM   34 CL1  UNL     1      11.457 -26.118 -55.606  1.00  0.00    -0.084 Cl
HETATM   35  C14 UNL     1      13.829 -25.916 -54.365  1.00  0.00     0.026 A
HETATM   36  C15 UNL     1      15.127 -25.494 -54.265  1.00  0.00     0.032 A
HETATM   37  N4  UNL     1      16.987 -24.224 -55.367  1.00  0.00    -0.357 N
ATOM     38  H4  UNL     1      17.736 -24.317 -54.682  1.00  0.00     0.166 HD
ENDBRANCH  27  28
ENDBRANCH  24  27
ENDBRANCH  23  24
ENDBRANCH  22  23
ENDBRANCH  21  22
ENDBRANCH   1  21
TORSDOF 8
ENDMDL