MODEL 5
REMARK VINA RESULT: -8.041981254      5.911     10.499
REMARK  11 active torsions:
REMARK  status: ('A' for Active; 'I' for Inactive)
REMARK    1  A    between atoms: C2_2  and  C3_3
REMARK    2  A    between atoms: C3_3  and  N1_4
REMARK    3  A    between atoms: N1_4  and  C4_6
REMARK    4  A    between atoms: C5_9  and  N3_10
REMARK    5  A    between atoms: N3_10  and  C6_12
REMARK    6  A    between atoms: C6_12  and  C7_13
REMARK    7  A    between atoms: C6_12  and  C9_15
REMARK    8  A    between atoms: C12_18  and  C13_19
REMARK    9  A    between atoms: C19_28  and  C20_29
REMARK   10  A    between atoms: C21_32  and  C22_33
REMARK   11  A    between atoms: C22_33  and  N5_34
ROOT
HETATM    1  C4  UNL     1      14.629 -27.279 -59.837  1.00  0.00     0.680 A
HETATM    2  N2  UNL     1      14.531 -27.047 -58.498  1.00  0.00    -0.176 N
ATOM      3  H2  UNL     1      13.793 -27.521 -57.977  1.00  0.00     0.186 HD
HETATM    4  C5  UNL     1      15.354 -26.226 -57.830  1.00  0.00     0.130 A
HETATM    5  C16 UNL     1      16.363 -25.584 -58.557  1.00  0.00     0.035 A
HETATM    6  C17 UNL     1      17.232 -24.717 -57.928  1.00  0.00     0.018 A
HETATM    7  C18 UNL     1      18.232 -24.059 -58.670  1.00  0.00     0.015 A
HETATM    8  C19 UNL     1      18.353 -24.270 -60.009  1.00  0.00    -0.000 A
HETATM    9  C26 UNL     1      17.459 -25.153 -60.615  1.00  0.00     0.045 A
HETATM   10  C27 UNL     1      16.467 -25.816 -59.924  1.00  0.00     0.064 A
HETATM   11  N6  UNL     1      15.607 -26.650 -60.527  1.00  0.00    -0.191 N
ATOM     12  H6  UNL     1      15.692 -26.813 -61.531  1.00  0.00     0.184 HD
ENDROOT
BRANCH   4  13
HETATM   13  N3  UNL     1      15.219 -25.882 -56.598  1.00  0.00    -0.366 N
ATOM     14  H3  UNL     1      15.428 -24.911 -56.369  1.00  0.00     0.161 HD
BRANCH  13  15
HETATM   15  C6  UNL     1      14.807 -26.719 -55.516  1.00  0.00     0.116 C
BRANCH  15  16
HETATM   16  C7  UNL     1      15.384 -26.205 -54.204  1.00  0.00     0.025 C
HETATM   17  C8  UNL     1      16.114 -24.880 -54.453  1.00  0.00     0.007 C
ENDBRANCH  15  16
BRANCH  15  18
HETATM   18  C9  UNL     1      13.290 -26.641 -55.413  1.00  0.00    -0.035 A
HETATM   19  C10 UNL     1      12.560 -27.791 -55.467  1.00  0.00     0.010 A
HETATM   20  C11 UNL     1      11.163 -27.759 -55.400  1.00  0.00     0.017 A
HETATM   21  C12 UNL     1      10.544 -26.551 -55.284  1.00  0.00     0.047 A
HETATM   22  C14 UNL     1      11.250 -25.368 -55.230  1.00  0.00     0.017 A
HETATM   23  C15 UNL     1      12.657 -25.433 -55.294  1.00  0.00     0.010 A
BRANCH  21  24
HETATM   24  C13 UNL     1       9.059 -26.520 -55.237  1.00  0.00     0.417 C
HETATM   25  F1  UNL     1       8.495 -27.150 -56.320  1.00  0.00    -0.166 F
HETATM   26  F2  UNL     1       8.581 -27.025 -54.045  1.00  0.00    -0.166 F
HETATM   27  F3  UNL     1       8.658 -25.190 -55.286  1.00  0.00    -0.166 F
ENDBRANCH  21  24
ENDBRANCH  15  18
ENDBRANCH  13  15
ENDBRANCH   4  13
BRANCH   1  28
HETATM   28  N1  UNL     1      13.804 -28.091 -60.414  1.00  0.00    -0.223 N
ATOM     29  H1  UNL     1      14.083 -29.032 -60.691  1.00  0.00     0.178 HD
BRANCH  28  30
HETATM   30  C3  UNL     1      12.452 -27.591 -60.647  1.00  0.00     0.164 C
BRANCH  30  31
HETATM   31  C2  UNL     1      11.452 -28.204 -59.751  1.00  0.00    -0.017 C
HETATM   32  C1  UNL     1      10.729 -27.461 -58.940  1.00  0.00     0.008 C
ENDBRANCH  30  31
ENDBRANCH  28  30
ENDBRANCH   1  28
BRANCH   8  33
HETATM   33  C20 UNL     1      19.377 -23.645 -60.829  1.00  0.00     0.085 A
HETATM   34  N4  UNL     1      19.580 -23.617 -62.114  1.00  0.00    -0.349 N
HETATM   35  C21 UNL     1      20.556 -22.943 -62.637  1.00  0.00     0.050 A
ATOM     36  H4  UNL     1      18.955 -24.140 -62.726  1.00  0.00     0.166 HD
HETATM   37  C25 UNL     1      21.378 -22.253 -61.769  1.00  0.00     0.082 A
HETATM   38  S1  UNL     1      20.662 -22.637 -60.246  1.00  0.00    -0.081 SA
BRANCH  35  39
HETATM   39  C22 UNL     1      20.796 -22.847 -64.119  1.00  0.00     0.089 C
BRANCH  39  40
HETATM   40  N5  UNL     1      19.832 -23.459 -64.940  1.00  0.00    -0.299 NA
HETATM   41  C23 UNL     1      20.040 -24.805 -65.352  1.00  0.00     0.115 C
HETATM   42  C24 UNL     1      19.380 -22.660 -66.070  1.00  0.00     0.115 C
ENDBRANCH  39  40
ENDBRANCH  35  39
ENDBRANCH   8  33
TORSDOF 11
ENDMDL