MODEL 3
REMARK VINA RESULT: -7.271960334      1.076      1.342
REMARK  15 active torsions:
REMARK  status: ('A' for Active; 'I' for Inactive)
REMARK    1  A    between atoms: C2_2  and  C3_3
REMARK    2  A    between atoms: C3_3  and  C4_4
REMARK    3  A    between atoms: C3_3  and  S1_13
REMARK    4  A    between atoms: C4_4  and  C5_5
REMARK    5  A    between atoms: C6_6  and  C7_7
REMARK    6  A    between atoms: C7_7  and  C10_10
REMARK    7  A    between atoms: C10_10  and  O1_11
REMARK    8  A    between atoms: S1_13  and  C11_14
REMARK    9  A    between atoms: C13_16  and  C14_17
REMARK   10  A    between atoms: C17_20  and  C18_21
REMARK   11  A    between atoms: C21_29  and  N2_30
REMARK   12  A    between atoms: N2_30  and  C22_32
REMARK   13  A    between atoms: C22_32  and  C23_33
REMARK   14  A    between atoms: C23_33  and  O2_34
REMARK   15  A    between atoms: C23_33  and  C24_36
ROOT
HETATM    1  C11 UNL     1      10.245 -28.236 -59.661  1.00  0.00     0.088 A
HETATM    2  C12 UNL     1       9.325 -29.145 -60.101  1.00  0.00     0.068 A
HETATM    3  C13 UNL     1       8.269 -29.591 -59.271  1.00  0.00     0.062 A
HETATM    4  N1  UNL     1       8.190 -29.099 -58.049  1.00  0.00    -0.191 N
ATOM      5  H1  UNL     1       7.438 -29.412 -57.436  1.00  0.00     0.184 HD
HETATM    6  C21 UNL     1       9.094 -28.176 -57.579  1.00  0.00     0.679 A
HETATM    7  N3  UNL     1      10.064 -27.781 -58.371  1.00  0.00    -0.186 N
ATOM      8  H3  UNL     1      10.726 -27.093 -58.010  1.00  0.00     0.185 HD
ENDROOT
BRANCH   1   9
HETATM    9  S1  UNL     1      11.668 -27.723 -60.484  1.00  0.00    -0.106 SA
BRANCH   9  10
HETATM   10  C3  UNL     1      13.099 -28.727 -60.651  1.00  0.00     0.064 C
BRANCH  10  11
HETATM   11  C2  UNL     1      12.934 -29.974 -61.459  1.00  0.00     0.012 C
HETATM   12  C1  UNL     1      12.434 -31.160 -60.687  1.00  0.00     0.006 C
ENDBRANCH  10  11
BRANCH  10  13
HETATM   13  C4  UNL     1      13.452 -29.167 -59.223  1.00  0.00     0.109 C
BRANCH  13  14
HETATM   14  C5  UNL     1      14.512 -28.407 -58.681  1.00  0.00    -0.105 C
HETATM   15  C6  UNL     1      15.373 -27.719 -58.204  1.00  0.00    -0.095 C
BRANCH  15  16
HETATM   16  C7  UNL     1      16.384 -26.825 -57.579  1.00  0.00     0.037 C
HETATM   17  C8  UNL     1      17.755 -27.070 -58.054  1.00  0.00     0.031 C
HETATM   18  C9  UNL     1      16.004 -25.370 -57.943  1.00  0.00     0.031 C
BRANCH  16  19
HETATM   19  C10 UNL     1      16.297 -26.915 -56.064  1.00  0.00     0.185 C
BRANCH  19  20
HETATM   20  O1  UNL     1      16.282 -28.250 -55.629  1.00  0.00    -0.399 OA
ATOM     21  H1  UNL     1      15.605 -28.752 -56.067  1.00  0.00     0.209 HD
ENDBRANCH  19  20
ENDBRANCH  16  19
ENDBRANCH  15  16
ENDBRANCH  13  14
ENDBRANCH  10  13
ENDBRANCH   9  10
ENDBRANCH   1   9
BRANCH   3  22
HETATM   22  C14 UNL     1       7.466 -30.680 -59.800  1.00  0.00    -0.009 A
HETATM   23  C15 UNL     1       6.340 -31.089 -59.121  1.00  0.00     0.014 A
HETATM   24  C16 UNL     1       5.485 -32.094 -59.564  1.00  0.00     0.017 A
HETATM   25  C17 UNL     1       5.798 -32.706 -60.759  1.00  0.00     0.048 A
HETATM   26  C19 UNL     1       6.907 -32.316 -61.449  1.00  0.00     0.017 A
HETATM   27  C20 UNL     1       7.745 -31.322 -61.002  1.00  0.00     0.014 A
BRANCH  25  28
HETATM   28  C18 UNL     1       4.906 -33.788 -61.243  1.00  0.00     0.417 C
HETATM   29  F1  UNL     1       5.501 -35.005 -60.959  1.00  0.00    -0.166 F
HETATM   30  F2  UNL     1       3.637 -33.678 -60.707  1.00  0.00    -0.166 F
HETATM   31  F3  UNL     1       4.767 -33.740 -62.601  1.00  0.00    -0.166 F
ENDBRANCH  25  28
ENDBRANCH   3  22
BRANCH   6  32
HETATM   32  N2  UNL     1       8.919 -27.740 -56.370  1.00  0.00    -0.224 N
ATOM     33  H2  UNL     1       7.974 -27.474 -56.094  1.00  0.00     0.177 HD
BRANCH  32  34
HETATM   34  C22 UNL     1       9.954 -27.606 -55.397  1.00  0.00     0.170 C
BRANCH  34  35
HETATM   35  C23 UNL     1      10.688 -26.310 -55.508  1.00  0.00     0.143 C
BRANCH  35  36
HETATM   36  O2  UNL     1      10.243 -25.306 -54.685  1.00  0.00    -0.393 OA
ATOM     37  H2  UNL     1       9.300 -25.203 -54.637  1.00  0.00     0.210 HD
ENDBRANCH  35  36
BRANCH  35  38
HETATM   38  C24 UNL     1      12.159 -26.311 -55.695  1.00  0.00    -0.024 C
HETATM   39  C25 UNL     1      12.971 -25.497 -54.733  1.00  0.00     0.017 C
HETATM   40  C26 UNL     1      12.698 -27.758 -55.606  1.00  0.00     0.017 C
HETATM   41  C27 UNL     1      12.409 -25.812 -57.139  1.00  0.00     0.017 C
ENDBRANCH  35  38
ENDBRANCH  34  35
ENDBRANCH  32  34
ENDBRANCH   6  32
TORSDOF 15
ENDMDL