MODEL 4
REMARK VINA RESULT: -6.792342857      0.925      1.548
REMARK  11 active torsions:
REMARK  status: ('A' for Active; 'I' for Inactive)
REMARK    1  A    between atoms: C2_2  and  N1_3
REMARK    2  A    between atoms: N1_3  and  C3_4
REMARK    3  A    between atoms: N1_3  and  N2_8
REMARK    4  A    between atoms: C3_4  and  C4_5
REMARK    5  A    between atoms: C4_5  and  O1_6
REMARK    6  A    between atoms: N2_8  and  C6_10
REMARK    7  A    between atoms: C6_10  and  O2_11
REMARK    8  A    between atoms: N3_13  and  C7_15
REMARK    9  A    between atoms: C9_17  and  O3_18
REMARK   10  A    between atoms: C11_20  and  N4_21
REMARK   11  A    between atoms: N4_21  and  C12_22
ROOT
HETATM    1  C7  UNL     1       9.438 -29.482 -60.167  1.00  0.00     0.060 A
HETATM    2  C8  UNL     1      10.502 -29.706 -61.035  1.00  0.00     0.071 A
HETATM    3  C9  UNL     1      11.715 -29.090 -60.830  1.00  0.00     0.111 A
HETATM    4  C11 UNL     1      11.906 -28.236 -59.758  1.00  0.00     0.142 A
HETATM    5  C21 UNL     1      10.804 -28.003 -58.884  1.00  0.00     0.073 A
HETATM    6  C22 UNL     1       9.626 -28.626 -59.121  1.00  0.00     0.064 A
HETATM    7 CL3  UNL     1       8.248 -28.290 -58.063  1.00  0.00    -0.082 Cl
ENDROOT
BRANCH   1   8
HETATM    8  N3  UNL     1       8.305 -30.296 -60.233  1.00  0.00    -0.320 N
HETATM    9  C6  UNL     1       7.116 -30.374 -60.867  1.00  0.00     0.236 C
ATOM     10  H3  UNL     1       8.411 -31.087 -59.598  1.00  0.00     0.169 HD
BRANCH   9  11
HETATM   11  N2  UNL     1       6.268 -31.491 -60.668  1.00  0.00    -0.267 N
ATOM     12  H2  UNL     1       5.470 -31.183 -60.112  1.00  0.00     0.190 HD
BRANCH  11  13
HETATM   13  N1  UNL     1       6.114 -32.756 -60.921  1.00  0.00    -0.323 N
BRANCH  13  14
HETATM   14  C2  UNL     1       6.936 -33.467 -61.841  1.00  0.00     0.138 C
HETATM   15  C1  UNL     1       6.440 -33.241 -63.259  1.00  0.00     0.028 C
ENDBRANCH  13  14
BRANCH  13  16
HETATM   16  C3  UNL     1       4.745 -33.268 -60.878  1.00  0.00     0.168 C
BRANCH  16  17
HETATM   17  C4  UNL     1       4.370 -34.065 -59.690  1.00  0.00     0.188 C
BRANCH  17  18
HETATM   18  O1  UNL     1       5.081 -33.690 -58.568  1.00  0.00    -0.394 OA
HETATM   19  C5  UNL     1       5.419 -34.701 -57.689  1.00  0.00     0.201 C
ENDBRANCH  17  18
ENDBRANCH  16  17
ENDBRANCH  13  16
ENDBRANCH  11  13
ENDBRANCH   9  11
BRANCH   9  20
HETATM   20  O2  UNL     1       6.711 -29.455 -61.704  1.00  0.00    -0.331 OA
ATOM     21  H2  UNL     1       7.378 -28.986 -62.192  1.00  0.00     0.221 HD
ENDBRANCH   9  20
ENDBRANCH   1   8
BRANCH   3  22
HETATM   22  O3  UNL     1      12.775 -29.314 -61.679  1.00  0.00    -0.352 OA
HETATM   23  C10 UNL     1      13.564 -30.445 -61.788  1.00  0.00     0.210 C
ENDBRANCH   3  22
BRANCH   4  24
HETATM   24  N4  UNL     1      13.115 -27.770 -59.398  1.00  0.00    -0.402 NA
BRANCH  24  25
HETATM   25  C12 UNL     1      14.152 -27.357 -59.054  1.00  0.00     0.121 A
HETATM   26  C13 UNL     1      15.264 -27.617 -59.891  1.00  0.00     0.062 A
HETATM   27  C14 UNL     1      16.524 -27.177 -59.544  1.00  0.00     0.092 A
HETATM   28  N5  UNL     1      16.747 -26.516 -58.441  1.00  0.00    -0.364 N
HETATM   29  C15 UNL     1      15.718 -26.236 -57.581  1.00  0.00     0.067 A
ATOM     30  H5  UNL     1      17.693 -26.205 -58.219  1.00  0.00     0.165 HD
HETATM   31  C16 UNL     1      16.000 -25.557 -56.414  1.00  0.00     0.063 A
HETATM   32  C20 UNL     1      14.447 -26.657 -57.907  1.00  0.00     0.035 A
HETATM   33 CL1  UNL     1      17.618 -25.035 -56.011  1.00  0.00    -0.082 Cl
HETATM   34  C17 UNL     1      14.976 -25.296 -55.541  1.00  0.00     0.050 A
HETATM   35  C18 UNL     1      13.684 -25.704 -55.833  1.00  0.00     0.036 A
HETATM   36 CL2  UNL     1      12.373 -25.357 -54.721  1.00  0.00    -0.084 Cl
HETATM   37  C19 UNL     1      13.445 -26.369 -56.993  1.00  0.00     0.041 A
ENDBRANCH  24  25
ENDBRANCH   4  24
TORSDOF 11
ENDMDL