MODEL 4
REMARK VINA RESULT: -7.859534436      2.036      2.620
REMARK  9 active torsions:
REMARK  status: ('A' for Active; 'I' for Inactive)
REMARK    1  A    between atoms: N1_2  and  C2_3
REMARK    2  A    between atoms: N1_2  and  C4_7
REMARK    3  A    between atoms: C2_3  and  C3_4
REMARK    4  A    between atoms: C3_4  and  O1_5
REMARK    5  A    between atoms: C4_7  and  C5_8
REMARK    6  A    between atoms: C5_8  and  O2_9
REMARK    7  A    between atoms: O2_9  and  C6_10
REMARK    8  A    between atoms: N2_15  and  C11_17
REMARK    9  A    between atoms: C15_22  and  C16_23
ROOT
HETATM    1  C6  UNL     1       9.236 -29.001 -60.443  1.00  0.00     0.071 A
HETATM    2  C7  UNL     1      10.554 -28.753 -60.706  1.00  0.00     0.038 A
HETATM    3  C8  UNL     1      11.422 -28.166 -59.803  1.00  0.00     0.020 A
HETATM    4  C9  UNL     1      10.944 -27.801 -58.558  1.00  0.00     0.035 A
HETATM    5  C10 UNL     1      11.798 -27.216 -57.658  1.00  0.00     0.119 A
HETATM    6  N2  UNL     1      13.062 -26.980 -57.932  1.00  0.00    -0.340 N
ATOM      7  H2  UNL     1      13.473 -27.223 -58.833  1.00  0.00     0.167 HD
HETATM    8  N3  UNL     1      11.279 -26.877 -56.448  1.00  0.00    -0.338 N
ATOM      9  H3  UNL     1      11.879 -26.440 -55.748  1.00  0.00     0.168 HD
HETATM   10  C23 UNL     1       9.982 -27.112 -56.163  1.00  0.00     0.182 A
HETATM   11  N4  UNL     1       9.163 -27.680 -57.044  1.00  0.00    -0.351 N
ATOM     12  H4  UNL     1       8.187 -27.844 -56.795  1.00  0.00     0.166 HD
HETATM   13  C24 UNL     1       9.615 -28.043 -58.271  1.00  0.00     0.049 A
HETATM   14  C25 UNL     1       8.773 -28.630 -59.187  1.00  0.00     0.067 A
ENDROOT
BRANCH   6  15
HETATM   15  C11 UNL     1      13.833 -26.357 -56.888  1.00  0.00     0.056 A
HETATM   16  C12 UNL     1      13.267 -26.226 -55.643  1.00  0.00     0.033 A
HETATM   17  C13 UNL     1      13.992 -25.610 -54.643  1.00  0.00     0.027 A
HETATM   18  C14 UNL     1      15.277 -25.123 -54.873  1.00  0.00     0.046 A
HETATM   19 CL1  UNL     1      16.162 -24.346 -53.576  1.00  0.00    -0.083 Cl
HETATM   20  C15 UNL     1      15.846 -25.254 -56.117  1.00  0.00     0.020 A
HETATM   21  C22 UNL     1      15.101 -25.868 -57.082  1.00  0.00     0.073 A
HETATM   22 CL3  UNL     1      15.822 -26.046 -58.667  1.00  0.00    -0.081 Cl
BRANCH  20  23
HETATM   23  C16 UNL     1      17.195 -24.733 -56.424  1.00  0.00    -0.022 A
HETATM   24  C17 UNL     1      17.285 -23.411 -56.879  1.00  0.00     0.014 A
HETATM   25  C18 UNL     1      18.470 -22.815 -57.191  1.00  0.00     0.024 A
HETATM   26  C19 UNL     1      19.632 -23.581 -57.040  1.00  0.00     0.034 A
HETATM   27 CL2  UNL     1      21.151 -22.828 -57.434  1.00  0.00    -0.084 Cl
HETATM   28  C20 UNL     1      19.552 -24.902 -56.586  1.00  0.00     0.024 A
HETATM   29  C21 UNL     1      18.324 -25.463 -56.281  1.00  0.00     0.014 A
ENDBRANCH  20  23
ENDBRANCH   6  15
BRANCH   1  30
HETATM   30  O2  UNL     1       8.381 -29.579 -61.334  1.00  0.00    -0.346 OA
BRANCH  30  31
HETATM   31  C5  UNL     1       7.158 -30.161 -60.964  1.00  0.00     0.220 C
BRANCH  31  32
HETATM   32  C4  UNL     1       7.422 -31.668 -60.806  1.00  0.00     0.089 C
BRANCH  32  33
HETATM   33  N1  UNL     1       6.384 -32.496 -61.194  1.00  0.00    -0.374 N
HETATM   34  C1  UNL     1       6.426 -33.004 -62.489  1.00  0.00     0.154 C
BRANCH  33  35
HETATM   35  C2  UNL     1       5.208 -32.639 -60.455  1.00  0.00     0.088 C
BRANCH  35  36
HETATM   36  C3  UNL     1       5.420 -32.681 -58.948  1.00  0.00     0.208 C
BRANCH  36  37
HETATM   37  O1  UNL     1       4.942 -31.532 -58.350  1.00  0.00    -0.396 OA
ATOM     38  H1  UNL     1       4.026 -31.394 -58.561  1.00  0.00     0.209 HD
ENDBRANCH  36  37
ENDBRANCH  35  36
ENDBRANCH  33  35
ENDBRANCH  32  33
ENDBRANCH  31  32
ENDBRANCH  30  31
ENDBRANCH   1  30
TORSDOF 9
ENDMDL