MODEL 4
REMARK VINA RESULT: -7.524755840      3.607      7.964
REMARK  10 active torsions:
REMARK  status: ('A' for Active; 'I' for Inactive)
REMARK    1  A    between atoms: O1_2  and  C2_3
REMARK    2  A    between atoms: C6_7  and  C7_8
REMARK    3  A    between atoms: C7_8  and  C8_9
REMARK    4  A    between atoms: C7_8  and  N3_19
REMARK    5  A    between atoms: C8_9  and  N1_10
REMARK    6  A    between atoms: N1_10  and  C9_13
REMARK    7  A    between atoms: C9_13  and  C10_14
REMARK    8  A    between atoms: C10_14  and  N2_15
REMARK    9  A    between atoms: N3_19  and  C11_21
REMARK   10  A    between atoms: C12_24  and  C13_25
ROOT
HETATM    1  C11 UNL     1      12.019 -26.761 -57.380  1.00  0.00     0.116 A
HETATM    2  N4  UNL     1      13.291 -26.357 -57.456  1.00  0.00    -0.327 N
ATOM      3  H4  UNL     1      13.876 -26.663 -58.233  1.00  0.00     0.169 HD
HETATM    4  C12 UNL     1      13.801 -25.549 -56.510  1.00  0.00     0.117 A
HETATM    5  N5  UNL     1      13.054 -25.132 -55.474  1.00  0.00    -0.341 N
ATOM      6  H5  UNL     1      13.470 -24.519 -54.772  1.00  0.00     0.167 HD
HETATM    7  C19 UNL     1      11.773 -25.503 -55.346  1.00  0.00     0.047 A
HETATM    8  C20 UNL     1      10.992 -25.065 -54.270  1.00  0.00     0.032 A
HETATM    9  C21 UNL     1       9.683 -25.493 -54.216  1.00  0.00     0.026 A
HETATM   10  C22 UNL     1       9.127 -26.321 -55.169  1.00  0.00     0.035 A
HETATM   11 CL3  UNL     1       7.467 -26.860 -55.103  1.00  0.00    -0.084 Cl
HETATM   12  C23 UNL     1       9.929 -26.730 -56.211  1.00  0.00     0.041 A
HETATM   13  C24 UNL     1      11.251 -26.336 -56.323  1.00  0.00     0.036 A
ENDROOT
BRANCH   1  14
HETATM   14  N3  UNL     1      11.526 -27.503 -58.264  1.00  0.00    -0.365 N
ATOM     15  H3  UNL     1      10.972 -28.278 -57.897  1.00  0.00     0.162 HD
BRANCH  14  16
HETATM   16  C7  UNL     1      11.597 -27.460 -59.676  1.00  0.00     0.142 C
BRANCH  16  17
HETATM   17  C6  UNL     1      12.555 -28.325 -60.348  1.00  0.00    -0.031 A
HETATM   18  C5  UNL     1      12.145 -29.584 -60.803  1.00  0.00     0.009 A
HETATM   19  C4  UNL     1      13.085 -30.372 -61.415  1.00  0.00     0.003 A
HETATM   20  C3  UNL     1      14.403 -30.003 -61.610  1.00  0.00     0.037 A
HETATM   21  C2  UNL     1      14.810 -28.769 -61.165  1.00  0.00     0.068 A
HETATM   22  C25 UNL     1      13.852 -27.946 -60.533  1.00  0.00     0.046 A
BRANCH  21  23
HETATM   23  O1  UNL     1      16.103 -28.320 -61.315  1.00  0.00    -0.356 OA
HETATM   24  C1  UNL     1      16.933 -28.459 -62.406  1.00  0.00     0.210 C
ENDBRANCH  21  23
ENDBRANCH  16  17
BRANCH  16  25
HETATM   25  C8  UNL     1      10.175 -27.821 -60.145  1.00  0.00     0.262 C
BRANCH  25  26
HETATM   26  N1  UNL     1       9.510 -28.521 -59.025  1.00  0.00    -0.071 N
ATOM     27  H12 UNL     1      10.174 -28.901 -58.351  1.00  0.00     0.277 HD
ATOM     28  H11 UNL     1       9.025 -27.881 -58.396  1.00  0.00     0.277 HD
BRANCH  26  29
HETATM   29  C9  UNL     1       8.649 -29.516 -59.569  1.00  0.00     0.259 C
BRANCH  29  30
HETATM   30  C10 UNL     1       8.486 -29.457 -61.069  1.00  0.00     0.257 C
BRANCH  30  31
HETATM   31  N2  UNL     1       7.167 -29.972 -61.406  1.00  0.00    -0.078 N
ATOM     32  H23 UNL     1       6.983 -30.884 -60.988  1.00  0.00     0.274 HD
ATOM     33  H22 UNL     1       6.415 -29.456 -60.949  1.00  0.00     0.274 HD
ATOM     34  H21 UNL     1       7.078 -29.981 -62.423  1.00  0.00     0.274 HD
ENDBRANCH  30  31
ENDBRANCH  29  30
ENDBRANCH  26  29
ENDBRANCH  25  26
ENDBRANCH  16  25
ENDBRANCH  14  16
ENDBRANCH   1  14
BRANCH   4  35
HETATM   35  C13 UNL     1      15.199 -25.092 -56.559  1.00  0.00     0.010 A
HETATM   36  C14 UNL     1      15.451 -23.772 -56.889  1.00  0.00     0.017 A
HETATM   37  C15 UNL     1      16.728 -23.276 -56.951  1.00  0.00     0.026 A
HETATM   38  C16 UNL     1      17.804 -24.102 -56.680  1.00  0.00     0.055 A
HETATM   39 CL1  UNL     1      19.462 -23.545 -56.735  1.00  0.00    -0.083 Cl
HETATM   40  C17 UNL     1      17.573 -25.404 -56.355  1.00  0.00     0.056 A
HETATM   41 CL2  UNL     1      18.895 -26.526 -55.995  1.00  0.00    -0.083 Cl
HETATM   42  C18 UNL     1      16.264 -25.898 -56.296  1.00  0.00     0.041 A
ENDBRANCH   4  35
TORSDOF 10
ENDMDL