MODEL 3
REMARK VINA RESULT: -7.839765362      1.040      1.741
REMARK  9 active torsions:
REMARK  status: ('A' for Active; 'I' for Inactive)
REMARK    1  A    between atoms: C2_2  and  C3_3
REMARK    2  A    between atoms: C3_3  and  N1_7
REMARK    3  A    between atoms: C4_4  and  O1_5
REMARK    4  A    between atoms: N1_7  and  C6_9
REMARK    5  A    between atoms: C8_11  and  C9_12
REMARK    6  A    between atoms: N2_20  and  C15_21
REMARK    7  A    between atoms: C18_24  and  C19_25
REMARK    8  A    between atoms: C23_34  and  C24_35
REMARK    9  A    between atoms: C24_35  and  O2_36
ROOT
HETATM    1  C6  UNL     1      12.406 -27.058 -57.436  1.00  0.00     0.122 A
HETATM    2  C7  UNL     1      13.196 -27.925 -56.614  1.00  0.00     0.082 A
HETATM    3  C8  UNL     1      14.485 -27.378 -56.576  1.00  0.00     0.072 A
HETATM    4  N2  UNL     1      14.523 -26.291 -57.297  1.00  0.00    -0.254 N
HETATM    5  N5  UNL     1      13.227 -26.122 -57.812  1.00  0.00    -0.278 N
ATOM      6  H5  UNL     1      12.959 -25.346 -58.418  1.00  0.00     0.189 HD
ENDROOT
BRANCH   4   7
HETATM    7  C15 UNL     1      15.471 -25.316 -57.589  1.00  0.00     0.065 A
HETATM    8  C16 UNL     1      15.647 -24.208 -56.780  1.00  0.00     0.033 A
HETATM    9  C17 UNL     1      16.612 -23.276 -57.027  1.00  0.00     0.015 A
HETATM   10  C18 UNL     1      17.467 -23.396 -58.097  1.00  0.00    -0.021 A
HETATM   11  C22 UNL     1      17.319 -24.497 -58.922  1.00  0.00     0.024 A
HETATM   12  C23 UNL     1      16.317 -25.440 -58.658  1.00  0.00    -0.005 A
BRANCH  10  13
HETATM   13  C19 UNL     1      18.468 -22.346 -58.365  1.00  0.00     0.031 A
HETATM   14  C20 UNL     1      18.517 -21.473 -59.452  1.00  0.00     0.122 A
HETATM   15  N3  UNL     1      19.636 -20.710 -59.323  1.00  0.00    -0.310 N
HETATM   16  N4  UNL     1      20.305 -21.030 -58.234  1.00  0.00    -0.289 N
ATOM     17  H3  UNL     1      19.920 -19.985 -59.982  1.00  0.00     0.186 HD
HETATM   18  C21 UNL     1      19.588 -22.054 -57.613  1.00  0.00     0.130 A
ATOM     19  H4  UNL     1      21.177 -20.611 -57.909  1.00  0.00     0.188 HD
HETATM   20 CL3  UNL     1      20.017 -22.821 -56.092  1.00  0.00    -0.062 Cl
ENDBRANCH  10  13
BRANCH  12  21
HETATM   21  C24 UNL     1      16.112 -26.492 -59.684  1.00  0.00     0.205 C
BRANCH  21  22
HETATM   22  O2  UNL     1      14.985 -26.380 -60.516  1.00  0.00    -0.396 OA
ATOM     23  H2  UNL     1      14.162 -26.729 -60.193  1.00  0.00     0.209 HD
ENDBRANCH  21  22
ENDBRANCH  12  21
ENDBRANCH   4   7
BRANCH   3  24
HETATM   24  C9  UNL     1      15.411 -27.946 -55.563  1.00  0.00     0.016 A
HETATM   25  C10 UNL     1      16.040 -29.151 -56.012  1.00  0.00     0.039 A
HETATM   26  C11 UNL     1      16.975 -29.802 -55.243  1.00  0.00     0.035 A
HETATM   27 CL1  UNL     1      17.635 -31.382 -55.710  1.00  0.00    -0.084 Cl
HETATM   28  C12 UNL     1      17.283 -29.226 -54.004  1.00  0.00     0.025 A
HETATM   29  C13 UNL     1      16.662 -28.077 -53.611  1.00  0.00     0.026 A
HETATM   30  C14 UNL     1      15.713 -27.430 -54.390  1.00  0.00     0.046 A
HETATM   31 CL2  UNL     1      15.028 -25.923 -53.697  1.00  0.00    -0.083 Cl
ENDBRANCH   3  24
BRANCH   1  32
HETATM   32  N1  UNL     1      11.183 -27.282 -57.622  1.00  0.00    -0.343 N
ATOM     33  H1  UNL     1      10.973 -27.486 -58.599  1.00  0.00     0.167 HD
BRANCH  32  34
HETATM   34  C3  UNL     1      10.051 -27.320 -56.828  1.00  0.00     0.032 C
HETATM   35  C4  UNL     1       9.923 -27.095 -55.414  1.00  0.00     0.159 C
BRANCH  34  36
HETATM   36  C2  UNL     1       8.901 -28.120 -57.488  1.00  0.00     0.054 C
HETATM   37  C1  UNL     1       9.274 -28.468 -58.943  1.00  0.00     0.011 C
ENDBRANCH  34  36
BRANCH  35  38
HETATM   38  O1  UNL     1      10.140 -25.890 -54.919  1.00  0.00    -0.366 OA
HETATM   39  C5  UNL     1       9.205 -24.989 -54.677  1.00  0.00     0.209 C
ENDBRANCH  35  38
ENDBRANCH  32  34
ENDBRANCH   1  32
TORSDOF 9
ENDMDL