MODEL 4
REMARK VINA RESULT: -6.964737761      3.242      4.591
REMARK  11 active torsions:
REMARK  status: ('A' for Active; 'I' for Inactive)
REMARK    1  A    between atoms: C5_5  and  O1_6
REMARK    2  A    between atoms: O1_6  and  C6_7
REMARK    3  A    between atoms: C8_12  and  C9_13
REMARK    4  A    between atoms: C13_19  and  N2_20
REMARK    5  A    between atoms: N2_20  and  C14_21
REMARK    6  A    between atoms: C14_21  and  C16_23
REMARK    7  A    between atoms: C20_29  and  C21_30
REMARK    8  A    between atoms: C21_30  and  C22_31
REMARK    9  A    between atoms: C21_30  and  C23_34
REMARK   10  A    between atoms: C22_31  and  O2_32
REMARK   11  A    between atoms: C23_34  and  N4_35
ROOT
HETATM    1  C9  UNL     1      14.843 -25.443 -55.222  1.00  0.00     0.004 A
HETATM    2  C10 UNL     1      15.278 -24.950 -53.972  1.00  0.00     0.101 A
HETATM    3  N1  UNL     1      16.423 -24.296 -54.124  1.00  0.00    -0.364 N
ATOM      4  H1  UNL     1      16.950 -23.842 -53.379  1.00  0.00     0.165 HD
HETATM    5  C11 UNL     1      16.782 -24.329 -55.443  1.00  0.00     0.049 A
HETATM    6  C12 UNL     1      17.859 -23.837 -56.110  1.00  0.00     0.094 A
HETATM    7  C13 UNL     1      18.038 -24.013 -57.484  1.00  0.00     0.175 A
HETATM    8  N5  UNL     1      17.065 -24.705 -58.105  1.00  0.00    -0.335 N
ATOM      9  H5  UNL     1      17.149 -24.859 -59.110  1.00  0.00     0.168 HD
HETATM   10  C26 UNL     1      15.977 -25.209 -57.468  1.00  0.00     0.021 A
HETATM   11  C27 UNL     1      14.952 -25.952 -58.247  1.00  0.00     0.069 C
HETATM   12  C28 UNL     1      15.802 -25.039 -56.115  1.00  0.00     0.025 A
ENDROOT
BRANCH   7  13
HETATM   13  N2  UNL     1      19.022 -23.576 -57.983  1.00  0.00    -0.421 NA
BRANCH  13  14
HETATM   14  C14 UNL     1      20.222 -23.298 -58.547  1.00  0.00     0.196 C
HETATM   15  C15 UNL     1      20.997 -24.608 -58.901  1.00  0.00     0.053 C
BRANCH  14  16
HETATM   16  C16 UNL     1      21.138 -22.509 -57.638  1.00  0.00     0.000 A
HETATM   17  C17 UNL     1      21.404 -22.968 -56.383  1.00  0.00     0.013 A
HETATM   18  C18 UNL     1      22.150 -22.146 -55.534  1.00  0.00     0.018 A
HETATM   19  C19 UNL     1      22.591 -20.912 -55.974  1.00  0.00     0.088 A
HETATM   20  N3  UNL     1      22.301 -20.517 -57.217  1.00  0.00    -0.368 N
HETATM   21  C20 UNL     1      21.575 -21.288 -58.084  1.00  0.00     0.029 A
ATOM     22  H3  UNL     1      22.633 -19.605 -57.531  1.00  0.00     0.165 HD
BRANCH  21  23
HETATM   23  C21 UNL     1      21.398 -20.799 -59.433  1.00  0.00     0.098 C
BRANCH  23  24
HETATM   24  C22 UNL     1      21.218 -19.234 -59.263  1.00  0.00     0.180 C
BRANCH  24  25
HETATM   25  O2  UNL     1      20.160 -19.011 -58.399  1.00  0.00    -0.400 OA
ATOM     26  H2  UNL     1      20.404 -18.310 -57.805  1.00  0.00     0.209 HD
ENDBRANCH  24  25
ENDBRANCH  23  24
BRANCH  23  27
HETATM   27  C23 UNL     1      22.653 -20.834 -60.283  1.00  0.00     0.070 C
BRANCH  27  28
HETATM   28  N4  UNL     1      22.670 -21.330 -61.565  1.00  0.00    -0.401 N
HETATM   29  C24 UNL     1      23.027 -20.481 -62.633  1.00  0.00     0.148 C
HETATM   30  C25 UNL     1      21.652 -22.292 -61.903  1.00  0.00     0.148 C
ENDBRANCH  27  28
ENDBRANCH  23  27
ENDBRANCH  21  23
ENDBRANCH  14  16
ENDBRANCH  13  14
ENDBRANCH   7  13
BRANCH   1  31
HETATM   31  C8  UNL     1      13.636 -26.200 -55.429  1.00  0.00    -0.015 A
HETATM   32  C2  UNL     1      13.700 -27.589 -55.393  1.00  0.00    -0.051 A
HETATM   33  C1  UNL     1      14.985 -28.330 -55.205  1.00  0.00     0.049 C
HETATM   34  C3  UNL     1      12.550 -28.345 -55.516  1.00  0.00     0.010 A
HETATM   35  C4  UNL     1      11.300 -27.745 -55.679  1.00  0.00     0.037 A
HETATM   36  C5  UNL     1      11.240 -26.387 -55.714  1.00  0.00     0.079 A
HETATM   37  C7  UNL     1      12.386 -25.645 -55.592  1.00  0.00     0.050 A
BRANCH  36  38
HETATM   38  O1  UNL     1       9.969 -25.796 -55.877  1.00  0.00    -0.255 OA
BRANCH  38  39
HETATM   39  C6  UNL     1       9.273 -25.413 -54.671  1.00  0.00     0.530 C
HETATM   40  F1  UNL     1       8.572 -26.480 -54.179  1.00  0.00    -0.144 F
HETATM   41  F2  UNL     1       8.434 -24.347 -54.933  1.00  0.00    -0.144 F
HETATM   42  F3  UNL     1      10.168 -24.977 -53.710  1.00  0.00    -0.144 F
ENDBRANCH  38  39
ENDBRANCH  36  38
ENDBRANCH   1  31
TORSDOF 11
ENDMDL