MODEL 4
REMARK VINA RESULT: -4.485775487      1.855      2.553
REMARK  0 active torsions:
REMARK  status: ('A' for Active; 'I' for Inactive)
ROOT
HETATM    1  O1  UNL     1      12.313  53.358  56.336  1.00  0.00    -0.289 OA
HETATM    2  C1  UNL     1      12.193  52.303  55.703  1.00  0.00     0.197 A
HETATM    3  C2  UNL     1      13.111  51.202  55.910  1.00  0.00     0.097 A
HETATM    4 CL1  UNL     1      14.397  51.404  57.081  1.00  0.00    -0.079 Cl
HETATM    5  C3  UNL     1      12.989  50.058  55.231  1.00  0.00     0.116 A
HETATM    6  N1  UNL     1      11.935  49.961  54.305  1.00  0.00    -0.357 N
ATOM      7  H1  UNL     1      11.844  49.087  53.787  1.00  0.00     0.166 HD
HETATM    8  C4  UNL     1      11.082  50.881  54.061  1.00  0.00     0.106 A
HETATM    9 CL2  UNL     1       9.798  50.603  52.852  1.00  0.00    -0.067 Cl
HETATM   10  C5  UNL     1      11.102  52.169  54.728  1.00  0.00     0.219 A
HETATM   11 CL3  UNL     1       9.531  52.550  55.497  1.00  0.00    -0.109 Cl
ENDROOT
TORSDOF 0
ENDMDL