MODEL 3
REMARK VINA RESULT: -6.934888466      2.436      4.818
REMARK  9 active torsions:
REMARK  status: ('A' for Active; 'I' for Inactive)
REMARK    1  A    between atoms: C2_2  and  C3_3
REMARK    2  A    between atoms: C3_3  and  C6_6
REMARK    3  A    between atoms: C6_6  and  C7_7
REMARK    4  A    between atoms: C7_7  and  C8_8
REMARK    5  A    between atoms: C8_8  and  O1_9
REMARK    6  A    between atoms: C8_8  and  C9_11
REMARK    7  A    between atoms: C9_11  and  O2_12
REMARK    8  A    between atoms: O2_12  and  C10_13
REMARK    9  A    between atoms: C16_19  and  C17_20
ROOT
HETATM    1  C9  UNL     1      17.097  49.162  56.915  1.00  0.00     0.207 C
ENDROOT
BRANCH   1   2
HETATM    2  C8  UNL     1      16.310  49.813  55.835  1.00  0.00     0.142 C
BRANCH   2   3
HETATM    3  C7  UNL     1      15.102  50.521  56.481  1.00  0.00     0.038 C
BRANCH   3   4
HETATM    4  C6  UNL     1      13.861  50.043  55.794  1.00  0.00     0.041 C
BRANCH   4   5
HETATM    5  C3  UNL     1      12.781  51.031  55.723  1.00  0.00    -0.063 C
HETATM    6  C4  UNL     1      12.960  52.237  56.283  1.00  0.00    -0.024 C
HETATM    7  C5  UNL     1      11.888  53.233  56.243  1.00  0.00     0.036 C
BRANCH   5   8
HETATM    8  C2  UNL     1      11.520  50.763  55.096  1.00  0.00    -0.004 C
HETATM    9  C1  UNL     1      11.331  50.749  53.806  1.00  0.00     0.012 C
ENDBRANCH   5   8
ENDBRANCH   4   5
ENDBRANCH   3   4
ENDBRANCH   2   3
BRANCH   2  10
HETATM   10  O1  UNL     1      15.778  48.762  55.035  1.00  0.00    -0.393 OA
ATOM     11  H1  UNL     1      16.517  48.362  54.593  1.00  0.00     0.210 HD
ENDBRANCH   2  10
ENDBRANCH   1   2
BRANCH   1  12
HETATM   12  O2  UNL     1      18.451  49.017  56.719  1.00  0.00    -0.348 OA
BRANCH  12  13
HETATM   13  C10 UNL     1      19.210  48.061  56.123  1.00  0.00     0.075 A
HETATM   14  C11 UNL     1      18.684  47.015  55.399  1.00  0.00     0.038 A
HETATM   15  C12 UNL     1      19.540  46.105  54.838  1.00  0.00     0.009 A
HETATM   16  C13 UNL     1      20.902  46.213  54.979  1.00  0.00    -0.061 A
HETATM   17  C14 UNL     1      21.793  45.218  54.363  1.00  0.00     0.048 C
HETATM   18  C15 UNL     1      21.404  47.271  55.710  1.00  0.00     0.017 A
HETATM   19  C16 UNL     1      20.594  48.213  56.295  1.00  0.00    -0.021 A
BRANCH  19  20
HETATM   20  C17 UNL     1      21.149  49.347  57.078  1.00  0.00     0.013 C
HETATM   21  C18 UNL     1      21.917  50.303  56.190  1.00  0.00     0.015 C
HETATM   22  C19 UNL     1      21.978  48.888  58.242  1.00  0.00     0.015 C
ENDBRANCH  19  20
ENDBRANCH  12  13
ENDBRANCH   1  12
TORSDOF 9
ENDMDL