MODEL 4
REMARK VINA RESULT: -4.493124860      2.645      4.396
REMARK  1 active torsions:
REMARK  status: ('A' for Active; 'I' for Inactive)
REMARK    1  A    between atoms: O1_1  and  N1_3
ROOT
HETATM    1  N1  UNL     1      12.021  52.478  55.719  1.00  0.00    -0.246 N
HETATM    2  C1  UNL     1      12.939  51.448  56.050  1.00  0.00     0.142 A
HETATM    3  C2  UNL     1      12.937  50.267  55.471  1.00  0.00     0.053 A
HETATM    4 CL1  UNL     1      14.103  49.023  55.924  1.00  0.00    -0.083 Cl
HETATM    5  C3  UNL     1      11.948  50.002  54.441  1.00  0.00     0.048 A
HETATM    6  C4  UNL     1      11.075  50.912  54.093  1.00  0.00     0.053 A
HETATM    7 CL2  UNL     1       9.886  50.555  52.835  1.00  0.00    -0.085 Cl
HETATM    8  C5  UNL     1      11.033  52.240  54.704  1.00  0.00     0.254 A
HETATM    9 CL3  UNL     1       9.427  52.508  55.448  1.00  0.00    -0.094 Cl
ENDROOT
BRANCH   1  10
HETATM   10  O1  UNL     1      12.079  53.622  56.332  1.00  0.00    -0.286 OA
ATOM     11  H1  UNL     1      12.732  53.766  57.007  1.00  0.00     0.244 HD
ENDBRANCH   1  10
TORSDOF 1
ENDMDL