MODEL 4
REMARK VINA RESULT: -4.019894309      3.307      5.229
REMARK  1 active torsions:
REMARK  status: ('A' for Active; 'I' for Inactive)
REMARK    1  A    between atoms: C1_2  and  C2_3
ROOT
HETATM    1  C2  UNL     1      17.873  48.372  56.239  1.00  0.00     0.052 C
HETATM    2 CL2  UNL     1      18.582  47.741  54.757  1.00  0.00    -0.086 Cl
HETATM    3  C3  UNL     1      16.586  48.561  56.382  1.00  0.00     0.074 C
HETATM    4  N1  UNL     1      15.544  48.321  55.443  1.00  0.00    -0.346 N
ATOM      5  H1  UNL     1      15.674  48.163  54.444  1.00  0.00     0.167 HD
HETATM    6  C4  UNL     1      14.410  48.336  56.056  1.00  0.00     0.229 C
HETATM    7  O1  UNL     1      14.579  48.577  57.406  1.00  0.00    -0.320 OA
HETATM    8  C5  UNL     1      15.888  49.081  57.576  1.00  0.00     0.276 C
HETATM    9 CL3  UNL     1      15.781  50.868  57.502  1.00  0.00    -0.088 Cl
ENDROOT
BRANCH   1  10
HETATM   10  C1  UNL     1      18.859  48.680  57.341  1.00  0.00     0.168 C
HETATM   11 CL1  UNL     1      19.746  49.032  57.063  1.00  0.00    -0.125 Cl
ENDBRANCH   1  10
TORSDOF 1
ENDMDL