MODEL 3
REMARK VINA RESULT: -4.337715768      3.750      5.700
REMARK  0 active torsions:
REMARK  status: ('A' for Active; 'I' for Inactive)
ROOT
HETATM    1  C1  UNL     1      14.453  48.818  55.203  1.00  0.00     0.152 C
HETATM    2  N1  UNL     1      13.778  49.989  55.677  1.00  0.00    -0.360 N
HETATM    3  C2  UNL     1      12.386  50.390  55.441  1.00  0.00     0.173 C
HETATM    4  C3  UNL     1      12.551  51.901  55.390  1.00  0.00     0.244 C
HETATM    5 CL1  UNL     1      11.060  52.709  55.891  1.00  0.00    -0.093 Cl
HETATM    6  O1  UNL     1      13.633  52.188  56.252  1.00  0.00    -0.311 OA
HETATM    7  C4  UNL     1      14.340  51.016  56.487  1.00  0.00     0.175 C
HETATM    8  C5  UNL     1      15.359  50.861  57.312  1.00  0.00     0.154 C
HETATM    9 CL2  UNL     1      15.921  52.235  58.233  1.00  0.00    -0.066 Cl
HETATM   10 CL3  UNL     1      16.164  49.342  57.522  1.00  0.00    -0.066 Cl
ENDROOT
TORSDOF 0
ENDMDL