MODEL 1
REMARK VINA RESULT: -3.913154859      0.000      0.000
REMARK  0 active torsions:
REMARK  status: ('A' for Active; 'I' for Inactive)
ROOT
HETATM    1 CL1  UNL     1      12.020  50.665  55.612  1.00  0.00    -0.094 Cl
HETATM    2  C1  UNL     1      13.238  49.598  54.972  1.00  0.00     0.118 C
HETATM    3  C2  UNL     1      14.352  49.331  55.630  1.00  0.00     0.082 C
HETATM    4  O1  UNL     1      15.328  48.489  55.141  1.00  0.00    -0.334 OA
HETATM    5  C3  UNL     1      16.467  48.183  55.882  1.00  0.00     0.297 C
HETATM    6  N1  UNL     1      16.353  48.426  57.276  1.00  0.00    -0.379 N
ATOM      7  H1  UNL     1      16.988  47.936  57.905  1.00  0.00     0.160 HD
HETATM    8  C4  UNL     1      15.508  49.216  57.778  1.00  0.00     0.084 C
HETATM    9  C5  UNL     1      14.540  49.978  56.958  1.00  0.00     0.177 C
HETATM   10 CL2  UNL     1      15.203  51.616  56.719  1.00  0.00    -0.112 Cl
ENDROOT
TORSDOF 0
ENDMDL