MODEL 3
REMARK VINA RESULT: -5.594883200      2.166      5.927
REMARK  8 active torsions:
REMARK  status: ('A' for Active; 'I' for Inactive)
REMARK    1  A    between atoms: C2_2  and  C3_3
REMARK    2  A    between atoms: C3_3  and  C4_4
REMARK    3  A    between atoms: C4_4  and  C5_5
REMARK    4  A    between atoms: C5_5  and  C6_6
REMARK    5  A    between atoms: C6_6  and  C7_7
REMARK    6  A    between atoms: C6_6  and  C10_10
REMARK    7  A    between atoms: C7_7  and  C8_8
REMARK    8  A    between atoms: C11_11  and  O1_12
ROOT
HETATM    1  C10 UNL     1      21.003  47.381  56.944  1.00  0.00     0.038 A
HETATM    2  C11 UNL     1      20.692  46.667  58.121  1.00  0.00     0.079 A
HETATM    3  C12 UNL     1      21.190  45.388  58.362  1.00  0.00     0.045 A
HETATM    4  C13 UNL     1      22.001  44.777  57.479  1.00  0.00    -0.046 A
HETATM    5  C14 UNL     1      22.501  43.390  57.673  1.00  0.00     0.049 C
HETATM    6  C15 UNL     1      22.335  45.470  56.313  1.00  0.00     0.007 A
HETATM    7  C16 UNL     1      23.162  45.095  55.285  1.00  0.00     0.047 A
HETATM    8  C17 UNL     1      23.150  46.185  54.404  1.00  0.00     0.051 A
HETATM    9  C18 UNL     1      23.911  46.263  53.130  1.00  0.00     0.077 C
HETATM   10  O2  UNL     1      22.374  47.102  54.893  1.00  0.00    -0.314 OA
HETATM   11  C19 UNL     1      21.850  46.726  56.060  1.00  0.00     0.100 A
ENDROOT
BRANCH   1  12
HETATM   12  C6  UNL     1      20.480  48.762  56.731  1.00  0.00    -0.046 C
BRANCH  12  13
HETATM   13  C5  UNL     1      19.322  48.844  55.845  1.00  0.00    -0.019 C
BRANCH  13  14
HETATM   14  C4  UNL     1      18.626  47.900  55.024  1.00  0.00     0.027 C
BRANCH  14  15
HETATM   15  C3  UNL     1      17.101  47.916  55.378  1.00  0.00     0.003 C
BRANCH  15  16
HETATM   16  C2  UNL     1      16.420  49.200  55.084  1.00  0.00    -0.004 C
HETATM   17  C1  UNL     1      14.905  49.027  55.404  1.00  0.00     0.005 C
ENDBRANCH  15  16
ENDBRANCH  14  15
ENDBRANCH  13  14
ENDBRANCH  12  13
BRANCH  12  18
HETATM   18  C7  UNL     1      21.495  49.860  56.704  1.00  0.00     0.039 C
BRANCH  18  19
HETATM   19  C8  UNL     1      22.437  50.021  57.831  1.00  0.00     0.000 C
HETATM   20  C9  UNL     1      23.812  49.497  57.335  1.00  0.00     0.005 C
ENDBRANCH  18  19
ENDBRANCH  12  18
ENDBRANCH   1  12
BRANCH   2  21
HETATM   21  O1  UNL     1      19.887  47.143  59.115  1.00  0.00    -0.360 OA
ATOM     22  H1  UNL     1      18.946  47.254  59.033  1.00  0.00     0.217 HD
ENDBRANCH   2  21
TORSDOF 8
ENDMDL