MODEL 5
REMARK VINA RESULT: -4.562936354      4.195      5.677
REMARK  0 active torsions:
REMARK  status: ('A' for Active; 'I' for Inactive)
ROOT
HETATM    1  N1  UNL     1      18.531  47.432  58.678  1.00  0.00    -0.192 NA
HETATM    2  C1  UNL     1      17.864  48.047  57.981  1.00  0.00     0.099 C
HETATM    3  C2  UNL     1      17.018  48.816  57.114  1.00  0.00     0.067 C
HETATM    4  C3  UNL     1      15.788  49.202  57.308  1.00  0.00     0.067 C
HETATM    5  C4  UNL     1      15.340  49.975  56.123  1.00  0.00     0.238 C
HETATM    6 CL1  UNL     1      13.992  49.196  55.306  1.00  0.00    -0.066 Cl
HETATM    7 CL2  UNL     1      14.795  51.587  56.666  1.00  0.00    -0.066 Cl
HETATM    8  O1  UNL     1      16.444  50.123  55.309  1.00  0.00    -0.322 OA
HETATM    9  C5  UNL     1      17.451  49.319  55.782  1.00  0.00     0.265 C
HETATM   10 CL3  UNL     1      17.769  47.929  54.728  1.00  0.00    -0.089 Cl
ENDROOT
TORSDOF 0
ENDMDL