MODEL 1
REMARK VINA RESULT: -4.843993218      0.000      0.000
REMARK  0 active torsions:
REMARK  status: ('A' for Active; 'I' for Inactive)
ROOT
HETATM    1 CL1  UNL     1       6.877  52.715  52.503  1.00  0.00    -0.057 Cl
HETATM    2  C1  UNL     1       8.376  52.138  53.201  1.00  0.00     0.142 C
HETATM    3  C2  UNL     1       9.140  51.354  52.436  1.00  0.00     0.091 C
HETATM    4  C3  UNL     1      10.426  50.753  52.797  1.00  0.00     0.104 C
HETATM    5 CL2  UNL     1      10.909  49.422  51.748  1.00  0.00    -0.065 Cl
HETATM    6  N1  UNL     1      11.229  51.066  53.759  1.00  0.00    -0.361 N
ATOM      7  H1  UNL     1      12.087  50.521  53.844  1.00  0.00     0.162 HD
HETATM    8  C4  UNL     1      11.019  52.122  54.728  1.00  0.00     0.204 C
HETATM    9 CL3  UNL     1      12.343  52.184  55.890  1.00  0.00    -0.100 Cl
HETATM   10  C5  UNL     1       9.674  51.962  55.362  1.00  0.00     0.217 C
HETATM   11  O1  UNL     1       8.667  52.541  54.518  1.00  0.00    -0.337 OA
ENDROOT
TORSDOF 0
ENDMDL