MODEL 3
REMARK VINA RESULT: -4.325657344      2.518      4.466
REMARK  0 active torsions:
REMARK  status: ('A' for Active; 'I' for Inactive)
ROOT
HETATM    1 CL1  UNL     1      17.209  49.204  56.015  1.00  0.00    -0.084 Cl
HETATM    2  C1  UNL     1      15.597  49.868  55.902  1.00  0.00     0.070 C
HETATM    3  C2  UNL     1      15.390  51.113  56.289  1.00  0.00     0.112 C
HETATM    4  N1  UNL     1      14.183  51.884  56.299  1.00  0.00    -0.357 N
ATOM      5  H1  UNL     1      14.281  52.851  56.608  1.00  0.00     0.166 HD
HETATM    6  C3  UNL     1      13.002  51.525  55.975  1.00  0.00     0.104 C
HETATM    7 CL2  UNL     1      11.773  52.758  56.121  1.00  0.00    -0.067 Cl
HETATM    8  C4  UNL     1      12.589  50.179  55.495  1.00  0.00     0.240 C
HETATM    9  O1  UNL     1      13.574  49.664  54.702  1.00  0.00    -0.359 OA
HETATM   10  C5  UNL     1      14.549  48.951  55.361  1.00  0.00     0.264 C
HETATM   11 CL3  UNL     1      13.869  47.929  56.670  1.00  0.00    -0.089 Cl
ENDROOT
TORSDOF 0
ENDMDL