MODEL 1
REMARK VINA RESULT: -5.441054386      0.000      0.000
REMARK  4 active torsions:
REMARK  status: ('A' for Active; 'I' for Inactive)
REMARK    1  A    between atoms: C2_2  and  N1_3
REMARK       I    between atoms: N1_3  and  C3_5
REMARK       I    between atoms: C3_5  and  N3_9
REMARK    2  A    between atoms: N3_9  and  N4_11
REMARK    3  A    between atoms: C5_18  and  C6_19
REMARK       I    between atoms: C6_19  and  N7_21
REMARK    4  A    between atoms: N7_21  and  N8_22
ROOT
HETATM    1  N4  UNL     1      57.350 -54.717  -7.458  1.00  0.00    -0.266 N
ATOM      2  H4  UNL     1      56.338 -54.728  -7.586  1.00  0.00     0.189 HD
HETATM    3  C4  UNL     1      57.737 -54.458  -6.298  1.00  0.00     0.204 A
HETATM    4  N5  UNL     1      56.787 -54.212  -5.322  1.00  0.00    -0.278 N
ATOM      5  H5  UNL     1      55.794 -54.265  -5.548  1.00  0.00     0.189 HD
HETATM    6  N6  UNL     1      57.181 -53.900  -4.071  1.00  0.00    -0.278 N
ATOM      7  H6  UNL     1      56.471 -53.720  -3.362  1.00  0.00     0.189 HD
HETATM    8  C5  UNL     1      58.456 -53.821  -3.734  1.00  0.00     0.209 A
HETATM    9  N9  UNL     1      59.417 -54.052  -4.642  1.00  0.00    -0.300 N
ATOM     10  H9  UNL     1      60.404 -53.993  -4.391  1.00  0.00     0.171 HD
HETATM   11  C7  UNL     1      59.037 -54.365  -5.895  1.00  0.00     0.294 A
HETATM   12  O2  UNL     1      59.975 -54.577  -6.708  1.00  0.00    -0.264 OA
ENDROOT
BRANCH   1  13
HETATM   13  N3  UNL     1      58.078 -54.984  -8.572  1.00  0.00    -0.131 N
HETATM   14  C3  UNL     1      57.660 -54.258  -9.772  1.00  0.00     0.686 C
HETATM   15  N1  UNL     1      57.349 -52.879  -9.480  1.00  0.00    -0.226 N
HETATM   16  N2  UNL     1      57.569 -54.677 -10.893  1.00  0.00    -0.234 N
ATOM     17  H1  UNL     1      56.389 -52.550  -9.375  1.00  0.00     0.177 HD
ATOM     18  H22 UNL     1      57.277 -54.171 -11.729  1.00  0.00     0.174 HD
ATOM     19  H21 UNL     1      57.789 -55.651 -11.099  1.00  0.00     0.174 HD
ATOM     20  H3  UNL     1      58.858 -55.642  -8.573  1.00  0.00     0.205 HD
BRANCH  15  21
HETATM   21  C2  UNL     1      58.484 -51.993  -9.344  1.00  0.00     0.133 C
HETATM   22  C1  UNL     1      58.415 -51.012 -10.498  1.00  0.00     0.027 C
ENDBRANCH  15  21
ENDBRANCH   1  13
BRANCH   8  23
HETATM   23  C6  UNL     1      58.883 -53.400  -2.373  1.00  0.00     0.380 C
HETATM   24  O1  UNL     1      60.068 -53.807  -2.079  1.00  0.00    -0.246 OA
HETATM   25  N7  UNL     1      58.039 -52.661  -1.617  1.00  0.00    -0.285 NA
BRANCH  25  26
HETATM   26  N8  UNL     1      57.207 -51.932  -0.872  1.00  0.00    -0.276 N
ATOM     27  H82 UNL     1      57.840 -52.447  -1.485  1.00  0.00     0.191 HD
ATOM     28  H81 UNL     1      56.572 -51.376  -0.301  1.00  0.00     0.191 HD
ENDBRANCH  25  26
ENDBRANCH   8  23
TORSDOF 4
ENDMDL