MODEL 2
REMARK VINA RESULT: -4.782087578      5.861      9.363
REMARK  8 active torsions:
REMARK  status: ('A' for Active; 'I' for Inactive)
REMARK    1  A    between atoms: C3_7  and  N3_8
REMARK    2  A    between atoms: N3_8  and  N4_10
REMARK       I    between atoms: N4_10  and  C4_12
REMARK    3  A    between atoms: C4_12  and  C5_14
REMARK    4  A    between atoms: N5_15  and  N6_17
REMARK    5  A    between atoms: N6_17  and  C6_19
REMARK    6  A    between atoms: C6_19  and  N7_21
REMARK    7  A    between atoms: N7_21  and  N8_23
REMARK    8  A    between atoms: N9_26  and  N10_27
ROOT
HETATM    1  N4  UNL     1      60.305 -49.610 -11.319  1.00  0.00    -0.251 N
ATOM      2  H4  UNL     1      59.803 -48.788 -11.654  1.00  0.00     0.191 HD
HETATM    3  C4  UNL     1      61.400 -50.127 -12.060  1.00  0.00     0.277 C
HETATM    4  O1  UNL     1      62.008 -51.138 -11.640  1.00  0.00    -0.265 OA
ENDROOT
BRANCH   1   5
HETATM    5  N3  UNL     1      59.923 -50.220 -10.149  1.00  0.00    -0.126 N
ATOM      6  H3  UNL     1      60.445 -49.994  -9.303  1.00  0.00     0.206 HD
BRANCH   5   7
HETATM    7  C3  UNL     1      58.948 -51.060 -10.047  1.00  0.00     0.733 A
HETATM    8  N2  UNL     1      57.638 -50.797  -9.989  1.00  0.00    -0.128 N
HETATM    9  N1  UNL     1      56.957 -51.928  -9.887  1.00  0.00    -0.273 N
ATOM     10  H2  UNL     1      57.225 -49.865 -10.019  1.00  0.00     0.205 HD
HETATM   11  C2  UNL     1      57.844 -52.930  -9.879  1.00  0.00     0.132 A
ATOM     12  H1  UNL     1      55.943 -52.019  -9.825  1.00  0.00     0.189 HD
HETATM   13  C1  UNL     1      57.508 -54.354  -9.778  1.00  0.00     0.093 C
HETATM   14  N9  UNL     1      59.087 -52.402  -9.978  1.00  0.00    -0.077 N
BRANCH  14  15
HETATM   15  N10 UNL     1      60.309 -53.053 -10.008  1.00  0.00    -0.323 N
ATOM     16 2H10 UNL     1      60.822 -53.336  -9.173  1.00  0.00     0.178 HD
ATOM     17 1H10 UNL     1      60.862 -53.340 -10.816  1.00  0.00     0.178 HD
ENDBRANCH  14  15
ENDBRANCH   5   7
ENDBRANCH   1   5
BRANCH   3  18
HETATM   18  C5  UNL     1      61.778 -49.451 -13.302  1.00  0.00     0.182 C
HETATM   19  N5  UNL     1      61.090 -48.423 -13.652  1.00  0.00    -0.304 N
ATOM     20  H5  UNL     1      60.311 -48.099 -13.077  1.00  0.00     0.186 HD
BRANCH  19  21
HETATM   21  N6  UNL     1      61.423 -47.762 -14.822  1.00  0.00    -0.275 N
ATOM     22  H6  UNL     1      62.173 -48.118 -15.414  1.00  0.00     0.189 HD
BRANCH  21  23
HETATM   23  C6  UNL     1      60.721 -46.590 -15.196  1.00  0.00     0.204 C
HETATM   24  S1  UNL     1      61.117 -45.122 -14.575  1.00  0.00    -0.038 SA
BRANCH  23  25
HETATM   25  N7  UNL     1      59.656 -46.654 -16.120  1.00  0.00    -0.282 N
ATOM     26  H7  UNL     1      59.790 -47.206 -16.967  1.00  0.00     0.189 HD
BRANCH  25  27
HETATM   27  N8  UNL     1      58.444 -46.014 -15.947  1.00  0.00    -0.343 N
ATOM     28  H82 UNL     1      57.858 -46.337 -15.177  1.00  0.00     0.176 HD
ATOM     29  H81 UNL     1      58.112 -45.251 -16.536  1.00  0.00     0.176 HD
ENDBRANCH  25  27
ENDBRANCH  23  25
ENDBRANCH  21  23
ENDBRANCH  19  21
ENDBRANCH   3  18
TORSDOF 8
ENDMDL