MODEL 3
REMARK VINA RESULT: -4.106263543      2.175      5.429
REMARK  4 active torsions:
REMARK  status: ('A' for Active; 'I' for Inactive)
REMARK       I    between atoms: N1_2  and  C2_4
REMARK    1  A    between atoms: C2_4  and  C3_6
REMARK    2  A    between atoms: C3_6  and  N2_7
REMARK    3  A    between atoms: C5_9  and  C6_10
REMARK    4  A    between atoms: C7_15  and  N5_16
ROOT
HETATM    1  N2  UNL     1      60.732 -44.324 -14.125  1.00  0.00    -0.169 N
HETATM    2  C4  UNL     1      61.119 -44.252 -12.845  1.00  0.00     0.129 A
HETATM    3  C5  UNL     1      60.924 -43.398 -11.796  1.00  0.00     0.145 A
HETATM    4  N4  UNL     1      61.523 -43.681 -10.601  1.00  0.00    -0.184 N
ATOM      5  H4  UNL     1      61.379 -43.048  -9.813  1.00  0.00     0.184 HD
HETATM    6  C7  UNL     1      62.295 -44.768 -10.430  1.00  0.00     0.678 A
HETATM    7  N6  UNL     1      62.512 -45.636 -11.449  1.00  0.00    -0.174 N
ATOM      8  H6  UNL     1      63.104 -46.451 -11.286  1.00  0.00     0.186 HD
HETATM    9  C8  UNL     1      61.976 -45.457 -12.660  1.00  0.00     0.166 A
HETATM   10  N7  UNL     1      62.011 -46.114 -13.831  1.00  0.00    -0.174 N
ATOM     11  H7  UNL     1      62.519 -46.979 -14.013  1.00  0.00     0.186 HD
HETATM   12  C9  UNL     1      61.272 -45.448 -14.718  1.00  0.00     0.680 A
HETATM   13  N8  UNL     1      61.078 -45.789 -15.953  1.00  0.00    -0.234 N
ATOM     14  H81 UNL     1      61.478 -46.619 -16.390  1.00  0.00     0.174 HD
ATOM     15  H82 UNL     1      60.513 -45.279 -16.632  1.00  0.00     0.174 HD
ENDROOT
BRANCH   1  16
HETATM   16  C3  UNL     1      59.858 -43.440 -14.836  1.00  0.00     0.250 C
BRANCH  16  17
HETATM   17  C2  UNL     1      60.618 -42.459 -15.696  1.00  0.00     0.236 C
HETATM   18  N1  UNL     1      61.830 -41.913 -15.206  1.00  0.00    -0.364 N
HETATM   19  C1  UNL     1      62.606 -40.975 -15.966  1.00  0.00     0.149 C
ATOM     20  H1  UNL     1      62.161 -42.196 -14.283  1.00  0.00     0.161 HD
HETATM   21  O1  UNL     1      60.135 -42.178 -16.799  1.00  0.00    -0.272 OA
ENDBRANCH  16  17
ENDBRANCH   1  16
BRANCH   3  22
HETATM   22  C6  UNL     1      60.139 -42.204 -11.888  1.00  0.00     0.284 C
HETATM   23  N3  UNL     1      60.540 -41.028 -12.559  1.00  0.00    -0.056 NA
HETATM   24  O2  UNL     1      58.987 -42.215 -11.322  1.00  0.00    -0.269 OA
ENDBRANCH   3  22
BRANCH   6  25
HETATM   25  N5  UNL     1      62.856 -45.025  -9.296  1.00  0.00    -0.234 N
ATOM     26  H52 UNL     1      62.567 -45.873  -8.808  1.00  0.00     0.174 HD
ATOM     27  H51 UNL     1      63.562 -44.406  -8.898  1.00  0.00     0.174 HD
ENDBRANCH   6  25
TORSDOF 4
ENDMDL