MODEL 1
REMARK VINA RESULT: -5.008235030      0.000      0.000
REMARK  5 active torsions:
REMARK  status: ('A' for Active; 'I' for Inactive)
REMARK    1  A    between atoms: C2_2  and  N1_3
REMARK    2  A    between atoms: N1_3  and  N2_5
REMARK    3  A    between atoms: C4_10  and  O1_11
REMARK    4  A    between atoms: C4_10  and  C5_13
REMARK    5  A    between atoms: C7_20  and  N7_21
ROOT
HETATM    1  C5  UNL     1      61.560 -44.296 -14.696  1.00  0.00     0.100 A
HETATM    2  N5  UNL     1      61.369 -43.167 -15.373  1.00  0.00    -0.304 N
ATOM      3  H5  UNL     1      62.034 -42.403 -15.257  1.00  0.00     0.171 HD
HETATM    4  C6  UNL     1      60.301 -42.997 -16.227  1.00  0.00     0.326 A
HETATM    5  O2  UNL     1      60.184 -41.908 -16.830  1.00  0.00    -0.247 OA
HETATM    6  N6  UNL     1      59.383 -43.941 -16.440  1.00  0.00    -0.293 N
ATOM      7  H6  UNL     1      58.603 -43.787 -17.078  1.00  0.00     0.172 HD
HETATM    8  C7  UNL     1      59.529 -45.101 -15.782  1.00  0.00     0.129 A
HETATM    9  C8  UNL     1      60.590 -45.286 -14.926  1.00  0.00     0.119 A
HETATM   10  N8  UNL     1      60.758 -46.509 -14.222  1.00  0.00    -0.096 NA
ENDROOT
BRANCH   1  11
HETATM   11  C4  UNL     1      62.653 -44.549 -13.786  1.00  0.00     0.118 C
HETATM   12  C2  UNL     1      63.011 -43.875 -12.581  1.00  0.00     0.057 C
HETATM   13  C1  UNL     1      64.217 -44.351 -11.810  1.00  0.00     0.072 C
BRANCH  12  14
HETATM   14  N1  UNL     1      62.377 -42.887 -12.101  1.00  0.00    -0.300 N
ATOM     15  H1  UNL     1      62.794 -41.964 -12.227  1.00  0.00     0.186 HD
BRANCH  14  16
HETATM   16  N2  UNL     1      61.176 -42.947 -11.425  1.00  0.00    -0.276 N
HETATM   17  C3  UNL     1      60.183 -42.242 -11.820  1.00  0.00     0.215 C
HETATM   18  N3  UNL     1      60.300 -41.400 -12.947  1.00  0.00    -0.065 NA
HETATM   19  N4  UNL     1      58.959 -42.310 -11.122  1.00  0.00    -0.065 NA
ATOM     20  H2  UNL     1      61.080 -43.553 -10.610  1.00  0.00     0.189 HD
ENDBRANCH  14  16
ENDBRANCH  12  14
BRANCH  11  21
HETATM   21  O1  UNL     1      63.447 -45.541 -14.093  1.00  0.00    -0.357 OA
ATOM     22  H1  UNL     1      63.379 -45.823 -14.997  1.00  0.00     0.218 HD
ENDBRANCH  11  21
ENDBRANCH   1  11
BRANCH   8  23
HETATM   23  N7  UNL     1      58.661 -46.044 -15.960  1.00  0.00    -0.384 N
ATOM     24  H72 UNL     1      57.823 -46.088 -15.381  1.00  0.00     0.157 HD
ATOM     25  H71 UNL     1      58.824 -46.743 -16.685  1.00  0.00     0.157 HD
ENDBRANCH   8  23
TORSDOF 5
ENDMDL