MODEL 1
REMARK VINA RESULT: -4.745548823      0.000      0.000
REMARK  4 active torsions:
REMARK  status: ('A' for Active; 'I' for Inactive)
REMARK    1  A    between atoms: C1_4  and  C2_6
REMARK    2  A    between atoms: C3_9  and  N4_10
REMARK    3  A    between atoms: N6_18  and  C6_19
REMARK    4  A    between atoms: C6_19  and  C7_20
ROOT
HETATM    1  C2  UNL     1      59.994 -44.669 -15.542  1.00  0.00     0.150 A
HETATM    2  N3  UNL     1      60.704 -43.905 -16.409  1.00  0.00    -0.324 N
ATOM      3  H3  UNL     1      60.800 -44.215 -17.376  1.00  0.00     0.169 HD
HETATM    4  C3  UNL     1      61.285 -42.756 -16.034  1.00  0.00     0.131 A
HETATM    5  C4  UNL     1      61.126 -42.379 -14.715  1.00  0.00     0.125 A
HETATM    6  N5  UNL     1      61.568 -41.299 -14.008  1.00  0.00    -0.302 N
ATOM      7  H5  UNL     1      62.134 -40.532 -14.371  1.00  0.00     0.171 HD
HETATM    8  C5  UNL     1      61.121 -41.428 -12.741  1.00  0.00     0.329 A
HETATM    9  O1  UNL     1      61.359 -40.588 -11.827  1.00  0.00    -0.246 OA
HETATM   10  N6  UNL     1      60.408 -42.553 -12.609  1.00  0.00    -0.275 N
HETATM   11  C8  UNL     1      60.411 -43.142 -13.833  1.00  0.00     0.144 A
HETATM   12  N8  UNL     1      59.857 -44.284 -14.283  1.00  0.00    -0.324 N
ATOM     13  H8  UNL     1      59.319 -44.866 -13.640  1.00  0.00     0.169 HD
ENDROOT
BRANCH   1  14
HETATM   14  C1  UNL     1      59.383 -45.910 -16.002  1.00  0.00     0.154 C
HETATM   15  N1  UNL     1      58.168 -46.183 -15.705  1.00  0.00    -0.385 N
ATOM     16  H12 UNL     1      57.740 -47.051 -16.027  1.00  0.00     0.157 HD
ATOM     17  H11 UNL     1      57.657 -45.503 -15.143  1.00  0.00     0.157 HD
HETATM   18  N2  UNL     1      60.093 -46.858 -16.786  1.00  0.00    -0.079 NA
ENDBRANCH   1  14
BRANCH   4  19
HETATM   19  N4  UNL     1      61.969 -42.003 -16.830  1.00  0.00    -0.383 N
ATOM     20  H42 UNL     1      61.999 -42.224 -17.825  1.00  0.00     0.157 HD
ATOM     21  H41 UNL     1      62.494 -41.183 -16.525  1.00  0.00     0.157 HD
ENDBRANCH   4  19
BRANCH  10  22
HETATM   22  C6  UNL     1      59.747 -43.083 -11.433  1.00  0.00     0.235 C
BRANCH  22  23
HETATM   23  C7  UNL     1      60.644 -44.008 -10.678  1.00  0.00     0.249 C
HETATM   24  N7  UNL     1      60.790 -45.337 -11.129  1.00  0.00    -0.061 NA
HETATM   25  O2  UNL     1      61.229 -43.558  -9.671  1.00  0.00    -0.275 OA
ENDBRANCH  22  23
ENDBRANCH  10  22
TORSDOF 4
ENDMDL