MODEL 2
REMARK VINA RESULT: -5.185330716      1.340      2.168
REMARK  6 active torsions:
REMARK  status: ('A' for Active; 'I' for Inactive)
REMARK    1  A    between atoms: N1_1  and  N2_4
REMARK    2  A    between atoms: N2_4  and  N3_5
REMARK    3  A    between atoms: N2_4  and  N4_8
REMARK       I    between atoms: N4_8  and  C1_10
REMARK       I    between atoms: C1_10  and  N6_12
REMARK    4  A    between atoms: N6_12  and  N7_14
REMARK    5  A    between atoms: N7_14  and  C2_16
REMARK    6  A    between atoms: C2_16  and  C3_17
ROOT
HETATM    1  N7  UNL     1      57.514 -54.835  -4.347  1.00  0.00    -0.306 N
ATOM      2  H7  UNL     1      57.755 -55.639  -3.767  1.00  0.00     0.186 HD
ENDROOT
BRANCH   1   3
HETATM    3  N6  UNL     1      57.432 -53.688  -3.664  1.00  0.00    -0.273 N
HETATM    4  C1  UNL     1      58.417 -52.937  -3.277  1.00  0.00     0.224 C
HETATM    5  N4  UNL     1      58.045 -51.755  -2.557  1.00  0.00    -0.236 N
HETATM    6  N5  UNL     1      59.771 -53.230  -3.530  1.00  0.00    -0.061 NA
ATOM      7  H4  UNL     1      58.096 -50.832  -2.987  1.00  0.00     0.193 HD
ATOM      8  H6  UNL     1      56.494 -53.370  -3.422  1.00  0.00     0.189 HD
BRANCH   5   9
HETATM    9  N2  UNL     1      57.613 -51.922  -1.246  1.00  0.00    -0.142 N
BRANCH   9  10
HETATM   10  N1  UNL     1      56.721 -51.205  -0.744  1.00  0.00    -0.309 N
ATOM     11  H12 UNL     1      55.867 -51.598  -0.350  1.00  0.00     0.180 HD
ATOM     12  H11 UNL     1      56.846 -50.193  -0.725  1.00  0.00     0.180 HD
ENDBRANCH   9  10
BRANCH   9  13
HETATM   13  N3  UNL     1      58.200 -52.928  -0.471  1.00  0.00    -0.309 N
ATOM     14  H32 UNL     1      57.619 -53.708  -0.163  1.00  0.00     0.180 HD
ATOM     15  H31 UNL     1      59.189 -52.861  -0.232  1.00  0.00     0.180 HD
ENDBRANCH   9  13
ENDBRANCH   5   9
ENDBRANCH   1   3
BRANCH   1  16
HETATM   16  C2  UNL     1      57.358 -55.117  -5.546  1.00  0.00     0.155 C
BRANCH  16  17
HETATM   17  C3  UNL     1      57.982 -54.518  -6.728  1.00  0.00     0.126 A
HETATM   18  N8  UNL     1      59.343 -54.375  -6.758  1.00  0.00    -0.325 N
HETATM   19  C4  UNL     1      60.026 -53.853  -7.759  1.00  0.00     0.140 A
ATOM     20  H8  UNL     1      59.869 -54.696  -5.945  1.00  0.00     0.169 HD
HETATM   21  N9  UNL     1      61.337 -53.608  -8.021  1.00  0.00    -0.337 N
HETATM   22  C6  UNL     1      59.345 -53.410  -8.870  1.00  0.00     0.146 A
HETATM   23  C5  UNL     1      61.478 -53.044  -9.228  1.00  0.00     0.182 A
ATOM     24  H9  UNL     1      62.107 -53.824  -7.388  1.00  0.00     0.168 HD
HETATM   25  N10 UNL     1      60.248 -52.925  -9.745  1.00  0.00    -0.345 N
ATOM     26  H10 UNL     1      60.029 -52.529 -10.659  1.00  0.00     0.167 HD
HETATM   27  C7  UNL     1      57.972 -53.541  -8.871  1.00  0.00     0.277 A
HETATM   28  O1  UNL     1      57.331 -53.147  -9.869  1.00  0.00    -0.265 OA
HETATM   29  N11 UNL     1      57.321 -54.092  -7.800  1.00  0.00    -0.306 N
ATOM     30  H11 UNL     1      56.305 -54.177  -7.825  1.00  0.00     0.170 HD
ENDBRANCH  16  17
ENDBRANCH   1  16
TORSDOF 6
ENDMDL