MODEL 4
REMARK VINA RESULT: -4.388078132      1.370      2.851
REMARK  4 active torsions:
REMARK  status: ('A' for Active; 'I' for Inactive)
REMARK    1  A    between atoms: C1_2  and  C2_4
REMARK    2  A    between atoms: C5_13  and  N3_14
REMARK    3  A    between atoms: N3_14  and  N4_16
REMARK    4  A    between atoms: N4_16  and  C6_18
ROOT
HETATM    1  C2  UNL     1      61.142 -44.572 -13.908  1.00  0.00     0.147 A
HETATM    2  N1  UNL     1      60.693 -44.079 -15.073  1.00  0.00    -0.301 N
ATOM      3  H1  UNL     1      60.707 -44.641 -15.924  1.00  0.00     0.171 HD
HETATM    4  C3  UNL     1      60.226 -42.818 -15.079  1.00  0.00     0.327 A
HETATM    5  O3  UNL     1      59.794 -42.306 -16.146  1.00  0.00    -0.247 OA
HETATM    6  N2  UNL     1      60.193 -42.046 -13.964  1.00  0.00    -0.273 N
ATOM      7  H2  UNL     1      59.829 -41.095 -14.013  1.00  0.00     0.173 HD
HETATM    8  C4  UNL     1      60.640 -42.535 -12.797  1.00  0.00     0.280 A
HETATM    9  O4  UNL     1      60.623 -41.845 -11.744  1.00  0.00    -0.265 OA
HETATM   10  C5  UNL     1      61.123 -43.816 -12.756  1.00  0.00     0.150 A
ENDROOT
BRANCH  10  11
HETATM   11  N3  UNL     1      61.593 -44.320 -11.498  1.00  0.00    -0.291 N
ATOM     12  H3  UNL     1      62.594 -44.351 -11.309  1.00  0.00     0.187 HD
BRANCH  11  13
HETATM   13  N4  UNL     1      60.694 -44.770 -10.529  1.00  0.00    -0.271 N
ATOM     14  H4  UNL     1      59.753 -44.378 -10.494  1.00  0.00     0.190 HD
BRANCH  13  15
HETATM   15  C6  UNL     1      61.075 -45.766  -9.593  1.00  0.00     0.190 C
HETATM   16  N5  UNL     1      61.377 -45.582  -8.352  1.00  0.00    -0.360 N
HETATM   17  C7  UNL     1      61.717 -46.825  -7.697  1.00  0.00     0.142 C
ATOM     18  H5  UNL     1      61.376 -44.672  -7.891  1.00  0.00     0.162 HD
HETATM   19  C8  UNL     1      61.113 -47.853  -8.633  1.00  0.00     0.142 C
HETATM   20  N6  UNL     1      61.179 -47.159  -9.905  1.00  0.00    -0.360 N
ATOM     21  H6  UNL     1      61.279 -47.577 -10.830  1.00  0.00     0.162 HD
ENDBRANCH  13  15
ENDBRANCH  11  13
ENDBRANCH  10  11
BRANCH   1  22
HETATM   22  C1  UNL     1      61.657 -45.920 -13.856  1.00  0.00     0.229 C
HETATM   23  O1  UNL     1      62.577 -46.343 -14.601  1.00  0.00    -0.643 OA
HETATM   24  O2  UNL     1      61.133 -46.826 -12.950  1.00  0.00    -0.643 OA
ENDBRANCH   1  22
TORSDOF 4
ENDMDL