MODEL 1
REMARK VINA RESULT: -4.714612640      0.000      0.000
REMARK  6 active torsions:
REMARK  status: ('A' for Active; 'I' for Inactive)
REMARK    1  A    between atoms: C1_2  and  C2_4
REMARK    2  A    between atoms: C4_10  and  N4_11
REMARK    3  A    between atoms: N4_11  and  C5_13
REMARK    4  A    between atoms: C5_13  and  N5_14
REMARK    5  A    between atoms: C5_13  and  C6_18
REMARK    6  A    between atoms: C6_18  and  O2_19
ROOT
HETATM    1  C2  UNL     1      58.175 -52.822 -10.115  1.00  0.00     0.142 A
HETATM    2  N2  UNL     1      57.388 -51.756 -10.271  1.00  0.00    -0.293 N
ATOM      3  H2  UNL     1      56.386 -51.784 -10.465  1.00  0.00     0.187 HD
HETATM    4  N3  UNL     1      58.113 -50.657 -10.135  1.00  0.00    -0.294 N
ATOM      5  H3  UNL     1      57.754 -49.705 -10.208  1.00  0.00     0.187 HD
HETATM    6  C3  UNL     1      59.385 -50.981  -9.888  1.00  0.00     0.121 A
HETATM    7  C4  UNL     1      60.554 -50.248  -9.665  1.00  0.00     0.134 A
HETATM    8  N7  UNL     1      61.690 -50.923  -9.442  1.00  0.00    -0.337 N
ATOM      9  H7  UNL     1      62.553 -50.405  -9.276  1.00  0.00     0.168 HD
HETATM   10  C8  UNL     1      61.720 -52.268  -9.432  1.00  0.00     0.182 A
HETATM   11  N8  UNL     1      60.606 -52.985  -9.645  1.00  0.00    -0.348 N
ATOM     12  H8  UNL     1      60.636 -54.004  -9.635  1.00  0.00     0.167 HD
HETATM   13  C9  UNL     1      59.460 -52.344  -9.869  1.00  0.00     0.099 A
ENDROOT
BRANCH   7  14
HETATM   14  N4  UNL     1      60.454 -49.005  -9.688  1.00  0.00    -0.343 N
ATOM     15  H4  UNL     1      59.609 -48.702 -10.173  1.00  0.00     0.163 HD
BRANCH  14  16
HETATM   16  C5  UNL     1      61.204 -47.917  -9.222  1.00  0.00     0.348 C
BRANCH  16  17
HETATM   17  N5  UNL     1      60.475 -47.037  -8.349  1.00  0.00    -0.053 N
ATOM     18  H53 UNL     1      59.912 -46.381  -8.890  1.00  0.00     0.277 HD
ATOM     19  H52 UNL     1      59.732 -47.545  -7.867  1.00  0.00     0.277 HD
ATOM     20  H51 UNL     1      61.061 -46.540  -7.679  1.00  0.00     0.277 HD
ENDBRANCH  16  17
BRANCH  16  21
HETATM   21  C6  UNL     1      61.897 -47.204 -10.364  1.00  0.00     0.294 A
HETATM   22  C7  UNL     1      63.401 -47.418 -10.513  1.00  0.00     0.308 A
HETATM   23  N6  UNL     1      62.827 -46.152 -10.085  1.00  0.00    -0.033 N
ATOM     24  H62 UNL     1      62.918 -45.197 -10.431  1.00  0.00     0.281 HD
ATOM     25  H61 UNL     1      62.981 -45.562  -9.267  1.00  0.00     0.281 HD
BRANCH  21  26
HETATM   26  O2  UNL     1      61.180 -47.183 -11.562  1.00  0.00    -0.361 OA
ATOM     27  H2  UNL     1      61.301 -46.399 -12.084  1.00  0.00     0.212 HD
ENDBRANCH  21  26
ENDBRANCH  16  21
ENDBRANCH  14  16
ENDBRANCH   7  14
BRANCH   1  28
HETATM   28  C1  UNL     1      57.810 -54.233 -10.180  1.00  0.00     0.285 C
HETATM   29  N1  UNL     1      57.847 -54.943 -11.399  1.00  0.00    -0.056 NA
HETATM   30  O1  UNL     1      57.452 -54.840  -9.140  1.00  0.00    -0.269 OA
ENDBRANCH   1  28
TORSDOF 6
ENDMDL