MODEL 5
REMARK VINA RESULT: -4.266452398      2.227      5.335
REMARK  5 active torsions:
REMARK  status: ('A' for Active; 'I' for Inactive)
REMARK    1  A    between atoms: N1_1  and  N2_4
REMARK    2  A    between atoms: C1_6  and  C2_7
REMARK    3  A    between atoms: C1_6  and  C7_22
REMARK    4  A    between atoms: C7_22  and  N7_23
REMARK    5  A    between atoms: C7_22  and  C8_27
ROOT
HETATM    1  C2  UNL     1      60.905 -43.793 -15.193  1.00  0.00     0.094 A
HETATM    2  N3  UNL     1      61.810 -43.359 -16.143  1.00  0.00    -0.296 N
ATOM      3  H3  UNL     1      62.010 -43.837 -17.022  1.00  0.00     0.187 HD
HETATM    4  N4  UNL     1      62.372 -42.249 -15.752  1.00  0.00    -0.284 N
ATOM      5  H4  UNL     1      63.075 -41.722 -16.269  1.00  0.00     0.188 HD
HETATM    6  C3  UNL     1      61.867 -41.917 -14.552  1.00  0.00     0.142 A
HETATM    7  N5  UNL     1      62.068 -40.900 -13.691  1.00  0.00    -0.292 N
ATOM      8  H5  UNL     1      62.747 -40.183 -13.950  1.00  0.00     0.172 HD
HETATM    9  C4  UNL     1      61.431 -40.768 -12.513  1.00  0.00     0.328 A
HETATM   10  O1  UNL     1      61.658 -39.796 -11.745  1.00  0.00    -0.247 OA
HETATM   11  N6  UNL     1      60.525 -41.679 -12.119  1.00  0.00    -0.275 N
ATOM     12  H6  UNL     1      60.032 -41.594 -11.230  1.00  0.00     0.173 HD
HETATM   13  C5  UNL     1      60.295 -42.720 -12.963  1.00  0.00     0.265 A
HETATM   14  O2  UNL     1      59.446 -43.547 -12.560  1.00  0.00    -0.267 OA
HETATM   15  C6  UNL     1      60.935 -42.876 -14.171  1.00  0.00     0.107 A
ENDROOT
BRANCH   1  16
HETATM   16  C1  UNL     1      60.106 -44.990 -15.304  1.00  0.00     0.095 C
HETATM   17  N2  UNL     1      58.870 -45.033 -15.491  1.00  0.00    -0.306 N
ATOM     18  H2  UNL     1      58.391 -44.136 -15.571  1.00  0.00     0.186 HD
BRANCH  17  19
HETATM   19  N1  UNL     1      58.083 -46.160 -15.601  1.00  0.00    -0.345 N
ATOM     20  H12 UNL     1      57.151 -46.004 -15.985  1.00  0.00     0.176 HD
ATOM     21  H11 UNL     1      58.334 -47.114 -15.343  1.00  0.00     0.176 HD
ENDBRANCH  17  19
BRANCH  16  22
HETATM   22  C7  UNL     1      60.841 -46.300 -15.179  1.00  0.00     0.336 C
BRANCH  22  23
HETATM   23  N7  UNL     1      61.615 -46.571 -16.356  1.00  0.00    -0.059 N
ATOM     24  H73 UNL     1      62.531 -46.122 -16.316  1.00  0.00     0.275 HD
ATOM     25  H72 UNL     1      61.921 -47.544 -16.390  1.00  0.00     0.275 HD
ATOM     26  H71 UNL     1      61.104 -46.310 -17.199  1.00  0.00     0.275 HD
ENDBRANCH  22  23
BRANCH  22  27
HETATM   27  C8  UNL     1      61.684 -46.315 -13.958  1.00  0.00     0.211 C
HETATM   28  O3  UNL     1      61.206 -46.380 -12.799  1.00  0.00    -0.646 OA
HETATM   29  O4  UNL     1      63.066 -46.254 -14.057  1.00  0.00    -0.646 OA
ENDBRANCH  22  27
ENDBRANCH  16  22
ENDBRANCH   1  16
TORSDOF 5
ENDMDL