MODEL 5
REMARK VINA RESULT: -4.491121006      3.722      5.887
REMARK  4 active torsions:
REMARK  status: ('A' for Active; 'I' for Inactive)
REMARK    1  A    between atoms: N1_1  and  C1_4
REMARK    2  A    between atoms: C3_8  and  C4_9
REMARK    3  A    between atoms: C5_10  and  N3_11
REMARK    4  A    between atoms: C6_18  and  N7_19
REMARK       I    between atoms: N7_19  and  C7_21
REMARK       I    between atoms: C7_21  and  N8_22
REMARK       I    between atoms: C7_21  and  N9_26
ROOT
HETATM    1  N3  UNL     1      61.519 -48.081  -9.741  1.00  0.00    -0.081 N
HETATM    2  N4  UNL     1      60.751 -47.383  -8.921  1.00  0.00    -0.207 N
ATOM      3  H4  UNL     1      60.378 -47.736  -8.039  1.00  0.00     0.211 HD
HETATM    4  N5  UNL     1      60.533 -46.185  -9.386  1.00  0.00    -0.213 N
ATOM      5  H5  UNL     1      59.973 -45.460  -8.938  1.00  0.00     0.210 HD
HETATM    6  N6  UNL     1      61.163 -46.075 -10.536  1.00  0.00    -0.115 N
ATOM      7  H6  UNL     1      61.174 -45.247 -11.132  1.00  0.00     0.207 HD
HETATM    8  C6  UNL     1      61.788 -47.230 -10.794  1.00  0.00     0.719 A
ENDROOT
BRANCH   1   9
HETATM    9  C5  UNL     1      62.011 -49.399  -9.683  1.00  0.00     0.138 C
HETATM   10  C4  UNL     1      61.551 -50.577  -9.699  1.00  0.00     0.038 C
BRANCH  10  11
HETATM   11  C3  UNL     1      60.259 -51.152  -9.800  1.00  0.00     0.050 A
HETATM   12  C2  UNL     1      59.221 -50.637 -10.503  1.00  0.00     0.123 A
HETATM   13  N2  UNL     1      57.980 -51.207 -10.464  1.00  0.00    -0.201 N
HETATM   14  C1  UNL     1      57.692 -52.298  -9.747  1.00  0.00     0.678 A
ATOM     15  H2  UNL     1      57.234 -50.777 -11.010  1.00  0.00     0.183 HD
HETATM   16  N10 UNL     1      58.712 -52.823  -9.047  1.00  0.00    -0.156 N
HETATM   17  C8  UNL     1      59.936 -52.308  -9.047  1.00  0.00     0.271 A
ATOM     18  H10 UNL     1      58.537 -53.658  -8.487  1.00  0.00     0.187 HD
HETATM   19  O1  UNL     1      60.871 -52.824  -8.379  1.00  0.00    -0.267 OA
BRANCH  14  20
HETATM   20  N1  UNL     1      56.506 -52.798  -9.742  1.00  0.00    -0.234 N
ATOM     21  H12 UNL     1      56.022 -53.093 -10.590  1.00  0.00     0.174 HD
ATOM     22  H11 UNL     1      55.990 -52.923  -8.871  1.00  0.00     0.174 HD
ENDBRANCH  14  20
ENDBRANCH  10  11
ENDBRANCH   1   9
BRANCH   8  23
HETATM   23  N7  UNL     1      62.511 -47.524 -11.824  1.00  0.00    -0.170 N
HETATM   24  C7  UNL     1      61.946 -47.665 -13.143  1.00  0.00     0.494 C
HETATM   25  N8  UNL     1      61.370 -46.410 -13.535  1.00  0.00    -0.032 N
HETATM   26  N9  UNL     1      61.002 -48.712 -13.164  1.00  0.00    -0.032 N
ATOM     27  H83 UNL     1      60.692 -46.063 -12.855  1.00  0.00     0.278 HD
ATOM     28  H82 UNL     1      62.036 -45.640 -13.475  1.00  0.00     0.278 HD
ATOM     29  H81 UNL     1      60.971 -46.509 -14.467  1.00  0.00     0.278 HD
ATOM     30  H93 UNL     1      61.398 -49.588 -12.825  1.00  0.00     0.278 HD
ATOM     31  H92 UNL     1      60.281 -48.587 -12.454  1.00  0.00     0.278 HD
ATOM     32  H91 UNL     1      60.603 -48.811 -14.097  1.00  0.00     0.278 HD
ATOM     33  H7  UNL     1      63.514 -47.661 -11.700  1.00  0.00     0.181 HD
ENDBRANCH   8  23
TORSDOF 4
ENDMDL