MODEL 1
REMARK VINA RESULT: -7.423670705      0.000      0.000
REMARK  4 active torsions:
REMARK  status: ('A' for Active; 'I' for Inactive)
REMARK    1  A    between atoms: C8_9  and  O2_10
REMARK    2  A    between atoms: C9_12  and  C10_13
REMARK    3  A    between atoms: C10_13  and  C11_14
REMARK    4  A    between atoms: C11_14  and  O3_15
ROOT
HETATM    1  C1  UNL     1      18.789  -5.939  53.392  1.00  0.00     0.049 C
HETATM    2  C2  UNL     1      17.492  -5.632  54.061  1.00  0.00    -0.053 A
HETATM    3  C3  UNL     1      17.050  -6.487  55.057  1.00  0.00     0.008 A
HETATM    4  C4  UNL     1      15.861  -6.276  55.727  1.00  0.00     0.018 A
HETATM    5  C5  UNL     1      15.105  -5.180  55.383  1.00  0.00     0.035 A
HETATM    6  C6  UNL     1      15.533  -4.313  54.387  1.00  0.00     0.096 A
HETATM    7  O1  UNL     1      14.610  -3.373  54.286  1.00  0.00    -0.303 OA
HETATM    8  C7  UNL     1      13.630  -3.578  55.143  1.00  0.00     0.144 A
HETATM    9  C8  UNL     1      12.456  -2.891  55.422  1.00  0.00     0.115 A
HETATM   10  C9  UNL     1      11.615  -3.369  56.398  1.00  0.00     0.055 A
HETATM   11  C12 UNL     1      11.949  -4.516  57.080  1.00  0.00     0.297 A
HETATM   12  O4  UNL     1      11.147  -4.917  57.966  1.00  0.00    -0.259 OA
HETATM   13  O5  UNL     1      13.079  -5.168  56.803  1.00  0.00    -0.271 OA
HETATM   14  C13 UNL     1      13.884  -4.716  55.874  1.00  0.00     0.129 A
HETATM   15  C14 UNL     1      16.728  -4.538  53.724  1.00  0.00    -0.021 A
HETATM   16  C15 UNL     1      17.182  -3.608  52.659  1.00  0.00     0.052 C
ENDROOT
BRANCH  10  17
HETATM   17  C10 UNL     1      10.359  -2.658  56.719  1.00  0.00     0.074 C
BRANCH  17  18
HETATM   18  C11 UNL     1       9.352  -2.751  55.588  1.00  0.00     0.169 C
BRANCH  18  19
HETATM   19  O3  UNL     1       9.104  -1.503  55.025  1.00  0.00    -0.401 OA
ATOM     20  H3  UNL     1       8.333  -1.519  54.472  1.00  0.00     0.209 HD
ENDBRANCH  18  19
ENDBRANCH  17  18
ENDBRANCH  10  17
BRANCH   9  21
HETATM   21  O2  UNL     1      12.152  -1.742  54.717  1.00  0.00    -0.357 OA
ATOM     22  H2  UNL     1      11.447  -1.180  55.015  1.00  0.00     0.217 HD
ENDBRANCH   9  21
TORSDOF 4
ENDMDL