MODEL 1
REMARK VINA RESULT: -4.576742566      0.000      0.000
REMARK  6 active torsions:
REMARK  status: ('A' for Active; 'I' for Inactive)
REMARK    1  A    between atoms: C2_2  and  C3_3
REMARK    2  A    between atoms: C3_3  and  O1_5
REMARK    3  A    between atoms: C3_3  and  C5_7
REMARK    4  A    between atoms: C5_7  and  C6_8
REMARK    5  A    between atoms: C6_8  and  N1_9
REMARK    6  A    between atoms: C8_15  and  O3_17
ROOT
HETATM    1  C5  UNL     1       8.368  -1.075  56.760  1.00  0.00     0.222 C
HETATM    2  O2  UNL     1       8.907  -1.921  57.698  1.00  0.00    -0.346 OA
HETATM    3  C7  UNL     1       9.984  -2.572  57.090  1.00  0.00     0.239 C
HETATM    4  C8  UNL     1       9.994  -2.152  55.661  1.00  0.00     0.185 C
HETATM    5  C9  UNL     1      10.020  -3.372  54.765  1.00  0.00     0.081 C
HETATM    6  O4  UNL     1       8.793  -1.505  55.502  1.00  0.00    -0.312 OA
ENDROOT
BRANCH   1   7
HETATM    7  C3  UNL     1       6.869  -1.199  56.776  1.00  0.00     0.112 C
HETATM    8  C4  UNL     1       6.382  -0.476  58.023  1.00  0.00     0.051 C
BRANCH   7   9
HETATM    9  C2  UNL     1       6.393  -2.618  56.869  1.00  0.00     0.039 C
HETATM   10  C1  UNL     1       4.966  -2.572  57.416  1.00  0.00     0.008 C
ENDBRANCH   7   9
BRANCH   7  11
HETATM   11  O1  UNL     1       6.266  -0.551  55.694  1.00  0.00    -0.385 OA
ATOM     12  H1  UNL     1       6.921  -0.281  55.061  1.00  0.00     0.210 HD
ENDBRANCH   7  11
ENDBRANCH   1   7
BRANCH   1  13
HETATM   13  C6  UNL     1       8.863   0.324  56.951  1.00  0.00     0.301 C
BRANCH  13  14
HETATM   14  N1  UNL     1       8.900   1.107  55.749  1.00  0.00    -0.074 N
ATOM     15  H13 UNL     1       9.067   0.509  54.940  1.00  0.00     0.274 HD
ATOM     16  H12 UNL     1       7.968   1.454  55.521  1.00  0.00     0.274 HD
ATOM     17  H11 UNL     1       9.572   1.875  55.768  1.00  0.00     0.274 HD
ENDBRANCH  13  14
ENDBRANCH   1  13
BRANCH   4  18
HETATM   18  O3  UNL     1      11.012  -1.305  55.308  1.00  0.00    -0.358 OA
HETATM   19  C10 UNL     1      12.272  -1.827  55.475  1.00  0.00     0.205 C
ENDBRANCH   4  18
TORSDOF 6
ENDMDL