MODEL 4
REMARK VINA RESULT: -5.073034068      1.564      2.312
REMARK  7 active torsions:
REMARK  status: ('A' for Active; 'I' for Inactive)
REMARK    1  A    between atoms: C2_2  and  O1_3
REMARK    2  A    between atoms: O1_3  and  C3_4
REMARK    3  A    between atoms: C3_4  and  C4_6
REMARK    4  A    between atoms: C4_6  and  O3_8
REMARK    5  A    between atoms: C4_6  and  C6_10
REMARK    6  A    between atoms: C6_10  and  C7_11
REMARK    7  A    between atoms: C9_13  and  N1_14
ROOT
HETATM    1  C6  UNL     1      13.072  -3.032  55.305  1.00  0.00     0.080 C
ENDROOT
BRANCH   1   2
HETATM    2  C4  UNL     1      11.727  -3.287  55.876  1.00  0.00     0.144 C
HETATM    3  C5  UNL     1      11.816  -3.247  57.410  1.00  0.00     0.057 C
BRANCH   2   4
HETATM    4  C3  UNL     1      10.787  -2.195  55.503  1.00  0.00     0.293 C
HETATM    5  O2  UNL     1      11.214  -1.016  55.585  1.00  0.00    -0.262 OA
BRANCH   4   6
HETATM    6  O1  UNL     1       9.495  -2.396  55.078  1.00  0.00    -0.320 OA
BRANCH   6   7
HETATM    7  C2  UNL     1       8.399  -1.593  55.485  1.00  0.00     0.174 C
HETATM    8  C1  UNL     1       7.876  -2.169  56.780  1.00  0.00     0.034 C
ENDBRANCH   6   7
ENDBRANCH   4   6
ENDBRANCH   2   4
BRANCH   2   9
HETATM    9  O3  UNL     1      11.144  -4.473  55.551  1.00  0.00    -0.380 OA
ATOM     10  H3  UNL     1      11.552  -5.154  56.073  1.00  0.00     0.211 HD
ENDBRANCH   2   9
ENDBRANCH   1   2
BRANCH   1  11
HETATM   11  C7  UNL     1      14.141  -3.993  55.583  1.00  0.00     0.126 C
HETATM   12  C8  UNL     1      15.240  -4.136  54.595  1.00  0.00     0.067 C
HETATM   13  C9  UNL     1      16.003  -5.260  55.314  1.00  0.00     0.209 C
HETATM   14  C10 UNL     1      14.811  -6.125  55.681  1.00  0.00     0.201 C
HETATM   15  O4  UNL     1      13.703  -5.318  55.706  1.00  0.00    -0.384 OA
BRANCH  13  16
HETATM   16  N1  UNL     1      16.882  -5.954  54.425  1.00  0.00    -0.073 N
ATOM     17  H13 UNL     1      16.866  -6.959  54.596  1.00  0.00     0.274 HD
ATOM     18  H12 UNL     1      16.524  -5.949  53.470  1.00  0.00     0.274 HD
ATOM     19  H11 UNL     1      17.831  -5.584  54.469  1.00  0.00     0.274 HD
ENDBRANCH  13  16
ENDBRANCH   1  11
TORSDOF 7
ENDMDL