MODEL 2
REMARK VINA RESULT: -4.751540722      1.051      1.193
REMARK  7 active torsions:
REMARK  status: ('A' for Active; 'I' for Inactive)
REMARK    1  A    between atoms: C5_6  and  C6_7
REMARK    2  A    between atoms: C6_7  and  O2_8
REMARK    3  A    between atoms: O2_8  and  C7_9
REMARK    4  A    between atoms: C7_9  and  C8_10
REMARK    5  A    between atoms: C8_10  and  O3_12
REMARK    6  A    between atoms: C8_10  and  C10_14
REMARK    7  A    between atoms: C10_14  and  N1_15
ROOT
HETATM    1  C7  UNL     1      12.116  -2.395  55.156  1.00  0.00     0.206 C
ENDROOT
BRANCH   1   2
HETATM    2  O2  UNL     1      12.912  -3.432  55.452  1.00  0.00    -0.386 OA
BRANCH   2   3
HETATM    3  C6  UNL     1      14.240  -3.228  55.425  1.00  0.00     0.201 C
BRANCH   3   4
HETATM    4  C5  UNL     1      14.909  -4.375  54.641  1.00  0.00     0.169 C
HETATM    5  C4  UNL     1      14.498  -5.713  55.154  1.00  0.00     0.201 C
HETATM    6  O1  UNL     1      15.410  -6.275  56.035  1.00  0.00    -0.386 OA
HETATM    7  C3  UNL     1      16.694  -6.314  55.560  1.00  0.00     0.199 C
HETATM    8  C2  UNL     1      16.814  -5.475  54.316  1.00  0.00     0.141 C
HETATM    9  C1  UNL     1      18.196  -5.392  53.769  1.00  0.00     0.042 C
HETATM   10  O4  UNL     1      16.295  -4.210  54.627  1.00  0.00    -0.375 OA
ENDBRANCH   3   4
ENDBRANCH   2   3
ENDBRANCH   1   2
BRANCH   1  11
HETATM   11  C8  UNL     1      10.684  -2.578  55.530  1.00  0.00     0.099 C
HETATM   12  C9  UNL     1      10.649  -3.232  56.913  1.00  0.00     0.050 C
BRANCH  11  13
HETATM   13  O3  UNL     1      10.036  -3.423  54.657  1.00  0.00    -0.386 OA
ATOM     14  H3  UNL     1      10.333  -3.299  53.763  1.00  0.00     0.210 HD
ENDBRANCH  11  13
BRANCH  11  15
HETATM   15  C10 UNL     1       9.975  -1.222  55.599  1.00  0.00     0.269 C
BRANCH  15  16
HETATM   16  N1  UNL     1       8.626  -1.316  55.108  1.00  0.00    -0.076 N
ATOM     17  H13 UNL     1       8.430  -2.242  54.726  1.00  0.00     0.274 HD
ATOM     18  H12 UNL     1       7.948  -1.314  55.870  1.00  0.00     0.274 HD
ATOM     19  H11 UNL     1       8.429  -0.581  54.428  1.00  0.00     0.274 HD
ENDBRANCH  15  16
ENDBRANCH  11  15
ENDBRANCH   1  11
TORSDOF 7
ENDMDL