MODEL 2
REMARK VINA RESULT: -4.762555066      2.607      5.308
REMARK  6 active torsions:
REMARK  status: ('A' for Active; 'I' for Inactive)
REMARK    1  A    between atoms: C2_2  and  C3_3
REMARK    2  A    between atoms: C3_3  and  N1_4
REMARK    3  A    between atoms: C3_3  and  C4_8
REMARK    4  A    between atoms: C4_8  and  C5_9
REMARK    5  A    between atoms: C5_9  and  O1_10
REMARK    6  A    between atoms: C5_9  and  C6_12
ROOT
HETATM    1  C5  UNL     1      10.325  -2.583  55.605  1.00  0.00     0.164 C
ENDROOT
BRANCH   1   2
HETATM    2  C4  UNL     1      11.777  -2.180  55.622  1.00  0.00     0.068 C
BRANCH   2   3
HETATM    3  C3  UNL     1      12.683  -3.242  56.173  1.00  0.00     0.185 C
BRANCH   3   4
HETATM    4  C2  UNL     1      13.892  -3.309  55.234  1.00  0.00     0.028 C
HETATM    5  C1  UNL     1      14.635  -4.601  55.362  1.00  0.00     0.007 C
ENDBRANCH   3   4
BRANCH   3   6
HETATM    6  N1  UNL     1      12.073  -4.531  56.297  1.00  0.00    -0.075 N
ATOM      7  H13 UNL     1      12.196  -4.921  57.231  1.00  0.00     0.274 HD
ATOM      8  H12 UNL     1      11.055  -4.472  56.290  1.00  0.00     0.274 HD
ATOM      9  H11 UNL     1      12.422  -5.161  55.575  1.00  0.00     0.274 HD
ENDBRANCH   3   6
ENDBRANCH   2   3
ENDBRANCH   1   2
BRANCH   1  10
HETATM   10  O1  UNL     1      10.047  -3.141  54.361  1.00  0.00    -0.392 OA
ATOM     11  H1  UNL     1      10.366  -2.546  53.693  1.00  0.00     0.210 HD
ENDBRANCH   1  10
BRANCH   1  12
HETATM   12  C6  UNL     1       9.475  -1.356  55.773  1.00  0.00     0.170 C
HETATM   13  C7  UNL     1       8.482  -1.251  54.667  1.00  0.00     0.060 C
HETATM   14  O2  UNL     1      10.335  -0.265  55.841  1.00  0.00    -0.365 OA
HETATM   15  C8  UNL     1       9.716   0.945  55.979  1.00  0.00     0.196 C
HETATM   16  C9  UNL     1       8.364   0.940  56.595  1.00  0.00     0.205 C
HETATM   17  O3  UNL     1       8.096  -0.181  57.414  1.00  0.00    -0.317 OA
HETATM   18  C10 UNL     1       8.732  -1.364  57.066  1.00  0.00     0.296 C
HETATM   19  O4  UNL     1       8.711  -2.409  57.765  1.00  0.00    -0.262 OA
ENDBRANCH   1  12
TORSDOF 6
ENDMDL