MODEL 4
REMARK VINA RESULT: -4.162622326      2.921      5.545
REMARK  7 active torsions:
REMARK  status: ('A' for Active; 'I' for Inactive)
REMARK    1  A    between atoms: O1_2  and  C2_3
REMARK    2  A    between atoms: C2_3  and  C3_4
REMARK    3  A    between atoms: C3_4  and  N1_5
REMARK    4  A    between atoms: N1_5  and  C4_8
REMARK    5  A    between atoms: C4_8  and  C5_9
REMARK    6  A    between atoms: C5_9  and  O2_10
REMARK    7  A    between atoms: C9_16  and  O4_17
ROOT
HETATM    1  C4  UNL     1       9.063  -0.983  55.907  1.00  0.00     0.151 C
HETATM    2  C6  UNL     1       8.674  -1.651  57.159  1.00  0.00     0.043 C
HETATM    3  C7  UNL     1       7.986  -0.797  58.176  1.00  0.00     0.029 C
HETATM    4  C8  UNL     1       6.542  -0.497  57.758  1.00  0.00     0.171 C
HETATM    5  O3  UNL     1       6.675   0.376  56.678  1.00  0.00    -0.361 OA
HETATM    6  C9  UNL     1       6.636  -0.360  55.534  1.00  0.00     0.259 C
HETATM    7  C10 UNL     1       7.899  -0.778  54.935  1.00  0.00     0.101 C
ENDROOT
BRANCH   1   8
HETATM    8  N1  UNL     1       9.947  -1.853  55.156  1.00  0.00    -0.062 N
ATOM      9  H12 UNL     1      10.499  -1.310  54.492  1.00  0.00     0.278 HD
ATOM     10  H11 UNL     1       9.410  -2.430  54.508  1.00  0.00     0.278 HD
BRANCH   8  11
HETATM   11  C3  UNL     1      10.803  -2.674  55.966  1.00  0.00     0.259 C
BRANCH  11  12
HETATM   12  C2  UNL     1      12.211  -2.378  55.501  1.00  0.00     0.194 C
BRANCH  12  13
HETATM   13  O1  UNL     1      13.047  -3.399  55.868  1.00  0.00    -0.394 OA
HETATM   14  C1  UNL     1      12.418  -4.518  56.332  1.00  0.00     0.201 C
ENDBRANCH  12  13
ENDBRANCH  11  12
ENDBRANCH   8  11
ENDBRANCH   1   8
BRANCH   1  15
HETATM   15  C5  UNL     1       9.708   0.360  56.076  1.00  0.00     0.203 C
BRANCH  15  16
HETATM   16  O2  UNL     1       9.106   1.407  55.464  1.00  0.00    -0.398 OA
ATOM     17  H2  UNL     1       9.203   2.257  55.877  1.00  0.00     0.209 HD
ENDBRANCH  15  16
ENDBRANCH   1  15
BRANCH   6  18
HETATM   18  O4  UNL     1       5.911   0.391  54.576  1.00  0.00    -0.371 OA
ATOM     19  H4  UNL     1       6.521   0.639  53.892  1.00  0.00     0.212 HD
ENDBRANCH   6  18
TORSDOF 7
ENDMDL