MODEL 2
REMARK VINA RESULT: -6.285453547      2.007      4.432
REMARK  2 active torsions:
REMARK  status: ('A' for Active; 'I' for Inactive)
REMARK    1  A    between atoms: O1_1  and  C1_3
REMARK    2  A    between atoms: C9_11  and  O2_12
ROOT
HETATM    1  C1  UNL     1      12.083  -3.961  56.083  1.00  0.00     0.066 A
HETATM    2  C2  UNL     1      13.040  -3.039  55.716  1.00  0.00     0.039 A
HETATM    3  C3  UNL     1      12.664  -1.704  55.560  1.00  0.00     0.040 A
HETATM    4  C4  UNL     1      11.383  -1.268  55.755  1.00  0.00     0.080 A
HETATM    5  C5  UNL     1      10.421  -2.207  56.125  1.00  0.00     0.011 A
HETATM    6  C6  UNL     1      10.787  -3.524  56.281  1.00  0.00     0.051 A
HETATM    7  C7  UNL     1       9.071  -1.696  56.320  1.00  0.00    -0.009 A
HETATM    8  C8  UNL     1       8.107  -2.605  56.687  1.00  0.00     0.052 A
HETATM    9  C9  UNL     1       6.801  -2.137  56.880  1.00  0.00     0.102 A
HETATM   10  C10 UNL     1       6.471  -0.812  56.716  1.00  0.00     0.136 A
HETATM   11  C11 UNL     1       7.441   0.087  56.351  1.00  0.00     0.114 A
HETATM   12  C12 UNL     1       8.734  -0.362  56.156  1.00  0.00     0.013 A
HETATM   13  C13 UNL     1       9.761   0.607  55.766  1.00  0.00     0.218 A
HETATM   14  O3  UNL     1      11.012   0.056  55.598  1.00  0.00    -0.346 OA
HETATM   15  O4  UNL     1       7.138   1.404  56.182  1.00  0.00    -0.345 OA
HETATM   16  C14 UNL     1       5.831   1.936  56.357  1.00  0.00     0.202 C
HETATM   17  C15 UNL     1       4.979   1.048  57.223  1.00  0.00     0.202 C
HETATM   18  O5  UNL     1       5.162  -0.342  56.910  1.00  0.00    -0.344 OA
ENDROOT
BRANCH   1  19
HETATM   19  O1  UNL     1      12.482  -5.280  56.233  1.00  0.00    -0.361 OA
ATOM     20  H1  UNL     1      11.954  -5.840  56.790  1.00  0.00     0.217 HD
ENDBRANCH   1  19
BRANCH   9  21
HETATM   21  O2  UNL     1       5.787  -3.015  57.252  1.00  0.00    -0.358 OA
ATOM     22  H2  UNL     1       4.916  -2.925  56.885  1.00  0.00     0.217 HD
ENDBRANCH   9  21
TORSDOF 2
ENDMDL