MODEL 4
REMARK VINA RESULT: -4.908086481      2.093      3.234
REMARK  4 active torsions:
REMARK  status: ('A' for Active; 'I' for Inactive)
REMARK    1  A    between atoms: C2_2  and  C3_3
REMARK    2  A    between atoms: C4_4  and  C5_5
REMARK    3  A    between atoms: C7_7  and  O1_8
REMARK    4  A    between atoms: C8_10  and  O2_11
ROOT
HETATM    1  C5  UNL     1       5.646   0.846  56.379  1.00  0.00     0.036 A
HETATM    2  C6  UNL     1       6.369   1.450  55.377  1.00  0.00     0.056 A
HETATM    3  C7  UNL     1       6.406   2.836  55.226  1.00  0.00     0.102 A
HETATM    4  C8  UNL     1       5.693   3.577  56.119  1.00  0.00     0.135 A
HETATM    5  C9  UNL     1       4.946   2.978  57.155  1.00  0.00     0.139 A
HETATM    6  C10 UNL     1       4.929   1.620  57.276  1.00  0.00     0.118 A
HETATM    7  O3  UNL     1       4.186   1.058  58.305  1.00  0.00    -0.345 OA
HETATM    8  C11 UNL     1       3.552   1.767  59.331  1.00  0.00     0.202 C
HETATM    9  C12 UNL     1       3.625   3.251  59.228  1.00  0.00     0.202 C
HETATM   10  O4  UNL     1       4.227   3.744  58.055  1.00  0.00    -0.343 OA
ENDROOT
BRANCH   1  11
HETATM   11  C4  UNL     1       5.554  -0.586  56.523  1.00  0.00     0.085 C
HETATM   12  C3  UNL     1       6.401  -1.357  57.155  1.00  0.00    -0.043 C
HETATM   13  C15 UNL     1       5.869  -2.765  57.023  1.00  0.00     0.069 C
HETATM   14  C13 UNL     1       4.406  -2.561  56.674  1.00  0.00     0.129 C
HETATM   15  O5  UNL     1       4.497  -1.323  55.976  1.00  0.00    -0.345 OA
HETATM   16  C14 UNL     1       3.554  -2.392  57.890  1.00  0.00     0.040 C
BRANCH  12  17
HETATM   17  C2  UNL     1       7.636  -1.020  57.869  1.00  0.00     0.033 C
HETATM   18  C1  UNL     1       8.824  -1.787  57.318  1.00  0.00     0.010 C
ENDBRANCH  12  17
ENDBRANCH   1  11
BRANCH   3  19
HETATM   19  O1  UNL     1       7.128   3.435  54.224  1.00  0.00    -0.358 OA
ATOM     20  H1  UNL     1       7.343   2.976  53.420  1.00  0.00     0.217 HD
ENDBRANCH   3  19
BRANCH   4  21
HETATM   21  O2  UNL     1       5.630   4.948  56.103  1.00  0.00    -0.356 OA
ATOM     22  H2  UNL     1       5.064   5.461  56.666  1.00  0.00     0.218 HD
ENDBRANCH   4  21
TORSDOF 4
ENDMDL