MODEL 2
REMARK VINA RESULT: -5.680596111      0.899      1.000
REMARK  6 active torsions:
REMARK  status: ('A' for Active; 'I' for Inactive)
REMARK    1  A    between atoms: C2_2  and  C3_3
REMARK    2  A    between atoms: C5_5  and  O1_6
REMARK    3  A    between atoms: O1_6  and  C6_7
REMARK    4  A    between atoms: C6_7  and  C7_8
REMARK    5  A    between atoms: C7_8  and  O2_9
REMARK    6  A    between atoms: C8_11  and  O3_12
ROOT
HETATM    1  C3  UNL     1       7.023  -1.339  56.167  1.00  0.00    -0.027 A
HETATM    2  C4  UNL     1       6.513  -0.120  56.552  1.00  0.00     0.051 A
HETATM    3  C5  UNL     1       7.177   1.080  56.379  1.00  0.00     0.103 A
HETATM    4  C8  UNL     1       8.444   0.998  55.767  1.00  0.00     0.105 A
HETATM    5  C9  UNL     1       8.977  -0.207  55.372  1.00  0.00    -0.015 A
HETATM    6  C10 UNL     1       8.287  -1.374  55.563  1.00  0.00    -0.039 A
HETATM    7  C11 UNL     1       9.075  -2.548  55.062  1.00  0.00     0.040 C
HETATM    8  C12 UNL     1      10.501  -1.973  55.159  1.00  0.00     0.009 C
HETATM    9  C13 UNL     1      10.278  -0.559  54.702  1.00  0.00     0.042 C
ENDROOT
BRANCH   3  10
HETATM   10  O1  UNL     1       6.699   2.312  56.754  1.00  0.00    -0.346 OA
BRANCH  10  11
HETATM   11  C6  UNL     1       5.724   3.080  56.197  1.00  0.00     0.201 C
BRANCH  11  12
HETATM   12  C7  UNL     1       6.129   4.170  55.253  1.00  0.00     0.190 C
BRANCH  12  13
HETATM   13  O2  UNL     1       6.476   5.347  55.963  1.00  0.00    -0.399 OA
ATOM     14  H2  UNL     1       5.778   5.990  55.912  1.00  0.00     0.209 HD
ENDBRANCH  12  13
ENDBRANCH  11  12
ENDBRANCH  10  11
ENDBRANCH   3  10
BRANCH   4  15
HETATM   15  O3  UNL     1       9.141   2.195  55.577  1.00  0.00    -0.357 OA
ATOM     16  H3  UNL     1       9.347   2.441  54.682  1.00  0.00     0.217 HD
ENDBRANCH   4  15
BRANCH   1  17
HETATM   17  C2  UNL     1       6.325  -2.601  56.351  1.00  0.00     0.002 C
HETATM   18  C1  UNL     1       5.093  -2.628  56.795  1.00  0.00     0.012 C
ENDBRANCH   1  17
TORSDOF 6
ENDMDL