MODEL 1
REMARK VINA RESULT: -6.997795446      0.000      0.000
REMARK  3 active torsions:
REMARK  status: ('A' for Active; 'I' for Inactive)
REMARK    1  A    between atoms: O1_2  and  C2_3
REMARK    2  A    between atoms: C8_9  and  C9_10
REMARK    3  A    between atoms: C12_14  and  O3_15
ROOT
HETATM    1  C2  UNL     1      12.430  -4.647  55.791  1.00  0.00     0.079 A
HETATM    2  C3  UNL     1      13.573  -5.465  55.785  1.00  0.00     0.044 A
HETATM    3  C4  UNL     1      14.717  -5.148  55.104  1.00  0.00    -0.059 A
HETATM    4  C5  UNL     1      15.908  -6.034  55.120  1.00  0.00     0.048 C
HETATM    5  C6  UNL     1      14.690  -3.966  54.412  1.00  0.00     0.008 A
HETATM    6  C7  UNL     1      13.580  -3.154  54.405  1.00  0.00     0.015 A
HETATM    7  C8  UNL     1      12.399  -3.473  55.102  1.00  0.00     0.007 A
ENDROOT
BRANCH   7   8
HETATM    8  C9  UNL     1      11.244  -2.574  54.981  1.00  0.00    -0.020 A
HETATM    9  C10 UNL     1      10.021  -2.991  54.857  1.00  0.00     0.012 A
HETATM   10  C11 UNL     1       8.803  -2.095  54.733  1.00  0.00     0.206 A
HETATM   11  O2  UNL     1       9.130  -0.750  54.820  1.00  0.00    -0.327 OA
HETATM   12  C12 UNL     1      10.409  -0.307  54.951  1.00  0.00     0.179 A
HETATM   13  C13 UNL     1      11.451  -1.119  55.032  1.00  0.00     0.075 A
BRANCH  12  14
HETATM   14  O3  UNL     1      10.636   1.085  55.003  1.00  0.00    -0.341 OA
ATOM     15  H3  UNL     1      11.185   1.479  54.335  1.00  0.00     0.220 HD
ENDBRANCH  12  14
ENDBRANCH   7   8
BRANCH   1  16
HETATM   16  O1  UNL     1      11.332  -5.074  56.526  1.00  0.00    -0.355 OA
HETATM   17  C1  UNL     1      11.134  -4.728  57.872  1.00  0.00     0.210 C
ENDBRANCH   1  16
TORSDOF 3
ENDMDL