MODEL 3
REMARK VINA RESULT: -5.657705871      5.046      7.428
REMARK  4 active torsions:
REMARK  status: ('A' for Active; 'I' for Inactive)
REMARK    1  A    between atoms: C10_11  and  C11_12
REMARK    2  A    between atoms: C11_12  and  C12_13
REMARK    3  A    between atoms: C12_13  and  O2_14
REMARK    4  A    between atoms: C13_16  and  O3_17
ROOT
HETATM    1  C1  UNL     1       4.767   0.162  54.721  1.00  0.00     0.020 C
HETATM    2  C2  UNL     1       5.942   1.007  55.080  1.00  0.00    -0.016 C
HETATM    3  C3  UNL     1       5.750   1.436  56.541  1.00  0.00     0.020 C
HETATM    4  C4  UNL     1       5.920   2.254  54.236  1.00  0.00     0.040 C
HETATM    5  C5  UNL     1       7.133   3.104  54.392  1.00  0.00     0.176 C
HETATM    6  O1  UNL     1       8.192   2.469  55.124  1.00  0.00    -0.348 OA
HETATM    7  C6  UNL     1       8.370   1.091  55.028  1.00  0.00     0.109 A
HETATM    8  C7  UNL     1       7.247   0.301  54.994  1.00  0.00    -0.014 A
HETATM    9  C8  UNL     1       7.374  -1.067  54.897  1.00  0.00     0.011 A
HETATM   10  C9  UNL     1       8.625  -1.636  54.835  1.00  0.00     0.011 A
HETATM   11  C10 UNL     1       9.780  -0.873  54.867  1.00  0.00    -0.020 A
HETATM   12  C13 UNL     1       9.630   0.505  54.963  1.00  0.00     0.105 A
ENDROOT
BRANCH  11  13
HETATM   13  C11 UNL     1      11.095  -1.519  54.842  1.00  0.00     0.067 C
BRANCH  13  14
HETATM   14  C12 UNL     1      10.962  -2.931  55.346  1.00  0.00     0.168 C
BRANCH  14  15
HETATM   15  O2  UNL     1      11.801  -3.176  56.396  1.00  0.00    -0.401 OA
ATOM     16  H2  UNL     1      12.172  -4.050  56.354  1.00  0.00     0.209 HD
ENDBRANCH  14  15
ENDBRANCH  13  14
ENDBRANCH  11  13
BRANCH  12  17
HETATM   17  O3  UNL     1      10.735   1.340  54.997  1.00  0.00    -0.357 OA
ATOM     18  H3  UNL     1      11.595   0.938  54.991  1.00  0.00     0.217 HD
ENDBRANCH  12  17
TORSDOF 4
ENDMDL