MODEL 5
REMARK VINA RESULT: -6.439610111      2.322      3.833
REMARK  4 active torsions:
REMARK  status: ('A' for Active; 'I' for Inactive)
REMARK    1  A    between atoms: O1_2  and  C2_3
REMARK    2  A    between atoms: C4_5  and  C5_6
REMARK    3  A    between atoms: C11_12  and  O2_13
REMARK    4  A    between atoms: C12_15  and  O3_16
ROOT
HETATM    1  C2  UNL     1       9.108  -0.192  55.064  1.00  0.00     0.105 A
HETATM    2  C3  UNL     1      10.246  -0.971  55.050  1.00  0.00     0.052 A
HETATM    3  C4  UNL     1      10.240  -2.295  55.434  1.00  0.00    -0.021 A
HETATM    4  C10 UNL     1       9.039  -2.836  55.842  1.00  0.00     0.052 A
HETATM    5  C11 UNL     1       7.879  -2.093  55.872  1.00  0.00     0.102 A
HETATM    6  C12 UNL     1       7.906  -0.767  55.483  1.00  0.00     0.135 A
ENDROOT
BRANCH   3   7
HETATM    7  C5  UNL     1      11.473  -3.094  55.404  1.00  0.00    -0.029 A
HETATM    8  C6  UNL     1      12.644  -2.766  54.892  1.00  0.00    -0.011 A
HETATM    9  C7  UNL     1      13.623  -3.877  55.080  1.00  0.00     0.055 A
HETATM   10  C8  UNL     1      12.825  -4.896  55.782  1.00  0.00    -0.022 A
HETATM   11  C9  UNL     1      11.622  -4.436  55.954  1.00  0.00     0.008 A
ENDBRANCH   3   7
BRANCH   1  12
HETATM   12  O1  UNL     1       9.124   1.140  54.677  1.00  0.00    -0.353 OA
HETATM   13  C1  UNL     1      10.241   1.919  55.039  1.00  0.00     0.210 C
ENDBRANCH   1  12
BRANCH   5  14
HETATM   14  O2  UNL     1       6.673  -2.674  56.293  1.00  0.00    -0.358 OA
ATOM     15  H2  UNL     1       6.634  -3.170  57.103  1.00  0.00     0.217 HD
ENDBRANCH   5  14
BRANCH   6  16
HETATM   16  O3  UNL     1       6.757   0.024  55.496  1.00  0.00    -0.351 OA
HETATM   17  C13 UNL     1       5.876   0.062  54.390  1.00  0.00     0.210 C
ENDBRANCH   6  16
TORSDOF 4
ENDMDL