MODEL 1
REMARK VINA RESULT: -6.781039368      0.000      0.000
REMARK  4 active torsions:
REMARK  status: ('A' for Active; 'I' for Inactive)
REMARK    1  A    between atoms: O1_2  and  C2_3
REMARK    2  A    between atoms: C6_7  and  O2_8
REMARK    3  A    between atoms: C11_14  and  C12_15
REMARK    4  A    between atoms: C12_15  and  O3_17
ROOT
HETATM    1  C2  UNL     1       9.888  -0.899  55.098  1.00  0.00     0.077 A
HETATM    2  C3  UNL     1      11.189  -1.228  54.790  1.00  0.00     0.049 A
HETATM    3  C4  UNL     1      11.723  -2.463  55.161  1.00  0.00    -0.021 A
HETATM    4  C5  UNL     1      13.034  -2.812  54.855  1.00  0.00     0.049 A
HETATM    5  C6  UNL     1      13.510  -4.044  55.243  1.00  0.00     0.066 A
HETATM    6  C7  UNL     1      12.696  -4.919  55.926  1.00  0.00     0.037 A
HETATM    7  C8  UNL     1      11.414  -4.577  56.225  1.00  0.00     0.015 A
HETATM    8  C9  UNL     1      10.930  -3.359  55.846  1.00  0.00    -0.025 A
HETATM    9  C10 UNL     1       9.609  -2.998  56.147  1.00  0.00     0.025 A
HETATM   10  C11 UNL     1       9.078  -1.803  55.792  1.00  0.00     0.004 A
ENDROOT
BRANCH  10  11
HETATM   11  C12 UNL     1       7.689  -1.412  56.085  1.00  0.00     0.150 C
HETATM   12  C13 UNL     1       6.872  -2.505  56.717  1.00  0.00     0.044 C
BRANCH  11  13
HETATM   13  O3  UNL     1       7.064  -1.135  54.834  1.00  0.00    -0.391 OA
ATOM     14  H3  UNL     1       6.257  -0.671  55.025  1.00  0.00     0.210 HD
ENDBRANCH  11  13
ENDBRANCH  10  11
BRANCH   1  15
HETATM   15  O1  UNL     1       9.349   0.315  54.739  1.00  0.00    -0.355 OA
HETATM   16  C1  UNL     1       9.896   1.538  55.163  1.00  0.00     0.210 C
ENDBRANCH   1  15
BRANCH   5  17
HETATM   17  O2  UNL     1      14.808  -4.399  54.940  1.00  0.00    -0.361 OA
ATOM     18  H2  UNL     1      14.970  -5.131  54.357  1.00  0.00     0.217 HD
ENDBRANCH   5  17
TORSDOF 4
ENDMDL