MODEL 4
REMARK VINA RESULT: -7.026232287      1.102      1.326
REMARK  5 active torsions:
REMARK  status: ('A' for Active; 'I' for Inactive)
REMARK    1  A    between atoms: C5_5  and  C6_6
REMARK    2  A    between atoms: C9_9  and  C10_10
REMARK    3  A    between atoms: C10_10  and  O1_11
REMARK    4  A    between atoms: C12_15  and  C13_16
REMARK    5  A    between atoms: C13_16  and  O3_17
ROOT
HETATM    1  C1  UNL     1       9.901  -3.170  56.641  1.00  0.00     0.049 C
HETATM    2  C2  UNL     1      11.234  -3.604  56.143  1.00  0.00    -0.054 A
HETATM    3  C3  UNL     1      11.722  -4.825  56.559  1.00  0.00     0.008 A
HETATM    4  C4  UNL     1      12.960  -5.216  56.091  1.00  0.00     0.015 A
HETATM    5  C5  UNL     1      13.726  -4.456  55.236  1.00  0.00    -0.002 A
HETATM    6  C11 UNL     1      13.184  -3.238  54.852  1.00  0.00     0.024 A
HETATM    7  C12 UNL     1      11.947  -2.804  55.296  1.00  0.00    -0.028 A
ENDROOT
BRANCH   5   8
HETATM    8  C6  UNL     1      15.032  -4.895  54.757  1.00  0.00     0.086 A
HETATM    9  C7  UNL     1      15.824  -5.862  55.333  1.00  0.00     0.040 A
HETATM   10  C8  UNL     1      16.963  -5.972  54.577  1.00  0.00     0.038 A
HETATM   11  C9  UNL     1      16.818  -5.053  53.555  1.00  0.00     0.077 A
HETATM   12  O2  UNL     1      15.678  -4.455  53.707  1.00  0.00    -0.312 OA
BRANCH  11  13
HETATM   13  C10 UNL     1      17.845  -4.849  52.498  1.00  0.00     0.229 C
BRANCH  13  14
HETATM   14  O1  UNL     1      18.597  -6.030  52.302  1.00  0.00    -0.394 OA
ATOM     15  H1  UNL     1      19.210  -5.920  51.584  1.00  0.00     0.209 HD
ENDBRANCH  13  14
ENDBRANCH  11  13
ENDBRANCH   5   8
BRANCH   7  16
HETATM   16  C13 UNL     1      11.366  -1.505  54.888  1.00  0.00     0.203 C
BRANCH  16  17
HETATM   17  O3  UNL     1      10.374  -1.684  53.912  1.00  0.00    -0.396 OA
ATOM     18  H3  UNL     1      10.716  -2.159  53.163  1.00  0.00     0.209 HD
ENDBRANCH  16  17
ENDBRANCH   7  16
TORSDOF 5
ENDMDL