MODEL 1
REMARK VINA RESULT: -7.961280639      0.000      0.000
REMARK  4 active torsions:
REMARK  status: ('A' for Active; 'I' for Inactive)
REMARK    1  A    between atoms: O1_2  and  C2_3
REMARK    2  A    between atoms: C2_3  and  C3_5
REMARK    3  A    between atoms: C5_7  and  C6_8
REMARK    4  A    between atoms: C13_15  and  O3_16
ROOT
HETATM    1  C3  UNL     1      10.953  -2.484  55.483  1.00  0.00     0.073 A
HETATM    2  C4  UNL     1      12.205  -2.967  55.048  1.00  0.00     0.032 A
HETATM    3  C5  UNL     1      12.783  -4.093  55.554  1.00  0.00    -0.025 A
HETATM    4  C11 UNL     1      12.080  -4.757  56.533  1.00  0.00     0.015 A
HETATM    5  C12 UNL     1      10.872  -4.353  57.001  1.00  0.00     0.038 A
HETATM    6  C13 UNL     1      10.296  -3.186  56.460  1.00  0.00     0.082 A
ENDROOT
BRANCH   3   7
HETATM    7  C6  UNL     1      14.080  -4.579  55.092  1.00  0.00    -0.030 A
HETATM    8  C7  UNL     1      14.850  -3.991  54.195  1.00  0.00    -0.011 A
HETATM    9  C8  UNL     1      16.068  -4.803  54.013  1.00  0.00     0.055 A
HETATM   10  C9  UNL     1      15.901  -5.947  54.932  1.00  0.00    -0.022 A
HETATM   11  C10 UNL     1      14.745  -5.794  55.543  1.00  0.00     0.008 A
ENDBRANCH   3   7
BRANCH   1  12
HETATM   12  C2  UNL     1      10.454  -1.262  54.848  1.00  0.00     0.295 C
HETATM   13  O2  UNL     1      11.098  -0.214  54.806  1.00  0.00    -0.259 OA
BRANCH  12  14
HETATM   14  O1  UNL     1       9.169  -1.294  54.256  1.00  0.00    -0.322 OA
HETATM   15  C1  UNL     1       8.285  -0.247  54.599  1.00  0.00     0.213 C
ENDBRANCH  12  14
ENDBRANCH   1  12
BRANCH   6  16
HETATM   16  O3  UNL     1       9.079  -2.772  56.927  1.00  0.00    -0.360 OA
ATOM     17  H3  UNL     1       8.538  -3.346  57.457  1.00  0.00     0.217 HD
ENDBRANCH   6  16
TORSDOF 4
ENDMDL