MODEL 4
REMARK VINA RESULT: -6.619189533      2.265      3.716
REMARK  4 active torsions:
REMARK  status: ('A' for Active; 'I' for Inactive)
REMARK    1  A    between atoms: C2_2  and  O1_3
REMARK    2  A    between atoms: O1_3  and  C3_4
REMARK    3  A    between atoms: C8_9  and  O2_10
REMARK    4  A    between atoms: C10_12  and  O3_13
ROOT
HETATM    1  C3  UNL     1      12.408  -3.116  55.269  1.00  0.00     0.069 A
HETATM    2  C4  UNL     1      11.990  -3.718  56.425  1.00  0.00     0.037 A
HETATM    3  C5  UNL     1      10.701  -3.570  56.952  1.00  0.00     0.015 A
HETATM    4  C6  UNL     1       9.828  -2.764  56.238  1.00  0.00    -0.023 A
HETATM    5  C7  UNL     1       8.531  -2.586  56.728  1.00  0.00     0.052 A
HETATM    6  C8  UNL     1       7.616  -1.795  56.064  1.00  0.00     0.102 A
HETATM    7  C10 UNL     1       7.986  -1.172  54.904  1.00  0.00     0.099 A
HETATM    8  C11 UNL     1       9.274  -1.345  54.413  1.00  0.00     0.051 A
HETATM    9  C12 UNL     1      10.207  -2.140  55.073  1.00  0.00    -0.021 A
HETATM   10  C13 UNL     1      11.486  -2.308  54.581  1.00  0.00     0.049 A
ENDROOT
BRANCH   1  11
HETATM   11  O1  UNL     1      13.649  -3.221  54.703  1.00  0.00    -0.351 OA
BRANCH  11  12
HETATM   12  C2  UNL     1      14.550  -4.256  54.967  1.00  0.00     0.171 C
HETATM   13  C1  UNL     1      15.138  -4.792  53.688  1.00  0.00     0.034 C
ENDBRANCH  11  12
ENDBRANCH   1  11
BRANCH   7  14
HETATM   14  O3  UNL     1       7.057  -0.377  54.241  1.00  0.00    -0.358 OA
ATOM     15  H3  UNL     1       6.634   0.329  54.715  1.00  0.00     0.217 HD
ENDBRANCH   7  14
BRANCH   6  16
HETATM   16  O2  UNL     1       6.329  -1.627  56.562  1.00  0.00    -0.353 OA
HETATM   17  C9  UNL     1       5.435  -2.726  56.739  1.00  0.00     0.210 C
ENDBRANCH   6  16
TORSDOF 4
ENDMDL