MODEL 1
REMARK VINA RESULT: -6.319545073      0.000      0.000
REMARK  5 active torsions:
REMARK  status: ('A' for Active; 'I' for Inactive)
REMARK    1  A    between atoms: O1_1  and  C1_3
REMARK    2  A    between atoms: C1_3  and  C2_4
REMARK    3  A    between atoms: C5_7  and  C6_8
REMARK    4  A    between atoms: C6_8  and  O2_9
REMARK    5  A    between atoms: C6_8  and  C7_11
ROOT
HETATM    1  C6  UNL     1      13.647  -5.546  54.971  1.00  0.00     0.179 C
ENDROOT
BRANCH   1   2
HETATM    2  C5  UNL     1      12.795  -4.354  55.252  1.00  0.00     0.082 A
HETATM    3  C4  UNL     1      13.231  -3.064  55.077  1.00  0.00     0.038 A
HETATM    4  C3  UNL     1      12.171  -2.262  55.439  1.00  0.00     0.037 A
HETATM    5  C2  UNL     1      11.127  -3.077  55.821  1.00  0.00     0.076 A
HETATM    6  O3  UNL     1      11.556  -4.330  55.690  1.00  0.00    -0.315 OA
BRANCH   5   7
HETATM    7  C1  UNL     1       9.796  -2.624  56.283  1.00  0.00     0.229 C
BRANCH   7   8
HETATM    8  O1  UNL     1       8.971  -2.489  55.194  1.00  0.00    -0.394 OA
ATOM      9  H1  UNL     1       8.306  -1.839  55.392  1.00  0.00     0.209 HD
ENDBRANCH   7   8
ENDBRANCH   5   7
ENDBRANCH   1   2
BRANCH   1  10
HETATM   10  O2  UNL     1      13.503  -6.537  55.932  1.00  0.00    -0.389 OA
ATOM     11  H2  UNL     1      13.908  -6.301  56.758  1.00  0.00     0.210 HD
ENDBRANCH   1  10
BRANCH   1  12
HETATM   12  C7  UNL     1      15.092  -5.184  54.688  1.00  0.00     0.021 C
HETATM   13  C8  UNL     1      15.986  -6.122  55.370  1.00  0.00     0.007 C
HETATM   14  C9  UNL     1      17.394  -6.204  54.978  1.00  0.00     0.000 C
HETATM   15  C10 UNL     1      17.790  -5.585  53.679  1.00  0.00     0.000 C
HETATM   16  C11 UNL     1      17.429  -4.116  53.699  1.00  0.00     0.000 C
HETATM   17  C12 UNL     1      16.224  -3.951  52.812  1.00  0.00     0.000 C
HETATM   18  C13 UNL     1      15.247  -5.067  53.205  1.00  0.00     0.007 C
ENDBRANCH   1  12
TORSDOF 5
ENDMDL