MODEL 3
REMARK VINA RESULT: -5.736672235      1.242      1.406
REMARK  5 active torsions:
REMARK  status: ('A' for Active; 'I' for Inactive)
REMARK    1  A    between atoms: C2_2  and  O1_3
REMARK    2  A    between atoms: C2_2  and  C3_5
REMARK    3  A    between atoms: C4_6  and  C5_7
REMARK    4  A    between atoms: C5_7  and  C6_8
REMARK    5  A    between atoms: C10_13  and  O3_14
ROOT
HETATM    1  C3  UNL     1       7.962   0.994  55.048  1.00  0.00     0.033 A
HETATM    2  C4  UNL     1       7.071  -0.050  54.952  1.00  0.00    -0.036 A
HETATM    3  C7  UNL     1       7.483  -1.385  54.818  1.00  0.00     0.016 A
HETATM    4  C8  UNL     1       8.801  -1.684  54.780  1.00  0.00    -0.049 A
HETATM    5  C9  UNL     1       9.722  -0.685  54.875  1.00  0.00    -0.018 A
HETATM    6  C10 UNL     1       9.342   0.643  55.008  1.00  0.00     0.085 A
HETATM    7  C11 UNL     1      11.101  -1.289  54.811  1.00  0.00     0.042 C
HETATM    8  C12 UNL     1      10.812  -2.687  55.378  1.00  0.00     0.009 C
HETATM    9  C13 UNL     1       9.531  -2.998  54.644  1.00  0.00     0.039 C
ENDROOT
BRANCH   1  10
HETATM   10  C2  UNL     1       7.609   2.379  55.151  1.00  0.00     0.053 C
HETATM   11  C1  UNL     1       6.989   3.323  54.227  1.00  0.00     0.077 C
BRANCH  10  12
HETATM   12  O1  UNL     1       7.906   2.907  56.306  1.00  0.00    -0.364 OA
ATOM     13  H1  UNL     1       7.295   3.582  56.579  1.00  0.00     0.217 HD
ENDBRANCH  10  12
ENDBRANCH   1  10
BRANCH   2  14
HETATM   14  C5  UNL     1       5.597   0.095  55.074  1.00  0.00     0.109 C
BRANCH  14  15
HETATM   15  C6  UNL     1       5.014   0.122  53.678  1.00  0.00     0.235 C
HETATM   16  O2  UNL     1       4.509   1.118  53.210  1.00  0.00    -0.307 OA
ENDBRANCH  14  15
ENDBRANCH   2  14
BRANCH   6  17
HETATM   17  O3  UNL     1      10.256   1.608  55.098  1.00  0.00    -0.359 OA
ATOM     18  H3  UNL     1      11.154   1.374  55.302  1.00  0.00     0.217 HD
ENDBRANCH   6  17
TORSDOF 5
ENDMDL