MODEL 2
REMARK VINA RESULT: -7.169415437      1.758      2.280
REMARK  11 active torsions:
REMARK  status: ('A' for Active; 'I' for Inactive)
REMARK    1  A    between atoms: C2_2  and  C3_3
REMARK    2  A    between atoms: C3_3  and  C4_4
REMARK    3  A    between atoms: C4_4  and  C5_5
REMARK    4  A    between atoms: C6_6  and  C7_7
REMARK    5  A    between atoms: C9_9  and  O1_10
REMARK    6  A    between atoms: O1_10  and  C10_11
REMARK    7  A    between atoms: C11_13  and  C12_14
REMARK    8  A    between atoms: C13_16  and  O3_17
REMARK    9  A    between atoms: C14_19  and  O4_20
REMARK   10  A    between atoms: C15_22  and  O5_23
REMARK   11  A    between atoms: C17_26  and  N1_27
ROOT
HETATM    1  C7  UNL     1      13.336  52.441  84.538  1.00  0.00     0.022 A
HETATM    2  C8  UNL     1      13.454  52.802  85.886  1.00  0.00     0.057 A
HETATM    3  C9  UNL     1      12.313  52.990  86.633  1.00  0.00     0.075 A
HETATM    4  C16 UNL     1      11.071  52.815  86.029  1.00  0.00     0.066 A
HETATM    5  C17 UNL     1      10.920  52.461  84.706  1.00  0.00     0.034 A
HETATM    6  C26 UNL     1      12.077  52.279  83.978  1.00  0.00     0.050 A
ENDROOT
BRANCH   3   7
HETATM    7  O1  UNL     1      12.330  53.345  87.966  1.00  0.00    -0.318 OA
BRANCH   7   8
HETATM    8  C10 UNL     1      13.424  53.422  88.807  1.00  0.00     0.298 C
HETATM    9  O2  UNL     1      13.277  52.446  89.792  1.00  0.00    -0.349 OA
HETATM   10  C11 UNL     1      12.360  52.835  90.768  1.00  0.00     0.169 C
HETATM   11  C13 UNL     1      12.922  53.950  91.637  1.00  0.00     0.179 C
HETATM   12  C14 UNL     1      13.984  54.702  90.827  1.00  0.00     0.183 C
HETATM   13  C15 UNL     1      13.448  54.814  89.415  1.00  0.00     0.205 C
BRANCH  10  14
HETATM   14  C12 UNL     1      12.088  51.655  91.659  1.00  0.00     0.149 C
HETATM   15 CL1  UNL     1      12.534  50.164  90.800  1.00  0.00    -0.128 Cl
ENDBRANCH  10  14
BRANCH  11  16
HETATM   16  O3  UNL     1      13.589  53.354  92.706  1.00  0.00    -0.390 OA
ATOM     17  H3  UNL     1      13.952  54.050  93.240  1.00  0.00     0.210 HD
ENDBRANCH  11  16
BRANCH  12  18
HETATM   18  O4  UNL     1      15.191  54.041  90.820  1.00  0.00    -0.390 OA
ATOM     19  H4  UNL     1      15.796  54.398  91.460  1.00  0.00     0.210 HD
ENDBRANCH  12  18
BRANCH  13  20
HETATM   20  O5  UNL     1      12.166  55.322  89.403  1.00  0.00    -0.388 OA
ATOM     21  H5  UNL     1      12.149  56.116  89.924  1.00  0.00     0.210 HD
ENDBRANCH  13  20
ENDBRANCH   7   8
ENDBRANCH   3   7
BRANCH   1  22
HETATM   22  C6  UNL     1      14.522  52.243  83.753  1.00  0.00    -0.067 C
HETATM   23  C5  UNL     1      15.515  52.065  83.075  1.00  0.00    -0.101 C
BRANCH  23  24
HETATM   24  C4  UNL     1      16.718  51.851  82.255  1.00  0.00     0.094 C
BRANCH  24  25
HETATM   25  C3  UNL     1      16.312  52.109  80.819  1.00  0.00     0.012 C
BRANCH  25  26
HETATM   26  C2  UNL     1      15.288  51.122  80.335  1.00  0.00    -0.004 C
HETATM   27  C1  UNL     1      15.961  50.281  79.253  1.00  0.00     0.005 C
ENDBRANCH  25  26
ENDBRANCH  24  25
ENDBRANCH  23  24
ENDBRANCH   1  22
BRANCH   5  28
HETATM   28  N1  UNL     1       9.650  52.292  84.074  1.00  0.00    -0.379 N
HETATM   29  C18 UNL     1       8.691  51.474  84.765  1.00  0.00     0.151 C
HETATM   30  C19 UNL     1       7.256  51.836  84.516  1.00  0.00     0.256 C
HETATM   31  N2  UNL     1       6.777  51.580  83.202  1.00  0.00    -0.069 N
HETATM   32  C20 UNL     1       5.791  50.528  83.236  1.00  0.00     0.272 C
HETATM   33  C21 UNL     1       6.175  52.744  82.578  1.00  0.00     0.237 C
HETATM   34  C25 UNL     1       7.823  51.179  82.278  1.00  0.00     0.243 C
HETATM   35  C22 UNL     1       7.293  53.445  81.840  1.00  0.00     0.036 C
HETATM   36  C23 UNL     1       8.450  52.495  81.907  1.00  0.00     0.031 C
HETATM   37  C24 UNL     1       9.524  52.969  82.816  1.00  0.00     0.129 C
ENDBRANCH   5  28
TORSDOF 11
ENDMDL