MODEL 4
REMARK VINA RESULT: -6.454080636      2.295      2.920
REMARK  8 active torsions:
REMARK  status: ('A' for Active; 'I' for Inactive)
REMARK    1  A    between atoms: N1_3  and  C4_5
REMARK    2  A    between atoms: C4_5  and  C5_6
REMARK    3  A    between atoms: C5_6  and  N2_7
REMARK    4  A    between atoms: N2_7  and  C6_9
REMARK    5  A    between atoms: C8_15  and  C9_16
REMARK    6  A    between atoms: C11_18  and  N5_19
REMARK    7  A    between atoms: N5_19  and  C12_21
REMARK    8  A    between atoms: N7_28  and  C16_30
ROOT
HETATM    1  C1  UNL     1      12.105  50.804  85.868  1.00  0.00     0.123 C
HETATM    2  C2  UNL     1      11.219  51.138  85.092  1.00  0.00    -0.078 C
HETATM    3  N1  UNL     1      10.226  51.548  84.214  1.00  0.00    -0.355 N
HETATM    4  C3  UNL     1      10.230  51.035  82.849  1.00  0.00     0.159 C
ENDROOT
BRANCH   3   5
HETATM    5  C4  UNL     1       9.193  52.479  84.560  1.00  0.00     0.151 C
BRANCH   5   6
HETATM    6  C5  UNL     1       8.320  52.049  85.684  1.00  0.00     0.142 C
BRANCH   6   7
HETATM    7  N2  UNL     1       8.300  52.925  86.807  1.00  0.00    -0.369 N
ATOM      8  H2  UNL     1       7.519  53.563  86.960  1.00  0.00     0.161 HD
BRANCH   7   9
HETATM    9  C6  UNL     1       9.311  52.889  87.639  1.00  0.00     0.146 A
HETATM   10  N3  UNL     1      10.438  53.584  87.593  1.00  0.00    -0.322 N
HETATM   11  C7  UNL     1      11.323  53.399  88.554  1.00  0.00     0.125 A
ATOM     12  H3  UNL     1      10.616  54.244  86.835  1.00  0.00     0.169 HD
HETATM   13  N4  UNL     1      12.537  54.014  88.686  1.00  0.00    -0.343 N
HETATM   14  C20 UNL     1      11.022  52.501  89.536  1.00  0.00     0.054 A
HETATM   15  C8  UNL     1      13.389  53.788  89.672  1.00  0.00     0.037 A
ATOM     16  H4  UNL     1      12.805  54.693  87.974  1.00  0.00     0.167 HD
HETATM   17  C11 UNL     1      13.126  52.887  90.692  1.00  0.00     0.058 A
HETATM   18  C19 UNL     1      11.910  52.246  90.595  1.00  0.00     0.054 A
HETATM   19  S1  UNL     1       9.480  51.954  89.050  1.00  0.00    -0.051 SA
BRANCH  15  20
HETATM   20  C9  UNL     1      14.701  54.552  89.716  1.00  0.00     0.055 C
HETATM   21  C10 UNL     1      14.417  55.990  90.038  1.00  0.00     0.011 C
ENDBRANCH  15  20
BRANCH  17  22
HETATM   22  N5  UNL     1      14.019  52.624  91.721  1.00  0.00    -0.340 N
ATOM     23  H5  UNL     1      14.858  52.076  91.531  1.00  0.00     0.167 HD
BRANCH  22  24
HETATM   24  C12 UNL     1      13.801  53.065  92.920  1.00  0.00     0.124 A
HETATM   25  C13 UNL     1      14.033  52.306  94.044  1.00  0.00     0.087 A
HETATM   26  C14 UNL     1      13.791  52.794  95.328  1.00  0.00     0.099 A
HETATM   27 BR1  UNL     1      14.134  51.698  96.838  1.00  0.00    -0.031 Br
HETATM   28  N6  UNL     1      13.314  54.048  95.448  1.00  0.00    -0.185 N
HETATM   29  C15 UNL     1      13.076  54.820  94.370  1.00  0.00     0.680 A
ATOM     30  H6  UNL     1      13.129  54.423  96.378  1.00  0.00     0.185 HD
HETATM   31  N7  UNL     1      12.614  55.998  94.415  1.00  0.00    -0.221 N
HETATM   32  N8  UNL     1      13.328  54.308  93.125  1.00  0.00    -0.177 N
ATOM     33  H7  UNL     1      12.493  56.438  93.502  1.00  0.00     0.178 HD
ATOM     34  H8  UNL     1      13.148  54.898  92.313  1.00  0.00     0.186 HD
BRANCH  31  35
HETATM   35  C16 UNL     1      12.234  56.814  95.511  1.00  0.00     0.099 A
HETATM   36  C17 UNL     1      10.780  57.248  95.505  1.00  0.00     0.028 A
HETATM   37  C18 UNL     1      11.931  58.268  95.423  1.00  0.00     0.028 A
ENDBRANCH  31  35
ENDBRANCH  22  24
ENDBRANCH  17  22
ENDBRANCH   7   9
ENDBRANCH   6   7
ENDBRANCH   5   6
ENDBRANCH   3   5
TORSDOF 8
ENDMDL