MODEL 1
REMARK VINA RESULT: -7.752528656      0.000      0.000
REMARK  7 active torsions:
REMARK  status: ('A' for Active; 'I' for Inactive)
REMARK    1  A    between atoms: C3_4  and  N2_5
REMARK    2  A    between atoms: N2_5  and  C4_7
REMARK    3  A    between atoms: N4_13  and  C8_15
REMARK    4  A    between atoms: C8_15  and  C9_16
REMARK    5  A    between atoms: C9_16  and  C10_17
REMARK    6  A    between atoms: C10_17  and  N5_18
REMARK    7  A    between atoms: N7_29  and  C18_30
ROOT
HETATM    1  C4  UNL     1      12.099  52.035  86.479  1.00  0.00     0.685 A
HETATM    2  N3  UNL     1      12.301  52.848  87.533  1.00  0.00    -0.176 N
ATOM      3  H3  UNL     1      12.438  53.846  87.373  1.00  0.00     0.186 HD
HETATM    4  C5  UNL     1      12.326  52.379  88.790  1.00  0.00     0.129 A
HETATM    5  C6  UNL     1      12.139  51.031  89.006  1.00  0.00     0.031 A
HETATM    6  C7  UNL     1      11.923  50.146  87.929  1.00  0.00     0.127 A
HETATM    7  N4  UNL     1      11.742  48.954  88.063  1.00  0.00    -0.375 N
ATOM      8  H4  UNL     1      11.635  48.675  87.088  1.00  0.00     0.161 HD
HETATM    9  N6  UNL     1      11.920  50.744  86.690  1.00  0.00    -0.176 N
ATOM     10  H6  UNL     1      11.769  50.148  85.876  1.00  0.00     0.186 HD
HETATM   11  C15 UNL     1      12.148  50.466  90.393  1.00  0.00     0.048 C
HETATM   12  C16 UNL     1      12.741  51.443  91.349  1.00  0.00     0.025 C
HETATM   13  C17 UNL     1      12.025  52.787  91.161  1.00  0.00     0.125 C
HETATM   14  N7  UNL     1      12.541  53.281  89.897  1.00  0.00    -0.362 N
ENDROOT
BRANCH   7  15
HETATM   15  C8  UNL     1      11.591  47.767  88.669  1.00  0.00     0.123 C
BRANCH  15  16
HETATM   16  C9  UNL     1      12.539  46.708  88.082  1.00  0.00     0.050 C
BRANCH  16  17
HETATM   17  C10 UNL     1      13.902  46.821  88.710  1.00  0.00     0.274 C
BRANCH  17  18
HETATM   18  N5  UNL     1      14.853  47.286  87.762  1.00  0.00     0.092 N
HETATM   19  C11 UNL     1      14.632  46.714  86.435  1.00  0.00     0.298 C
HETATM   20  C12 UNL     1      15.411  45.439  86.250  1.00  0.00     0.198 C
HETATM   21  O1  UNL     1      16.712  45.480  86.678  1.00  0.00    -0.388 OA
HETATM   22  C13 UNL     1      16.697  45.754  88.066  1.00  0.00     0.198 C
HETATM   23  C14 UNL     1      16.221  47.204  88.145  1.00  0.00     0.298 C
ENDBRANCH  17  18
ENDBRANCH  16  17
ENDBRANCH  15  16
ENDBRANCH   7  15
BRANCH   1  24
HETATM   24  N2  UNL     1      12.087  52.555  85.284  1.00  0.00    -0.192 N
ATOM     25  H2  UNL     1      11.299  53.113  84.957  1.00  0.00     0.184 HD
BRANCH  24  26
HETATM   26  C3  UNL     1      13.215  52.313  84.456  1.00  0.00     0.051 A
HETATM   27  C2  UNL     1      13.198  51.352  83.476  1.00  0.00     0.058 A
HETATM   28  C1  UNL     1      14.355  51.204  82.727  1.00  0.00     0.070 A
HETATM   29  N1  UNL     1      14.353  50.217  81.712  1.00  0.00    -0.101 NA
HETATM   30  C25 UNL     1      15.479  51.964  82.934  1.00  0.00     0.058 A
HETATM   31  C24 UNL     1      15.466  52.917  83.923  1.00  0.00     0.028 A
HETATM   32 CL1  UNL     1      16.913  51.735  81.961  1.00  0.00    -0.082 Cl
HETATM   33  C23 UNL     1      14.349  53.099  84.684  1.00  0.00     0.032 A
ENDBRANCH  24  26
ENDBRANCH   1  24
BRANCH  14  34
HETATM   34  C18 UNL     1      13.201  54.517  89.710  1.00  0.00     0.086 C
HETATM   35  C19 UNL     1      14.350  54.439  88.721  1.00  0.00     0.025 C
HETATM   36  C20 UNL     1      15.592  54.623  89.526  1.00  0.00     0.002 C
HETATM   37  C21 UNL     1      15.155  55.638  90.583  1.00  0.00     0.002 C
HETATM   38  C22 UNL     1      13.763  55.121  90.958  1.00  0.00     0.025 C
ENDBRANCH  14  34
TORSDOF 7
ENDMDL