MODEL 2
REMARK VINA RESULT: -7.067100650      6.295     13.499
REMARK  7 active torsions:
REMARK  status: ('A' for Active; 'I' for Inactive)
REMARK    1  A    between atoms: C1_2  and  C2_4
REMARK    2  A    between atoms: N3_7  and  C3_8
REMARK    3  A    between atoms: C17_24  and  C18_25
REMARK    4  A    between atoms: C18_25  and  C19_26
REMARK       I    between atoms: C19_26  and  N5_28
REMARK    5  A    between atoms: C23_32  and  N6_33
REMARK    6  A    between atoms: N6_33  and  C24_35
REMARK    7  A    between atoms: C24_35  and  C25_36
ROOT
HETATM    1  C2  UNL     1      11.293  54.690  98.183  1.00  0.00     0.122 A
HETATM    2  N2  UNL     1      12.142  53.711  98.037  1.00  0.00    -0.292 N
ATOM      3  H2  UNL     1      12.477  53.145  98.816  1.00  0.00     0.187 HD
HETATM    4  N3  UNL     1      12.536  53.515  96.761  1.00  0.00    -0.279 N
HETATM    5  C13 UNL     1      11.892  54.436  96.050  1.00  0.00     0.083 A
HETATM    6  C14 UNL     1      11.092  55.192  96.951  1.00  0.00     0.007 A
HETATM    7  C15 UNL     1      10.281  56.278  96.318  1.00  0.00     0.063 C
HETATM    8  C16 UNL     1      11.140  57.108  95.382  1.00  0.00     0.124 C
HETATM    9  N4  UNL     1      12.189  56.324  94.761  1.00  0.00    -0.391 N
ATOM     10  H4  UNL     1      13.082  56.683  94.422  1.00  0.00     0.159 HD
HETATM   11  C17 UNL     1      11.746  54.917  94.703  1.00  0.00     0.043 C
ENDROOT
BRANCH  11  12
HETATM   12  C18 UNL     1      12.109  54.225  93.487  1.00  0.00     0.162 C
BRANCH  12  13
HETATM   13  C19 UNL     1      13.319  54.810  92.777  1.00  0.00     0.225 C
HETATM   14  O2  UNL     1      14.023  55.716  93.342  1.00  0.00    -0.273 OA
HETATM   15  N5  UNL     1      13.724  54.399  91.496  1.00  0.00    -0.352 N
HETATM   16  C20 UNL     1      14.907  55.071  90.986  1.00  0.00     0.126 C
HETATM   17  C27 UNL     1      12.996  53.388  90.764  1.00  0.00     0.127 C
HETATM   18  C21 UNL     1      15.474  54.408  89.766  1.00  0.00     0.022 C
HETATM   19  C22 UNL     1      14.647  54.620  88.523  1.00  0.00     0.026 C
HETATM   20  C23 UNL     1      13.579  53.582  88.388  1.00  0.00     0.078 C
HETATM   21  C26 UNL     1      12.501  53.894  89.432  1.00  0.00     0.044 C
BRANCH  20  22
HETATM   22  N6  UNL     1      12.957  53.499  87.108  1.00  0.00    -0.415 N
ATOM     23  H6  UNL     1      11.977  53.238  86.997  1.00  0.00     0.153 HD
BRANCH  22  24
HETATM   24  C24 UNL     1      13.792  53.804  85.993  1.00  0.00     0.145 C
BRANCH  24  25
HETATM   25  C25 UNL     1      13.552  52.725  84.946  1.00  0.00     0.241 C
HETATM   26  F1  UNL     1      14.636  52.662  84.066  1.00  0.00    -0.254 F
ENDBRANCH  24  25
ENDBRANCH  22  24
ENDBRANCH  20  22
ENDBRANCH  12  13
ENDBRANCH  11  12
BRANCH   4  27
HETATM   27  C3  UNL     1      13.468  52.461  96.519  1.00  0.00     0.055 C
HETATM   28  C4  UNL     1      14.125  52.011  97.842  1.00  0.00     0.038 C
HETATM   29  C5  UNL     1      14.841  50.725  97.741  1.00  0.00    -0.011 C
HETATM   30  C6  UNL     1      13.904  49.604  97.389  1.00  0.00     0.009 C
HETATM   31  C10 UNL     1      15.907  50.847  96.673  1.00  0.00     0.009 C
HETATM   32  C7  UNL     1      13.234  49.976  96.085  1.00  0.00    -0.011 C
HETATM   33  C8  UNL     1      14.266  50.055  94.950  1.00  0.00     0.009 C
HETATM   34  C12 UNL     1      12.548  51.263  96.136  1.00  0.00     0.038 C
HETATM   35  C9  UNL     1      15.190  51.135  95.391  1.00  0.00    -0.011 C
HETATM   36  C11 UNL     1      14.467  52.502  95.511  1.00  0.00     0.038 C
ENDBRANCH   4  27
BRANCH   1  37
HETATM   37  C1  UNL     1      10.637  55.202  99.389  1.00  0.00     0.283 C
HETATM   38  N1  UNL     1      11.473  55.629 100.452  1.00  0.00    -0.056 NA
HETATM   39  O1  UNL     1       9.410  55.274  99.515  1.00  0.00    -0.269 OA
ENDBRANCH   1  37
TORSDOF 7
ENDMDL