MODEL 5
REMARK VINA RESULT: -8.943495035      1.356      1.719
REMARK  6 active torsions:
REMARK  status: ('A' for Active; 'I' for Inactive)
REMARK    1  A    between atoms: C5_6  and  C6_7
REMARK    2  A    between atoms: C6_7  and  N2_8
REMARK    3  A    between atoms: N3_11  and  C9_12
REMARK    4  A    between atoms: C9_12  and  C10_13
REMARK    5  A    between atoms: C17_25  and  N6_26
REMARK    6  A    between atoms: C18_28  and  C19_29
ROOT
HETATM    1  N1  UNL     1       9.508  53.387  84.235  1.00  0.00    -0.191 NA
HETATM    2  C1  UNL     1       9.958  53.035  85.235  1.00  0.00     0.103 C
HETATM    3  C2  UNL     1      10.486  52.576  86.515  1.00  0.00     0.088 A
HETATM    4  C3  UNL     1       9.621  51.925  87.383  1.00  0.00     0.028 A
HETATM    5  C4  UNL     1      10.100  51.486  88.590  1.00  0.00     0.028 A
HETATM    6  C5  UNL     1      11.417  51.677  88.959  1.00  0.00     0.028 A
HETATM    7  N5  UNL     1      12.234  52.297  88.128  1.00  0.00    -0.343 N
ATOM      8  H5  UNL     1      13.207  52.438  88.400  1.00  0.00     0.167 HD
HETATM    9  C17 UNL     1      11.799  52.766  86.883  1.00  0.00     0.126 A
ENDROOT
BRANCH   9  10
HETATM   10  N6  UNL     1      12.637  53.338  86.165  1.00  0.00    -0.350 N
HETATM   11  C18 UNL     1      13.903  53.303  85.675  1.00  0.00     0.101 C
ATOM     12  H6  UNL     1      12.192  54.177  85.793  1.00  0.00     0.166 HD
BRANCH  11  13
HETATM   13  C19 UNL     1      14.102  52.503  84.424  1.00  0.00    -0.020 A
HETATM   14  C20 UNL     1      13.110  51.717  83.892  1.00  0.00     0.013 A
HETATM   15  C21 UNL     1      13.313  50.974  82.723  1.00  0.00     0.010 A
HETATM   16  C22 UNL     1      14.541  51.048  82.111  1.00  0.00    -0.035 A
HETATM   17  C23 UNL     1      15.556  51.831  82.625  1.00  0.00    -0.048 A
HETATM   18  C27 UNL     1      14.859  50.301  80.868  1.00  0.00     0.153 C
HETATM   19  C24 UNL     1      15.317  52.546  83.775  1.00  0.00     0.020 A
HETATM   20  C25 UNL     1      16.839  51.837  81.885  1.00  0.00     0.058 C
HETATM   21  C26 UNL     1      16.513  52.014  80.414  1.00  0.00     0.118 C
HETATM   22  N7  UNL     1      15.595  51.049  79.901  1.00  0.00    -0.417 N
ATOM     23  H7  UNL     1      15.471  50.903  78.899  1.00  0.00     0.153 HD
ENDBRANCH  11  13
ENDBRANCH   9  10
BRANCH   6  24
HETATM   24  C6  UNL     1      11.890  51.187  90.274  1.00  0.00     0.179 C
BRANCH  24  25
HETATM   25  N2  UNL     1      12.567  52.244  90.933  1.00  0.00    -0.378 N
HETATM   26  C7  UNL     1      11.969  53.511  90.889  1.00  0.00     0.103 C
HETATM   27  C8  UNL     1      12.345  54.516  91.912  1.00  0.00     0.112 C
HETATM   28  N3  UNL     1      13.012  54.001  93.032  1.00  0.00    -0.343 N
HETATM   29  C15 UNL     1      14.017  53.068  92.721  1.00  0.00     0.088 C
HETATM   30  C16 UNL     1      13.373  51.889  92.036  1.00  0.00     0.167 C
BRANCH  28  31
HETATM   31  C9  UNL     1      12.409  53.989  94.286  1.00  0.00     0.110 C
BRANCH  31  32
HETATM   32  C10 UNL     1      11.837  55.264  94.786  1.00  0.00     0.017 A
HETATM   33  C11 UNL     1      12.564  56.359  95.173  1.00  0.00     0.102 A
HETATM   34  N4  UNL     1      11.978  57.480  95.629  1.00  0.00    -0.374 N
HETATM   35  C12 UNL     1      10.642  57.581  95.727  1.00  0.00     0.089 A
ATOM     36  H4  UNL     1      12.561  58.270  95.906  1.00  0.00     0.164 HD
HETATM   37  C13 UNL     1       9.859  56.510  95.354  1.00  0.00     0.042 A
HETATM   38  C14 UNL     1      10.445  55.365  94.888  1.00  0.00     0.048 A
HETATM   39 CL1  UNL     1       9.462  53.978  94.403  1.00  0.00    -0.083 Cl
ENDBRANCH  31  32
ENDBRANCH  28  31
ENDBRANCH  24  25
ENDBRANCH   6  24
TORSDOF 6
ENDMDL