MODEL 3
REMARK VINA RESULT: -7.476670012      4.151      8.665
REMARK  9 active torsions:
REMARK  status: ('A' for Active; 'I' for Inactive)
REMARK    1  A    between atoms: C4_5  and  N1_6
REMARK    2  A    between atoms: N1_6  and  C5_8
REMARK    3  A    between atoms: C6_11  and  N3_12
REMARK    4  A    between atoms: N3_12  and  C7_14
REMARK    5  A    between atoms: C7_14  and  C8_15
REMARK    6  A    between atoms: C8_15  and  C9_16
REMARK    7  A    between atoms: C14_25  and  N6_26
REMARK    8  A    between atoms: N6_26  and  C15_28
REMARK    9  A    between atoms: C15_28  and  C16_29
ROOT
HETATM    1  C5  UNL     1      13.790  54.036  88.904  1.00  0.00     0.713 A
HETATM    2  N2  UNL     1      14.344  54.042  87.680  1.00  0.00    -0.021 N
ATOM      3  H2  UNL     1      15.319  54.329  87.601  1.00  0.00     0.203 HD
HETATM    4  C6  UNL     1      13.697  53.692  86.544  1.00  0.00     0.707 A
HETATM    5  N5  UNL     1      12.413  53.316  86.667  1.00  0.00    -0.022 N
ATOM      6  H5  UNL     1      11.885  53.042  85.838  1.00  0.00     0.203 HD
HETATM    7  C14 UNL     1      11.809  53.296  87.888  1.00  0.00     0.707 A
HETATM    8  N7  UNL     1      12.477  53.648  88.985  1.00  0.00    -0.021 N
ATOM      9  H7  UNL     1      12.010  53.628  89.892  1.00  0.00     0.203 HD
ENDROOT
BRANCH   4  10
HETATM   10  N3  UNL     1      14.331  53.749  85.429  1.00  0.00    -0.225 N
ATOM     11  H3  UNL     1      14.848  54.600  85.210  1.00  0.00     0.177 HD
BRANCH  10  12
HETATM   12  C7  UNL     1      14.351  52.682  84.477  1.00  0.00     0.144 C
BRANCH  12  13
HETATM   13  C8  UNL     1      15.633  52.668  83.678  1.00  0.00     0.077 C
BRANCH  13  14
HETATM   14  C9  UNL     1      15.515  51.936  82.405  1.00  0.00     0.010 A
HETATM   15  C10 UNL     1      16.355  52.086  81.322  1.00  0.00     0.025 A
HETATM   16  C11 UNL     1      16.149  51.329  80.185  1.00  0.00     0.003 A
HETATM   17  C12 UNL     1      15.128  50.426  80.094  1.00  0.00     0.017 A
HETATM   18  C13 UNL     1      14.304  50.299  81.199  1.00  0.00     0.088 A
HETATM   19  N4  UNL     1      14.523  51.039  82.285  1.00  0.00    -0.369 N
ATOM     20  H4  UNL     1      13.894  50.915  83.079  1.00  0.00     0.165 HD
ENDBRANCH  13  14
ENDBRANCH  12  13
ENDBRANCH  10  12
ENDBRANCH   4  10
BRANCH   1  21
HETATM   21  N1  UNL     1      14.355  54.318  89.970  1.00  0.00    -0.175 N
ATOM     22  H1  UNL     1      15.183  54.897  89.828  1.00  0.00     0.186 HD
BRANCH  21  23
HETATM   23  C4  UNL     1      14.138  54.040  91.294  1.00  0.00     0.120 A
HETATM   24  C3  UNL     1      13.781  55.058  92.178  1.00  0.00     0.050 A
HETATM   25  C2  UNL     1      13.558  54.721  93.496  1.00  0.00     0.024 A
HETATM   26  C1  UNL     1      13.682  53.430  93.932  1.00  0.00     0.026 A
HETATM   27 BR1  UNL     1      13.363  52.931  95.776  1.00  0.00    -0.050 Br
HETATM   28  C21 UNL     1      14.036  52.439  93.040  1.00  0.00     0.108 A
HETATM   29  N8  UNL     1      14.251  52.762  91.768  1.00  0.00    -0.351 N
ATOM     30  H8  UNL     1      14.512  52.022  91.117  1.00  0.00     0.166 HD
ENDBRANCH  21  23
ENDBRANCH   1  21
BRANCH   7  31
HETATM   31  N6  UNL     1      10.601  52.910  88.004  1.00  0.00    -0.223 N
ATOM     32  H6  UNL     1       9.956  53.051  87.226  1.00  0.00     0.177 HD
BRANCH  31  33
HETATM   33  C15 UNL     1      10.123  52.277  89.211  1.00  0.00     0.170 C
BRANCH  33  34
HETATM   34  C16 UNL     1       9.132  53.220  89.926  1.00  0.00     0.139 C
HETATM   35  C17 UNL     1       8.072  52.432  90.633  1.00  0.00     0.034 C
HETATM   36  C18 UNL     1       8.014  52.562  92.105  1.00  0.00     0.005 C
HETATM   37  C19 UNL     1       9.167  53.190  92.791  1.00  0.00     0.026 C
HETATM   38  C20 UNL     1      10.292  53.619  91.903  1.00  0.00     0.168 C
HETATM   39  O1  UNL     1       9.828  54.094  90.715  1.00  0.00    -0.384 OA
ENDBRANCH  33  34
ENDBRANCH  31  33
ENDBRANCH   7  31
TORSDOF 9
ENDMDL