MODEL 3
REMARK VINA RESULT: -7.507135849      2.565      3.650
REMARK  6 active torsions:
REMARK  status: ('A' for Active; 'I' for Inactive)
REMARK    1  A    between atoms: C2_2  and  C3_3
REMARK    2  A    between atoms: C6_6  and  O1_7
REMARK    3  A    between atoms: O1_7  and  C7_8
REMARK    4  A    between atoms: C7_8  and  C8_9
REMARK    5  A    between atoms: C8_9  and  N1_10
REMARK    6  A    between atoms: C11_13  and  N3_16
ROOT
HETATM    1  N1  UNL     1      11.939  52.463  86.797  1.00  0.00     0.090 N
HETATM    2  C9  UNL     1      11.758  51.196  86.103  1.00  0.00     0.276 C
HETATM    3  C10 UNL     1      12.970  50.857  85.263  1.00  0.00     0.077 C
HETATM    4  C11 UNL     1      13.219  51.989  84.247  1.00  0.00     0.129 C
HETATM    5  C12 UNL     1      11.947  52.100  83.526  1.00  0.00     0.091 C
HETATM    6  N2  UNL     1      10.926  52.210  82.953  1.00  0.00    -0.195 NA
HETATM    7  C17 UNL     1      13.446  53.214  85.045  1.00  0.00     0.077 C
HETATM    8  C18 UNL     1      13.231  53.037  86.542  1.00  0.00     0.276 C
ENDROOT
BRANCH   4   9
HETATM    9  N3  UNL     1      14.216  51.557  83.365  1.00  0.00    -0.311 N
HETATM   10  C13 UNL     1      15.492  52.266  83.342  1.00  0.00     0.139 C
HETATM   11  C14 UNL     1      16.363  51.892  82.201  1.00  0.00     0.123 C
HETATM   12  C15 UNL     1      15.706  51.291  81.041  1.00  0.00     0.227 C
HETATM   13  O2  UNL     1      15.945  51.611  79.830  1.00  0.00    -0.273 OA
HETATM   14  N4  UNL     1      14.727  50.270  81.294  1.00  0.00    -0.279 N
HETATM   15  C16 UNL     1      13.986  50.450  82.500  1.00  0.00     0.326 C
ATOM     16  H4  UNL     1      14.575  49.481  80.664  1.00  0.00     0.173 HD
HETATM   17  O3  UNL     1      13.120  49.653  82.840  1.00  0.00    -0.247 OA
ENDBRANCH   4   9
BRANCH   1  18
HETATM   18  C8  UNL     1      11.800  52.173  88.211  1.00  0.00     0.299 C
BRANCH  18  19
HETATM   19  C7  UNL     1      12.614  53.089  89.072  1.00  0.00     0.206 C
BRANCH  19  20
HETATM   20  O1  UNL     1      12.784  52.576  90.386  1.00  0.00    -0.348 OA
BRANCH  20  21
HETATM   21  C6  UNL     1      12.324  53.234  91.506  1.00  0.00     0.090 A
HETATM   22  C5  UNL     1      11.026  53.135  91.950  1.00  0.00     0.039 A
HETATM   23  C4  UNL     1      10.667  53.834  93.080  1.00  0.00     0.013 A
HETATM   24  C3  UNL     1      11.557  54.624  93.776  1.00  0.00    -0.021 A
HETATM   25  C20 UNL     1      12.851  54.721  93.331  1.00  0.00     0.036 A
HETATM   26  C19 UNL     1      13.226  54.024  92.198  1.00  0.00     0.068 A
HETATM   27 CL1  UNL     1      14.883  54.153  91.635  1.00  0.00    -0.081 Cl
BRANCH  24  28
HETATM   28  C2  UNL     1      11.123  55.349  94.974  1.00  0.00     0.116 C
HETATM   29  C1  UNL     1      11.354  54.506  96.218  1.00  0.00     0.052 C
HETATM   30  N5  UNL     1       9.695  55.587  94.874  1.00  0.00    -0.360 N
HETATM   31  C21 UNL     1       9.444  56.788  95.578  1.00  0.00     0.078 C
ATOM     32  H5  UNL     1       9.010  55.005  94.392  1.00  0.00     0.162 HD
HETATM   33  N6  UNL     1       8.274  57.150  96.026  1.00  0.00    -0.389 N
HETATM   34  C22 UNL     1      10.692  57.582  95.738  1.00  0.00     0.157 C
ATOM     35  H62 UNL     1       7.418  56.605  95.916  1.00  0.00     0.157 HD
ATOM     36  H61 UNL     1       8.094  58.016  96.533  1.00  0.00     0.157 HD
HETATM   37  C23 UNL     1      11.697  56.693  95.096  1.00  0.00     0.166 C
HETATM   38  O4  UNL     1      12.817  57.056  94.739  1.00  0.00    -0.294 OA
ENDBRANCH  24  28
ENDBRANCH  20  21
ENDBRANCH  19  20
ENDBRANCH  18  19
ENDBRANCH   1  18
TORSDOF 6
ENDMDL