MODEL 5
REMARK VINA RESULT: -5.783032991      5.428     11.047
REMARK  10 active torsions:
REMARK  status: ('A' for Active; 'I' for Inactive)
REMARK    1  A    between atoms: C2_2  and  C3_3
REMARK    2  A    between atoms: C3_3  and  C4_4
REMARK    3  A    between atoms: C4_4  and  N1_5
REMARK    4  A    between atoms: C7_8  and  N2_9
REMARK       I    between atoms: N2_9  and  C8_11
REMARK       I    between atoms: C8_11  and  N3_13
REMARK    5  A    between atoms: C11_16  and  C12_17
REMARK    6  A    between atoms: C11_16  and  S1_24
REMARK    7  A    between atoms: C12_17  and  O2_18
REMARK    8  A    between atoms: N4_20  and  O3_22
REMARK    9  A    between atoms: S1_24  and  N5_26
REMARK   10  A    between atoms: N5_26  and  C13_28
ROOT
HETATM    1  N2  UNL     1      12.233  52.925  87.753  1.00  0.00    -0.338 N
ATOM      2  H2  UNL     1      11.339  52.633  88.147  1.00  0.00     0.164 HD
HETATM    3  C8  UNL     1      13.227  53.462  88.605  1.00  0.00     0.318 C
HETATM    4  O1  UNL     1      14.328  53.823  88.080  1.00  0.00    -0.247 OA
HETATM    5  N3  UNL     1      12.995  53.584  89.978  1.00  0.00    -0.334 N
HETATM    6  C9  UNL     1      14.065  54.154  90.810  1.00  0.00     0.129 C
HETATM    7  C10 UNL     1      13.350  54.743  92.010  1.00  0.00     0.053 C
HETATM    8  C11 UNL     1      12.700  53.700  92.875  1.00  0.00     0.126 C
HETATM    9  C15 UNL     1      11.999  52.688  92.011  1.00  0.00     0.053 C
HETATM   10  C16 UNL     1      11.761  53.160  90.586  1.00  0.00     0.129 C
ENDROOT
BRANCH   1  11
HETATM   11  C7  UNL     1      12.464  52.783  86.328  1.00  0.00     0.089 C
HETATM   12  C6  UNL     1      11.314  53.312  85.489  1.00  0.00     0.055 C
HETATM   13  C5  UNL     1      11.063  52.408  84.307  1.00  0.00     0.274 C
HETATM   14  N1  UNL     1      12.311  52.015  83.653  1.00  0.00     0.088 N
HETATM   15  C18 UNL     1      13.169  51.296  84.527  1.00  0.00     0.274 C
HETATM   16  C17 UNL     1      12.671  51.350  85.952  1.00  0.00     0.055 C
BRANCH  14  17
HETATM   17  C4  UNL     1      11.915  51.201  82.538  1.00  0.00     0.272 C
BRANCH  17  18
HETATM   18  C3  UNL     1      12.895  50.267  81.955  1.00  0.00     0.030 C
BRANCH  18  19
HETATM   19  C2  UNL     1      13.818  50.757  80.914  1.00  0.00    -0.003 C
HETATM   20  C1  UNL     1      15.243  50.777  81.484  1.00  0.00     0.005 C
ENDBRANCH  18  19
ENDBRANCH  17  18
ENDBRANCH  14  17
ENDBRANCH   1  11
BRANCH   8  21
HETATM   21  C12 UNL     1      13.638  52.998  93.774  1.00  0.00     0.159 C
HETATM   22  N4  UNL     1      14.328  51.986  93.532  1.00  0.00    -0.250 N
ATOM     23  H4  UNL     1      14.898  51.697  94.327  1.00  0.00     0.196 HD
BRANCH  21  24
HETATM   24  O2  UNL     1      13.790  53.530  95.088  1.00  0.00    -0.347 OA
ATOM     25  H2  UNL     1      14.332  53.035  95.691  1.00  0.00     0.219 HD
ENDBRANCH  21  24
BRANCH  22  26
HETATM   26  O3  UNL     1      14.490  51.198  92.469  1.00  0.00    -0.288 OA
ATOM     27  H3  UNL     1      14.654  50.271  92.347  1.00  0.00     0.244 HD
ENDBRANCH  22  26
ENDBRANCH   8  21
BRANCH   8  28
HETATM   28  S1  UNL     1      11.412  54.506  93.831  1.00  0.00     0.128 S
HETATM   29  O4  UNL     1      10.760  53.533  94.769  1.00  0.00    -0.234 OA
BRANCH  28  30
HETATM   30  N5  UNL     1      11.979  55.671  94.667  1.00  0.00    -0.326 N
ATOM     31  H5  UNL     1      12.989  55.700  94.809  1.00  0.00     0.171 HD
BRANCH  30  32
HETATM   32  C13 UNL     1      11.201  56.711  95.255  1.00  0.00     0.158 C
HETATM   33  C14 UNL     1      12.021  57.988  95.342  1.00  0.00     0.045 C
HETATM   34 BR1  UNL     1      10.544  56.283  97.015  1.00  0.00    -0.069 Br
ENDBRANCH  30  32
ENDBRANCH  28  30
ENDBRANCH   8  28
TORSDOF 10
ENDMDL