MODEL 5
REMARK VINA RESULT: -7.174377192      2.941      5.356
REMARK  7 active torsions:
REMARK  status: ('A' for Active; 'I' for Inactive)
REMARK    1  A    between atoms: O1_2  and  C2_3
REMARK    2  A    between atoms: C4_5  and  N1_6
REMARK    3  A    between atoms: C7_9  and  N2_10
REMARK    4  A    between atoms: N2_10  and  S1_12
REMARK    5  A    between atoms: S1_12  and  C8_15
REMARK    6  A    between atoms: C16_23  and  N3_24
REMARK    7  A    between atoms: N3_24  and  C17_26
ROOT
HETATM    1  C17 UNL     1      13.078  54.136  92.294  1.00  0.00     0.684 A
HETATM    2  N4  UNL     1      13.047  54.701  93.500  1.00  0.00    -0.200 N
ATOM      3  H4  UNL     1      12.658  55.634  93.639  1.00  0.00     0.183 HD
HETATM    4  C18 UNL     1      13.548  53.999  94.523  1.00  0.00     0.134 A
HETATM    5  C19 UNL     1      14.090  52.712  94.363  1.00  0.00     0.095 A
HETATM    6 CL1  UNL     1      14.724  51.857  95.746  1.00  0.00    -0.079 Cl
HETATM    7  C20 UNL     1      14.116  52.138  93.117  1.00  0.00     0.153 A
HETATM    8  N5  UNL     1      14.573  50.991  92.827  1.00  0.00    -0.277 N
ATOM      9  H5  UNL     1      14.508  50.729  91.844  1.00  0.00     0.179 HD
HETATM   10  C21 UNL     1      15.129  50.073  93.635  1.00  0.00     0.183 C
HETATM   11  N6  UNL     1      15.616  49.255  94.307  1.00  0.00    -0.172 NA
HETATM   12  N7  UNL     1      13.584  52.920  92.116  1.00  0.00    -0.174 N
ATOM     13  H7  UNL     1      13.579  52.538  91.171  1.00  0.00     0.186 HD
ENDROOT
BRANCH   1  14
HETATM   14  N3  UNL     1      12.608  54.755  91.238  1.00  0.00    -0.189 N
ATOM     15  H3  UNL     1      12.235  55.700  91.335  1.00  0.00     0.184 HD
BRANCH  14  16
HETATM   16  C16 UNL     1      12.610  54.129  89.952  1.00  0.00     0.083 A
HETATM   17  C2  UNL     1      13.784  53.997  89.238  1.00  0.00     0.097 A
HETATM   18  C3  UNL     1      13.739  53.387  88.004  1.00  0.00     0.069 A
HETATM   19  C4  UNL     1      12.551  52.895  87.446  1.00  0.00     0.038 A
HETATM   20  C13 UNL     1      11.398  53.030  88.158  1.00  0.00    -0.033 A
HETATM   21  C14 UNL     1      10.113  52.523  87.624  1.00  0.00     0.050 C
HETATM   22  C15 UNL     1      11.433  53.651  89.418  1.00  0.00     0.042 A
BRANCH  17  23
HETATM   23  O1  UNL     1      14.972  54.482  89.783  1.00  0.00    -0.354 OA
HETATM   24  C1  UNL     1      15.352  55.822  89.746  1.00  0.00     0.210 C
ENDBRANCH  17  23
BRANCH  19  25
HETATM   25  N1  UNL     1      12.563  52.281  86.162  1.00  0.00    -0.380 N
HETATM   26  C5  UNL     1      12.079  50.975  85.888  1.00  0.00     0.125 C
HETATM   27  C6  UNL     1      12.992  50.213  84.981  1.00  0.00     0.045 C
HETATM   28  C7  UNL     1      13.322  51.051  83.772  1.00  0.00     0.096 C
HETATM   29  C11 UNL     1      14.115  52.253  84.341  1.00  0.00     0.045 C
HETATM   30  C12 UNL     1      13.101  53.089  85.076  1.00  0.00     0.125 C
BRANCH  28  31
HETATM   31  N2  UNL     1      14.121  50.378  82.780  1.00  0.00    -0.314 N
ATOM     32  H2  UNL     1      15.039  49.967  82.952  1.00  0.00     0.172 HD
BRANCH  31  33
HETATM   33  S1  UNL     1      13.311  50.368  81.266  1.00  0.00     0.231 S
HETATM   34  O2  UNL     1      12.976  48.926  80.911  1.00  0.00    -0.206 OA
HETATM   35  O3  UNL     1      12.017  51.172  81.346  1.00  0.00    -0.206 OA
BRANCH  33  36
HETATM   36  C8  UNL     1      14.336  51.046  79.996  1.00  0.00     0.129 A
HETATM   37  C9  UNL     1      15.624  51.675  80.389  1.00  0.00     0.023 A
HETATM   38  C10 UNL     1      15.636  50.386  79.621  1.00  0.00     0.023 A
ENDBRANCH  33  36
ENDBRANCH  31  33
ENDBRANCH  28  31
ENDBRANCH  19  25
ENDBRANCH  14  16
ENDBRANCH   1  14
TORSDOF 7
ENDMDL