MODEL 2
REMARK VINA RESULT: -6.989169570      1.373      1.548
REMARK  9 active torsions:
REMARK  status: ('A' for Active; 'I' for Inactive)
REMARK    1  A    between atoms: C2_2  and  O1_3
REMARK    2  A    between atoms: O1_3  and  C3_4
REMARK    3  A    between atoms: C3_4  and  C4_6
REMARK    4  A    between atoms: C4_6  and  N1_7
REMARK    5  A    between atoms: N1_7  and  C5_9
REMARK    6  A    between atoms: C7_11  and  N2_12
REMARK    7  A    between atoms: N2_12  and  C8_14
REMARK    8  A    between atoms: C10_16  and  C11_17
REMARK    9  A    between atoms: N3_20  and  C14_21
ROOT
HETATM    1  C8  UNL     1      13.622  53.899  88.669  1.00  0.00     0.122 A
HETATM    2  C9  UNL     1      13.162  53.723  89.980  1.00  0.00     0.076 A
HETATM    3  C10 UNL     1      14.205  53.975  90.845  1.00  0.00     0.034 A
HETATM    4  N4  UNL     1      15.250  54.292  90.063  1.00  0.00    -0.303 N
ATOM      5  H4  UNL     1      16.179  54.534  90.406  1.00  0.00     0.186 HD
HETATM    6  N5  UNL     1      14.904  54.246  88.777  1.00  0.00    -0.285 N
ATOM      7  H5  UNL     1      15.526  54.446  87.993  1.00  0.00     0.188 HD
ENDROOT
BRANCH   1   8
HETATM    8  N2  UNL     1      12.854  53.727  87.672  1.00  0.00    -0.340 N
ATOM      9  H2  UNL     1      11.946  54.188  87.716  1.00  0.00     0.167 HD
BRANCH   8  10
HETATM   10  C7  UNL     1      13.113  52.976  86.521  1.00  0.00     0.056 A
HETATM   11  C6  UNL     1      14.069  53.359  85.593  1.00  0.00     0.079 A
HETATM   12  C5  UNL     1      14.316  52.609  84.458  1.00  0.00     0.103 A
HETATM   13  N6  UNL     1      13.617  51.499  84.265  1.00  0.00    -0.351 N
HETATM   14  C21 UNL     1      12.675  51.102  85.158  1.00  0.00     0.111 A
ATOM     15  H6  UNL     1      13.790  50.935  83.433  1.00  0.00     0.166 HD
HETATM   16  C20 UNL     1      12.396  51.817  86.298  1.00  0.00     0.053 A
HETATM   17 BR1  UNL     1      11.055  51.232  87.549  1.00  0.00    -0.047 Br
BRANCH  12  18
HETATM   18  N1  UNL     1      15.225  53.046  83.655  1.00  0.00    -0.367 N
ATOM     19  H1  UNL     1      15.162  54.022  83.365  1.00  0.00     0.161 HD
BRANCH  18  20
HETATM   20  C4  UNL     1      16.313  52.277  83.139  1.00  0.00     0.232 C
BRANCH  20  21
HETATM   21  C3  UNL     1      15.945  51.766  81.793  1.00  0.00     0.276 C
HETATM   22  O2  UNL     1      16.445  52.264  80.738  1.00  0.00    -0.263 OA
BRANCH  21  23
HETATM   23  O1  UNL     1      15.042  50.722  81.612  1.00  0.00    -0.321 OA
BRANCH  23  24
HETATM   24  C2  UNL     1      13.983  50.775  80.695  1.00  0.00     0.174 C
HETATM   25  C1  UNL     1      13.919  49.557  79.810  1.00  0.00     0.034 C
ENDBRANCH  23  24
ENDBRANCH  21  23
ENDBRANCH  20  21
ENDBRANCH  18  20
ENDBRANCH  12  18
ENDBRANCH   8  10
ENDBRANCH   1   8
BRANCH   3  26
HETATM   26  C11 UNL     1      14.166  53.910  92.320  1.00  0.00     0.046 C
HETATM   27  C12 UNL     1      13.784  52.517  92.801  1.00  0.00     0.056 C
HETATM   28  C13 UNL     1      14.080  52.501  94.302  1.00  0.00     0.064 C
HETATM   29  N3  UNL     1      13.476  53.550  95.002  1.00  0.00    -0.367 N
HETATM   30  C18 UNL     1      13.432  54.832  94.444  1.00  0.00     0.064 C
HETATM   31  C19 UNL     1      13.249  54.906  92.945  1.00  0.00     0.056 C
BRANCH  29  32
HETATM   32  C14 UNL     1      12.741  53.276  96.156  1.00  0.00     0.114 C
HETATM   33  C15 UNL     1      12.249  54.468  96.926  1.00  0.00     0.054 C
HETATM   34  C16 UNL     1      10.785  54.500  96.630  1.00  0.00     0.169 C
HETATM   35  O3  UNL     1      10.406  53.318  96.075  1.00  0.00    -0.389 OA
HETATM   36  C17 UNL     1      11.482  52.535  95.807  1.00  0.00     0.193 C
ENDBRANCH  29  32
ENDBRANCH   3  26
TORSDOF 9
ENDMDL