MODEL 2
REMARK VINA RESULT: -7.318124871      0.887      1.692
REMARK  9 active torsions:
REMARK  status: ('A' for Active; 'I' for Inactive)
REMARK    1  A    between atoms: N1_1  and  C1_5
REMARK    2  A    between atoms: C1_5  and  C2_6
REMARK    3  A    between atoms: C2_6  and  C3_7
REMARK    4  A    between atoms: C3_7  and  C4_8
REMARK    5  A    between atoms: C4_8  and  C5_9
REMARK    6  A    between atoms: C5_9  and  C6_10
REMARK    7  A    between atoms: C6_10  and  C7_11
REMARK    8  A    between atoms: C7_11  and  C8_12
REMARK    9  A    between atoms: C8_12  and  C9_13
ROOT
HETATM    1  C5  UNL     1      36.835 -49.370 110.840  1.00  0.00     0.000 C
ENDROOT
BRANCH   1   2
HETATM    2  C4  UNL     1      35.621 -48.539 111.193  1.00  0.00     0.000 C
BRANCH   2   3
HETATM    3  C3  UNL     1      35.300 -48.492 112.630  1.00  0.00     0.002 C
BRANCH   3   4
HETATM    4  C2  UNL     1      33.913 -48.179 113.041  1.00  0.00     0.027 C
BRANCH   4   5
HETATM    5  C1  UNL     1      32.811 -49.072 112.596  1.00  0.00     0.229 C
BRANCH   5   6
HETATM    6  N1  UNL     1      31.672 -49.080 113.456  1.00  0.00    -0.079 N
ATOM      7  H13 UNL     1      31.042 -49.843 113.206  1.00  0.00     0.274 HD
ATOM      8  H12 UNL     1      31.939 -49.374 114.396  1.00  0.00     0.274 HD
ATOM      9  H11 UNL     1      31.164 -48.196 113.492  1.00  0.00     0.274 HD
ENDBRANCH   5   6
ENDBRANCH   4   5
ENDBRANCH   3   4
ENDBRANCH   2   3
ENDBRANCH   1   2
BRANCH   1  10
HETATM   10  C6  UNL     1      37.721 -49.520 112.011  1.00  0.00     0.000 C
BRANCH  10  11
HETATM   11  C7  UNL     1      39.163 -49.781 111.666  1.00  0.00     0.005 C
BRANCH  11  12
HETATM   12  C8  UNL     1      39.594 -51.191 111.883  1.00  0.00     0.038 C
BRANCH  12  13
HETATM   13  C9  UNL     1      41.010 -51.345 111.459  1.00  0.00    -0.058 A
HETATM   14  C10 UNL     1      41.670 -50.371 110.730  1.00  0.00     0.007 A
HETATM   15  C11 UNL     1      42.976 -50.530 110.348  1.00  0.00     0.001 A
HETATM   16  C12 UNL     1      43.678 -51.666 110.675  1.00  0.00     0.000 A
HETATM   17  C13 UNL     1      43.045 -52.647 111.399  1.00  0.00     0.001 A
HETATM   18  C14 UNL     1      41.727 -52.487 111.784  1.00  0.00     0.007 A
ENDBRANCH  12  13
ENDBRANCH  11  12
ENDBRANCH  10  11
ENDBRANCH   1  10
TORSDOF 9
ENDMDL