MODEL 5
REMARK VINA RESULT: -6.711598777      1.217      1.716
REMARK  9 active torsions:
REMARK  status: ('A' for Active; 'I' for Inactive)
REMARK    1  A    between atoms: C2_3  and  C3_4
REMARK    2  A    between atoms: C3_4  and  C4_5
REMARK    3  A    between atoms: C4_5  and  C5_6
REMARK    4  A    between atoms: C5_6  and  C6_7
REMARK    5  A    between atoms: C6_7  and  C7_8
REMARK    6  A    between atoms: C7_8  and  C8_9
REMARK    7  A    between atoms: C8_9  and  C9_10
REMARK    8  A    between atoms: C9_10  and  C10_11
REMARK    9  A    between atoms: C10_11  and  C11_12
ROOT
HETATM    1  N1  UNL     1      45.513 -52.242 108.765  1.00  0.00    -0.197 NA
HETATM    2  C1  UNL     1      44.810 -51.910 109.615  1.00  0.00     0.059 C
HETATM    3  C2  UNL     1      43.939 -51.503 110.689  1.00  0.00     0.124 C
ENDROOT
BRANCH   3   4
HETATM    4  C3  UNL     1      42.474 -51.573 110.316  1.00  0.00     0.014 C
BRANCH   4   5
HETATM    5  C4  UNL     1      41.617 -52.053 111.442  1.00  0.00     0.001 C
BRANCH   5   6
HETATM    6  C5  UNL     1      40.370 -51.230 111.563  1.00  0.00     0.000 C
BRANCH   6   7
HETATM    7  C6  UNL     1      40.564 -49.830 111.045  1.00  0.00     0.000 C
BRANCH   7   8
HETATM    8  C7  UNL     1      39.311 -49.015 111.074  1.00  0.00     0.000 C
BRANCH   8   9
HETATM    9  C8  UNL     1      38.109 -49.813 111.488  1.00  0.00     0.000 C
BRANCH   9  10
HETATM   10  C9  UNL     1      36.815 -49.131 111.244  1.00  0.00     0.002 C
BRANCH  10  11
HETATM   11  C10 UNL     1      36.199 -48.410 112.377  1.00  0.00     0.033 C
BRANCH  11  12
HETATM   12  C11 UNL     1      35.294 -47.288 112.084  1.00  0.00     0.186 C
HETATM   13  C12 UNL     1      34.549 -47.417 110.773  1.00  0.00     0.034 C
HETATM   14  C13 UNL     1      33.843 -46.066 110.719  1.00  0.00     0.029 C
HETATM   15  C14 UNL     1      34.936 -45.158 111.256  1.00  0.00     0.233 C
HETATM   16  N2  UNL     1      35.840 -45.982 111.999  1.00  0.00    -0.071 N
ATOM     17  H22 UNL     1      36.064 -45.592 112.914  1.00  0.00     0.277 HD
ATOM     18  H21 UNL     1      36.784 -45.978 111.610  1.00  0.00     0.277 HD
ENDBRANCH  11  12
ENDBRANCH  10  11
ENDBRANCH   9  10
ENDBRANCH   8   9
ENDBRANCH   7   8
ENDBRANCH   6   7
ENDBRANCH   5   6
ENDBRANCH   4   5
ENDBRANCH   3   4
TORSDOF 9
ENDMDL