MODEL 1
REMARK VINA RESULT: -6.519094904      0.000      0.000
REMARK  8 active torsions:
REMARK  status: ('A' for Active; 'I' for Inactive)
REMARK    1  A    between atoms: C2_2  and  C3_3
REMARK    2  A    between atoms: C3_3  and  C4_4
REMARK    3  A    between atoms: C4_4  and  C5_5
REMARK    4  A    between atoms: C5_5  and  C6_6
REMARK    5  A    between atoms: C6_6  and  C7_7
REMARK    6  A    between atoms: C7_7  and  N1_9
REMARK    7  A    between atoms: N1_9  and  C10_11
REMARK    8  A    between atoms: C10_11  and  C11_12
ROOT
HETATM    1  N1  UNL     1      38.266 -49.565 111.567  1.00  0.00     0.092 N
HETATM    2  C9  UNL     1      39.342 -48.652 111.229  1.00  0.00     0.310 C
ENDROOT
BRANCH   1   3
HETATM    3  C7  UNL     1      38.817 -50.897 111.876  1.00  0.00     0.219 C
HETATM    4  C8  UNL     1      38.631 -51.196 113.341  1.00  0.00     0.043 C
BRANCH   3   5
HETATM    5  C6  UNL     1      40.265 -50.864 111.473  1.00  0.00     0.035 C
BRANCH   5   6
HETATM    6  C5  UNL     1      40.940 -52.190 111.521  1.00  0.00     0.002 C
BRANCH   6   7
HETATM    7  C4  UNL     1      42.412 -52.058 111.259  1.00  0.00     0.000 C
BRANCH   7   8
HETATM    8  C3  UNL     1      42.751 -50.868 110.394  1.00  0.00    -0.000 C
BRANCH   8   9
HETATM    9  C2  UNL     1      44.226 -50.734 110.250  1.00  0.00    -0.005 C
HETATM   10  C1  UNL     1      44.862 -51.902 109.563  1.00  0.00     0.005 C
ENDBRANCH   8   9
ENDBRANCH   7   8
ENDBRANCH   6   7
ENDBRANCH   5   6
ENDBRANCH   3   5
ENDBRANCH   1   3
BRANCH   1  11
HETATM   11  C10 UNL     1      37.535 -49.140 112.732  1.00  0.00     0.312 C
BRANCH  11  12
HETATM   12  C11 UNL     1      36.269 -48.471 112.412  1.00  0.00    -0.013 A
HETATM   13  C12 UNL     1      35.633 -48.484 111.196  1.00  0.00     0.027 A
HETATM   14  C13 UNL     1      34.476 -47.732 111.307  1.00  0.00     0.088 A
HETATM   15  N2  UNL     1      34.438 -47.291 112.561  1.00  0.00    -0.375 N
HETATM   16  C14 UNL     1      35.500 -47.717 113.250  1.00  0.00     0.096 A
ATOM     17  H2  UNL     1      33.696 -46.705 112.946  1.00  0.00     0.164 HD
ENDBRANCH  11  12
ENDBRANCH   1  11
TORSDOF 8
ENDMDL