MODEL 5
REMARK VINA RESULT: -6.719098972      1.597      2.350
REMARK  9 active torsions:
REMARK  status: ('A' for Active; 'I' for Inactive)
REMARK    1  A    between atoms: C2_3  and  C3_4
REMARK    2  A    between atoms: C3_4  and  C4_5
REMARK    3  A    between atoms: C4_5  and  C5_6
REMARK    4  A    between atoms: C5_6  and  C6_7
REMARK    5  A    between atoms: C6_7  and  C7_8
REMARK    6  A    between atoms: C7_8  and  C8_9
REMARK    7  A    between atoms: C8_9  and  C9_10
REMARK    8  A    between atoms: C9_10  and  C10_11
REMARK    9  A    between atoms: C10_11  and  C11_12
ROOT
HETATM    1  N1  UNL     1      45.071 -51.866 109.618  1.00  0.00    -0.197 NA
HETATM    2  C1  UNL     1      44.105 -51.364 109.994  1.00  0.00     0.059 C
HETATM    3  C2  UNL     1      42.901 -50.715 110.467  1.00  0.00     0.124 C
ENDROOT
BRANCH   3   4
HETATM    4  C3  UNL     1      42.031 -51.703 111.223  1.00  0.00     0.014 C
BRANCH   4   5
HETATM    5  C4  UNL     1      40.652 -51.172 111.442  1.00  0.00     0.001 C
BRANCH   5   6
HETATM    6  C5  UNL     1      40.565 -49.758 110.941  1.00  0.00     0.000 C
BRANCH   6   7
HETATM    7  C6  UNL     1      39.297 -49.049 111.299  1.00  0.00     0.000 C
BRANCH   7   8
HETATM    8  C7  UNL     1      38.154 -50.020 111.452  1.00  0.00     0.000 C
BRANCH   8   9
HETATM    9  C8  UNL     1      36.884 -49.561 110.785  1.00  0.00     0.000 C
BRANCH   9  10
HETATM   10  C9  UNL     1      36.134 -48.726 111.812  1.00  0.00     0.006 C
BRANCH  10  11
HETATM   11  C10 UNL     1      35.066 -47.883 111.160  1.00  0.00     0.056 C
BRANCH  11  12
HETATM   12  C11 UNL     1      33.766 -47.964 111.865  1.00  0.00     0.001 C
HETATM   13  C12 UNL     1      33.368 -49.035 112.529  1.00  0.00    -0.001 C
HETATM   14  C13 UNL     1      32.035 -48.803 113.117  1.00  0.00     0.048 C
HETATM   15  C14 UNL     1      31.543 -47.548 112.430  1.00  0.00     0.123 C
HETATM   16  N2  UNL     1      32.752 -46.942 111.952  1.00  0.00    -0.393 N
ATOM     17  H2  UNL     1      32.873 -45.957 111.714  1.00  0.00     0.159 HD
ENDBRANCH  11  12
ENDBRANCH  10  11
ENDBRANCH   9  10
ENDBRANCH   8   9
ENDBRANCH   7   8
ENDBRANCH   6   7
ENDBRANCH   5   6
ENDBRANCH   4   5
ENDBRANCH   3   4
TORSDOF 9
ENDMDL