MODEL 3
REMARK VINA RESULT: -6.958569607      0.674      1.077
REMARK  10 active torsions:
REMARK  status: ('A' for Active; 'I' for Inactive)
REMARK    1  A    between atoms: N1_1  and  C1_5
REMARK    2  A    between atoms: C1_5  and  C2_6
REMARK    3  A    between atoms: C2_6  and  C3_7
REMARK    4  A    between atoms: C3_7  and  C4_8
REMARK    5  A    between atoms: C4_8  and  C5_9
REMARK    6  A    between atoms: C5_9  and  C6_10
REMARK    7  A    between atoms: C6_10  and  C7_11
REMARK    8  A    between atoms: C7_11  and  C8_12
REMARK    9  A    between atoms: C8_12  and  C9_13
REMARK   10  A    between atoms: C9_13  and  C10_14
ROOT
HETATM    1  C5  UNL     1      35.988 -48.798 111.306  1.00  0.00     0.000 C
ENDROOT
BRANCH   1   2
HETATM    2  C4  UNL     1      36.013 -48.474 112.777  1.00  0.00     0.000 C
BRANCH   2   3
HETATM    3  C3  UNL     1      34.615 -48.121 113.214  1.00  0.00     0.002 C
BRANCH   3   4
HETATM    4  C2  UNL     1      33.558 -48.449 112.193  1.00  0.00     0.027 C
BRANCH   4   5
HETATM    5  C1  UNL     1      32.383 -49.201 112.747  1.00  0.00     0.229 C
BRANCH   5   6
HETATM    6  N1  UNL     1      31.589 -48.295 113.574  1.00  0.00    -0.079 N
ATOM      7  H13 UNL     1      31.998 -48.153 114.498  1.00  0.00     0.274 HD
ATOM      8  H12 UNL     1      31.635 -47.330 113.249  1.00  0.00     0.274 HD
ATOM      9  H11 UNL     1      30.631 -48.644 113.622  1.00  0.00     0.274 HD
ENDBRANCH   5   6
ENDBRANCH   4   5
ENDBRANCH   3   4
ENDBRANCH   2   3
ENDBRANCH   1   2
BRANCH   1  10
HETATM   10  C6  UNL     1      37.208 -49.564 110.855  1.00  0.00     0.000 C
BRANCH  10  11
HETATM   11  C7  UNL     1      38.232 -49.370 112.024  1.00  0.00     0.000 C
BRANCH  11  12
HETATM   12  C8  UNL     1      39.537 -49.847 111.522  1.00  0.00     0.001 C
BRANCH  12  13
HETATM   13  C9  UNL     1      39.932 -51.231 111.809  1.00  0.00     0.008 C
BRANCH  13  14
HETATM   14  C10 UNL     1      41.050 -51.778 111.006  1.00  0.00     0.008 C
HETATM   15  C11 UNL     1      41.843 -50.652 110.401  1.00  0.00    -0.026 C
HETATM   16  C12 UNL     1      43.127 -50.886 110.485  1.00  0.00    -0.030 C
HETATM   17  C13 UNL     1      43.397 -52.175 111.144  1.00  0.00     0.027 C
HETATM   18  C14 UNL     1      42.070 -52.598 111.700  1.00  0.00     0.012 C
ENDBRANCH  13  14
ENDBRANCH  12  13
ENDBRANCH  11  12
ENDBRANCH  10  11
ENDBRANCH   1  10
TORSDOF 10
ENDMDL