MODEL 5
REMARK VINA RESULT: -6.798715975      0.798      1.307
REMARK  10 active torsions:
REMARK  status: ('A' for Active; 'I' for Inactive)
REMARK    1  A    between atoms: N1_1  and  C1_5
REMARK    2  A    between atoms: C1_5  and  C2_6
REMARK    3  A    between atoms: C2_6  and  C3_7
REMARK    4  A    between atoms: C3_7  and  C4_8
REMARK    5  A    between atoms: C4_8  and  C5_9
REMARK    6  A    between atoms: C5_9  and  C6_10
REMARK    7  A    between atoms: C6_10  and  C7_11
REMARK    8  A    between atoms: C7_11  and  C8_12
REMARK    9  A    between atoms: C8_12  and  C9_13
REMARK   10  A    between atoms: C9_13  and  C10_14
ROOT
HETATM    1  C5  UNL     1      35.750 -48.683 111.152  1.00  0.00     0.000 C
ENDROOT
BRANCH   1   2
HETATM    2  C4  UNL     1      35.450 -48.460 112.592  1.00  0.00     0.000 C
BRANCH   2   3
HETATM    3  C3  UNL     1      34.032 -47.913 112.742  1.00  0.00     0.002 C
BRANCH   3   4
HETATM    4  C2  UNL     1      33.000 -48.995 112.821  1.00  0.00     0.027 C
BRANCH   4   5
HETATM    5  C1  UNL     1      31.704 -48.339 113.286  1.00  0.00     0.229 C
BRANCH   5   6
HETATM    6  N1  UNL     1      32.041 -47.358 114.295  1.00  0.00    -0.079 N
ATOM      7  H13 UNL     1      31.225 -46.857 114.646  1.00  0.00     0.274 HD
ATOM      8  H12 UNL     1      32.331 -47.781 115.176  1.00  0.00     0.274 HD
ATOM      9  H11 UNL     1      32.748 -46.737 113.903  1.00  0.00     0.274 HD
ENDBRANCH   5   6
ENDBRANCH   4   5
ENDBRANCH   3   4
ENDBRANCH   2   3
ENDBRANCH   1   2
BRANCH   1  10
HETATM   10  C6  UNL     1      37.037 -49.461 110.991  1.00  0.00     0.000 C
BRANCH  10  11
HETATM   11  C7  UNL     1      37.786 -49.566 112.266  1.00  0.00     0.000 C
BRANCH  11  12
HETATM   12  C8  UNL     1      38.974 -50.484 112.098  1.00  0.00     0.000 C
BRANCH  12  13
HETATM   13  C9  UNL     1      39.969 -49.886 111.181  1.00  0.00     0.004 C
BRANCH  13  14
HETATM   14  C10 UNL     1      41.301 -50.589 111.226  1.00  0.00    -0.014 C
HETATM   15  C11 UNL     1      41.201 -52.056 111.578  1.00  0.00     0.004 C
HETATM   16  C12 UNL     1      42.639 -52.490 111.388  1.00  0.00     0.000 C
HETATM   17  C13 UNL     1      43.070 -51.735 110.165  1.00  0.00     0.000 C
HETATM   18  C14 UNL     1      41.995 -50.684 109.890  1.00  0.00     0.004 C
ENDBRANCH  13  14
ENDBRANCH  12  13
ENDBRANCH  11  12
ENDBRANCH  10  11
ENDBRANCH   1  10
TORSDOF 10
ENDMDL