MODEL 4
REMARK VINA RESULT: -6.878107944      1.700      2.062
REMARK  10 active torsions:
REMARK  status: ('A' for Active; 'I' for Inactive)
REMARK    1  A    between atoms: N1_1  and  C1_5
REMARK    2  A    between atoms: C1_5  and  C2_6
REMARK    3  A    between atoms: C2_6  and  C3_7
REMARK    4  A    between atoms: C3_7  and  C4_8
REMARK    5  A    between atoms: C4_8  and  C5_9
REMARK    6  A    between atoms: C5_9  and  C6_10
REMARK    7  A    between atoms: C6_10  and  C7_11
REMARK    8  A    between atoms: C7_11  and  C8_12
REMARK    9  A    between atoms: C8_12  and  C9_13
REMARK   10  A    between atoms: C9_13  and  C10_14
ROOT
HETATM    1  C5  UNL     1      36.813 -49.290 110.848  1.00  0.00     0.000 C
ENDROOT
BRANCH   1   2
HETATM    2  C4  UNL     1      36.046 -48.383 111.758  1.00  0.00     0.000 C
BRANCH   2   3
HETATM    3  C3  UNL     1      34.755 -47.904 111.219  1.00  0.00     0.002 C
BRANCH   3   4
HETATM    4  C2  UNL     1      34.576 -46.467 110.956  1.00  0.00     0.027 C
BRANCH   4   5
HETATM    5  C1  UNL     1      35.366 -45.514 111.802  1.00  0.00     0.229 C
BRANCH   5   6
HETATM    6  N1  UNL     1      35.645 -44.284 111.207  1.00  0.00    -0.079 N
ATOM      7  H13 UNL     1      35.390 -44.306 110.220  1.00  0.00     0.274 HD
ATOM      8  H12 UNL     1      34.993 -43.575 111.544  1.00  0.00     0.274 HD
ATOM      9  H11 UNL     1      36.604 -43.956 111.315  1.00  0.00     0.274 HD
ENDBRANCH   5   6
ENDBRANCH   4   5
ENDBRANCH   3   4
ENDBRANCH   2   3
ENDBRANCH   1   2
BRANCH   1  10
HETATM   10  C6  UNL     1      38.220 -49.441 111.373  1.00  0.00     0.000 C
BRANCH  10  11
HETATM   11  C7  UNL     1      38.395 -50.594 112.322  1.00  0.00     0.000 C
BRANCH  11  12
HETATM   12  C8  UNL     1      39.702 -51.342 112.028  1.00  0.00     0.000 C
BRANCH  12  13
HETATM   13  C9  UNL     1      40.578 -50.513 111.138  1.00  0.00     0.005 C
BRANCH  13  14
HETATM   14  C10 UNL     1      42.006 -50.873 111.137  1.00  0.00    -0.008 C
HETATM   15  C11 UNL     1      42.660 -50.747 109.759  1.00  0.00     0.031 C
HETATM   16  C12 UNL     1      43.959 -51.460 110.052  1.00  0.00    -0.030 C
HETATM   17  C13 UNL     1      43.768 -52.337 111.030  1.00  0.00    -0.030 C
HETATM   18  C14 UNL     1      42.344 -52.284 111.466  1.00  0.00     0.031 C
ENDBRANCH  13  14
ENDBRANCH  12  13
ENDBRANCH  11  12
ENDBRANCH  10  11
ENDBRANCH   1  10
TORSDOF 10
ENDMDL