MODEL 1
REMARK VINA RESULT: -6.426739028      0.000      0.000
REMARK  9 active torsions:
REMARK  status: ('A' for Active; 'I' for Inactive)
REMARK    1  A    between atoms: C2_2  and  C3_3
REMARK    2  A    between atoms: C3_3  and  C4_4
REMARK    3  A    between atoms: C3_3  and  C12_14
REMARK    4  A    between atoms: C4_4  and  C5_5
REMARK    5  A    between atoms: C5_5  and  C6_6
REMARK    6  A    between atoms: C6_6  and  N1_7
REMARK    7  A    between atoms: N1_7  and  C7_9
REMARK    8  A    between atoms: C7_9  and  C8_10
REMARK    9  A    between atoms: C8_10  and  C9_11
ROOT
HETATM    1  C5  UNL     1      36.723 -49.461 110.741  1.00  0.00     0.020 C
ENDROOT
BRANCH   1   2
HETATM    2  C4  UNL     1      36.139 -48.413 111.631  1.00  0.00     0.006 C
BRANCH   2   3
HETATM    3  C3  UNL     1      34.696 -48.139 111.561  1.00  0.00    -0.012 C
BRANCH   3   4
HETATM    4  C2  UNL     1      34.106 -48.656 112.882  1.00  0.00     0.000 C
HETATM    5  C1  UNL     1      32.704 -49.146 112.655  1.00  0.00     0.005 C
ENDBRANCH   3   4
BRANCH   3   6
HETATM    6  C12 UNL     1      34.189 -46.782 111.342  1.00  0.00    -0.019 C
HETATM    7  C13 UNL     1      33.418 -46.531 110.072  1.00  0.00     0.010 C
HETATM    8  C14 UNL     1      35.203 -45.675 111.517  1.00  0.00     0.010 C
ENDBRANCH   3   6
ENDBRANCH   2   3
ENDBRANCH   1   2
BRANCH   1   9
HETATM    9  C6  UNL     1      38.067 -49.845 111.396  1.00  0.00     0.113 C
BRANCH   9  10
HETATM   10  N1  UNL     1      39.092 -48.901 111.170  1.00  0.00    -0.421 N
ATOM     11  H1  UNL     1      38.888 -47.902 111.148  1.00  0.00     0.153 HD
BRANCH  10  12
HETATM   12  C7  UNL     1      40.409 -49.380 110.974  1.00  0.00     0.114 C
BRANCH  12  13
HETATM   13  C8  UNL     1      40.668 -50.810 111.287  1.00  0.00     0.024 C
BRANCH  13  14
HETATM   14  C9  UNL     1      41.753 -51.491 110.548  1.00  0.00    -0.013 A
HETATM   15  C10 UNL     1      43.170 -51.147 110.555  1.00  0.00     0.005 A
HETATM   16  C11 UNL     1      42.686 -52.368 111.341  1.00  0.00     0.005 A
ENDBRANCH  13  14
ENDBRANCH  12  13
ENDBRANCH  10  12
ENDBRANCH   9  10
ENDBRANCH   1   9
TORSDOF 9
ENDMDL