MODEL 2
REMARK VINA RESULT: -7.332821753      0.709      1.539
REMARK  10 active torsions:
REMARK  status: ('A' for Active; 'I' for Inactive)
REMARK    1  A    between atoms: N1_1  and  C1_5
REMARK    2  A    between atoms: C1_5  and  C2_6
REMARK    3  A    between atoms: C2_6  and  C3_7
REMARK    4  A    between atoms: C3_7  and  C4_8
REMARK    5  A    between atoms: C4_8  and  C5_9
REMARK    6  A    between atoms: C5_9  and  C6_10
REMARK    7  A    between atoms: C6_10  and  C7_11
REMARK    8  A    between atoms: C7_11  and  C8_12
REMARK    9  A    between atoms: C8_12  and  C9_13
REMARK   10  A    between atoms: C9_13  and  C10_14
ROOT
HETATM    1  C6  UNL     1      36.840 -49.318 110.978  1.00  0.00     0.000 C
ENDROOT
BRANCH   1   2
HETATM    2  C5  UNL     1      35.587 -48.570 111.308  1.00  0.00     0.000 C
BRANCH   2   3
HETATM    3  C4  UNL     1      35.322 -48.451 112.781  1.00  0.00     0.000 C
BRANCH   3   4
HETATM    4  C3  UNL     1      33.968 -47.849 113.073  1.00  0.00     0.002 C
BRANCH   4   5
HETATM    5  C2  UNL     1      32.939 -48.963 112.844  1.00  0.00     0.027 C
BRANCH   5   6
HETATM    6  C1  UNL     1      31.628 -48.572 113.512  1.00  0.00     0.229 C
BRANCH   6   7
HETATM    7  N1  UNL     1      31.821 -47.383 114.298  1.00  0.00    -0.079 N
ATOM      8  H13 UNL     1      30.937 -46.983 114.613  1.00  0.00     0.274 HD
ATOM      9  H12 UNL     1      32.223 -47.589 115.213  1.00  0.00     0.274 HD
ATOM     10  H11 UNL     1      32.382 -46.711 113.775  1.00  0.00     0.274 HD
ENDBRANCH   6   7
ENDBRANCH   5   6
ENDBRANCH   4   5
ENDBRANCH   3   4
ENDBRANCH   2   3
ENDBRANCH   1   2
BRANCH   1  11
HETATM   11  C7  UNL     1      37.863 -49.289 112.078  1.00  0.00     0.000 C
BRANCH  11  12
HETATM   12  C8  UNL     1      39.237 -49.677 111.584  1.00  0.00     0.005 C
BRANCH  12  13
HETATM   13  C9  UNL     1      39.563 -51.133 111.842  1.00  0.00     0.038 C
BRANCH  13  14
HETATM   14  C10 UNL     1      40.984 -51.328 111.438  1.00  0.00    -0.058 A
HETATM   15  C11 UNL     1      41.712 -52.453 111.782  1.00  0.00     0.007 A
HETATM   16  C12 UNL     1      43.023 -52.633 111.410  1.00  0.00     0.001 A
HETATM   17  C13 UNL     1      43.675 -51.682 110.665  1.00  0.00     0.000 A
HETATM   18  C14 UNL     1      42.972 -50.548 110.307  1.00  0.00     0.001 A
HETATM   19  C15 UNL     1      41.652 -50.377 110.687  1.00  0.00     0.007 A
ENDBRANCH  13  14
ENDBRANCH  12  13
ENDBRANCH  11  12
ENDBRANCH   1  11
TORSDOF 10
ENDMDL