MODEL 5
REMARK VINA RESULT: -6.798946167      1.109      1.592
REMARK  8 active torsions:
REMARK  status: ('A' for Active; 'I' for Inactive)
REMARK    1  A    between atoms: C2_2  and  C3_3
REMARK    2  A    between atoms: C3_3  and  N1_4
REMARK    3  A    between atoms: N1_4  and  C4_7
REMARK    4  A    between atoms: C4_7  and  C5_8
REMARK    5  A    between atoms: C5_8  and  C6_9
REMARK    6  A    between atoms: C6_9  and  C7_10
REMARK    7  A    between atoms: C7_10  and  C8_11
REMARK    8  A    between atoms: C8_11  and  C9_12
ROOT
HETATM    1  C6  UNL     1      37.674 -50.103 111.313  1.00  0.00     0.002 C
ENDROOT
BRANCH   1   2
HETATM    2  C5  UNL     1      36.756 -48.881 111.400  1.00  0.00     0.027 C
BRANCH   2   3
HETATM    3  C4  UNL     1      36.423 -48.641 112.856  1.00  0.00     0.232 C
BRANCH   3   4
HETATM    4  N1  UNL     1      35.149 -47.991 113.017  1.00  0.00    -0.072 N
ATOM      5  H12 UNL     1      35.244 -46.985 112.879  1.00  0.00     0.277 HD
ATOM      6  H11 UNL     1      34.864 -48.009 113.996  1.00  0.00     0.277 HD
BRANCH   4   7
HETATM    7  C3  UNL     1      34.105 -48.508 112.186  1.00  0.00     0.259 C
BRANCH   7   8
HETATM    8  C2  UNL     1      33.411 -47.350 111.539  1.00  0.00    -0.010 C
HETATM    9  C1  UNL     1      33.928 -46.734 110.486  1.00  0.00     0.008 C
ENDBRANCH   7   8
ENDBRANCH   4   7
ENDBRANCH   3   4
ENDBRANCH   2   3
ENDBRANCH   1   2
BRANCH   1  10
HETATM   10  C7  UNL     1      38.993 -49.835 111.984  1.00  0.00     0.000 C
BRANCH  10  11
HETATM   11  C8  UNL     1      40.108 -49.542 111.016  1.00  0.00     0.004 C
BRANCH  11  12
HETATM   12  C9  UNL     1      41.271 -50.495 111.170  1.00  0.00    -0.014 C
HETATM   13  C10 UNL     1      40.787 -51.933 111.285  1.00  0.00     0.004 C
HETATM   14  C11 UNL     1      41.937 -52.714 111.925  1.00  0.00     0.000 C
HETATM   15  C12 UNL     1      43.247 -52.364 111.209  1.00  0.00     0.000 C
HETATM   16  C13 UNL     1      42.965 -51.708 109.879  1.00  0.00     0.000 C
HETATM   17  C14 UNL     1      42.184 -50.445 109.961  1.00  0.00     0.004 C
ENDBRANCH  11  12
ENDBRANCH  10  11
ENDBRANCH   1  10
TORSDOF 8
ENDMDL