MODEL 4
REMARK VINA RESULT: -5.864476829      4.370      9.519
REMARK  10 active torsions:
REMARK  status: ('A' for Active; 'I' for Inactive)
REMARK    1  A    between atoms: C2_2  and  C3_3
REMARK    2  A    between atoms: C3_3  and  C4_4
REMARK    3  A    between atoms: C4_4  and  O2_6
REMARK    4  A    between atoms: O2_6  and  C5_7
REMARK    5  A    between atoms: C6_8  and  C7_9
REMARK    6  A    between atoms: C7_9  and  O3_10
REMARK    7  A    between atoms: C8_12  and  O4_13
REMARK    8  A    between atoms: C9_15  and  O5_16
REMARK    9  A    between atoms: O5_16  and  C10_17
REMARK   10  A    between atoms: C10_17  and  O6_18
ROOT
HETATM    1  C5  UNL     1      -6.172  21.377  -7.366  1.00  0.00     0.151 C
HETATM    2  C6  UNL     1      -4.775  21.859  -7.571  1.00  0.00     0.071 C
HETATM    3  C8  UNL     1      -3.837  20.729  -7.383  1.00  0.00     0.158 C
HETATM    4  C9  UNL     1      -4.174  19.441  -8.013  1.00  0.00     0.183 C
HETATM    5  C12 UNL     1      -5.582  19.104  -8.263  1.00  0.00     0.170 C
HETATM    6  O7  UNL     1      -5.792  18.644  -9.586  1.00  0.00    -0.354 OA
HETATM    7  C13 UNL     1      -6.549  19.521 -10.305  1.00  0.00     0.138 C
HETATM    8  C14 UNL     1      -7.050  20.466  -9.490  1.00  0.00    -0.053 C
HETATM    9  C15 UNL     1      -7.913  21.552 -10.010  1.00  0.00     0.046 C
HETATM   10  C16 UNL     1      -6.589  20.183  -8.114  1.00  0.00     0.078 C
ENDROOT
BRANCH   1  11
HETATM   11  O2  UNL     1      -7.142  22.403  -7.528  1.00  0.00    -0.314 OA
BRANCH  11  12
HETATM   12  C4  UNL     1      -7.290  23.430  -6.607  1.00  0.00     0.271 C
HETATM   13  O1  UNL     1      -7.474  23.066  -5.398  1.00  0.00    -0.264 OA
BRANCH  12  14
HETATM   14  C3  UNL     1      -7.248  24.875  -6.937  1.00  0.00     0.065 A
HETATM   15  C17 UNL     1      -5.867  25.548  -7.072  1.00  0.00     0.025 A
HETATM   16  C18 UNL     1      -6.806  25.871  -5.959  1.00  0.00     0.025 A
BRANCH  14  17
HETATM   17  C2  UNL     1      -8.188  25.274  -8.050  1.00  0.00    -0.017 C
HETATM   18  C1  UNL     1      -9.435  24.836  -8.049  1.00  0.00     0.008 C
ENDBRANCH  14  17
ENDBRANCH  12  14
ENDBRANCH  11  12
ENDBRANCH   1  11
BRANCH   2  19
HETATM   19  C7  UNL     1      -4.540  22.664  -8.811  1.00  0.00     0.174 C
BRANCH  19  20
HETATM   20  O3  UNL     1      -3.613  22.038  -9.663  1.00  0.00    -0.400 OA
ATOM     21  H3  UNL     1      -4.047  21.590 -10.379  1.00  0.00     0.209 HD
ENDBRANCH  19  20
ENDBRANCH   2  19
BRANCH   3  22
HETATM   22  O4  UNL     1      -3.656  20.533  -5.994  1.00  0.00    -0.392 OA
ATOM     23  H4  UNL     1      -2.754  20.742  -5.781  1.00  0.00     0.210 HD
ENDBRANCH   3  22
BRANCH   4  24
HETATM   24  O5  UNL     1      -3.557  18.433  -7.231  1.00  0.00    -0.357 OA
BRANCH  24  25
HETATM   25  C10 UNL     1      -2.205  18.336  -7.448  1.00  0.00     0.337 C
BRANCH  25  26
HETATM   26  O6  UNL     1      -1.475  18.341  -6.267  1.00  0.00    -0.372 OA
HETATM   27  C11 UNL     1      -0.367  19.180  -6.383  1.00  0.00     0.204 C
ENDBRANCH  25  26
ENDBRANCH  24  25
ENDBRANCH   4  24
TORSDOF 10
ENDMDL