MODEL 1
REMARK VINA RESULT: -6.780794998      0.000      0.000
REMARK  9 active torsions:
REMARK  status: ('A' for Active; 'I' for Inactive)
REMARK    1  A    between atoms: O1_2  and  C2_3
REMARK    2  A    between atoms: C4_5  and  O2_6
REMARK    3  A    between atoms: C9_13  and  C10_14
REMARK    4  A    between atoms: C10_14  and  O4_15
REMARK    5  A    between atoms: O4_15  and  C11_16
REMARK    6  A    between atoms: C11_16  and  C12_17
REMARK    7  A    between atoms: C11_16  and  C13_20
REMARK    8  A    between atoms: C12_17  and  O5_18
REMARK    9  A    between atoms: C13_20  and  N1_21
ROOT
HETATM    1  C2  UNL     1      -7.289  22.055  -9.667  1.00  0.00     0.073 A
HETATM    2  C3  UNL     1      -7.604  20.772  -9.283  1.00  0.00     0.074 A
HETATM    3  C4  UNL     1      -6.652  19.901  -8.780  1.00  0.00     0.077 A
HETATM    4  C5  UNL     1      -5.381  20.358  -8.673  1.00  0.00     0.009 A
HETATM    5  C6  UNL     1      -5.035  21.656  -9.056  1.00  0.00     0.080 A
HETATM    6  C7  UNL     1      -5.989  22.485  -9.547  1.00  0.00     0.074 A
HETATM    7  O3  UNL     1      -3.703  22.000  -8.900  1.00  0.00    -0.350 OA
HETATM    8  C8  UNL     1      -2.887  21.554  -7.812  1.00  0.00     0.182 C
HETATM    9  C9  UNL     1      -3.579  20.458  -7.103  1.00  0.00     0.038 C
HETATM   10  C18 UNL     1      -4.257  19.544  -8.144  1.00  0.00     0.053 C
ENDROOT
BRANCH   9  11
HETATM   11  C10 UNL     1      -2.747  19.552  -6.255  1.00  0.00     0.175 C
BRANCH  11  12
HETATM   12  O4  UNL     1      -1.476  19.805  -6.028  1.00  0.00    -0.382 OA
BRANCH  12  13
HETATM   13  C11 UNL     1      -0.473  18.932  -5.916  1.00  0.00     0.173 C
BRANCH  13  14
HETATM   14  C12 UNL     1       0.517  18.962  -7.070  1.00  0.00     0.197 C
BRANCH  14  15
HETATM   15  O5  UNL     1      -0.209  18.891  -8.250  1.00  0.00    -0.398 OA
ATOM     16  H5  UNL     1       0.373  18.567  -8.927  1.00  0.00     0.209 HD
ENDBRANCH  14  15
ENDBRANCH  13  14
BRANCH  13  17
HETATM   17  C13 UNL     1      -1.112  17.549  -5.991  1.00  0.00     0.306 C
BRANCH  17  18
HETATM   18  N1  UNL     1      -0.570  16.590  -5.098  1.00  0.00     0.095 N
HETATM   19  C14 UNL     1      -0.239  17.086  -3.779  1.00  0.00     0.298 C
HETATM   20  C15 UNL     1       0.291  15.881  -3.004  1.00  0.00     0.198 C
HETATM   21  O6  UNL     1       0.534  14.792  -3.834  1.00  0.00    -0.388 OA
HETATM   22  C16 UNL     1      -0.609  14.283  -4.436  1.00  0.00     0.198 C
HETATM   23  C17 UNL     1      -1.443  15.450  -4.930  1.00  0.00     0.298 C
ENDBRANCH  17  18
ENDBRANCH  13  17
ENDBRANCH  12  13
ENDBRANCH  11  12
ENDBRANCH   9  11
BRANCH   3  24
HETATM   24  O2  UNL     1      -7.005  18.633  -8.409  1.00  0.00    -0.360 OA
ATOM     25  H2  UNL     1      -6.829  17.898  -8.985  1.00  0.00     0.217 HD
ENDBRANCH   3  24
BRANCH   1  26
HETATM   26  O1  UNL     1      -8.290  22.909 -10.176  1.00  0.00    -0.356 OA
HETATM   27  C1  UNL     1      -8.928  23.760  -9.245  1.00  0.00     0.210 C
ENDBRANCH   1  26
TORSDOF 9
ENDMDL