MODEL 5
REMARK VINA RESULT: -6.657043988      1.254      1.523
REMARK  11 active torsions:
REMARK  status: ('A' for Active; 'I' for Inactive)
REMARK    1  A    between atoms: C2_2  and  C3_3
REMARK    2  A    between atoms: C4_4  and  C5_5
REMARK    3  A    between atoms: C6_6  and  C7_7
REMARK    4  A    between atoms: C7_7  and  C8_8
REMARK    5  A    between atoms: C8_8  and  N1_9
REMARK    6  A    between atoms: N1_9  and  C9_11
REMARK    7  A    between atoms: C9_11  and  C10_12
REMARK    8  A    between atoms: C10_12  and  O1_13
REMARK    9  A    between atoms: C10_12  and  C11_15
REMARK   10  A    between atoms: C11_15  and  N2_16
REMARK   11  A    between atoms: C14_19  and  N3_20
ROOT
HETATM    1  C10 UNL     1      -5.200  20.045  -8.625  1.00  0.00     0.173 C
ENDROOT
BRANCH   1   2
HETATM    2  C9  UNL     1      -4.530  18.833  -8.133  1.00  0.00     0.150 C
BRANCH   2   3
HETATM    3  N1  UNL     1      -3.505  19.111  -7.119  1.00  0.00    -0.418 N
ATOM      4  H1  UNL     1      -3.680  19.708  -6.311  1.00  0.00     0.153 HD
BRANCH   3   5
HETATM    5  C8  UNL     1      -2.252  18.487  -7.348  1.00  0.00     0.126 C
BRANCH   5   6
HETATM    6  C7  UNL     1      -1.324  18.535  -6.155  1.00  0.00     0.114 C
BRANCH   6   7
HETATM    7  C6  UNL     1      -1.225  17.136  -5.681  1.00  0.00    -0.091 C
HETATM    8  C5  UNL     1      -1.126  15.992  -5.297  1.00  0.00    -0.015 C
BRANCH   8   9
HETATM    9  C4  UNL     1      -0.987  14.649  -4.837  1.00  0.00    -0.015 C
HETATM   10  C3  UNL     1      -0.865  13.518  -4.429  1.00  0.00    -0.093 C
BRANCH  10  11
HETATM   11  C2  UNL     1      -0.692  12.152  -3.924  1.00  0.00     0.090 C
HETATM   12  C1  UNL     1       0.358  11.491  -4.789  1.00  0.00     0.018 C
ENDBRANCH  10  11
ENDBRANCH   8   9
ENDBRANCH   6   7
ENDBRANCH   5   6
ENDBRANCH   3   5
ENDBRANCH   2   3
ENDBRANCH   1   2
BRANCH   1  13
HETATM   13  O1  UNL     1      -5.449  19.982  -9.998  1.00  0.00    -0.389 OA
ATOM     14  H1  UNL     1      -4.861  19.380 -10.438  1.00  0.00     0.210 HD
ENDBRANCH   1  13
BRANCH   1  15
HETATM   15  C11 UNL     1      -4.569  21.320  -8.176  1.00  0.00     0.096 C
BRANCH  15  16
HETATM   16  N2  UNL     1      -5.410  22.177  -7.464  1.00  0.00    -0.371 N
HETATM   17  C12 UNL     1      -6.694  21.745  -7.134  1.00  0.00     0.065 C
HETATM   18  C13 UNL     1      -7.783  22.803  -7.240  1.00  0.00     0.072 C
HETATM   19  C14 UNL     1      -7.694  23.678  -8.435  1.00  0.00     0.122 C
HETATM   20  C17 UNL     1      -6.315  23.826  -9.025  1.00  0.00     0.048 C
HETATM   21  C18 UNL     1      -5.306  23.551  -7.926  1.00  0.00     0.129 C
BRANCH  19  22
HETATM   22  N3  UNL     1      -8.144  25.012  -8.060  1.00  0.00    -0.254 N
HETATM   23  N4  UNL     1      -7.810  26.216  -8.497  1.00  0.00    -0.288 N
HETATM   24  C15 UNL     1      -8.503  27.157  -7.841  1.00  0.00     0.081 A
ATOM     25  H4  UNL     1      -7.124  26.402  -9.229  1.00  0.00     0.188 HD
HETATM   26  C16 UNL     1      -8.667  28.621  -7.774  1.00  0.00     0.079 C
HETATM   27  S1  UNL     1      -9.188  25.832  -7.028  1.00  0.00     0.019 SA
ENDBRANCH  19  22
ENDBRANCH  15  16
ENDBRANCH   1  15
TORSDOF 11
ENDMDL