MODEL 1
REMARK VINA RESULT: -6.002533714      0.000      0.000
REMARK  9 active torsions:
REMARK  status: ('A' for Active; 'I' for Inactive)
REMARK    1  A    between atoms: O1_2  and  C2_3
REMARK    2  A    between atoms: C2_3  and  C3_4
REMARK    3  A    between atoms: C3_4  and  O2_5
REMARK    4  A    between atoms: O2_5  and  C4_6
REMARK    5  A    between atoms: C8_12  and  C9_13
REMARK    6  A    between atoms: C8_12  and  C16_22
REMARK    7  A    between atoms: C9_13  and  C10_14
REMARK       I    between atoms: C10_14  and  N1_16
REMARK    8  A    between atoms: C16_22  and  O6_23
REMARK    9  A    between atoms: N2_25  and  O7_27
ROOT
HETATM    1  C4  UNL     1      -6.778  22.251  -7.415  1.00  0.00     0.306 C
HETATM    2  O3  UNL     1      -6.547  23.488  -6.767  1.00  0.00    -0.323 OA
HETATM    3  C5  UNL     1      -5.274  23.833  -7.117  1.00  0.00     0.162 C
HETATM    4  C6  UNL     1      -4.507  24.475  -5.951  1.00  0.00     0.078 C
HETATM    5  C7  UNL     1      -5.368  24.920  -8.165  1.00  0.00     0.078 C
HETATM    6  O4  UNL     1      -4.572  22.723  -7.477  1.00  0.00    -0.331 OA
HETATM    7  C8  UNL     1      -5.473  21.681  -7.787  1.00  0.00     0.188 C
ENDROOT
BRANCH   7   8
HETATM    8  C9  UNL     1      -5.202  20.463  -6.932  1.00  0.00     0.155 C
BRANCH   8   9
HETATM    9  C10 UNL     1      -4.100  19.619  -7.392  1.00  0.00     0.223 C
HETATM   10  O5  UNL     1      -4.348  18.713  -8.226  1.00  0.00    -0.273 OA
HETATM   11  N1  UNL     1      -2.763  19.767  -6.950  1.00  0.00    -0.352 N
HETATM   12  C11 UNL     1      -2.322  20.761  -5.994  1.00  0.00     0.125 C
HETATM   13  C15 UNL     1      -1.692  18.888  -7.450  1.00  0.00     0.125 C
HETATM   14  C12 UNL     1      -1.555  20.002  -4.902  1.00  0.00     0.020 C
HETATM   15  C13 UNL     1      -0.284  19.442  -5.459  1.00  0.00     0.003 C
HETATM   16  C14 UNL     1      -0.378  19.394  -6.956  1.00  0.00     0.020 C
ENDBRANCH   8   9
ENDBRANCH   7   8
BRANCH   7  17
HETATM   17  C16 UNL     1      -5.252  21.407  -9.223  1.00  0.00     0.176 C
HETATM   18  N2  UNL     1      -5.944  20.616  -9.926  1.00  0.00    -0.248 N
ATOM     19  H2  UNL     1      -5.647  20.550 -10.900  1.00  0.00     0.196 HD
BRANCH  17  20
HETATM   20  O6  UNL     1      -4.212  22.048  -9.908  1.00  0.00    -0.346 OA
ATOM     21  H6  UNL     1      -3.326  21.709  -9.854  1.00  0.00     0.219 HD
ENDBRANCH  17  20
BRANCH  18  22
HETATM   22  O7  UNL     1      -6.999  19.850  -9.618  1.00  0.00    -0.288 OA
ATOM     23  H7  UNL     1      -7.766  19.606 -10.122  1.00  0.00     0.244 HD
ENDBRANCH  18  22
ENDBRANCH   7  17
BRANCH   1  24
HETATM   24  O2  UNL     1      -7.716  22.366  -8.396  1.00  0.00    -0.355 OA
BRANCH  24  25
HETATM   25  C3  UNL     1      -8.904  22.923  -8.037  1.00  0.00     0.197 C
BRANCH  25  26
HETATM   26  C2  UNL     1      -9.288  24.211  -8.668  1.00  0.00     0.193 C
BRANCH  26  27
HETATM   27  O1  UNL     1      -9.639  25.142  -7.720  1.00  0.00    -0.394 OA
HETATM   28  C1  UNL     1      -8.809  26.218  -7.570  1.00  0.00     0.201 C
ENDBRANCH  26  27
ENDBRANCH  25  26
ENDBRANCH  24  25
ENDBRANCH   1  24
TORSDOF 9
ENDMDL