MODEL 2
REMARK VINA RESULT: -6.701543125      1.422      1.905
REMARK  8 active torsions:
REMARK  status: ('A' for Active; 'I' for Inactive)
REMARK    1  A    between atoms: O1_2  and  C2_3
REMARK    2  A    between atoms: C2_3  and  C3_4
REMARK    3  A    between atoms: C3_4  and  O2_5
REMARK    4  A    between atoms: C3_4  and  C4_7
REMARK    5  A    between atoms: C4_7  and  O3_8
REMARK    6  A    between atoms: O3_8  and  C5_9
REMARK    7  A    between atoms: C9_13  and  O4_14
REMARK    8  A    between atoms: C11_16  and  O5_17
ROOT
HETATM    1  C5  UNL     1      -2.604  19.776  -7.036  1.00  0.00     0.105 A
HETATM    2  C6  UNL     1      -3.582  19.021  -7.630  1.00  0.00     0.049 A
HETATM    3  C7  UNL     1      -4.638  19.645  -8.289  1.00  0.00    -0.026 A
HETATM    4  C8  UNL     1      -4.730  21.038  -8.364  1.00  0.00     0.075 A
HETATM    5  C9  UNL     1      -3.762  21.793  -7.772  1.00  0.00     0.131 A
HETATM    6  C11 UNL     1      -2.723  21.183  -7.124  1.00  0.00     0.137 A
HETATM    7  N1  UNL     1      -5.795  21.635  -9.095  1.00  0.00    -0.349 N
HETATM    8  C13 UNL     1      -5.951  22.815  -9.834  1.00  0.00     0.153 C
HETATM    9  C14 UNL     1      -7.484  22.826 -10.056  1.00  0.00     0.254 C
HETATM   10  N2  UNL     1      -7.867  21.454 -10.113  1.00  0.00    -0.053 N
ATOM     11  H21 UNL     1      -7.813  21.041 -11.044  1.00  0.00     0.279 HD
ATOM     12  H22 UNL     1      -8.865  21.292  -9.978  1.00  0.00     0.279 HD
HETATM   13  C15 UNL     1      -7.029  20.816  -9.136  1.00  0.00     0.287 C
HETATM   14  C16 UNL     1      -6.649  19.443  -9.706  1.00  0.00     0.059 C
HETATM   15  C17 UNL     1      -5.650  18.756  -8.874  1.00  0.00     0.044 C
ENDROOT
BRANCH   1  16
HETATM   16  O3  UNL     1      -1.545  19.248  -6.383  1.00  0.00    -0.346 OA
BRANCH  16  17
HETATM   17  C4  UNL     1      -0.241  19.027  -6.463  1.00  0.00     0.209 C
BRANCH  17  18
HETATM   18  C3  UNL     1       0.408  17.859  -5.810  1.00  0.00     0.166 C
BRANCH  18  19
HETATM   19  C2  UNL     1      -0.739  16.892  -5.451  1.00  0.00     0.200 C
BRANCH  19  20
HETATM   20  O1  UNL     1      -0.236  15.588  -5.458  1.00  0.00    -0.393 OA
HETATM   21  C1  UNL     1      -1.277  14.742  -5.074  1.00  0.00     0.201 C
ENDBRANCH  19  20
ENDBRANCH  18  19
BRANCH  18  22
HETATM   22  O2  UNL     1       1.331  17.148  -6.497  1.00  0.00    -0.391 OA
ATOM     23  H2  UNL     1       1.971  17.766  -6.830  1.00  0.00     0.210 HD
ENDBRANCH  18  22
ENDBRANCH  17  18
ENDBRANCH  16  17
ENDBRANCH   1  16
BRANCH   6  24
HETATM   24  O5  UNL     1      -1.730  21.940  -6.520  1.00  0.00    -0.351 OA
HETATM   25  C12 UNL     1      -1.687  22.275  -5.166  1.00  0.00     0.210 C
ENDBRANCH   6  24
BRANCH   5  26
HETATM   26  O4  UNL     1      -3.846  23.188  -7.826  1.00  0.00    -0.351 OA
HETATM   27  C10 UNL     1      -4.526  23.881  -6.744  1.00  0.00     0.210 C
ENDBRANCH   5  26
TORSDOF 8
ENDMDL