MODEL 2
REMARK VINA RESULT: -6.507544526      4.874      9.558
REMARK  8 active torsions:
REMARK  status: ('A' for Active; 'I' for Inactive)
REMARK    1  A    between atoms: C2_3  and  C3_4
REMARK    2  A    between atoms: C3_4  and  S1_5
REMARK    3  A    between atoms: S1_5  and  C4_6
REMARK    4  A    between atoms: C5_9  and  N3_10
REMARK    5  A    between atoms: N3_10  and  C6_12
REMARK    6  A    between atoms: C6_12  and  C7_13
REMARK    7  A    between atoms: C7_13  and  C8_14
REMARK    8  A    between atoms: C8_14  and  N4_15
ROOT
HETATM    1  N1  UNL     1      -6.591  19.329 -11.103  1.00  0.00    -0.197 NA
HETATM    2  C1  UNL     1      -6.397  19.192  -9.964  1.00  0.00     0.059 C
HETATM    3  C2  UNL     1      -6.129  19.012  -8.535  1.00  0.00     0.134 C
ENDROOT
BRANCH   3   4
HETATM    4  C3  UNL     1      -4.696  18.568  -8.329  1.00  0.00     0.096 C
BRANCH   4   5
HETATM    5  S1  UNL     1      -3.763  19.711  -7.295  1.00  0.00    -0.093 SA
BRANCH   5   6
HETATM    6  C4  UNL     1      -2.168  19.035  -6.853  1.00  0.00     0.147 A
HETATM    7  N2  UNL     1      -2.042  17.928  -6.111  1.00  0.00    -0.321 N
HETATM    8  C5  UNL     1      -0.821  17.398  -5.769  1.00  0.00     0.138 A
ATOM      9  H2  UNL     1      -2.887  17.459  -5.787  1.00  0.00     0.169 HD
HETATM   10  C13 UNL     1       0.279  18.073  -6.235  1.00  0.00     0.122 A
HETATM   11  N5  UNL     1       1.595  17.869  -6.114  1.00  0.00    -0.346 N
HETATM   12  C15 UNL     1       0.124  19.227  -7.007  1.00  0.00     0.139 A
HETATM   13  C14 UNL     1       2.286  18.839  -6.773  1.00  0.00     0.182 A
ATOM     14  H5  UNL     1       2.020  17.097  -5.602  1.00  0.00     0.167 HD
HETATM   15  N6  UNL     1       1.376  19.650  -7.307  1.00  0.00    -0.337 N
ATOM     16  H6  UNL     1       1.592  20.476  -7.865  1.00  0.00     0.168 HD
HETATM   17  N7  UNL     1      -1.093  19.710  -7.318  1.00  0.00    -0.321 N
ATOM     18  H7  UNL     1      -1.200  20.553  -7.882  1.00  0.00     0.169 HD
BRANCH   8  19
HETATM   19  N3  UNL     1      -0.812  16.384  -5.088  1.00  0.00    -0.354 N
ATOM     20  H3  UNL     1      -0.045  16.433  -4.418  1.00  0.00     0.166 HD
BRANCH  19  21
HETATM   21  C6  UNL     1      -1.500  15.176  -4.919  1.00  0.00     0.068 C
BRANCH  21  22
HETATM   22  C7  UNL     1      -0.646  13.951  -4.905  1.00  0.00     0.088 C
BRANCH  22  23
HETATM   23  C8  UNL     1      -0.600  13.173  -3.628  1.00  0.00     0.063 C
BRANCH  23  24
HETATM   24  N4  UNL     1       0.177  13.632  -2.566  1.00  0.00    -0.389 N
HETATM   25  C9  UNL     1       1.556  13.881  -2.710  1.00  0.00     0.148 C
HETATM   26  C10 UNL     1       1.935  15.278  -2.210  1.00  0.00     0.187 C
HETATM   27  O1  UNL     1       0.844  16.150  -2.423  1.00  0.00    -0.388 OA
HETATM   28  C11 UNL     1      -0.116  15.846  -1.492  1.00  0.00     0.187 C
HETATM   29  C12 UNL     1      -0.470  14.401  -1.538  1.00  0.00     0.148 C
ENDBRANCH  23  24
ENDBRANCH  22  23
ENDBRANCH  21  22
ENDBRANCH  19  21
ENDBRANCH   8  19
ENDBRANCH   5   6
ENDBRANCH   4   5
ENDBRANCH   3   4
TORSDOF 8
ENDMDL