MODEL 3
REMARK VINA RESULT: -6.913960347      4.524      9.731
REMARK  9 active torsions:
REMARK  status: ('A' for Active; 'I' for Inactive)
REMARK    1  A    between atoms: C2_2  and  C4_4
REMARK    2  A    between atoms: C4_4  and  C5_5
REMARK    3  A    between atoms: C6_6  and  C7_7
REMARK    4  A    between atoms: C7_7  and  C8_8
REMARK    5  A    between atoms: C9_10  and  C10_11
REMARK    6  A    between atoms: C10_11  and  O2_12
REMARK    7  A    between atoms: O2_12  and  S1_13
REMARK    8  A    between atoms: S1_13  and  N1_14
REMARK    9  A    between atoms: C15_24  and  O5_25
ROOT
HETATM    1  S1  UNL     1      -1.445  18.989  -6.995  1.00  0.00     0.238 S
HETATM    2  O3  UNL     1      -1.101  20.307  -6.219  1.00  0.00    -0.206 OA
HETATM    3  C11 UNL     1       0.371  18.740  -7.917  1.00  0.00     0.200 C
HETATM    4  N2  UNL     1       1.399  18.613  -8.460  1.00  0.00    -0.179 NA
ENDROOT
BRANCH   1   5
HETATM    5  O2  UNL     1      -2.651  19.674  -7.859  1.00  0.00    -0.278 OA
BRANCH   5   6
HETATM    6  C10 UNL     1      -3.544  20.632  -7.528  1.00  0.00     0.221 C
BRANCH   6   7
HETATM    7  C9  UNL     1      -4.929  19.987  -7.477  1.00  0.00     0.149 C
HETATM    8  O1  UNL     1      -5.860  20.955  -7.487  1.00  0.00    -0.375 OA
HETATM    9  C8  UNL     1      -6.134  21.655  -8.591  1.00  0.00     0.156 C
HETATM   10  C15 UNL     1      -7.286  21.088  -9.429  1.00  0.00     0.178 C
HETATM   11  C14 UNL     1      -7.092  19.612  -9.432  1.00  0.00     0.182 A
HETATM   12  C13 UNL     1      -5.628  19.436  -9.803  1.00  0.00     0.156 A
HETATM   13  O4  UNL     1      -6.657  18.852 -10.443  1.00  0.00    -0.373 OA
HETATM   14  C12 UNL     1      -4.972  18.960  -8.561  1.00  0.00     0.069 C
BRANCH   9  15
HETATM   15  C7  UNL     1      -6.666  23.031  -8.142  1.00  0.00     0.061 C
BRANCH  15  16
HETATM   16  C6  UNL     1      -7.659  22.902  -7.079  1.00  0.00    -0.028 C
HETATM   17  C5  UNL     1      -8.798  23.539  -7.005  1.00  0.00    -0.030 C
BRANCH  17  18
HETATM   18  C4  UNL     1      -9.275  24.504  -7.992  1.00  0.00     0.030 C
BRANCH  18  19
HETATM   19  C2  UNL     1      -9.279  25.933  -7.432  1.00  0.00    -0.019 C
HETATM   20  C1  UNL     1      -9.268  25.865  -5.926  1.00  0.00     0.010 C
HETATM   21  C3  UNL     1      -8.036  26.669  -7.876  1.00  0.00     0.010 C
ENDBRANCH  18  19
ENDBRANCH  17  18
ENDBRANCH  15  16
ENDBRANCH   9  15
BRANCH  10  22
HETATM   22  O5  UNL     1      -7.316  21.663 -10.677  1.00  0.00    -0.390 OA
ATOM     23  H5  UNL     1      -6.712  22.394 -10.729  1.00  0.00     0.210 HD
ENDBRANCH  10  22
ENDBRANCH   6   7
ENDBRANCH   5   6
ENDBRANCH   1   5
BRANCH   1  24
HETATM   24  N1  UNL     1      -1.417  17.982  -5.395  1.00  0.00    -0.328 N
ATOM     25  H12 UNL     1      -1.191  18.556  -4.582  1.00  0.00     0.168 HD
ATOM     26  H11 UNL     1      -1.583  16.996  -5.192  1.00  0.00     0.168 HD
ENDBRANCH   1  24
TORSDOF 9
ENDMDL