MODEL 5
REMARK VINA RESULT: -5.759301624      3.110      4.800
REMARK  8 active torsions:
REMARK  status: ('A' for Active; 'I' for Inactive)
REMARK    1  A    between atoms: C6_8  and  C7_9
REMARK    2  A    between atoms: C7_9  and  C8_10
REMARK    3  A    between atoms: C8_10  and  C9_11
REMARK    4  A    between atoms: C9_11  and  C10_12
REMARK    5  A    between atoms: C10_12  and  S1_13
REMARK    6  A    between atoms: C12_20  and  C13_21
REMARK    7  A    between atoms: C13_21  and  C14_22
REMARK    8  A    between atoms: C14_22  and  N1_23
ROOT
HETATM    1  C1  UNL     1      -6.880  24.787  -8.043  1.00  0.00     0.048 C
HETATM    2  C2  UNL     1      -7.102  23.298  -8.227  1.00  0.00     0.084 C
HETATM    3  C3  UNL     1      -8.582  23.051  -8.123  1.00  0.00     0.048 C
HETATM    4  O1  UNL     1      -6.452  22.650  -7.195  1.00  0.00    -0.338 OA
HETATM    5  C4  UNL     1      -5.419  21.918  -7.716  1.00  0.00     0.209 C
HETATM    6  C5  UNL     1      -4.096  22.531  -7.321  1.00  0.00     0.241 C
HETATM    7  O2  UNL     1      -3.021  21.700  -7.516  1.00  0.00    -0.356 OA
HETATM    8  C6  UNL     1      -3.372  20.366  -7.693  1.00  0.00     0.260 C
HETATM    9  O6  UNL     1      -4.341  20.067  -6.721  1.00  0.00    -0.356 OA
HETATM   10  C11 UNL     1      -5.559  20.492  -7.216  1.00  0.00     0.241 C
HETATM   11  O7  UNL     1      -5.504  21.914  -9.082  1.00  0.00    -0.342 OA
HETATM   12  C12 UNL     1      -6.484  22.786  -9.481  1.00  0.00     0.171 C
ENDROOT
BRANCH  12  13
HETATM   13  C13 UNL     1      -7.397  22.110 -10.394  1.00  0.00     0.139 C
BRANCH  13  14
HETATM   14  C14 UNL     1      -7.054  20.886 -10.776  1.00  0.00    -0.075 C
BRANCH  14  15
HETATM   15  N1  UNL     1      -6.598  19.748 -11.110  1.00  0.00    -0.370 N
ATOM     16  H12 UNL     1      -5.743  20.114 -10.692  1.00  0.00     0.165 HD
ATOM     17  H11 UNL     1      -6.330  18.814 -11.419  1.00  0.00     0.165 HD
ENDBRANCH  14  15
ENDBRANCH  13  14
ENDBRANCH  12  13
BRANCH   8  18
HETATM   18  C7  UNL     1      -2.158  19.529  -7.353  1.00  0.00     0.061 C
BRANCH  18  19
HETATM   19  C8  UNL     1      -1.643  19.808  -5.958  1.00  0.00     0.006 C
BRANCH  19  20
HETATM   20  C9  UNL     1      -0.295  19.159  -5.834  1.00  0.00     0.018 C
BRANCH  20  21
HETATM   21  C10 UNL     1       0.782  19.861  -6.597  1.00  0.00     0.165 C
BRANCH  21  22
HETATM   22  S1  UNL     1       1.756  18.595  -7.419  1.00  0.00     0.101 S
HETATM   23  O3  UNL     1       1.582  17.335  -6.589  1.00  0.00    -0.595 OA
HETATM   24  O4  UNL     1       1.325  18.403  -8.828  1.00  0.00    -0.595 OA
HETATM   25  O5  UNL     1       3.378  19.051  -7.305  1.00  0.00    -0.595 OA
ENDBRANCH  21  22
ENDBRANCH  20  21
ENDBRANCH  19  20
ENDBRANCH  18  19
ENDBRANCH   8  18
TORSDOF 8
ENDMDL