MODEL 2
REMARK VINA RESULT: -5.880899156      1.489      1.977
REMARK  9 active torsions:
REMARK  status: ('A' for Active; 'I' for Inactive)
REMARK    1  A    between atoms: C2_2  and  C3_3
REMARK    2  A    between atoms: C3_3  and  O1_4
REMARK    3  A    between atoms: O1_4  and  C4_5
REMARK    4  A    between atoms: C6_7  and  C7_8
REMARK    5  A    between atoms: C7_8  and  O2_9
REMARK    6  A    between atoms: C8_12  and  O4_13
REMARK    7  A    between atoms: C10_15  and  C11_16
REMARK    8  A    between atoms: C12_17  and  C13_18
REMARK    9  A    between atoms: C18_25  and  O7_26
ROOT
HETATM    1  C4  UNL     1      -2.118  22.021  -6.553  1.00  0.00     0.143 C
HETATM    2  C5  UNL     1      -3.190  21.333  -6.887  1.00  0.00     0.002 C
HETATM    3  C6  UNL     1      -3.304  19.901  -7.126  1.00  0.00     0.181 C
HETATM    4  O3  UNL     1      -3.731  19.760  -8.471  1.00  0.00    -0.349 OA
HETATM    5  C8  UNL     1      -5.076  20.116  -8.479  1.00  0.00     0.270 C
HETATM    6  C10 UNL     1      -5.283  21.587  -8.217  1.00  0.00     0.096 C
HETATM    7  C18 UNL     1      -4.481  22.100  -7.051  1.00  0.00     0.164 C
ENDROOT
BRANCH   6   8
HETATM    8  C11 UNL     1      -5.002  22.409  -9.421  1.00  0.00    -0.016 C
HETATM    9  C12 UNL     1      -5.787  23.343  -9.917  1.00  0.00     0.002 C
BRANCH   9  10
HETATM   10  C13 UNL     1      -7.097  23.738  -9.354  1.00  0.00     0.154 C
HETATM   11  C14 UNL     1      -8.009  22.551  -9.225  1.00  0.00     0.037 C
HETATM   12  C15 UNL     1      -9.167  22.807  -8.293  1.00  0.00     0.013 C
HETATM   13  C16 UNL     1      -8.573  22.996  -6.891  1.00  0.00     0.111 C
HETATM   14  C17 UNL     1      -7.664  24.168  -6.995  1.00  0.00     0.259 C
HETATM   15  O5  UNL     1      -7.590  24.960  -6.024  1.00  0.00    -0.265 OA
HETATM   16  O6  UNL     1      -6.911  24.404  -8.115  1.00  0.00    -0.312 OA
ENDBRANCH   9  10
ENDBRANCH   6   8
BRANCH   5  17
HETATM   17  O4  UNL     1      -5.567  19.769  -9.729  1.00  0.00    -0.365 OA
HETATM   18  C9  UNL     1      -6.456  18.715  -9.566  1.00  0.00     0.204 C
ENDBRANCH   5  17
BRANCH   7  19
HETATM   19  O7  UNL     1      -4.204  23.459  -7.174  1.00  0.00    -0.390 OA
ATOM     20  H7  UNL     1      -4.759  23.838  -7.846  1.00  0.00     0.210 HD
ENDBRANCH   7  19
BRANCH   3  21
HETATM   21  C7  UNL     1      -2.118  19.051  -6.867  1.00  0.00     0.201 C
BRANCH  21  22
HETATM   22  O2  UNL     1      -1.396  19.017  -8.099  1.00  0.00    -0.398 OA
ATOM     23  H2  UNL     1      -0.870  18.227  -8.063  1.00  0.00     0.209 HD
ENDBRANCH  21  22
ENDBRANCH   3  21
BRANCH   1  24
HETATM   24  O1  UNL     1      -0.896  21.683  -6.341  1.00  0.00    -0.359 OA
BRANCH  24  25
HETATM   25  C3  UNL     1       0.342  21.339  -6.128  1.00  0.00     0.201 C
BRANCH  25  26
HETATM   26  C2  UNL     1       1.399  22.303  -6.576  1.00  0.00    -0.011 C
HETATM   27  C1  UNL     1       2.365  21.866  -7.351  1.00  0.00     0.009 C
ENDBRANCH  25  26
ENDBRANCH  24  25
ENDBRANCH   1  24
TORSDOF 9
ENDMDL