MODEL 5
REMARK VINA RESULT: -6.658495724      1.131      1.545
REMARK  8 active torsions:
REMARK  status: ('A' for Active; 'I' for Inactive)
REMARK    1  A    between atoms: C3_3  and  O1_4
REMARK    2  A    between atoms: O1_4  and  C4_5
REMARK    3  A    between atoms: C4_5  and  C5_6
REMARK    4  A    between atoms: C5_6  and  O2_7
REMARK    5  A    between atoms: O2_7  and  C6_8
REMARK    6  A    between atoms: C6_8  and  C7_9
REMARK    7  A    between atoms: C10_15  and  N2_16
REMARK    8  A    between atoms: C15_24  and  N4_25
ROOT
HETATM    1  C1  UNL     1       0.446  11.424  -4.722  1.00  0.00     0.014 C
HETATM    2  C2  UNL     1       0.097  12.514  -4.388  1.00  0.00    -0.091 C
HETATM    3  C3  UNL     1      -0.317  13.892  -3.982  1.00  0.00     0.260 C
ENDROOT
BRANCH   3   4
HETATM    4  O1  UNL     1      -0.347  14.656  -5.127  1.00  0.00    -0.377 OA
BRANCH   4   5
HETATM    5  C4  UNL     1      -1.297  15.659  -5.177  1.00  0.00     0.195 C
BRANCH   5   6
HETATM    6  C5  UNL     1      -0.430  16.892  -4.740  1.00  0.00     0.194 C
BRANCH   6   7
HETATM    7  O2  UNL     1      -0.896  17.920  -5.393  1.00  0.00    -0.385 OA
BRANCH   7   8
HETATM    8  C6  UNL     1      -0.354  18.699  -6.309  1.00  0.00     0.207 C
BRANCH   8   9
HETATM    9  C7  UNL     1      -1.100  20.015  -6.511  1.00  0.00    -0.011 A
HETATM   10  C8  UNL     1      -0.513  21.142  -6.012  1.00  0.00     0.062 A
HETATM   11  S1  UNL     1      -1.768  22.330  -6.097  1.00  0.00    -0.082 SA
HETATM   12  C9  UNL     1      -2.992  21.311  -6.771  1.00  0.00     0.104 A
HETATM   13  N1  UNL     1      -4.284  21.563  -7.194  1.00  0.00    -0.184 N
HETATM   14  C16 UNL     1      -2.384  20.116  -6.903  1.00  0.00     0.051 A
HETATM   15  C10 UNL     1      -4.988  20.600  -7.776  1.00  0.00     0.682 A
ATOM     16  H1  UNL     1      -4.695  22.486  -7.058  1.00  0.00     0.185 HD
HETATM   17  N3  UNL     1      -4.421  19.413  -7.935  1.00  0.00    -0.176 N
HETATM   18  C15 UNL     1      -3.154  19.088  -7.535  1.00  0.00     0.128 A
ATOM     19  H3  UNL     1      -4.973  18.685  -8.390  1.00  0.00     0.186 HD
BRANCH  15  20
HETATM   20  N2  UNL     1      -6.273  20.880  -8.223  1.00  0.00    -0.213 N
HETATM   21  C11 UNL     1      -7.007  20.091  -9.190  1.00  0.00     0.167 C
HETATM   22  C12 UNL     1      -7.067  21.039 -10.421  1.00  0.00     0.188 C
HETATM   23  O3  UNL     1      -7.917  22.053 -10.036  1.00  0.00    -0.388 OA
HETATM   24  C13 UNL     1      -7.423  22.861  -9.044  1.00  0.00     0.188 C
HETATM   25  C14 UNL     1      -7.008  22.082  -7.783  1.00  0.00     0.167 C
ENDBRANCH  15  20
BRANCH  18  26
HETATM   26  N4  UNL     1      -2.764  17.942  -7.783  1.00  0.00    -0.384 N
ATOM     27  H42 UNL     1      -2.431  17.610  -8.688  1.00  0.00     0.157 HD
ATOM     28  H41 UNL     1      -2.805  17.264  -7.023  1.00  0.00     0.157 HD
ENDBRANCH  18  26
ENDBRANCH   8   9
ENDBRANCH   7   8
ENDBRANCH   6   7
ENDBRANCH   5   6
ENDBRANCH   4   5
ENDBRANCH   3   4
TORSDOF 8
ENDMDL