MODEL 4
REMARK VINA RESULT: -5.297121118      2.239      7.428
REMARK  7 active torsions:
REMARK  status: ('A' for Active; 'I' for Inactive)
REMARK    1  A    between atoms: C2_2  and  C4_4
REMARK    2  A    between atoms: C5_8  and  C6_9
REMARK    3  A    between atoms: N2_10  and  O1_12
REMARK    4  A    between atoms: O1_12  and  C7_13
REMARK    5  A    between atoms: C7_13  and  C8_14
REMARK    6  A    between atoms: C8_14  and  N3_15
REMARK    7  A    between atoms: N4_22  and  O2_23
ROOT
HETATM    1  C4  UNL     1      -0.845  16.628  -4.274  1.00  0.00     0.314 C
HETATM    2  N1  UNL     1      -1.824  17.146  -5.218  1.00  0.00    -0.042 N
ATOM      3  H11 UNL     1      -2.786  17.132  -4.876  1.00  0.00     0.280 HD
ATOM      4  H12 UNL     1      -1.986  16.546  -6.026  1.00  0.00     0.280 HD
HETATM    5  C5  UNL     1      -1.318  18.496  -5.552  1.00  0.00     0.252 C
HETATM    6  C12 UNL     1       0.053  18.529  -4.988  1.00  0.00     0.067 C
HETATM    7  C13 UNL     1       0.069  19.122  -3.600  1.00  0.00     0.037 C
HETATM    8  C14 UNL     1       1.072  19.245  -5.840  1.00  0.00     0.037 C
HETATM    9  N4  UNL     1       0.411  17.116  -4.877  1.00  0.00    -0.153 NA
ENDROOT
BRANCH   5  10
HETATM   10  C6  UNL     1      -1.438  18.700  -6.989  1.00  0.00     0.122 C
HETATM   11  N2  UNL     1      -2.467  18.568  -7.693  1.00  0.00    -0.280 N
ATOM     12  H2  UNL     1      -2.278  18.775  -8.674  1.00  0.00     0.193 HD
BRANCH  11  13
HETATM   13  O1  UNL     1      -3.722  18.235  -7.507  1.00  0.00    -0.279 OA
BRANCH  13  14
HETATM   14  C7  UNL     1      -4.880  18.595  -8.166  1.00  0.00     0.229 C
BRANCH  14  15
HETATM   15  C8  UNL     1      -5.587  19.773  -7.516  1.00  0.00     0.264 C
BRANCH  15  16
HETATM   16  N3  UNL     1      -6.000  20.751  -8.492  1.00  0.00    -0.076 N
HETATM   17  C9  UNL     1      -7.038  21.626  -7.956  1.00  0.00     0.271 C
HETATM   18  C10 UNL     1      -6.563  20.138  -9.684  1.00  0.00     0.271 C
HETATM   19  C11 UNL     1      -4.875  21.601  -8.882  1.00  0.00     0.271 C
ENDBRANCH  15  16
ENDBRANCH  14  15
ENDBRANCH  13  14
ENDBRANCH  11  13
ENDBRANCH   5  10
BRANCH   1  20
HETATM   20  C2  UNL     1      -0.806  15.173  -4.172  1.00  0.00    -0.047 C
HETATM   21  C1  UNL     1      -0.113  14.588  -3.213  1.00  0.00     0.017 C
HETATM   22  C3  UNL     1      -1.560  14.346  -5.147  1.00  0.00     0.046 C
ENDBRANCH   1  20
BRANCH   9  23
HETATM   23  O2  UNL     1       0.480  16.672  -6.176  1.00  0.00    -0.310 OA
ATOM     24  H2  UNL     1       1.286  16.182  -6.289  1.00  0.00     0.237 HD
ENDBRANCH   9  23
TORSDOF 7
ENDMDL