MODEL 3
REMARK VINA RESULT: -6.191973197      4.667      7.253
REMARK  7 active torsions:
REMARK  status: ('A' for Active; 'I' for Inactive)
REMARK    1  A    between atoms: C4_8  and  C5_9
REMARK    2  A    between atoms: C5_9  and  C6_10
REMARK    3  A    between atoms: C6_10  and  O3_11
REMARK    4  A    between atoms: N2_13  and  C7_14
REMARK    5  A    between atoms: C7_14  and  C8_15
REMARK    6  A    between atoms: C8_15  and  C9_16
REMARK    7  A    between atoms: C9_16  and  C10_17
ROOT
HETATM    1  O1  UNL     1      -0.703  19.691  -3.097  1.00  0.00    -0.247 OA
HETATM    2  C1  UNL     1      -1.080  19.330  -4.232  1.00  0.00     0.320 C
HETATM    3  N1  UNL     1      -2.255  19.901  -4.783  1.00  0.00    -0.341 N
ATOM      4  H1  UNL     1      -2.965  20.214  -4.120  1.00  0.00     0.164 HD
HETATM    5  C2  UNL     1      -2.546  20.083  -6.157  1.00  0.00     0.150 C
HETATM    6  C3  UNL     1      -2.247  18.966  -7.079  1.00  0.00     0.190 C
HETATM    7  O2  UNL     1      -1.308  18.072  -6.839  1.00  0.00    -0.365 OA
HETATM    8  C4  UNL     1      -0.095  18.289  -6.336  1.00  0.00     0.229 C
HETATM    9  N2  UNL     1      -0.258  18.355  -4.861  1.00  0.00    -0.307 N
ENDROOT
BRANCH   9  10
HETATM   10  C7  UNL     1       0.439  17.369  -4.088  1.00  0.00     0.130 C
BRANCH  10  11
HETATM   11  C8  UNL     1      -0.302  16.143  -3.748  1.00  0.00     0.020 C
BRANCH  11  12
HETATM   12  C9  UNL     1      -0.712  15.201  -4.800  1.00  0.00     0.006 C
BRANCH  12  13
HETATM   13  C10 UNL     1      -1.382  13.938  -4.373  1.00  0.00    -0.014 C
HETATM   14  C11 UNL     1      -1.437  13.020  -5.588  1.00  0.00     0.004 C
HETATM   15  C12 UNL     1      -0.135  12.303  -5.711  1.00  0.00     0.000 C
HETATM   16  C13 UNL     1       0.077  11.323  -4.579  1.00  0.00     0.000 C
HETATM   17  C14 UNL     1      -0.531  11.819  -3.287  1.00  0.00     0.000 C
HETATM   18  C15 UNL     1      -0.608  13.322  -3.226  1.00  0.00     0.004 C
ENDBRANCH  12  13
ENDBRANCH  11  12
ENDBRANCH  10  11
ENDBRANCH   9  10
BRANCH   8  19
HETATM   19  C5  UNL     1       0.732  19.421  -6.770  1.00  0.00     0.080 C
BRANCH  19  20
HETATM   20  C6  UNL     1       1.580  19.085  -7.974  1.00  0.00     0.168 C
BRANCH  20  21
HETATM   21  O3  UNL     1       0.747  18.516  -8.949  1.00  0.00    -0.401 OA
ATOM     22  H3  UNL     1       0.957  18.913  -9.787  1.00  0.00     0.209 HD
ENDBRANCH  20  21
ENDBRANCH  19  20
ENDBRANCH   8  19
TORSDOF 7
ENDMDL