MODEL 3
REMARK VINA RESULT: -5.801972494      1.330      2.843
REMARK  7 active torsions:
REMARK  status: ('A' for Active; 'I' for Inactive)
REMARK    1  A    between atoms: C2_2  and  C3_3
REMARK    2  A    between atoms: C3_3  and  O1_4
REMARK    3  A    between atoms: C3_3  and  C4_6
REMARK    4  A    between atoms: C4_6  and  N1_7
REMARK    5  A    between atoms: N2_11  and  C8_12
REMARK    6  A    between atoms: C12_16  and  C13_17
REMARK    7  A    between atoms: C13_17  and  N3_18
ROOT
HETATM    1  N1  UNL     1      -3.742  19.463  -8.004  1.00  0.00     0.092 N
HETATM    2  C5  UNL     1      -5.066  19.132  -8.364  1.00  0.00     0.277 C
HETATM    3  C6  UNL     1      -6.109  19.660  -7.408  1.00  0.00     0.074 C
HETATM    4  C7  UNL     1      -6.380  21.140  -7.542  1.00  0.00     0.060 C
HETATM    5  N2  UNL     1      -5.711  21.794  -8.565  1.00  0.00    -0.387 N
HETATM    6  C15 UNL     1      -4.279  21.819  -8.482  1.00  0.00     0.152 C
HETATM    7  C16 UNL     1      -3.709  20.823  -7.526  1.00  0.00     0.292 C
ENDROOT
BRANCH   5   8
HETATM    8  C8  UNL     1      -6.300  22.483  -9.600  1.00  0.00     0.089 C
HETATM    9  C9  UNL     1      -7.410  21.771 -10.350  1.00  0.00     0.026 C
HETATM   10  C10 UNL     1      -8.689  22.465  -9.966  1.00  0.00     0.002 C
HETATM   11  C11 UNL     1      -8.328  23.683  -9.149  1.00  0.00     0.008 C
HETATM   12  C12 UNL     1      -6.861  23.836  -9.458  1.00  0.00     0.034 C
BRANCH  12  13
HETATM   13  C13 UNL     1      -6.125  24.858  -8.707  1.00  0.00     0.238 C
BRANCH  13  14
HETATM   14  N3  UNL     1      -6.521  25.186  -7.396  1.00  0.00    -0.079 N
HETATM   15  C14 UNL     1      -5.479  24.760  -6.462  1.00  0.00     0.267 C
ATOM     16  H32 UNL     1      -6.751  26.174  -7.296  1.00  0.00     0.276 HD
ATOM     17  H31 UNL     1      -7.435  24.801  -7.160  1.00  0.00     0.276 HD
ENDBRANCH  13  14
ENDBRANCH  12  13
ENDBRANCH   5   8
BRANCH   1  18
HETATM   18  C4  UNL     1      -2.995  18.603  -7.183  1.00  0.00     0.303 C
BRANCH  18  19
HETATM   19  C3  UNL     1      -1.557  18.920  -6.980  1.00  0.00     0.146 C
BRANCH  19  20
HETATM   20  C2  UNL     1      -0.926  18.037  -5.902  1.00  0.00     0.029 C
HETATM   21  C1  UNL     1      -1.648  16.752  -5.691  1.00  0.00     0.007 C
ENDBRANCH  19  20
BRANCH  19  22
HETATM   22  O1  UNL     1      -0.744  18.795  -8.092  1.00  0.00    -0.394 OA
ATOM     23  H1  UNL     1      -1.140  19.338  -8.764  1.00  0.00     0.210 HD
ENDBRANCH  19  22
ENDBRANCH  18  19
ENDBRANCH   1  18
TORSDOF 7
ENDMDL