MODEL 3
REMARK VINA RESULT: -5.905560801      4.688      8.867
REMARK  7 active torsions:
REMARK  status: ('A' for Active; 'I' for Inactive)
REMARK    1  A    between atoms: C2_2  and  C4_4
REMARK    2  A    between atoms: C2_2  and  C10_14
REMARK    3  A    between atoms: C4_4  and  C5_5
REMARK    4  A    between atoms: C5_5  and  O1_6
REMARK    5  A    between atoms: O1_6  and  C6_7
REMARK    6  A    between atoms: C13_17  and  C14_18
REMARK    7  A    between atoms: C14_18  and  O3_19
ROOT
HETATM    1  C1  UNL     1      -6.126  22.943  -9.828  1.00  0.00     0.015 C
HETATM    2  C2  UNL     1      -6.761  21.634  -9.382  1.00  0.00    -0.042 C
HETATM    3  C3  UNL     1      -7.572  20.967 -10.454  1.00  0.00     0.015 C
ENDROOT
BRANCH   2   4
HETATM    4  C4  UNL     1      -7.671  21.885  -8.189  1.00  0.00     0.035 C
BRANCH   4   5
HETATM    5  C5  UNL     1      -7.789  23.362  -7.855  1.00  0.00     0.171 C
BRANCH   5   6
HETATM    6  O1  UNL     1      -7.395  23.650  -6.581  1.00  0.00    -0.360 OA
BRANCH   6   7
HETATM    7  C6  UNL     1      -6.980  24.949  -6.426  1.00  0.00     0.276 C
HETATM    8  C7  UNL     1      -5.901  25.049  -5.408  1.00  0.00     0.174 C
HETATM    9  N1  UNL     1      -4.578  24.855  -5.890  1.00  0.00    -0.415 N
HETATM   10  C8  UNL     1      -4.401  25.102  -7.293  1.00  0.00     0.140 C
ATOM     11  H1  UNL     1      -3.812  24.562  -5.285  1.00  0.00     0.153 HD
HETATM   12  C9  UNL     1      -5.452  26.096  -7.736  1.00  0.00     0.190 C
HETATM   13  O2  UNL     1      -6.676  25.483  -7.655  1.00  0.00    -0.358 OA
ENDBRANCH   6   7
ENDBRANCH   5   6
ENDBRANCH   4   5
ENDBRANCH   2   4
BRANCH   2  14
HETATM   14  C10 UNL     1      -5.649  20.739  -8.960  1.00  0.00    -0.007 C
HETATM   15  C11 UNL     1      -4.901  21.290  -7.740  1.00  0.00     0.006 C
HETATM   16  C12 UNL     1      -3.556  20.593  -7.729  1.00  0.00     0.007 C
HETATM   17  C13 UNL     1      -3.883  19.149  -7.315  1.00  0.00     0.009 C
HETATM   18  C15 UNL     1      -4.775  18.518  -8.321  1.00  0.00     0.007 C
HETATM   19  C16 UNL     1      -6.004  19.328  -8.662  1.00  0.00     0.006 C
BRANCH  17  20
HETATM   20  C14 UNL     1      -2.583  18.426  -7.212  1.00  0.00     0.168 C
BRANCH  20  21
HETATM   21  O3  UNL     1      -1.617  18.864  -8.095  1.00  0.00    -0.400 OA
ATOM     22  H3  UNL     1      -1.215  18.174  -8.611  1.00  0.00     0.209 HD
ENDBRANCH  20  21
ENDBRANCH  17  20
ENDBRANCH   2  14
TORSDOF 7
ENDMDL