MODEL 4
REMARK VINA RESULT: -5.436054064      2.934      6.808
REMARK  8 active torsions:
REMARK  status: ('A' for Active; 'I' for Inactive)
REMARK    1  A    between atoms: O1_1  and  C1_3
REMARK    2  A    between atoms: C1_3  and  C2_4
REMARK    3  A    between atoms: C2_4  and  C3_5
REMARK    4  A    between atoms: C3_5  and  C4_6
REMARK    5  A    between atoms: C4_6  and  O2_7
REMARK    6  A    between atoms: O2_7  and  C5_8
REMARK    7  A    between atoms: N1_11  and  C8_12
REMARK    8  A    between atoms: C15_19  and  O3_20
ROOT
HETATM    1  C5  UNL     1      -1.876  19.466  -7.430  1.00  0.00     0.153 C
HETATM    2  C6  UNL     1      -2.688  20.734  -7.227  1.00  0.00     0.054 C
HETATM    3  C7  UNL     1      -4.023  20.422  -6.577  1.00  0.00     0.120 C
HETATM    4  N1  UNL     1      -4.820  19.531  -7.336  1.00  0.00    -0.406 N
HETATM    5  C14 UNL     1      -4.114  18.585  -8.125  1.00  0.00     0.151 C
HETATM    6  C15 UNL     1      -2.801  18.264  -7.489  1.00  0.00     0.164 C
ENDROOT
BRANCH   1   7
HETATM    7  O2  UNL     1      -0.977  19.326  -6.391  1.00  0.00    -0.383 OA
BRANCH   7   8
HETATM    8  C4  UNL     1      -0.215  20.428  -6.102  1.00  0.00     0.168 C
BRANCH   8   9
HETATM    9  C3  UNL     1       1.159  20.286  -6.653  1.00  0.00     0.028 C
BRANCH   9  10
HETATM   10  C2  UNL     1       1.611  18.833  -6.704  1.00  0.00     0.028 C
BRANCH  10  11
HETATM   11  C1  UNL     1       2.028  18.447  -8.098  1.00  0.00     0.164 C
BRANCH  11  12
HETATM   12  O1  UNL     1       0.867  18.467  -8.890  1.00  0.00    -0.401 OA
ATOM     13  H1  UNL     1       0.159  18.140  -8.349  1.00  0.00     0.209 HD
ENDBRANCH  11  12
ENDBRANCH  10  11
ENDBRANCH   9  10
ENDBRANCH   8   9
ENDBRANCH   7   8
ENDBRANCH   1   7
BRANCH   6  14
HETATM   14  O3  UNL     1      -2.986  17.678  -6.241  1.00  0.00    -0.391 OA
ATOM     15  H3  UNL     1      -2.535  16.845  -6.163  1.00  0.00     0.210 HD
ENDBRANCH   6  14
BRANCH   4  16
HETATM   16  C8  UNL     1      -6.027  20.025  -7.868  1.00  0.00     0.079 C
HETATM   17  C9  UNL     1      -6.335  21.459  -7.531  1.00  0.00     0.025 C
HETATM   18  C10 UNL     1      -7.657  21.800  -8.198  1.00  0.00     0.002 C
HETATM   19  C11 UNL     1      -7.552  21.729  -9.703  1.00  0.00     0.000 C
HETATM   20  C12 UNL     1      -7.262  20.268 -10.047  1.00  0.00     0.002 C
HETATM   21  C13 UNL     1      -5.991  19.848  -9.381  1.00  0.00     0.025 C
ENDBRANCH   4  16
TORSDOF 8
ENDMDL