MODEL 2
REMARK VINA RESULT: -5.997019629      0.864      1.001
REMARK  7 active torsions:
REMARK  status: ('A' for Active; 'I' for Inactive)
REMARK    1  A    between atoms: N2_3  and  C2_4
REMARK    2  A    between atoms: C2_4  and  C3_5
REMARK    3  A    between atoms: C9_11  and  C10_12
REMARK    4  A    between atoms: C10_12  and  N3_13
REMARK    5  A    between atoms: N3_13  and  C11_15
REMARK    6  A    between atoms: C11_15  and  C12_16
REMARK    7  A    between atoms: C12_16  and  O1_17
ROOT
HETATM    1  C1  UNL     1      -5.298  24.299  -6.331  1.00  0.00     0.137 C
HETATM    2  N1  UNL     1      -5.688  23.716  -7.623  1.00  0.00    -0.224 NA
HETATM    3  N2  UNL     1      -5.616  22.352  -7.525  1.00  0.00    -0.318 N
HETATM    4  C9  UNL     1      -6.918  21.784  -7.502  1.00  0.00     0.121 C
HETATM    5  C13 UNL     1      -7.776  22.958  -7.071  1.00  0.00     0.055 C
HETATM    6  C14 UNL     1      -7.075  24.084  -7.792  1.00  0.00     0.034 A
HETATM    7  C15 UNL     1      -7.622  24.736  -8.970  1.00  0.00     0.029 A
HETATM    8  C16 UNL     1      -7.505  25.493  -7.649  1.00  0.00     0.029 A
ENDROOT
BRANCH   3   9
HETATM    9  C2  UNL     1      -4.537  21.668  -8.066  1.00  0.00     0.083 C
BRANCH   9  10
HETATM   10  C3  UNL     1      -3.857  20.653  -7.139  1.00  0.00     0.025 C
HETATM   11  C4  UNL     1      -3.603  19.363  -7.901  1.00  0.00     0.010 C
HETATM   12  C5  UNL     1      -2.960  18.397  -6.922  1.00  0.00     0.001 C
HETATM   13  C6  UNL     1      -1.538  18.879  -6.776  1.00  0.00     0.000 C
HETATM   14  C7  UNL     1      -1.469  20.286  -6.326  1.00  0.00     0.001 C
HETATM   15  C8  UNL     1      -2.527  21.221  -6.715  1.00  0.00     0.010 C
ENDBRANCH   9  10
ENDBRANCH   3   9
BRANCH   4  16
HETATM   16  C10 UNL     1      -7.439  21.329  -8.830  1.00  0.00     0.140 C
BRANCH  16  17
HETATM   17  N3  UNL     1      -7.589  19.916  -8.845  1.00  0.00    -0.417 N
ATOM     18  H3  UNL     1      -8.214  19.427  -8.205  1.00  0.00     0.153 HD
BRANCH  17  19
HETATM   19  C11 UNL     1      -6.808  19.236  -9.808  1.00  0.00     0.139 C
BRANCH  19  20
HETATM   20  C12 UNL     1      -6.560  17.796  -9.341  1.00  0.00     0.183 C
BRANCH  20  21
HETATM   21  O1  UNL     1      -7.477  16.930  -9.901  1.00  0.00    -0.399 OA
ATOM     22  H1  UNL     1      -7.041  16.243 -10.390  1.00  0.00     0.209 HD
ENDBRANCH  20  21
ENDBRANCH  19  20
ENDBRANCH  17  19
ENDBRANCH  16  17
ENDBRANCH   4  16
TORSDOF 7
ENDMDL