MODEL 3
REMARK VINA RESULT: -6.368000368      3.374      4.644
REMARK  7 active torsions:
REMARK  status: ('A' for Active; 'I' for Inactive)
REMARK    1  A    between atoms: C4_7  and  C5_8
REMARK    2  A    between atoms: C5_8  and  C6_9
REMARK    3  A    between atoms: C6_9  and  C7_10
REMARK    4  A    between atoms: C7_10  and  C8_11
REMARK    5  A    between atoms: C8_11  and  C9_12
REMARK    6  A    between atoms: C9_12  and  N2_13
REMARK    7  A    between atoms: C12_16  and  O2_17
ROOT
HETATM    1  C6  UNL     1      -3.014  22.334  -6.398  1.00  0.00     0.001 C
ENDROOT
BRANCH   1   2
HETATM    2  C5  UNL     1      -1.870  21.384  -6.294  1.00  0.00     0.016 C
BRANCH   2   3
HETATM    3  C4  UNL     1      -2.257  19.965  -5.959  1.00  0.00     0.102 C
HETATM    4  C3  UNL     1      -1.565  19.628  -4.688  1.00  0.00     0.225 C
HETATM    5  N1  UNL     1      -1.231  18.271  -4.451  1.00  0.00    -0.335 N
HETATM    6  O1  UNL     1      -1.267  20.497  -3.824  1.00  0.00    -0.273 OA
HETATM    7  C2  UNL     1      -1.010  17.412  -5.585  1.00  0.00     0.218 C
ATOM      8  H1  UNL     1      -1.150  17.911  -3.500  1.00  0.00     0.165 HD
HETATM    9  C1  UNL     1       0.479  17.399  -5.857  1.00  0.00     0.063 C
HETATM   10  O3  UNL     1      -1.753  17.729  -6.700  1.00  0.00    -0.366 OA
HETATM   11  C15 UNL     1      -1.687  19.071  -7.039  1.00  0.00     0.184 C
ENDBRANCH   2   3
ENDBRANCH   1   2
BRANCH   1  12
HETATM   12  C7  UNL     1      -3.116  22.861  -7.811  1.00  0.00     0.002 C
BRANCH  12  13
HETATM   13  C8  UNL     1      -4.127  22.015  -8.550  1.00  0.00     0.030 C
BRANCH  13  14
HETATM   14  C9  UNL     1      -5.478  22.078  -7.872  1.00  0.00     0.272 C
BRANCH  14  15
HETATM   15  N2  UNL     1      -6.222  20.854  -8.168  1.00  0.00     0.088 N
HETATM   16  C10 UNL     1      -6.231  20.725  -9.613  1.00  0.00     0.275 C
HETATM   17  C11 UNL     1      -6.958  19.478 -10.062  1.00  0.00     0.062 C
HETATM   18  C12 UNL     1      -6.850  18.380  -9.022  1.00  0.00     0.121 C
HETATM   19  C13 UNL     1      -5.491  18.512  -8.376  1.00  0.00     0.062 C
HETATM   20  C14 UNL     1      -5.494  19.765  -7.541  1.00  0.00     0.275 C
BRANCH  18  21
HETATM   21  O2  UNL     1      -6.992  17.143  -9.645  1.00  0.00    -0.395 OA
ATOM     22  H2  UNL     1      -6.161  16.682  -9.619  1.00  0.00     0.210 HD
ENDBRANCH  18  21
ENDBRANCH  14  15
ENDBRANCH  13  14
ENDBRANCH  12  13
ENDBRANCH   1  12
TORSDOF 7
ENDMDL