MODEL 2
REMARK VINA RESULT: -5.350909095      2.053      2.795
REMARK  7 active torsions:
REMARK  status: ('A' for Active; 'I' for Inactive)
REMARK    1  A    between atoms: O1_2  and  C2_3
REMARK    2  A    between atoms: C5_6  and  O2_7
REMARK    3  A    between atoms: C5_6  and  C6_9
REMARK    4  A    between atoms: C6_9  and  N1_10
REMARK    5  A    between atoms: N1_10  and  C7_11
REMARK    6  A    between atoms: N1_10  and  C11_15
REMARK    7  A    between atoms: C7_11  and  C8_12
ROOT
HETATM    1  N1  UNL     1      -5.799  21.454  -9.056  1.00  0.00    -0.384 N
ENDROOT
BRANCH   1   2
HETATM    2  C6  UNL     1      -5.261  21.672  -7.776  1.00  0.00     0.096 C
BRANCH   2   3
HETATM    3  C5  UNL     1      -3.786  21.972  -7.686  1.00  0.00     0.089 C
HETATM    4  C4  UNL     1      -3.177  21.264  -6.476  1.00  0.00     0.046 C
HETATM    5  C3  UNL     1      -1.705  21.589  -6.465  1.00  0.00     0.035 C
HETATM    6  C2  UNL     1      -1.433  23.068  -6.507  1.00  0.00     0.121 C
HETATM    7  C16 UNL     1      -2.766  23.766  -6.244  1.00  0.00     0.035 C
HETATM    8  C15 UNL     1      -3.662  23.461  -7.412  1.00  0.00     0.046 C
BRANCH   6   9
HETATM    9  O1  UNL     1      -0.507  23.482  -5.565  1.00  0.00    -0.391 OA
HETATM   10  C1  UNL     1      -1.130  23.699  -4.346  1.00  0.00     0.202 C
ENDBRANCH   6   9
BRANCH   3  11
HETATM   11  O2  UNL     1      -3.035  21.699  -8.796  1.00  0.00    -0.384 OA
ATOM     12  H2  UNL     1      -3.281  22.292  -9.496  1.00  0.00     0.211 HD
ENDBRANCH   3  11
ENDBRANCH   2   3
ENDBRANCH   1   2
BRANCH   1  13
HETATM   13  C7  UNL     1      -5.843  20.116  -9.505  1.00  0.00     0.126 C
BRANCH  13  14
HETATM   14  C8  UNL     1      -5.889  18.990  -8.558  1.00  0.00    -0.005 C
HETATM   15  C9  UNL     1      -6.740  17.864  -9.212  1.00  0.00     0.011 C
HETATM   16  C10 UNL     1      -4.575  18.332  -8.236  1.00  0.00     0.011 C
ENDBRANCH  13  14
ENDBRANCH   1  13
BRANCH   1  17
HETATM   17  C11 UNL     1      -6.784  22.321  -9.561  1.00  0.00     0.110 C
HETATM   18  C12 UNL     1      -7.626  23.126  -8.665  1.00  0.00     0.054 C
HETATM   19  C13 UNL     1      -8.770  23.522  -9.633  1.00  0.00     0.234 C
HETATM   20  N2  UNL     1      -8.712  22.610 -10.729  1.00  0.00    -0.073 N
HETATM   21  C14 UNL     1      -7.857  21.489 -10.288  1.00  0.00     0.257 C
ATOM     22  H22 UNL     1      -9.631  22.314 -11.059  1.00  0.00     0.277 HD
ATOM     23  H21 UNL     1      -8.399  23.041 -11.599  1.00  0.00     0.277 HD
ENDBRANCH   1  17
TORSDOF 7
ENDMDL