MODEL 3
REMARK VINA RESULT: -6.484555642      1.500      1.879
REMARK  11 active torsions:
REMARK  status: ('A' for Active; 'I' for Inactive)
REMARK    1  A    between atoms: C2_2  and  C3_3
REMARK    2  A    between atoms: C2_2  and  C9_9
REMARK    3  A    between atoms: C3_3  and  C4_4
REMARK    4  A    between atoms: C9_9  and  N1_10
REMARK    5  A    between atoms: N1_10  and  O1_11
REMARK    6  A    between atoms: N1_10  and  C10_13
REMARK    7  A    between atoms: C10_13  and  C11_14
REMARK    8  A    between atoms: C11_14  and  C12_15
REMARK    9  A    between atoms: C12_15  and  O2_16
REMARK   10  A    between atoms: C12_15  and  N2_18
REMARK   11  A    between atoms: C14_20  and  O3_21
ROOT
HETATM    1  N1  UNL     1      -1.496  18.887  -6.972  1.00  0.00    -0.272 N
ENDROOT
BRANCH   1   2
HETATM    2  C9  UNL     1      -2.145  17.800  -6.303  1.00  0.00     0.159 C
BRANCH   2   3
HETATM    3  C2  UNL     1      -1.090  16.940  -5.606  1.00  0.00     0.002 C
HETATM    4  C1  UNL     1      -0.377  17.795  -4.621  1.00  0.00     0.011 C
BRANCH   3   5
HETATM    5  C3  UNL     1      -1.772  15.726  -5.115  1.00  0.00     0.010 C
BRANCH   5   6
HETATM    6  C4  UNL     1      -0.884  14.576  -4.825  1.00  0.00    -0.014 C
HETATM    7  C5  UNL     1      -0.800  14.117  -3.403  1.00  0.00     0.005 C
HETATM    8  C6  UNL     1      -0.606  12.580  -3.459  1.00  0.00     0.000 C
HETATM    9  C7  UNL     1      -0.427  12.279  -4.941  1.00  0.00     0.000 C
HETATM   10  C8  UNL     1      -1.400  13.300  -5.526  1.00  0.00     0.005 C
ENDBRANCH   5   6
ENDBRANCH   3   5
ENDBRANCH   2   3
ENDBRANCH   1   2
BRANCH   1  11
HETATM   11  O1  UNL     1      -0.623  18.663  -8.013  1.00  0.00    -0.288 OA
ATOM     12  H1  UNL     1      -0.107  19.370  -8.382  1.00  0.00     0.244 HD
ENDBRANCH   1  11
BRANCH   1  13
HETATM   13  C10 UNL     1      -1.751  20.235  -6.560  1.00  0.00     0.121 C
BRANCH  13  14
HETATM   14  C11 UNL     1      -2.945  20.753  -6.648  1.00  0.00     0.075 C
BRANCH  14  15
HETATM   15  C12 UNL     1      -3.732  20.773  -7.837  1.00  0.00     0.139 C
BRANCH  15  16
HETATM   16  O2  UNL     1      -3.294  21.524  -8.804  1.00  0.00    -0.346 OA
ATOM     17  H2  UNL     1      -3.070  21.080  -9.613  1.00  0.00     0.219 HD
ENDBRANCH  15  16
BRANCH  15  18
HETATM   18  N2  UNL     1      -4.927  20.056  -8.046  1.00  0.00    -0.357 N
HETATM   19  C13 UNL     1      -6.352  20.202  -8.143  1.00  0.00     0.158 C
HETATM   20  C14 UNL     1      -6.451  18.909  -8.919  1.00  0.00     0.154 C
HETATM   21  C15 UNL     1      -5.159  18.593  -8.243  1.00  0.00     0.158 C
BRANCH  20  22
HETATM   22  O3  UNL     1      -7.477  18.084  -8.455  1.00  0.00    -0.392 OA
ATOM     23  H3  UNL     1      -7.348  17.174  -8.693  1.00  0.00     0.210 HD
ENDBRANCH  20  22
ENDBRANCH  15  18
ENDBRANCH  14  15
ENDBRANCH  13  14
ENDBRANCH   1  13
TORSDOF 11
ENDMDL