MODEL 2
REMARK VINA RESULT: -5.800104348      2.358      6.361
REMARK  10 active torsions:
REMARK  status: ('A' for Active; 'I' for Inactive)
REMARK    1  A    between atoms: C2_2  and  C3_3
REMARK    2  A    between atoms: C3_3  and  S1_4
REMARK    3  A    between atoms: S1_4  and  C4_5
REMARK    4  A    between atoms: C4_5  and  C5_6
REMARK    5  A    between atoms: C5_6  and  O1_7
REMARK    6  A    between atoms: C6_10  and  S2_11
REMARK    7  A    between atoms: S2_11  and  C7_13
REMARK    8  A    between atoms: C7_13  and  C8_14
REMARK    9  A    between atoms: C10_16  and  O4_17
REMARK   10  A    between atoms: C11_19  and  O5_20
ROOT
HETATM    1  C5  UNL     1      -1.165  18.642  -5.660  1.00  0.00     0.190 C
HETATM    2  O2  UNL     1      -1.327  17.372  -5.094  1.00  0.00    -0.332 OA
HETATM    3  C6  UNL     1      -0.367  16.469  -5.428  1.00  0.00     0.249 C
HETATM    4  C10 UNL     1       1.036  16.911  -5.447  1.00  0.00     0.189 C
HETATM    5  C11 UNL     1       1.265  18.250  -6.109  1.00  0.00     0.173 C
HETATM    6  C12 UNL     1       0.208  19.167  -5.478  1.00  0.00     0.187 C
HETATM    7  C13 UNL     1       0.364  20.547  -5.812  1.00  0.00     0.072 C
HETATM    8  N1  UNL     1       0.515  21.675  -6.066  1.00  0.00    -0.197 NA
ENDROOT
BRANCH   1   9
HETATM    9  C4  UNL     1      -1.698  18.600  -7.068  1.00  0.00     0.143 C
BRANCH   9  10
HETATM   10  S1  UNL     1      -3.280  19.413  -7.179  1.00  0.00    -0.164 SA
BRANCH  10  11
HETATM   11  C3  UNL     1      -4.520  18.483  -8.063  1.00  0.00     0.073 C
BRANCH  11  12
HETATM   12  C2  UNL     1      -5.852  19.211  -8.139  1.00  0.00     0.006 C
HETATM   13  C1  UNL     1      -6.528  18.932  -9.465  1.00  0.00     0.006 C
ENDBRANCH  11  12
ENDBRANCH  10  11
ENDBRANCH   9  10
ENDBRANCH   1   9
BRANCH   1  14
HETATM   14  O1  UNL     1      -2.030  19.457  -4.925  1.00  0.00    -0.363 OA
ATOM     15  H1  UNL     1      -1.560  19.722  -4.143  1.00  0.00     0.213 HD
ENDBRANCH   1  14
BRANCH   5  16
HETATM   16  O5  UNL     1       1.242  18.231  -7.473  1.00  0.00    -0.391 OA
ATOM     17  H5  UNL     1       1.417  19.067  -7.890  1.00  0.00     0.210 HD
ENDBRANCH   5  16
BRANCH   4  18
HETATM   18  O4  UNL     1       1.803  15.960  -6.141  1.00  0.00    -0.389 OA
ATOM     19  H4  UNL     1       2.440  16.413  -6.680  1.00  0.00     0.210 HD
ENDBRANCH   4  18
BRANCH   3  20
HETATM   20  S2  UNL     1      -0.502  15.095  -4.304  1.00  0.00     0.047 S
HETATM   21  O3  UNL     1      -1.409  15.553  -2.950  1.00  0.00    -0.255 OA
BRANCH  20  22
HETATM   22  C7  UNL     1      -1.230  13.679  -5.028  1.00  0.00     0.111 C
BRANCH  22  23
HETATM   23  C8  UNL     1      -0.944  12.398  -4.309  1.00  0.00     0.008 C
HETATM   24  C9  UNL     1       0.184  11.637  -5.020  1.00  0.00     0.006 C
ENDBRANCH  22  23
ENDBRANCH  20  22
ENDBRANCH   3  20
TORSDOF 10
ENDMDL