MODEL 4
REMARK VINA RESULT: -5.610887020      1.390      2.642
REMARK  11 active torsions:
REMARK  status: ('A' for Active; 'I' for Inactive)
REMARK    1  A    between atoms: C2_2  and  O1_3
REMARK    2  A    between atoms: O1_3  and  C3_4
REMARK    3  A    between atoms: C3_4  and  C4_5
REMARK    4  A    between atoms: C4_5  and  C5_6
REMARK    5  A    between atoms: C4_5  and  O3_11
REMARK    6  A    between atoms: C5_6  and  O2_7
REMARK    7  A    between atoms: O2_7  and  C6_8
REMARK    8  A    between atoms: O3_11  and  C9_12
REMARK    9  A    between atoms: C10_13  and  O4_14
REMARK   10  A    between atoms: C11_16  and  O5_17
REMARK   11  A    between atoms: C15_23  and  O7_25
ROOT
HETATM    1  C9  UNL     1      -6.113  21.740  -9.210  1.00  0.00     0.190 C
HETATM    2  C10 UNL     1      -4.670  21.379  -9.187  1.00  0.00     0.179 C
HETATM    3  C11 UNL     1      -4.481  20.437  -7.982  1.00  0.00     0.159 C
HETATM    4  C12 UNL     1      -5.058  19.128  -8.464  1.00  0.00     0.089 A
HETATM    5  C13 UNL     1      -6.416  18.767  -7.816  1.00  0.00     0.170 A
HETATM    6  O6  UNL     1      -7.338  18.217  -8.882  1.00  0.00    -0.365 OA
HETATM    7  C14 UNL     1      -6.373  19.207  -9.061  1.00  0.00     0.129 A
HETATM    8  C15 UNL     1      -6.897  20.479  -9.572  1.00  0.00     0.117 C
HETATM    9  C16 UNL     1      -7.081  20.378 -11.070  1.00  0.00     0.052 C
ENDROOT
BRANCH   1  10
HETATM   10  O3  UNL     1      -6.487  22.686 -10.121  1.00  0.00    -0.370 OA
BRANCH  10  11
HETATM   11  C4  UNL     1      -6.634  23.974  -9.746  1.00  0.00     0.169 C
BRANCH  11  12
HETATM   12  C3  UNL     1      -6.959  24.852 -10.930  1.00  0.00     0.201 C
BRANCH  12  13
HETATM   13  O1  UNL     1      -6.416  26.105 -10.917  1.00  0.00    -0.389 OA
BRANCH  13  14
HETATM   14  C2  UNL     1      -6.788  26.898 -11.979  1.00  0.00     0.163 C
HETATM   15  C1  UNL     1      -6.907  25.994 -13.213  1.00  0.00     0.033 C
ENDBRANCH  13  14
ENDBRANCH  12  13
ENDBRANCH  11  12
BRANCH  11  16
HETATM   16  C5  UNL     1      -7.747  24.202  -8.720  1.00  0.00     0.202 C
BRANCH  16  17
HETATM   17  O2  UNL     1      -7.265  24.999  -7.667  1.00  0.00    -0.384 OA
BRANCH  17  18
HETATM   18  C6  UNL     1      -6.735  24.246  -6.652  1.00  0.00     0.113 C
HETATM   19  C7  UNL     1      -7.681  23.100  -6.289  1.00  0.00     0.039 C
HETATM   20  C8  UNL     1      -6.395  25.035  -5.426  1.00  0.00     0.039 C
ENDBRANCH  17  18
ENDBRANCH  16  17
ENDBRANCH  11  16
ENDBRANCH  10  11
ENDBRANCH   1  10
BRANCH   2  21
HETATM   21  O4  UNL     1      -3.759  22.375  -9.037  1.00  0.00    -0.390 OA
ATOM     22  H4  UNL     1      -2.905  22.155  -8.685  1.00  0.00     0.210 HD
ENDBRANCH   2  21
BRANCH   8  23
HETATM   23  O7  UNL     1      -8.191  20.654  -9.024  1.00  0.00    -0.384 OA
ATOM     24  H7  UNL     1      -8.471  19.793  -8.736  1.00  0.00     0.210 HD
ENDBRANCH   8  23
BRANCH   3  25
HETATM   25  O5  UNL     1      -3.120  20.304  -7.746  1.00  0.00    -0.392 OA
ATOM     26  H5  UNL     1      -2.957  20.501  -6.831  1.00  0.00     0.210 HD
ENDBRANCH   3  25
TORSDOF 11
ENDMDL