MODEL 5
REMARK VINA RESULT: -5.947885516      1.971      3.505
REMARK  10 active torsions:
REMARK  status: ('A' for Active; 'I' for Inactive)
REMARK    1  A    between atoms: C2_2  and  C3_3
REMARK    2  A    between atoms: C6_7  and  C7_8
REMARK    3  A    between atoms: C7_8  and  O2_9
REMARK    4  A    between atoms: C10_13  and  C11_14
REMARK    5  A    between atoms: C11_14  and  C12_15
REMARK    6  A    between atoms: C12_15  and  C13_16
REMARK    7  A    between atoms: C12_15  and  C14_19
REMARK    8  A    between atoms: C13_16  and  O3_17
REMARK    9  A    between atoms: C14_19  and  C15_20
REMARK   10  A    between atoms: C15_20  and  O4_21
ROOT
HETATM    1  C7  UNL     1      -3.808  20.873  -7.220  1.00  0.00     0.195 C
HETATM    2  C8  UNL     1      -4.116  22.250  -6.731  1.00  0.00     0.056 C
HETATM    3  C9  UNL     1      -5.407  22.811  -7.352  1.00  0.00     0.036 C
HETATM    4  C10 UNL     1      -6.562  21.952  -7.135  1.00  0.00     0.132 C
HETATM    5  O5  UNL     1      -6.201  20.583  -6.859  1.00  0.00    -0.314 OA
HETATM    6  C16 UNL     1      -5.020  20.026  -7.321  1.00  0.00     0.299 C
HETATM    7  O6  UNL     1      -4.901  18.879  -7.811  1.00  0.00    -0.262 OA
ENDROOT
BRANCH   1   8
HETATM    8  C6  UNL     1      -2.873  20.220  -6.209  1.00  0.00     0.305 C
HETATM    9  O1  UNL     1      -1.866  19.524  -6.883  1.00  0.00    -0.354 OA
HETATM   10  C5  UNL     1      -0.799  19.440  -5.990  1.00  0.00     0.213 C
HETATM   11  C3  UNL     1      -1.033  20.558  -5.006  1.00  0.00     0.099 C
HETATM   12  C4  UNL     1       0.147  21.491  -5.078  1.00  0.00     0.053 C
HETATM   13  O7  UNL     1      -2.218  21.166  -5.426  1.00  0.00    -0.341 OA
BRANCH  11  14
HETATM   14  C2  UNL     1      -1.185  19.995  -3.650  1.00  0.00     0.002 C
HETATM   15  C1  UNL     1      -0.718  18.788  -3.367  1.00  0.00     0.010 C
ENDBRANCH  11  14
ENDBRANCH   1   8
BRANCH   1  16
HETATM   16  O2  UNL     1      -3.193  20.862  -8.468  1.00  0.00    -0.375 OA
ATOM     17  H2  UNL     1      -3.775  21.270  -9.099  1.00  0.00     0.211 HD
ENDBRANCH   1  16
BRANCH   4  18
HETATM   18  C11 UNL     1      -7.678  21.956  -8.104  1.00  0.00     0.039 C
BRANCH  18  19
HETATM   19  C12 UNL     1      -7.427  22.191  -9.538  1.00  0.00     0.013 C
BRANCH  19  20
HETATM   20  C13 UNL     1      -8.340  23.410  -9.883  1.00  0.00     0.168 C
BRANCH  20  21
HETATM   21  O3  UNL     1      -9.133  22.918 -10.947  1.00  0.00    -0.400 OA
ATOM     22  H3  UNL     1      -9.253  22.003 -10.717  1.00  0.00     0.209 HD
ENDBRANCH  20  21
ENDBRANCH  19  20
BRANCH  19  23
HETATM   23  C14 UNL     1      -7.698  21.116 -10.513  1.00  0.00     0.033 C
BRANCH  23  24
HETATM   24  C15 UNL     1      -6.808  19.929 -10.533  1.00  0.00     0.164 C
BRANCH  24  25
HETATM   25  O4  UNL     1      -6.621  19.340 -11.779  1.00  0.00    -0.401 OA
ATOM     26  H4  UNL     1      -7.409  19.022 -12.204  1.00  0.00     0.209 HD
ENDBRANCH  24  25
ENDBRANCH  23  24
ENDBRANCH  19  23
ENDBRANCH  18  19
ENDBRANCH   4  18
TORSDOF 10
ENDMDL