MODEL 2
REMARK VINA RESULT: -6.772139516      1.341      1.711
REMARK  10 active torsions:
REMARK  status: ('A' for Active; 'I' for Inactive)
REMARK    1  A    between atoms: C4_4  and  C5_5
REMARK    2  A    between atoms: C5_5  and  C6_6
REMARK    3  A    between atoms: C6_6  and  O1_9
REMARK    4  A    between atoms: O1_9  and  C9_10
REMARK    5  A    between atoms: C10_12  and  C11_13
REMARK    6  A    between atoms: C11_13  and  O3_14
REMARK    7  A    between atoms: O3_14  and  S1_15
REMARK    8  A    between atoms: S1_15  and  N1_16
REMARK    9  A    between atoms: C12_21  and  O6_22
REMARK   10  A    between atoms: C13_24  and  O7_25
ROOT
HETATM    1  C9  UNL     1      -1.678  18.219  -6.283  1.00  0.00     0.292 C
HETATM    2  O2  UNL     1      -2.967  17.781  -6.670  1.00  0.00    -0.348 OA
HETATM    3  C10 UNL     1      -3.293  18.552  -7.777  1.00  0.00     0.181 C
HETATM    4  C12 UNL     1      -2.930  19.953  -7.285  1.00  0.00     0.182 C
HETATM    5  C13 UNL     1      -1.807  19.722  -6.316  1.00  0.00     0.204 C
ENDROOT
BRANCH   1   6
HETATM    6  O1  UNL     1      -1.483  17.707  -5.022  1.00  0.00    -0.348 OA
BRANCH   6   7
HETATM    7  C6  UNL     1      -0.484  16.778  -4.890  1.00  0.00     0.060 C
HETATM    8  C7  UNL     1       0.691  17.137  -5.761  1.00  0.00     0.046 C
HETATM    9  C8  UNL     1       0.043  16.724  -3.459  1.00  0.00     0.046 C
BRANCH   7  10
HETATM   10  C5  UNL     1      -1.008  15.398  -5.191  1.00  0.00     0.064 C
BRANCH  10  11
HETATM   11  C4  UNL     1      -0.975  14.505  -4.017  1.00  0.00    -0.022 C
HETATM   12  C2  UNL     1      -0.720  13.226  -4.158  1.00  0.00    -0.091 C
HETATM   13  C1  UNL     1      -0.461  12.671  -5.508  1.00  0.00     0.042 C
HETATM   14  C3  UNL     1      -0.687  12.320  -2.965  1.00  0.00     0.042 C
ENDBRANCH  10  11
ENDBRANCH   7  10
ENDBRANCH   6   7
ENDBRANCH   1   6
BRANCH   5  15
HETATM   15  O7  UNL     1      -0.674  20.341  -6.885  1.00  0.00    -0.388 OA
ATOM     16  H7  UNL     1      -0.706  21.287  -6.808  1.00  0.00     0.210 HD
ENDBRANCH   5  15
BRANCH   3  17
HETATM   17  C11 UNL     1      -4.771  18.558  -8.058  1.00  0.00     0.226 C
BRANCH  17  18
HETATM   18  O3  UNL     1      -5.084  19.461  -9.099  1.00  0.00    -0.257 OA
BRANCH  18  19
HETATM   19  S1  UNL     1      -6.677  19.237  -9.576  1.00  0.00     0.355 S
HETATM   20  O4  UNL     1      -7.172  17.935  -9.063  1.00  0.00    -0.176 OA
HETATM   21  O5  UNL     1      -6.673  19.240 -11.095  1.00  0.00    -0.176 OA
BRANCH  19  22
HETATM   22  N1  UNL     1      -7.695  20.528  -9.077  1.00  0.00    -0.306 N
ATOM     23  H12 UNL     1      -7.470  21.143  -8.296  1.00  0.00     0.171 HD
ATOM     24  H11 UNL     1      -8.536  20.601  -9.650  1.00  0.00     0.171 HD
ENDBRANCH  19  22
ENDBRANCH  18  19
ENDBRANCH  17  18
ENDBRANCH   3  17
BRANCH   4  25
HETATM   25  O6  UNL     1      -4.022  20.471  -6.596  1.00  0.00    -0.390 OA
ATOM     26  H6  UNL     1      -4.299  21.268  -7.033  1.00  0.00     0.210 HD
ENDBRANCH   4  25
TORSDOF 10
ENDMDL