MODEL 1
REMARK VINA RESULT: -6.458846119      0.000      0.000
REMARK  9 active torsions:
REMARK  status: ('A' for Active; 'I' for Inactive)
REMARK    1  A    between atoms: C2_2  and  C4_4
REMARK    2  A    between atoms: C4_4  and  C5_5
REMARK    3  A    between atoms: C4_4  and  C6_7
REMARK    4  A    between atoms: C6_7  and  C7_8
REMARK    5  A    between atoms: N1_10  and  O2_12
REMARK    6  A    between atoms: O2_12  and  O3_13
REMARK    7  A    between atoms: C11_18  and  C12_19
REMARK    8  A    between atoms: C12_19  and  O5_20
REMARK    9  A    between atoms: C12_19  and  C13_22
ROOT
HETATM    1  C7  UNL     1      -7.553  24.257  -7.839  1.00  0.00     0.041 C
HETATM    2  C8  UNL     1      -7.471  24.262  -9.343  1.00  0.00     0.020 C
HETATM    3  N1  UNL     1      -6.774  24.990 -10.104  1.00  0.00    -0.243 N
ATOM      4  H1  UNL     1      -6.156  25.697  -9.707  1.00  0.00     0.196 HD
HETATM    5  C9  UNL     1      -8.412  23.198  -9.760  1.00  0.00     0.087 C
HETATM    6  C10 UNL     1      -8.481  22.235  -8.581  1.00  0.00     0.132 C
HETATM    7  O4  UNL     1      -8.038  20.979  -8.914  1.00  0.00    -0.377 OA
HETATM    8  C11 UNL     1      -6.787  20.777  -8.407  1.00  0.00     0.161 C
HETATM    9  C14 UNL     1      -6.245  22.119  -7.963  1.00  0.00     0.043 C
HETATM   10  C15 UNL     1      -7.537  22.804  -7.541  1.00  0.00     0.027 C
ENDROOT
BRANCH   1  11
HETATM   11  C6  UNL     1      -6.394  25.028  -7.329  1.00  0.00     0.023 C
BRANCH  11  12
HETATM   12  C4  UNL     1      -5.952  24.622  -5.942  1.00  0.00     0.051 C
BRANCH  12  13
HETATM   13  C2  UNL     1      -4.453  24.642  -5.803  1.00  0.00    -0.012 C
HETATM   14  C1  UNL     1      -3.727  24.821  -7.090  1.00  0.00     0.010 C
HETATM   15  C3  UNL     1      -4.091  25.814  -4.893  1.00  0.00     0.010 C
ENDBRANCH  12  13
BRANCH  12  16
HETATM   16  C5  UNL     1      -6.661  25.339  -4.879  1.00  0.00     0.236 C
HETATM   17  O1  UNL     1      -7.636  24.878  -4.280  1.00  0.00    -0.306 OA
ENDBRANCH  12  16
ENDBRANCH  11  12
ENDBRANCH   1  11
BRANCH   3  18
HETATM   18  O2  UNL     1      -6.850  24.830 -11.463  1.00  0.00    -0.115 OA
BRANCH  18  19
HETATM   19  O3  UNL     1      -7.720  25.498 -12.222  1.00  0.00    -0.227 OA
ATOM     20  H3  UNL     1      -7.460  25.987 -12.994  1.00  0.00     0.256 HD
ENDBRANCH  18  19
ENDBRANCH   3  18
BRANCH   8  21
HETATM   21  C12 UNL     1      -5.911  20.136  -9.457  1.00  0.00     0.247 C
BRANCH  21  22
HETATM   22  O5  UNL     1      -4.774  19.570  -8.936  1.00  0.00    -0.382 OA
ATOM     23  H5  UNL     1      -4.635  18.678  -9.231  1.00  0.00     0.210 HD
ENDBRANCH  21  22
BRANCH  21  24
HETATM   24  C13 UNL     1      -6.644  19.164 -10.288  1.00  0.00     0.205 C
HETATM   25  O6  UNL     1      -7.039  18.092  -9.787  1.00  0.00    -0.646 OA
HETATM   26  O7  UNL     1      -6.884  19.446 -11.610  1.00  0.00    -0.646 OA
ENDBRANCH  21  24
ENDBRANCH   8  21
TORSDOF 9
ENDMDL