MODEL 1
REMARK VINA RESULT: -6.385088884      0.000      0.000
REMARK  11 active torsions:
REMARK  status: ('A' for Active; 'I' for Inactive)
REMARK    1  A    between atoms: C2_2  and  C3_3
REMARK    2  A    between atoms: C3_3  and  O1_5
REMARK    3  A    between atoms: C3_3  and  C5_7
REMARK    4  A    between atoms: C5_7  and  C6_8
REMARK    5  A    between atoms: C6_8  and  C7_10
REMARK    6  A    between atoms: C8_11  and  C9_12
REMARK    7  A    between atoms: C10_13  and  C11_14
REMARK    8  A    between atoms: C12_16  and  O4_17
REMARK    9  A    between atoms: C13_19  and  O5_20
REMARK   10  A    between atoms: C14_22  and  O6_23
REMARK   11  A    between atoms: C15_25  and  O7_26
ROOT
HETATM    1  C11 UNL     1      -5.671  21.263  -8.853  1.00  0.00     0.179 C
HETATM    2  O3  UNL     1      -5.319  20.505  -7.777  1.00  0.00    -0.347 OA
HETATM    3  C12 UNL     1      -5.639  19.185  -7.807  1.00  0.00     0.289 C
HETATM    4  C13 UNL     1      -6.429  18.639  -8.909  1.00  0.00     0.204 C
HETATM    5  C14 UNL     1      -6.962  19.564  -9.941  1.00  0.00     0.183 C
HETATM    6  C15 UNL     1      -7.079  20.950  -9.291  1.00  0.00     0.185 C
ENDROOT
BRANCH   1   7
HETATM    7  C10 UNL     1      -5.447  22.693  -8.551  1.00  0.00     0.008 C
HETATM    8  C9  UNL     1      -4.338  23.170  -8.048  1.00  0.00    -0.001 C
BRANCH   8   9
HETATM    9  C8  UNL     1      -3.151  22.412  -7.700  1.00  0.00     0.003 C
HETATM   10  C7  UNL     1      -2.882  22.155  -6.435  1.00  0.00     0.050 C
BRANCH  10  11
HETATM   11  C6  UNL     1      -1.691  21.392  -6.063  1.00  0.00     0.152 C
HETATM   12  O2  UNL     1      -0.576  21.945  -6.226  1.00  0.00    -0.293 OA
BRANCH  11  13
HETATM   13  C5  UNL     1      -1.791  20.016  -5.513  1.00  0.00     0.120 C
BRANCH  13  14
HETATM   14  C3  UNL     1      -1.132  19.074  -6.463  1.00  0.00     0.060 C
HETATM   15  C4  UNL     1      -1.577  17.658  -6.156  1.00  0.00     0.046 C
BRANCH  14  16
HETATM   16  C2  UNL     1       0.370  19.135  -6.418  1.00  0.00     0.033 C
HETATM   17  C1  UNL     1       0.885  19.067  -7.839  1.00  0.00     0.008 C
ENDBRANCH  14  16
BRANCH  14  18
HETATM   18  O1  UNL     1      -1.523  19.430  -7.760  1.00  0.00    -0.390 OA
ATOM     19  H1  UNL     1      -1.923  18.665  -8.155  1.00  0.00     0.210 HD
ENDBRANCH  14  18
ENDBRANCH  13  14
ENDBRANCH  11  13
ENDBRANCH  10  11
ENDBRANCH   8   9
ENDBRANCH   1   7
BRANCH   6  20
HETATM   20  O7  UNL     1      -7.532  21.828 -10.272  1.00  0.00    -0.385 OA
HETATM   21  C16 UNL     1      -8.795  22.266  -9.902  1.00  0.00     0.202 C
ENDBRANCH   6  20
BRANCH   3  22
HETATM   22  O4  UNL     1      -4.430  18.459  -7.691  1.00  0.00    -0.368 OA
ATOM     23  H4  UNL     1      -4.300  18.279  -6.767  1.00  0.00     0.212 HD
ENDBRANCH   3  22
BRANCH   5  24
HETATM   24  O6  UNL     1      -6.011  19.716 -10.971  1.00  0.00    -0.390 OA
ATOM     25  H6  UNL     1      -5.506  20.506 -10.822  1.00  0.00     0.210 HD
ENDBRANCH   5  24
BRANCH   4  26
HETATM   26  O5  UNL     1      -7.538  17.896  -8.429  1.00  0.00    -0.388 OA
ATOM     27  H5  UNL     1      -7.640  17.081  -8.906  1.00  0.00     0.210 HD
ENDBRANCH   4  26
TORSDOF 11
ENDMDL