MODEL 3
REMARK VINA RESULT: -6.018569541      3.212      7.550
REMARK  9 active torsions:
REMARK  status: ('A' for Active; 'I' for Inactive)
REMARK    1  A    between atoms: C2_2  and  C3_3
REMARK    2  A    between atoms: C3_3  and  C4_4
REMARK    3  A    between atoms: C7_7  and  O1_8
REMARK    4  A    between atoms: O1_8  and  C8_9
REMARK    5  A    between atoms: C9_11  and  C10_12
REMARK    6  A    between atoms: C10_12  and  N1_13
REMARK    7  A    between atoms: C11_17  and  O3_18
REMARK    8  A    between atoms: C12_20  and  O4_21
REMARK    9  A    between atoms: C13_23  and  O5_24
ROOT
HETATM    1  C8  UNL     1      -1.546  18.938  -6.933  1.00  0.00     0.292 C
HETATM    2  O2  UNL     1      -0.426  18.999  -7.750  1.00  0.00    -0.349 OA
HETATM    3  C9  UNL     1       0.748  19.223  -7.084  1.00  0.00     0.181 C
HETATM    4  C11 UNL     1       0.575  19.396  -5.609  1.00  0.00     0.180 C
HETATM    5  C12 UNL     1      -0.264  18.338  -4.962  1.00  0.00     0.183 C
HETATM    6  C13 UNL     1      -1.443  17.928  -5.847  1.00  0.00     0.207 C
ENDROOT
BRANCH   1   7
HETATM    7  O1  UNL     1      -2.660  18.842  -7.725  1.00  0.00    -0.351 OA
BRANCH   7   8
HETATM    8  C7  UNL     1      -3.779  19.497  -7.256  1.00  0.00     0.156 C
HETATM    9  C6  UNL     1      -3.730  20.968  -7.316  1.00  0.00     0.035 C
HETATM   10  C5  UNL     1      -4.802  21.599  -8.187  1.00  0.00     0.010 C
HETATM   11  C4  UNL     1      -6.121  21.041  -7.760  1.00  0.00     0.017 C
HETATM   12  C16 UNL     1      -6.141  19.577  -8.107  1.00  0.00     0.157 A
HETATM   13  C15 UNL     1      -4.969  18.870  -7.961  1.00  0.00     0.180 A
HETATM   14  O6  UNL     1      -5.283  19.234  -9.246  1.00  0.00    -0.372 OA
BRANCH  11  15
HETATM   15  C3  UNL     1      -7.285  21.698  -8.436  1.00  0.00     0.007 C
BRANCH  15  16
HETATM   16  C2  UNL     1      -7.663  23.024  -7.811  1.00  0.00    -0.004 C
HETATM   17  C1  UNL     1      -7.697  22.796  -6.297  1.00  0.00     0.005 C
ENDBRANCH  15  16
ENDBRANCH  11  15
ENDBRANCH   7   8
ENDBRANCH   1   7
BRANCH   6  18
HETATM   18  O5  UNL     1      -1.301  16.639  -6.173  1.00  0.00    -0.383 OA
HETATM   19  C14 UNL     1      -1.295  15.679  -5.230  1.00  0.00     0.202 C
ENDBRANCH   6  18
BRANCH   3  20
HETATM   20  C10 UNL     1       1.723  18.150  -7.463  1.00  0.00     0.264 C
BRANCH  20  21
HETATM   21  N1  UNL     1       3.059  18.638  -7.692  1.00  0.00    -0.077 N
ATOM     22  H13 UNL     1       3.065  19.656  -7.755  1.00  0.00     0.274 HD
ATOM     23  H12 UNL     1       3.635  18.515  -6.859  1.00  0.00     0.274 HD
ATOM     24  H11 UNL     1       3.512  18.224  -8.507  1.00  0.00     0.274 HD
ENDBRANCH  20  21
ENDBRANCH   3  20
BRANCH   5  25
HETATM   25  O4  UNL     1      -0.672  18.799  -3.728  1.00  0.00    -0.390 OA
ATOM     26  H4  UNL     1      -1.187  18.121  -3.308  1.00  0.00     0.210 HD
ENDBRANCH   5  25
BRANCH   4  27
HETATM   27  O3  UNL     1       1.805  19.419  -4.966  1.00  0.00    -0.390 OA
ATOM     28  H3  UNL     1       2.106  20.312  -4.844  1.00  0.00     0.210 HD
ENDBRANCH   4  27
TORSDOF 9
ENDMDL