MODEL 5
REMARK VINA RESULT: -6.168965483      2.210      4.203
REMARK  9 active torsions:
REMARK  status: ('A' for Active; 'I' for Inactive)
REMARK    1  A    between atoms: C3_3  and  C4_4
REMARK    2  A    between atoms: C4_4  and  C5_5
REMARK    3  A    between atoms: C5_5  and  C6_6
REMARK    4  A    between atoms: C6_6  and  C7_7
REMARK    5  A    between atoms: C10_13  and  N3_14
REMARK    6  A    between atoms: N4_17  and  C13_18
REMARK    7  A    between atoms: C13_18  and  C14_19
REMARK    8  A    between atoms: C14_19  and  O1_20
REMARK    9  A    between atoms: C17_26  and  N6_27
ROOT
HETATM    1  C1  UNL     1      -0.169  11.336  -4.607  1.00  0.00     0.012 C
HETATM    2  C2  UNL     1       0.082  11.946  -3.605  1.00  0.00    -0.117 C
HETATM    3  C3  UNL     1       0.386  12.658  -2.379  1.00  0.00     0.093 C
ENDROOT
BRANCH   3   4
HETATM    4  C4  UNL     1       1.586  13.619  -2.570  1.00  0.00     0.012 C
BRANCH   4   5
HETATM    5  C5  UNL     1       1.138  14.886  -3.215  1.00  0.00     0.007 C
BRANCH   5   6
HETATM    6  C6  UNL     1       1.205  14.910  -4.730  1.00  0.00     0.061 C
BRANCH   6   7
HETATM    7  C7  UNL     1       0.258  15.977  -5.206  1.00  0.00     0.054 A
HETATM    8  N1  UNL     1       0.815  17.131  -5.677  1.00  0.00    -0.345 N
HETATM    9  C8  UNL     1       0.076  18.205  -5.990  1.00  0.00     0.158 A
ATOM     10  H1  UNL     1       1.828  17.177  -5.795  1.00  0.00     0.166 HD
HETATM   11  C9  UNL     1       0.682  19.418  -6.485  1.00  0.00     0.121 C
HETATM   12  C10 UNL     1      -1.285  18.106  -5.817  1.00  0.00     0.143 A
HETATM   13  N2  UNL     1       1.185  20.392  -6.862  1.00  0.00    -0.190 NA
HETATM   14  N5  UNL     1      -1.826  16.966  -5.357  1.00  0.00    -0.325 N
HETATM   15  C17 UNL     1      -1.092  15.860  -5.036  1.00  0.00     0.123 A
ATOM     16  H5  UNL     1      -2.838  16.925  -5.240  1.00  0.00     0.169 HD
BRANCH  12  17
HETATM   17  N3  UNL     1      -2.128  19.214  -6.110  1.00  0.00    -0.355 N
HETATM   18  C11 UNL     1      -2.981  19.078  -7.256  1.00  0.00     0.169 C
HETATM   19  C12 UNL     1      -4.045  20.138  -7.330  1.00  0.00     0.083 C
HETATM   20  N4  UNL     1      -3.631  21.421  -6.926  1.00  0.00    -0.369 N
HETATM   21  C15 UNL     1      -2.438  21.574  -6.202  1.00  0.00     0.083 C
HETATM   22  C16 UNL     1      -2.119  20.396  -5.300  1.00  0.00     0.169 C
BRANCH  20  23
HETATM   23  C13 UNL     1      -3.854  22.507  -7.823  1.00  0.00     0.153 C
BRANCH  23  24
HETATM   24  C14 UNL     1      -5.070  22.178  -8.702  1.00  0.00     0.184 C
BRANCH  24  25
HETATM   25  O1  UNL     1      -4.901  22.828  -9.919  1.00  0.00    -0.399 OA
ATOM     26  H1  UNL     1      -5.323  22.303 -10.589  1.00  0.00     0.209 HD
ENDBRANCH  24  25
ENDBRANCH  23  24
ENDBRANCH  20  23
ENDBRANCH  12  17
BRANCH  15  27
HETATM   27  N6  UNL     1      -1.686  14.777  -4.659  1.00  0.00    -0.384 N
ATOM     28  H62 UNL     1      -1.178  13.892  -4.652  1.00  0.00     0.157 HD
ATOM     29  H61 UNL     1      -2.644  14.739  -4.311  1.00  0.00     0.157 HD
ENDBRANCH  15  27
ENDBRANCH   6   7
ENDBRANCH   5   6
ENDBRANCH   4   5
ENDBRANCH   3   4
TORSDOF 9
ENDMDL