MODEL 4
REMARK VINA RESULT: -6.176343007      3.224      7.751
REMARK  10 active torsions:
REMARK  status: ('A' for Active; 'I' for Inactive)
REMARK    1  A    between atoms: C2_2  and  C3_3
REMARK    2  A    between atoms: C3_3  and  O2_5
REMARK    3  A    between atoms: O2_5  and  C4_6
REMARK    4  A    between atoms: C9_11  and  N1_12
REMARK    5  A    between atoms: N1_12  and  C10_14
REMARK    6  A    between atoms: C10_14  and  C11_15
REMARK    7  A    between atoms: C12_17  and  O4_18
REMARK    8  A    between atoms: O4_18  and  C13_19
REMARK    9  A    between atoms: C16_22  and  O5_23
REMARK   10  A    between atoms: C17_25  and  O6_26
ROOT
HETATM    1  C10 UNL     1       0.103  20.937  -5.843  1.00  0.00     0.149 C
ENDROOT
BRANCH   1   2
HETATM    2  N1  UNL     1      -0.907  21.598  -6.542  1.00  0.00    -0.412 N
ATOM      3  H1  UNL     1      -0.695  21.986  -7.461  1.00  0.00     0.153 HD
BRANCH   2   4
HETATM    4  C9  UNL     1      -2.201  21.750  -6.029  1.00  0.00     0.106 C
HETATM    5  C4  UNL     1      -3.291  21.348  -6.987  1.00  0.00     0.154 C
HETATM    6  C5  UNL     1      -3.761  22.362  -7.942  1.00  0.00     0.035 C
HETATM    7  C6  UNL     1      -3.495  23.780  -7.662  1.00  0.00     0.003 C
HETATM    8  C7  UNL     1      -2.918  24.136  -6.357  1.00  0.00     0.002 C
HETATM    9  C8  UNL     1      -2.601  23.039  -5.423  1.00  0.00     0.027 C
BRANCH   5  10
HETATM   10  O2  UNL     1      -2.922  20.148  -7.696  1.00  0.00    -0.311 OA
BRANCH  10  11
HETATM   11  C3  UNL     1      -3.607  18.969  -7.565  1.00  0.00     0.282 C
HETATM   12  O1  UNL     1      -3.105  18.068  -6.854  1.00  0.00    -0.260 OA
BRANCH  11  13
HETATM   13  C2  UNL     1      -4.892  18.703  -8.211  1.00  0.00     0.072 C
HETATM   14  C1  UNL     1      -6.016  19.228  -7.811  1.00  0.00     0.017 C
ENDBRANCH  11  13
ENDBRANCH  10  11
ENDBRANCH   5  10
ENDBRANCH   2   4
ENDBRANCH   1   2
BRANCH   1  15
HETATM   15  C11 UNL     1       0.048  19.404  -6.037  1.00  0.00     0.173 C
HETATM   16  O3  UNL     1       0.889  18.768  -5.157  1.00  0.00    -0.349 OA
HETATM   17  C12 UNL     1       1.281  17.583  -5.780  1.00  0.00     0.291 C
HETATM   18  C16 UNL     1       1.724  18.080  -7.137  1.00  0.00     0.204 C
HETATM   19  C17 UNL     1       0.676  19.157  -7.392  1.00  0.00     0.182 C
BRANCH  17  20
HETATM   20  O4  UNL     1       0.165  16.783  -5.982  1.00  0.00    -0.354 OA
BRANCH  20  21
HETATM   21  C13 UNL     1      -0.161  16.014  -4.894  1.00  0.00     0.116 C
HETATM   22  C14 UNL     1       1.014  15.091  -4.583  1.00  0.00     0.039 C
HETATM   23  C15 UNL     1      -1.357  15.105  -5.168  1.00  0.00     0.039 C
ENDBRANCH  20  21
ENDBRANCH  17  20
BRANCH  18  24
HETATM   24  O5  UNL     1       3.002  18.588  -7.136  1.00  0.00    -0.388 OA
ATOM     25  H5  UNL     1       3.671  17.915  -7.185  1.00  0.00     0.210 HD
ENDBRANCH  18  24
BRANCH  19  26
HETATM   26  O6  UNL     1      -0.288  18.717  -8.293  1.00  0.00    -0.390 OA
ATOM     27  H6  UNL     1       0.122  18.461  -9.111  1.00  0.00     0.210 HD
ENDBRANCH  19  26
ENDBRANCH   1  15
TORSDOF 10
ENDMDL