MODEL 2
REMARK VINA RESULT: -6.267015836      1.228      1.438
REMARK  9 active torsions:
REMARK  status: ('A' for Active; 'I' for Inactive)
REMARK    1  A    between atoms: C2_3  and  N2_4
REMARK    2  A    between atoms: N2_4  and  C3_6
REMARK    3  A    between atoms: C4_9  and  N4_10
REMARK    4  A    between atoms: N6_17  and  C6_18
REMARK    5  A    between atoms: C6_18  and  C7_19
REMARK    6  A    between atoms: C7_19  and  C8_20
REMARK    7  A    between atoms: C8_20  and  C9_21
REMARK    8  A    between atoms: C9_21  and  C10_22
REMARK    9  A    between atoms: C10_22  and  N7_23
ROOT
HETATM    1  N1  UNL     1      -2.229  22.413  -6.142  1.00  0.00    -0.196 NA
HETATM    2  C1  UNL     1      -2.947  22.976  -6.837  1.00  0.00     0.079 C
HETATM    3  C2  UNL     1      -3.877  23.683  -7.748  1.00  0.00     0.262 C
ENDROOT
BRANCH   3   4
HETATM    4  N2  UNL     1      -4.344  22.734  -8.708  1.00  0.00    -0.213 N
ATOM      5  H2  UNL     1      -3.703  21.991  -8.984  1.00  0.00     0.178 HD
BRANCH   4   6
HETATM    6  C3  UNL     1      -5.505  22.744  -9.251  1.00  0.00     0.699 A
HETATM    7  N3  UNL     1      -5.826  23.794 -10.042  1.00  0.00    -0.022 N
HETATM    8  C4  UNL     1      -7.044  23.861 -10.646  1.00  0.00     0.694 A
ATOM      9  H3  UNL     1      -5.148  24.543 -10.187  1.00  0.00     0.203 HD
HETATM   10  N5  UNL     1      -7.905  22.853 -10.427  1.00  0.00    -0.140 N
HETATM   11  C5  UNL     1      -7.558  21.820  -9.634  1.00  0.00     0.355 A
ATOM     12  H5  UNL     1      -8.826  22.870 -10.864  1.00  0.00     0.189 HD
HETATM   13  O1  UNL     1      -8.418  20.917  -9.480  1.00  0.00    -0.245 OA
HETATM   14  N6  UNL     1      -6.362  21.739  -9.032  1.00  0.00    -0.132 N
BRANCH   8  15
HETATM   15  N4  UNL     1      -7.367  24.871 -11.414  1.00  0.00    -0.234 N
ATOM     16  H42 UNL     1      -7.447  25.815 -11.035  1.00  0.00     0.174 HD
ATOM     17  H41 UNL     1      -7.548  24.743 -12.410  1.00  0.00     0.174 HD
ENDBRANCH   8  15
BRANCH  14  18
HETATM   18  C6  UNL     1      -6.033  20.612  -8.192  1.00  0.00     0.153 C
BRANCH  18  19
HETATM   19  C7  UNL     1      -5.575  19.418  -8.957  1.00  0.00     0.021 C
BRANCH  19  20
HETATM   20  C8  UNL     1      -4.707  18.546  -8.104  1.00  0.00     0.003 C
BRANCH  20  21
HETATM   21  C9  UNL     1      -3.585  19.253  -7.422  1.00  0.00     0.030 C
BRANCH  21  22
HETATM   22  C10 UNL     1      -2.513  18.302  -6.989  1.00  0.00     0.272 C
BRANCH  22  23
HETATM   23  N7  UNL     1      -1.401  19.028  -6.465  1.00  0.00     0.089 N
HETATM   24  C11 UNL     1      -1.101  18.777  -5.106  1.00  0.00     0.282 C
HETATM   25  C12 UNL     1      -0.448  17.415  -4.846  1.00  0.00     0.104 C
HETATM   26  S1  UNL     1       1.128  17.460  -5.748  1.00  0.00    -0.166 SA
HETATM   27  C13 UNL     1       1.049  19.008  -6.737  1.00  0.00     0.104 C
HETATM   28  C14 UNL     1      -0.305  19.038  -7.366  1.00  0.00     0.282 C
ENDBRANCH  22  23
ENDBRANCH  21  22
ENDBRANCH  20  21
ENDBRANCH  19  20
ENDBRANCH  18  19
ENDBRANCH  14  18
ENDBRANCH   4   6
ENDBRANCH   3   4
TORSDOF 9
ENDMDL