MODEL 3
REMARK VINA RESULT: -5.803084592      3.653      5.069
REMARK  9 active torsions:
REMARK  status: ('A' for Active; 'I' for Inactive)
REMARK    1  A    between atoms: O1_2  and  C2_3
REMARK    2  A    between atoms: C2_3  and  C3_4
REMARK    3  A    between atoms: C3_4  and  N3_10
REMARK    4  A    between atoms: N1_5  and  N2_7
REMARK    5  A    between atoms: N3_10  and  C4_11
REMARK    6  A    between atoms: C4_11  and  C5_12
REMARK    7  A    between atoms: C5_12  and  O2_13
REMARK    8  A    between atoms: O2_13  and  C6_14
REMARK    9  A    between atoms: C6_14  and  C7_15
ROOT
HETATM    1  C3  UNL     1      -4.827  19.067  -8.386  1.00  0.00     0.203 C
HETATM    2  N1  UNL     1      -5.433  17.859  -8.495  1.00  0.00    -0.282 N
ATOM      3  H1  UNL     1      -4.998  17.063  -8.027  1.00  0.00     0.189 HD
ENDROOT
BRANCH   1   4
HETATM    4  C2  UNL     1      -5.473  20.228  -9.036  1.00  0.00     0.133 C
HETATM    5  C13 UNL     1      -6.613  20.763  -8.199  1.00  0.00     0.047 C
HETATM    6  C14 UNL     1      -5.912  21.337  -6.934  1.00  0.00     0.004 C
HETATM    7  C15 UNL     1      -4.900  22.221  -7.668  1.00  0.00     0.004 C
HETATM    8  C16 UNL     1      -4.507  21.460  -8.889  1.00  0.00     0.047 C
BRANCH   4   9
HETATM    9  O1  UNL     1      -5.870  20.120 -10.322  1.00  0.00    -0.376 OA
HETATM   10  C1  UNL     1      -7.067  20.753 -10.647  1.00  0.00     0.203 C
ENDBRANCH   4   9
ENDBRANCH   1   4
BRANCH   1  11
HETATM   11  N3  UNL     1      -3.555  18.954  -7.915  1.00  0.00    -0.398 NA
BRANCH  11  12
HETATM   12  C4  UNL     1      -2.248  18.837  -7.430  1.00  0.00     0.208 C
BRANCH  12  13
HETATM   13  C5  UNL     1      -2.207  17.661  -6.545  1.00  0.00     0.166 C
BRANCH  13  14
HETATM   14  O2  UNL     1      -1.159  16.860  -6.274  1.00  0.00    -0.360 OA
BRANCH  14  15
HETATM   15  C6  UNL     1      -1.527  16.202  -5.028  1.00  0.00     0.179 C
BRANCH  15  16
HETATM   16  C7  UNL     1      -0.762  14.994  -4.734  1.00  0.00     0.010 C
HETATM   17  C8  UNL     1      -0.538  14.716  -3.259  1.00  0.00     0.007 C
HETATM   18  C9  UNL     1      -0.407  13.229  -2.997  1.00  0.00     0.000 C
HETATM   19  C10 UNL     1       0.293  12.472  -4.092  1.00  0.00     0.000 C
HETATM   20  C11 UNL     1      -0.333  12.687  -5.435  1.00  0.00     0.000 C
HETATM   21  C12 UNL     1      -1.439  13.723  -5.265  1.00  0.00     0.007 C
ENDBRANCH  15  16
ENDBRANCH  14  15
ENDBRANCH  13  14
ENDBRANCH  12  13
ENDBRANCH  11  12
ENDBRANCH   1  11
BRANCH   2  22
HETATM   22  N2  UNL     1      -6.557  17.646  -9.172  1.00  0.00    -0.343 N
ATOM     23  H22 UNL     1      -6.568  17.937 -10.149  1.00  0.00     0.176 HD
ATOM     24  H21 UNL     1      -7.392  17.215  -8.775  1.00  0.00     0.176 HD
ENDBRANCH   2  22
TORSDOF 9
ENDMDL