MODEL 1
REMARK VINA RESULT: -5.890219591      0.000      0.000
REMARK  7 active torsions:
REMARK  status: ('A' for Active; 'I' for Inactive)
REMARK    1  A    between atoms: C2_2  and  C3_3
REMARK    2  A    between atoms: C3_3  and  C5_5
REMARK    3  A    between atoms: C5_5  and  N1_8
REMARK    4  A    between atoms: N1_8  and  C8_11
REMARK    5  A    between atoms: C8_11  and  C9_12
REMARK    6  A    between atoms: C9_12  and  C10_13
REMARK    7  A    between atoms: C9_12  and  N4_20
ROOT
HETATM    1  C9  UNL     1      -4.542  20.939  -7.742  1.00  0.00     0.160 C
ENDROOT
BRANCH   1   2
HETATM    2  C8  UNL     1      -4.420  22.321  -8.323  1.00  0.00     0.264 C
BRANCH   2   3
HETATM    3  N1  UNL     1      -5.310  23.270  -7.692  1.00  0.00    -0.064 N
ATOM      4  H12 UNL     1      -4.788  23.994  -7.199  1.00  0.00     0.278 HD
ATOM      5  H11 UNL     1      -5.794  22.851  -6.898  1.00  0.00     0.278 HD
BRANCH   3   6
HETATM    6  C5  UNL     1      -6.252  23.852  -8.635  1.00  0.00     0.122 C
HETATM    7  C6  UNL     1      -6.073  25.378  -8.391  1.00  0.00     0.046 C
HETATM    8  C7  UNL     1      -5.919  23.612 -10.071  1.00  0.00     0.046 C
BRANCH   6   9
HETATM    9  C3  UNL     1      -7.646  23.456  -8.280  1.00  0.00     0.016 C
HETATM   10  C4  UNL     1      -7.750  22.527  -7.108  1.00  0.00     0.012 C
BRANCH   9  11
HETATM   11  C2  UNL     1      -8.388  22.887  -9.479  1.00  0.00     0.002 C
HETATM   12  C1  UNL     1      -8.885  21.480  -9.230  1.00  0.00     0.005 C
ENDBRANCH   9  11
ENDBRANCH   6   9
ENDBRANCH   3   6
ENDBRANCH   2   3
ENDBRANCH   1   2
BRANCH   1  13
HETATM   13  C10 UNL     1      -5.375  20.030  -8.558  1.00  0.00     0.050 A
HETATM   14  C11 UNL     1      -6.135  18.933  -8.195  1.00  0.00     0.116 A
HETATM   15  N2  UNL     1      -6.715  18.410  -9.322  1.00  0.00    -0.360 N
HETATM   16  C12 UNL     1      -6.324  19.164 -10.354  1.00  0.00     0.180 A
ATOM     17  H2  UNL     1      -7.330  17.597  -9.364  1.00  0.00     0.166 HD
HETATM   18  N3  UNL     1      -5.524  20.128  -9.890  1.00  0.00    -0.353 N
ATOM     19  H3  UNL     1      -5.085  20.844 -10.469  1.00  0.00     0.166 HD
ENDBRANCH   1  13
BRANCH   1  20
HETATM   20  N4  UNL     1      -3.339  20.281  -7.428  1.00  0.00    -0.377 N
HETATM   21  C13 UNL     1      -3.334  18.862  -7.358  1.00  0.00     0.149 C
HETATM   22  C14 UNL     1      -2.089  18.244  -6.856  1.00  0.00     0.187 C
HETATM   23  O1  UNL     1      -1.212  19.026  -6.163  1.00  0.00    -0.385 OA
HETATM   24  C15 UNL     1      -1.866  20.095  -5.582  1.00  0.00     0.212 C
HETATM   25  C16 UNL     1      -2.325  20.966  -6.744  1.00  0.00     0.085 C
ENDBRANCH   1  20
TORSDOF 7
ENDMDL