MODEL 5
REMARK VINA RESULT: -5.920422488      3.990      6.569
REMARK  8 active torsions:
REMARK  status: ('A' for Active; 'I' for Inactive)
REMARK    1  A    between atoms: C2_2  and  C3_3
REMARK    2  A    between atoms: C2_2  and  C4_6
REMARK    3  A    between atoms: C3_3  and  O1_4
REMARK    4  A    between atoms: C4_6  and  N1_7
REMARK    5  A    between atoms: C7_11  and  C8_12
REMARK    6  A    between atoms: C8_12  and  C10_14
REMARK    7  A    between atoms: C10_14  and  N2_15
REMARK    8  A    between atoms: N2_15  and  C11_17
ROOT
HETATM    1  N1  UNL     1      -0.364  19.679  -6.480  1.00  0.00     0.093 N
HETATM    2  C5  UNL     1       0.980  19.380  -6.721  1.00  0.00     0.298 C
HETATM    3  C6  UNL     1       1.189  17.916  -6.340  1.00  0.00     0.198 C
HETATM    4  O2  UNL     1       0.898  17.798  -5.014  1.00  0.00    -0.382 OA
HETATM    5  C7  UNL     1      -0.380  18.193  -4.635  1.00  0.00     0.158 C
HETATM    6  C17 UNL     1      -0.610  19.601  -4.995  1.00  0.00     0.305 C
ENDROOT
BRANCH   5   7
HETATM    7  C8  UNL     1      -0.585  17.749  -3.234  1.00  0.00     0.050 C
HETATM    8  C9  UNL     1       0.604  18.255  -2.418  1.00  0.00     0.018 C
BRANCH   7   9
HETATM    9  C10 UNL     1      -0.897  16.339  -2.968  1.00  0.00     0.062 C
BRANCH   9  10
HETATM   10  N2  UNL     1      -1.216  15.452  -3.986  1.00  0.00    -0.397 N
ATOM     11  H2  UNL     1      -1.947  15.727  -4.641  1.00  0.00     0.159 HD
BRANCH  10  12
HETATM   12  C11 UNL     1      -0.608  14.214  -4.179  1.00  0.00     0.080 C
HETATM   13  C12 UNL     1      -0.445  13.387  -2.916  1.00  0.00     0.025 C
HETATM   14  C13 UNL     1      -0.461  11.916  -3.237  1.00  0.00     0.002 C
HETATM   15  C14 UNL     1       0.428  11.520  -4.376  1.00  0.00     0.000 C
HETATM   16  C15 UNL     1       0.038  12.283  -5.595  1.00  0.00     0.002 C
HETATM   17  C16 UNL     1      -1.067  13.319  -5.295  1.00  0.00     0.025 C
ENDBRANCH  10  12
ENDBRANCH   9  10
ENDBRANCH   7   9
ENDBRANCH   5   7
BRANCH   1  18
HETATM   18  C4  UNL     1      -1.435  19.155  -7.175  1.00  0.00     0.279 C
BRANCH  18  19
HETATM   19  C2  UNL     1      -2.823  19.488  -6.802  1.00  0.00     0.033 C
HETATM   20  C1  UNL     1      -3.780  18.626  -7.726  1.00  0.00     0.014 C
BRANCH  19  21
HETATM   21  C3  UNL     1      -3.279  20.891  -7.137  1.00  0.00     0.170 C
BRANCH  21  22
HETATM   22  O1  UNL     1      -2.915  21.184  -8.484  1.00  0.00    -0.400 OA
ATOM     23  H1  UNL     1      -2.125  20.702  -8.700  1.00  0.00     0.209 HD
ENDBRANCH  21  22
ENDBRANCH  19  21
ENDBRANCH  18  19
ENDBRANCH   1  18
TORSDOF 8
ENDMDL