MODEL 3
REMARK VINA RESULT: -6.250149023      1.073      1.146
REMARK  9 active torsions:
REMARK  status: ('A' for Active; 'I' for Inactive)
REMARK    1  A    between atoms: C2_2  and  C3_3
REMARK    2  A    between atoms: C3_3  and  C4_4
REMARK    3  A    between atoms: C4_4  and  C5_5
REMARK    4  A    between atoms: C4_4  and  N3_11
REMARK    5  A    between atoms: N2_7  and  O1_9
REMARK    6  A    between atoms: N3_11  and  C7_13
REMARK    7  A    between atoms: C11_17  and  O2_18
REMARK    8  A    between atoms: O2_18  and  C12_19
REMARK    9  A    between atoms: C12_19  and  C13_21
ROOT
HETATM    1  N3  UNL     1      -6.786  21.371  -9.188  1.00  0.00    -0.401 N
HETATM    2  C6  UNL     1      -8.172  21.257  -9.222  1.00  0.00     0.144 C
ENDROOT
BRANCH   1   3
HETATM    3  C4  UNL     1      -5.969  20.250  -9.122  1.00  0.00     0.149 C
BRANCH   3   4
HETATM    4  C3  UNL     1      -5.751  19.824  -7.659  1.00  0.00     0.058 C
BRANCH   4   5
HETATM    5  C2  UNL     1      -4.293  19.896  -7.389  1.00  0.00    -0.035 C
HETATM    6  C1  UNL     1      -3.452  18.891  -7.557  1.00  0.00     0.007 C
ENDBRANCH   4   5
ENDBRANCH   3   4
BRANCH   3   7
HETATM    7  C5  UNL     1      -6.414  19.032  -9.828  1.00  0.00     0.136 C
HETATM    8  N1  UNL     1      -6.535  18.997 -11.226  1.00  0.00    -0.083 NA
HETATM    9  N2  UNL     1      -6.693  17.994  -9.135  1.00  0.00    -0.257 N
ATOM     10  H2  UNL     1      -6.594  18.056  -8.121  1.00  0.00     0.195 HD
BRANCH   9  11
HETATM   11  O1  UNL     1      -7.118  16.799  -9.669  1.00  0.00    -0.289 OA
ATOM     12  H1  UNL     1      -6.888  15.946  -9.319  1.00  0.00     0.244 HD
ENDBRANCH   9  11
ENDBRANCH   3   7
ENDBRANCH   1   3
BRANCH   1  13
HETATM   13  C7  UNL     1      -6.192  22.649  -9.309  1.00  0.00     0.082 C
HETATM   14  C8  UNL     1      -6.858  23.414 -10.411  1.00  0.00     0.025 C
HETATM   15  C9  UNL     1      -6.379  24.811 -10.572  1.00  0.00     0.004 C
HETATM   16  C10 UNL     1      -6.199  25.595  -9.325  1.00  0.00     0.033 C
HETATM   17  C11 UNL     1      -5.872  24.840  -8.089  1.00  0.00     0.134 C
HETATM   18  C15 UNL     1      -6.347  23.418  -8.037  1.00  0.00     0.057 C
BRANCH  17  19
HETATM   19  O2  UNL     1      -4.495  24.930  -7.792  1.00  0.00    -0.313 OA
BRANCH  19  20
HETATM   20  C12 UNL     1      -3.958  26.112  -7.303  1.00  0.00     0.282 C
HETATM   21  O3  UNL     1      -4.589  26.710  -6.372  1.00  0.00    -0.260 OA
BRANCH  20  22
HETATM   22  C13 UNL     1      -2.728  26.689  -7.801  1.00  0.00     0.072 C
HETATM   23  C14 UNL     1      -1.569  26.207  -7.421  1.00  0.00     0.017 C
ENDBRANCH  20  22
ENDBRANCH  19  20
ENDBRANCH  17  19
ENDBRANCH   1  13
TORSDOF 9
ENDMDL