MODEL 5
REMARK VINA RESULT: -5.992627171      1.169      1.592
REMARK  9 active torsions:
REMARK  status: ('A' for Active; 'I' for Inactive)
REMARK    1  A    between atoms: O1_2  and  C2_3
REMARK    2  A    between atoms: C2_3  and  C3_4
REMARK    3  A    between atoms: C3_4  and  N1_6
REMARK    4  A    between atoms: N1_6  and  C5_9
REMARK    5  A    between atoms: C8_12  and  C9_13
REMARK    6  A    between atoms: C9_13  and  C10_14
REMARK    7  A    between atoms: C10_14  and  O2_15
REMARK    8  A    between atoms: C10_14  and  N2_17
REMARK    9  A    between atoms: N2_17  and  C11_18
ROOT
HETATM    1  C5  UNL     1      -2.571  19.294  -7.153  1.00  0.00     0.186 C
HETATM    2  C6  UNL     1      -3.013  20.748  -7.255  1.00  0.00     0.033 C
HETATM    3  C7  UNL     1      -4.480  20.650  -7.011  1.00  0.00     0.007 C
HETATM    4  C8  UNL     1      -4.962  19.387  -7.608  1.00  0.00    -0.004 C
HETATM    5  C16 UNL     1      -3.649  18.546  -7.859  1.00  0.00     0.038 C
ENDROOT
BRANCH   4   6
HETATM    6  C9  UNL     1      -5.594  19.372  -8.939  1.00  0.00     0.104 C
BRANCH   6   7
HETATM    7  C10 UNL     1      -6.515  20.481  -9.298  1.00  0.00     0.184 C
BRANCH   7   8
HETATM    8  O2  UNL     1      -7.759  20.062  -9.250  1.00  0.00    -0.339 OA
ATOM      9  H2  UNL     1      -8.329  20.773  -8.982  1.00  0.00     0.220 HD
ENDBRANCH   7   8
BRANCH   7  10
HETATM   10  N2  UNL     1      -6.240  21.772  -9.642  1.00  0.00    -0.423 NA
BRANCH  10  11
HETATM   11  C11 UNL     1      -6.004  23.103  -9.941  1.00  0.00     0.165 C
HETATM   12  C12 UNL     1      -7.264  23.821 -10.489  1.00  0.00     0.039 C
HETATM   13  C13 UNL     1      -8.008  24.229  -9.233  1.00  0.00     0.003 C
HETATM   14  C14 UNL     1      -7.051  24.029  -8.072  1.00  0.00     0.003 C
HETATM   15  C15 UNL     1      -5.692  24.007  -8.750  1.00  0.00     0.039 C
ENDBRANCH  10  11
ENDBRANCH   7  10
ENDBRANCH   6   7
ENDBRANCH   4   6
BRANCH   1  16
HETATM   16  N1  UNL     1      -1.260  19.157  -7.793  1.00  0.00    -0.065 N
ATOM     17  H12 UNL     1      -1.019  19.990  -8.330  1.00  0.00     0.278 HD
ATOM     18  H11 UNL     1      -1.286  18.480  -8.556  1.00  0.00     0.278 HD
BRANCH  16  19
HETATM   19  C3  UNL     1      -0.234  18.831  -6.837  1.00  0.00     0.205 C
HETATM   20  C4  UNL     1       0.338  20.092  -6.262  1.00  0.00     0.042 C
BRANCH  19  21
HETATM   21  C2  UNL     1      -0.900  17.950  -5.796  1.00  0.00     0.199 C
BRANCH  21  22
HETATM   22  O1  UNL     1      -0.533  16.633  -5.931  1.00  0.00    -0.394 OA
HETATM   23  C1  UNL     1      -1.267  15.779  -5.158  1.00  0.00     0.201 C
ENDBRANCH  21  22
ENDBRANCH  19  21
ENDBRANCH  16  19
ENDBRANCH   1  16
TORSDOF 9
ENDMDL