MODEL 2
REMARK VINA RESULT: -6.081030571      2.800      4.722
REMARK  7 active torsions:
REMARK  status: ('A' for Active; 'I' for Inactive)
REMARK    1  A    between atoms: C4_8  and  C5_9
REMARK    2  A    between atoms: C5_9  and  O1_10
REMARK    3  A    between atoms: O1_10  and  C6_11
REMARK    4  A    between atoms: C6_11  and  C7_12
REMARK    5  A    between atoms: C7_12  and  C8_13
REMARK    6  A    between atoms: C8_13  and  C9_14
REMARK    7  A    between atoms: C9_14  and  C10_15
ROOT
HETATM    1  N1  UNL     1      -7.060  24.196 -10.828  1.00  0.00    -0.197 NA
HETATM    2  C1  UNL     1      -6.688  23.204 -10.358  1.00  0.00     0.066 C
HETATM    3  C2  UNL     1      -6.227  21.938  -9.791  1.00  0.00     0.129 C
HETATM    4  C3  UNL     1      -7.188  20.808 -10.138  1.00  0.00     0.252 C
HETATM    5  N2  UNL     1      -7.471  20.095  -8.907  1.00  0.00    -0.067 N
ATOM      6  H21 UNL     1      -7.606  19.092  -9.028  1.00  0.00     0.277 HD
ATOM      7  H22 UNL     1      -8.394  20.286  -8.517  1.00  0.00     0.277 HD
HETATM    8  C4  UNL     1      -6.347  20.454  -8.011  1.00  0.00     0.219 C
HETATM    9  C11 UNL     1      -6.277  21.929  -8.296  1.00  0.00     0.008 C
HETATM   10  C12 UNL     1      -5.238  22.703  -7.595  1.00  0.00     0.013 C
HETATM   11  C13 UNL     1      -5.702  24.116  -7.204  1.00  0.00     0.001 C
HETATM   12  C14 UNL     1      -6.770  24.058  -6.136  1.00  0.00     0.000 C
HETATM   13  C15 UNL     1      -7.508  22.730  -6.348  1.00  0.00     0.001 C
HETATM   14  C16 UNL     1      -7.631  22.498  -7.845  1.00  0.00     0.013 C
ENDROOT
BRANCH   8  15
HETATM   15  C5  UNL     1      -5.186  19.642  -8.486  1.00  0.00     0.201 C
BRANCH  15  16
HETATM   16  O1  UNL     1      -4.712  18.677  -7.674  1.00  0.00    -0.389 OA
BRANCH  16  17
HETATM   17  C6  UNL     1      -3.359  18.562  -7.533  1.00  0.00     0.167 C
BRANCH  17  18
HETATM   18  C7  UNL     1      -2.699  19.667  -6.767  1.00  0.00     0.027 C
BRANCH  18  19
HETATM   19  C8  UNL     1      -1.212  19.387  -6.725  1.00  0.00     0.013 C
BRANCH  19  20
HETATM   20  C9  UNL     1      -0.914  18.608  -5.467  1.00  0.00     0.113 C
BRANCH  20  21
HETATM   21  C10 UNL     1      -0.398  17.257  -5.767  1.00  0.00     0.172 C
HETATM   22  O2  UNL     1       0.822  17.064  -5.953  1.00  0.00    -0.648 OA
HETATM   23  O3  UNL     1      -1.270  16.194  -5.843  1.00  0.00    -0.648 OA
ENDBRANCH  20  21
ENDBRANCH  19  20
ENDBRANCH  18  19
ENDBRANCH  17  18
ENDBRANCH  16  17
ENDBRANCH  15  16
ENDBRANCH   8  15
TORSDOF 7
ENDMDL