MODEL 3
REMARK VINA RESULT: -5.340589837      2.896      7.891
REMARK  7 active torsions:
REMARK  status: ('A' for Active; 'I' for Inactive)
REMARK    1  A    between atoms: C2_2  and  C4_4
REMARK    2  A    between atoms: C4_4  and  N1_5
REMARK    3  A    between atoms: C4_4  and  C10_16
REMARK       I    between atoms: N1_5  and  C5_7
REMARK    4  A    between atoms: C5_7  and  C6_9
REMARK    5  A    between atoms: C10_16  and  N4_17
REMARK    6  A    between atoms: C10_16  and  C14_22
REMARK    7  A    between atoms: N4_17  and  C11_19
ROOT
HETATM    1  C4  UNL     1      -0.773  16.959  -5.261  1.00  0.00     0.134 C
ENDROOT
BRANCH   1   2
HETATM    2  C2  UNL     1      -1.396  15.733  -4.692  1.00  0.00     0.006 C
HETATM    3  C1  UNL     1      -1.183  14.430  -5.364  1.00  0.00     0.012 C
HETATM    4  C3  UNL     1      -1.205  15.625  -3.171  1.00  0.00     0.012 C
ENDBRANCH   1   2
BRANCH   1   5
HETATM    5  N1  UNL     1      -2.006  17.626  -5.805  1.00  0.00    -0.347 N
HETATM    6  C5  UNL     1      -2.097  18.357  -6.958  1.00  0.00     0.255 C
HETATM    7  O1  UNL     1      -1.110  18.561  -7.700  1.00  0.00    -0.268 OA
ATOM      8  H1  UNL     1      -2.862  17.522  -5.260  1.00  0.00     0.163 HD
BRANCH   6   9
HETATM    9  C6  UNL     1      -3.375  18.915  -7.348  1.00  0.00     0.065 A
HETATM   10  C7  UNL     1      -3.896  20.152  -6.985  1.00  0.00     0.125 A
HETATM   11  N2  UNL     1      -5.091  20.275  -7.580  1.00  0.00    -0.309 N
HETATM   12  N3  UNL     1      -5.375  19.187  -8.311  1.00  0.00    -0.307 N
ATOM     13  H2  UNL     1      -5.701  21.088  -7.489  1.00  0.00     0.186 HD
HETATM   14  C8  UNL     1      -6.575  18.992  -9.082  1.00  0.00     0.177 C
HETATM   15  C9  UNL     1      -4.331  18.360  -8.167  1.00  0.00     0.128 A
ENDBRANCH   6   9
ENDBRANCH   1   5
BRANCH   1  16
HETATM   16  C10 UNL     1      -0.089  17.932  -4.443  1.00  0.00     0.009 C
BRANCH  16  17
HETATM   17  N4  UNL     1      -0.932  19.110  -4.117  1.00  0.00    -0.390 N
ATOM     18  H4  UNL     1      -1.916  19.022  -3.864  1.00  0.00     0.159 HD
BRANCH  17  19
HETATM   19  C11 UNL     1      -0.279  20.357  -4.181  1.00  0.00     0.081 A
HETATM   20  C12 UNL     1      -0.843  21.395  -5.208  1.00  0.00     0.027 A
HETATM   21  C13 UNL     1      -1.134  21.565  -3.761  1.00  0.00     0.027 A
ENDBRANCH  17  19
ENDBRANCH  16  17
BRANCH  16  22
HETATM   22  C14 UNL     1       1.272  18.426  -4.659  1.00  0.00     0.025 C
HETATM   23  C15 UNL     1       1.771  18.060  -6.094  1.00  0.00     0.016 C
HETATM   24  C16 UNL     1       2.361  17.842  -3.792  1.00  0.00     0.016 C
ENDBRANCH  16  22
ENDBRANCH   1  16
TORSDOF 7
ENDMDL