MODEL 2
REMARK VINA RESULT: -5.577305466      1.715      2.180
REMARK  5 active torsions:
REMARK  status: ('A' for Active; 'I' for Inactive)
REMARK    1  A    between atoms: S1_2  and  C2_3
REMARK    2  A    between atoms: C3_4  and  C4_5
REMARK    3  A    between atoms: C4_5  and  N1_6
REMARK    4  A    between atoms: C4_5  and  C13_16
REMARK       I    between atoms: C13_16  and  N2_18
REMARK    5  A    between atoms: N2_18  and  C14_20
ROOT
HETATM    1  C4  UNL     1      -1.547  19.670  -6.573  1.00  0.00     0.198 C
ENDROOT
BRANCH   1   2
HETATM    2  C3  UNL     1      -1.515  20.997  -5.922  1.00  0.00     0.014 C
HETATM    3  C2  UNL     1      -0.821  21.291  -4.686  1.00  0.00     0.043 C
BRANCH   3   4
HETATM    4  S1  UNL     1      -1.361  20.332  -3.252  1.00  0.00    -0.146 SA
HETATM    5  C1  UNL     1      -0.417  18.870  -2.902  1.00  0.00     0.095 C
ENDBRANCH   3   4
ENDBRANCH   1   2
BRANCH   1   6
HETATM    6  N1  UNL     1      -2.357  19.753  -7.716  1.00  0.00    -0.380 N
HETATM    7  C5  UNL     1      -3.569  20.282  -7.964  1.00  0.00    -0.017 C
HETATM    8  C6  UNL     1      -3.881  21.735  -7.743  1.00  0.00     0.053 C
HETATM    9  C12 UNL     1      -4.760  19.432  -7.673  1.00  0.00     0.053 C
HETATM   10  C7  UNL     1      -5.000  22.114  -8.736  1.00  0.00     0.014 C
HETATM   11  C8  UNL     1      -6.238  21.267  -8.485  1.00  0.00    -0.047 C
HETATM   12  C9  UNL     1      -7.403  22.133  -8.022  1.00  0.00     0.015 C
HETATM   13  C10 UNL     1      -6.687  20.564  -9.748  1.00  0.00     0.015 C
HETATM   14  C11 UNL     1      -5.997  20.254  -7.357  1.00  0.00     0.014 C
ATOM     15  H1  UNL     1      -1.936  19.319  -8.537  1.00  0.00     0.160 HD
ENDBRANCH   1   6
BRANCH   1  16
HETATM   16  C13 UNL     1      -0.342  18.900  -6.754  1.00  0.00     0.250 C
HETATM   17  O1  UNL     1      -0.250  17.728  -6.253  1.00  0.00    -0.270 OA
HETATM   18  N2  UNL     1       0.828  19.263  -7.451  1.00  0.00    -0.303 N
ATOM     19  H2  UNL     1       0.869  20.170  -7.916  1.00  0.00     0.171 HD
BRANCH  18  20
HETATM   20  C14 UNL     1       1.966  18.386  -7.520  1.00  0.00     0.355 C
HETATM   21  O2  UNL     1       2.261  17.733  -8.532  1.00  0.00    -0.283 OA
ENDBRANCH  18  20
ENDBRANCH   1  16
TORSDOF 5
ENDMDL