MODEL 1
REMARK VINA RESULT: -5.206318136      0.000      0.000
REMARK  7 active torsions:
REMARK  status: ('A' for Active; 'I' for Inactive)
REMARK    1  A    between atoms: C2_2  and  C3_3
REMARK    2  A    between atoms: C6_7  and  N1_8
REMARK       I    between atoms: N1_8  and  C7_10
REMARK    3  A    between atoms: C7_10  and  C8_12
REMARK    4  A    between atoms: C8_12  and  C9_14
REMARK    5  A    between atoms: C9_14  and  C10_15
REMARK    6  A    between atoms: C9_14  and  C13_19
REMARK    7  A    between atoms: C10_15  and  N2_16
ROOT
HETATM    1  N1  UNL     1      -0.252  16.039  -3.868  1.00  0.00    -0.349 N
ATOM      2  H1  UNL     1       0.555  16.541  -3.499  1.00  0.00     0.163 HD
HETATM    3  C7  UNL     1      -0.914  16.595  -4.966  1.00  0.00     0.255 C
HETATM    4  O2  UNL     1      -1.926  15.939  -5.404  1.00  0.00    -0.267 OA
ENDROOT
BRANCH   3   5
HETATM    5  C8  UNL     1      -0.524  17.850  -5.623  1.00  0.00     0.063 C
HETATM    6  S1  UNL     1       1.287  18.030  -5.747  1.00  0.00    -0.051 SA
BRANCH   5   7
HETATM    7  C9  UNL     1      -1.273  19.065  -5.376  1.00  0.00     0.064 C
BRANCH   7   8
HETATM    8  C10 UNL     1      -1.682  19.597  -6.794  1.00  0.00     0.281 C
BRANCH   8   9
HETATM    9  N2  UNL     1      -3.105  19.568  -6.917  1.00  0.00     0.080 N
HETATM   10  C11 UNL     1      -3.680  20.849  -7.243  1.00  0.00     0.309 C
HETATM   11  C12 UNL     1      -3.588  18.502  -7.738  1.00  0.00     0.309 C
ENDBRANCH   8   9
ENDBRANCH   7   8
BRANCH   7  12
HETATM   12  C13 UNL     1      -0.818  20.232  -4.647  1.00  0.00    -0.004 A
HETATM   13  C14 UNL     1      -1.445  20.358  -3.224  1.00  0.00     0.006 A
HETATM   14  C15 UNL     1      -1.422  21.470  -4.236  1.00  0.00     0.006 A
ENDBRANCH   7  12
ENDBRANCH   5   7
ENDBRANCH   3   5
BRANCH   1  15
HETATM   15  C6  UNL     1      -0.626  14.804  -3.216  1.00  0.00     0.119 C
HETATM   16  C3  UNL     1       0.212  13.696  -3.801  1.00  0.00     0.166 C
HETATM   17  O1  UNL     1       1.333  13.540  -3.010  1.00  0.00    -0.380 OA
HETATM   18  C4  UNL     1       1.220  14.286  -1.875  1.00  0.00     0.170 C
HETATM   19  C5  UNL     1      -0.203  14.767  -1.767  1.00  0.00     0.054 C
BRANCH  16  20
HETATM   20  C2  UNL     1      -0.543  12.442  -3.996  1.00  0.00    -0.003 C
HETATM   21  C1  UNL     1       0.113  11.376  -4.454  1.00  0.00     0.009 C
ENDBRANCH  16  20
ENDBRANCH   1  15
TORSDOF 7
ENDMDL