MODEL 3
REMARK VINA RESULT: -5.358863777      3.179      4.588
REMARK  12 active torsions:
REMARK  status: ('A' for Active; 'I' for Inactive)
REMARK    1  A    between atoms: C2_2  and  C3_3
REMARK    2  A    between atoms: C2_2  and  C15_18
REMARK    3  A    between atoms: C3_3  and  C4_4
REMARK    4  A    between atoms: C4_4  and  C5_5
REMARK    5  A    between atoms: C5_5  and  C6_6
REMARK    6  A    between atoms: C6_6  and  C7_7
REMARK    7  A    between atoms: C7_7  and  C8_8
REMARK    8  A    between atoms: C8_8  and  C9_9
REMARK    9  A    between atoms: C10_10  and  O1_11
REMARK   10  A    between atoms: C15_18  and  C16_20
REMARK   11  A    between atoms: C16_20  and  C17_21
REMARK   12  A    between atoms: C17_21  and  O4_22
ROOT
HETATM    1  C6  UNL     1      -4.418  18.541  -8.126  1.00  0.00     0.008 C
ENDROOT
BRANCH   1   2
HETATM    2  C5  UNL     1      -3.852  19.362  -7.335  1.00  0.00     0.008 C
BRANCH   2   3
HETATM    3  C4  UNL     1      -2.491  19.791  -7.345  1.00  0.00     0.051 C
BRANCH   3   4
HETATM    4  C3  UNL     1      -1.525  19.371  -6.605  1.00  0.00    -0.144 C
BRANCH   4   5
HETATM    5  C2  UNL     1      -0.509  18.930  -5.824  1.00  0.00     0.122 C
HETATM    6  C1  UNL     1      -0.873  19.313  -4.334  1.00  0.00     0.031 C
BRANCH   5   7
HETATM    7  C15 UNL     1      -0.293  17.415  -5.784  1.00  0.00     0.143 C
HETATM    8  O3  UNL     1       0.832  17.038  -6.001  1.00  0.00    -0.297 OA
BRANCH   7   9
HETATM    9  C16 UNL     1      -1.476  16.598  -5.482  1.00  0.00     0.105 C
BRANCH   9  10
HETATM   10  C17 UNL     1      -1.170  15.331  -4.722  1.00  0.00     0.171 C
BRANCH  10  11
HETATM   11  O4  UNL     1      -0.369  14.445  -5.428  1.00  0.00    -0.400 OA
ATOM     12  H4  UNL     1      -0.586  13.533  -5.271  1.00  0.00     0.209 HD
ENDBRANCH  10  11
ENDBRANCH   9  10
ENDBRANCH   7   9
ENDBRANCH   5   7
ENDBRANCH   4   5
ENDBRANCH   3   4
ENDBRANCH   2   3
ENDBRANCH   1   2
BRANCH   1  13
HETATM   13  C7  UNL     1      -5.628  18.913  -8.934  1.00  0.00     0.051 C
BRANCH  13  14
HETATM   14  C8  UNL     1      -6.154  19.987  -8.895  1.00  0.00    -0.148 C
BRANCH  14  15
HETATM   15  C9  UNL     1      -6.789  21.293  -8.850  1.00  0.00     0.096 C
HETATM   16  C10 UNL     1      -7.856  21.321  -9.977  1.00  0.00     0.141 C
HETATM   17  C11 UNL     1      -8.089  22.835 -10.055  1.00  0.00     0.111 C
HETATM   18  C12 UNL     1      -6.677  23.288 -10.216  1.00  0.00     0.134 C
HETATM   19  O2  UNL     1      -6.323  24.199 -10.928  1.00  0.00    -0.297 OA
HETATM   20  C13 UNL     1      -5.862  22.399  -9.342  1.00  0.00     0.069 C
HETATM   21  C14 UNL     1      -5.300  23.200  -8.212  1.00  0.00     0.019 C
BRANCH  16  22
HETATM   22  O1  UNL     1      -7.238  20.857 -11.112  1.00  0.00    -0.394 OA
ATOM     23  H1  UNL     1      -7.841  20.246 -11.518  1.00  0.00     0.210 HD
ENDBRANCH  16  22
ENDBRANCH  14  15
ENDBRANCH  13  14
ENDBRANCH   1  13
TORSDOF 12
ENDMDL