MODEL 5
REMARK VINA RESULT: -6.700058652      2.504      3.491
REMARK  8 active torsions:
REMARK  status: ('A' for Active; 'I' for Inactive)
REMARK    1  A    between atoms: O1_2  and  C2_3
REMARK    2  A    between atoms: C3_4  and  O2_5
REMARK    3  A    between atoms: O2_5  and  C4_6
REMARK    4  A    between atoms: C9_11  and  O3_12
REMARK    5  A    between atoms: O3_12  and  C10_13
REMARK    6  A    between atoms: C10_13  and  C11_14
REMARK    7  A    between atoms: C19_26  and  N2_27
REMARK    8  A    between atoms: C26_35  and  O6_37
ROOT
HETATM    1  C4  UNL     1      -0.380  20.133  -5.640  1.00  0.00     0.103 A
HETATM    2  C5  UNL     1      -0.962  21.374  -5.783  1.00  0.00     0.049 A
HETATM    3  C6  UNL     1      -2.102  21.608  -6.542  1.00  0.00    -0.031 A
HETATM    4  C7  UNL     1      -2.669  20.528  -7.181  1.00  0.00    -0.042 A
HETATM    5  C8  UNL     1      -2.084  19.277  -7.038  1.00  0.00     0.047 A
HETATM    6  C9  UNL     1      -0.957  19.034  -6.289  1.00  0.00     0.102 A
HETATM    7  C14 UNL     1      -3.858  20.427  -8.049  1.00  0.00     0.043 C
HETATM    8  C15 UNL     1      -4.527  19.077  -7.876  1.00  0.00     0.017 C
HETATM    9  C16 UNL     1      -4.900  21.467  -7.821  1.00  0.00     0.182 C
HETATM   10 CL1  UNL     1      -6.294  21.091  -8.869  1.00  0.00    -0.114 Cl
HETATM   11  C17 UNL     1      -4.420  22.846  -8.173  1.00  0.00     0.237 C
HETATM   12  O4  UNL     1      -5.091  23.475  -9.029  1.00  0.00    -0.272 OA
HETATM   13  N1  UNL     1      -3.285  23.460  -7.608  1.00  0.00    -0.355 N
ATOM     14  H1  UNL     1      -2.996  24.332  -8.053  1.00  0.00     0.162 HD
HETATM   15  C18 UNL     1      -2.479  23.041  -6.503  1.00  0.00     0.161 C
ENDROOT
BRANCH   1  16
HETATM   16  O2  UNL     1       0.736  19.884  -4.900  1.00  0.00    -0.338 OA
BRANCH  16  17
HETATM   17  C3  UNL     1       1.879  20.689  -4.739  1.00  0.00     0.183 C
HETATM   18  C2  UNL     1       2.907  20.169  -5.708  1.00  0.00     0.186 C
HETATM   19  C26 UNL     1       4.285  20.703  -5.491  1.00  0.00     0.083 C
HETATM   20  C25 UNL     1       4.705  20.751  -4.050  1.00  0.00     0.042 C
HETATM   21  C27 UNL     1       4.428  22.082  -6.081  1.00  0.00     0.049 C
HETATM   22  C24 UNL     1       3.643  21.531  -3.294  1.00  0.00     0.031 C
HETATM   23  C19 UNL     1       2.411  20.655  -3.311  1.00  0.00     0.115 C
BRANCH  18  24
HETATM   24  O1  UNL     1       2.514  20.562  -6.987  1.00  0.00    -0.385 OA
HETATM   25  C1  UNL     1       2.428  19.471  -7.853  1.00  0.00     0.202 C
ENDBRANCH  18  24
BRANCH  19  26
HETATM   26  O6  UNL     1       5.176  19.844  -6.151  1.00  0.00    -0.388 OA
ATOM     27  H6  UNL     1       5.499  20.304  -6.917  1.00  0.00     0.210 HD
ENDBRANCH  19  26
BRANCH  23  28
HETATM   28  N2  UNL     1       1.441  20.969  -2.342  1.00  0.00    -0.382 N
HETATM   29  C20 UNL     1       0.627  19.941  -1.828  1.00  0.00     0.084 C
HETATM   30  C21 UNL     1      -0.842  20.212  -1.783  1.00  0.00     0.212 C
HETATM   31  O5  UNL     1      -1.155  21.558  -1.629  1.00  0.00    -0.385 OA
HETATM   32  C22 UNL     1      -0.505  22.356  -2.564  1.00  0.00     0.187 C
HETATM   33  C23 UNL     1       0.957  22.300  -2.286  1.00  0.00     0.148 C
ENDBRANCH  23  28
ENDBRANCH  16  17
ENDBRANCH   1  16
BRANCH   6  34
HETATM   34  O3  UNL     1      -0.397  17.760  -6.169  1.00  0.00    -0.348 OA
BRANCH  34  35
HETATM   35  C10 UNL     1      -0.967  16.896  -5.205  1.00  0.00     0.180 C
BRANCH  35  36
HETATM   36  C11 UNL     1      -0.230  15.579  -5.138  1.00  0.00     0.010 A
HETATM   37  C12 UNL     1      -0.316  14.802  -3.890  1.00  0.00     0.007 A
HETATM   38  C13 UNL     1      -0.962  14.286  -5.139  1.00  0.00     0.007 A
ENDBRANCH  35  36
ENDBRANCH  34  35
ENDBRANCH   6  34
TORSDOF 8
ENDMDL