MODEL 5
REMARK VINA RESULT: -8.635344213      3.357      8.411
REMARK  9 active torsions:
REMARK  status: ('A' for Active; 'I' for Inactive)
REMARK    1  A    between atoms: O1_2  and  C2_3
REMARK    2  A    between atoms: C4_7  and  N2_8
REMARK    3  A    between atoms: N2_8  and  C5_10
REMARK    4  A    between atoms: C7_14  and  C8_15
REMARK    5  A    between atoms: C8_15  and  C9_17
REMARK    6  A    between atoms: C9_17  and  C10_18
REMARK    7  A    between atoms: N4_24  and  C16_26
REMARK    8  A    between atoms: N5_29  and  S1_30
REMARK    9  A    between atoms: S1_30  and  C19_33
ROOT
HETATM    1  C5  UNL     1      -0.067  17.879  -3.187  1.00  0.00     0.684 A
HETATM    2  N3  UNL     1       1.224  18.058  -2.870  1.00  0.00    -0.201 N
ATOM      3  H3  UNL     1       1.650  17.434  -2.185  1.00  0.00     0.183 HD
HETATM    4  C6  UNL     1       1.978  19.024  -3.418  1.00  0.00     0.125 A
HETATM    5  C7  UNL     1       1.387  19.886  -4.368  1.00  0.00     0.070 A
HETATM    6  C15 UNL     1       0.078  19.716  -4.698  1.00  0.00     0.132 A
HETATM    7  N4  UNL     1      -0.510  20.440  -5.521  1.00  0.00    -0.370 N
ATOM      8  H4  UNL     1       0.097  21.162  -5.909  1.00  0.00     0.161 HD
HETATM    9  N6  UNL     1      -0.616  18.703  -4.088  1.00  0.00    -0.176 N
ATOM     10  H6  UNL     1      -1.597  18.571  -4.334  1.00  0.00     0.186 HD
ENDROOT
BRANCH   5  11
HETATM   11  C8  UNL     1       2.184  20.935  -4.982  1.00  0.00     0.165 C
HETATM   12  O2  UNL     1       1.649  22.103  -4.927  1.00  0.00    -0.292 OA
BRANCH  11  13
HETATM   13  C9  UNL     1       3.467  20.831  -5.630  1.00  0.00     0.093 C
BRANCH  13  14
HETATM   14  C10 UNL     1       3.527  20.700  -7.107  1.00  0.00    -0.034 A
HETATM   15  C11 UNL     1       2.576  19.602  -7.670  1.00  0.00     0.016 C
HETATM   16  C12 UNL     1       3.941  21.708  -8.072  1.00  0.00     0.015 A
HETATM   17  C13 UNL     1       4.941  20.647  -7.703  1.00  0.00    -0.009 A
HETATM   18  C14 UNL     1       5.182  19.517  -8.712  1.00  0.00     0.011 C
ENDBRANCH  13  14
ENDBRANCH  11  13
ENDBRANCH   5  11
BRANCH   7  19
HETATM   19  C16 UNL     1      -1.807  20.498  -6.039  1.00  0.00     0.092 C
HETATM   20  C17 UNL     1      -2.247  21.835  -6.591  1.00  0.00     0.071 C
HETATM   21  C18 UNL     1      -3.692  21.823  -6.962  1.00  0.00     0.083 C
HETATM   22  N5  UNL     1      -4.286  20.592  -7.233  1.00  0.00    -0.269 N
HETATM   23  C22 UNL     1      -3.542  19.425  -7.333  1.00  0.00     0.083 C
HETATM   24  C23 UNL     1      -2.070  19.503  -7.163  1.00  0.00     0.071 C
BRANCH  22  25
HETATM   25  S1  UNL     1      -5.513  20.654  -8.449  1.00  0.00     0.239 S
HETATM   26  O3  UNL     1      -6.441  19.479  -8.289  1.00  0.00    -0.205 OA
HETATM   27  O4  UNL     1      -4.915  20.544  -9.827  1.00  0.00    -0.205 OA
BRANCH  25  28
HETATM   28  C19 UNL     1      -6.415  22.183  -8.400  1.00  0.00     0.130 A
HETATM   29  C20 UNL     1      -6.221  23.202  -9.468  1.00  0.00     0.023 A
HETATM   30  C21 UNL     1      -7.478  22.389  -9.412  1.00  0.00     0.023 A
ENDBRANCH  25  28
ENDBRANCH  22  25
ENDBRANCH   7  19
BRANCH   1  31
HETATM   31  N2  UNL     1      -0.730  16.927  -2.614  1.00  0.00    -0.190 N
ATOM     32  H2  UNL     1      -1.353  17.161  -1.841  1.00  0.00     0.184 HD
BRANCH  31  33
HETATM   33  C4  UNL     1      -0.626  15.571  -3.016  1.00  0.00     0.067 A
HETATM   34  C3  UNL     1      -1.093  15.283  -4.296  1.00  0.00     0.120 A
HETATM   35  N1  UNL     1      -1.014  13.992  -4.729  1.00  0.00    -0.342 N
HETATM   36  C2  UNL     1      -0.503  13.038  -3.943  1.00  0.00     0.181 A
ATOM     37  H1  UNL     1      -1.348  13.751  -5.661  1.00  0.00     0.167 HD
HETATM   38  C25 UNL     1      -0.040  13.315  -2.678  1.00  0.00     0.169 A
HETATM   39  C24 UNL     1      -0.101  14.616  -2.196  1.00  0.00     0.078 A
HETATM   40  F1  UNL     1       0.475  12.346  -1.891  1.00  0.00    -0.201 F
BRANCH  36  41
HETATM   41  O1  UNL     1      -0.435  11.741  -4.405  1.00  0.00    -0.338 OA
HETATM   42  C1  UNL     1       0.758  11.247  -4.981  1.00  0.00     0.211 C
ENDBRANCH  36  41
ENDBRANCH  31  33
ENDBRANCH   1  31
TORSDOF 9
ENDMDL