MODEL 4
REMARK VINA RESULT: -7.727195013      1.310      1.656
REMARK  6 active torsions:
REMARK  status: ('A' for Active; 'I' for Inactive)
REMARK    1  A    between atoms: O1_2  and  C2_3
REMARK    2  A    between atoms: N1_9  and  S1_10
REMARK    3  A    between atoms: S1_10  and  C8_13
REMARK    4  A    between atoms: C15_26  and  C16_27
REMARK    5  A    between atoms: C22_34  and  O6_35
REMARK    6  A    between atoms: C24_37  and  O7_38
ROOT
HETATM    1  S1  UNL     1       0.961  18.157  -2.024  1.00  0.00     0.264 S
HETATM    2  O2  UNL     1       0.294  18.455  -0.651  1.00  0.00    -0.200 OA
HETATM    3  O3  UNL     1       2.433  18.535  -1.731  1.00  0.00    -0.200 OA
ENDROOT
BRANCH   1   4
HETATM    4  N1  UNL     1       0.296  19.145  -3.192  1.00  0.00    -0.286 N
HETATM    5  C7  UNL     1       1.114  19.403  -4.299  1.00  0.00     0.080 C
HETATM    6  C6  UNL     1       0.383  19.957  -5.521  1.00  0.00     0.080 C
HETATM    7  C5  UNL     1      -0.848  20.688  -5.034  1.00  0.00    -0.060 C
HETATM    8  C4  UNL     1      -1.652  21.290  -6.069  1.00  0.00     0.011 A
HETATM    9  C20 UNL     1      -0.648  21.333  -3.726  1.00  0.00     0.056 C
HETATM   10  C3  UNL     1      -2.526  20.520  -6.838  1.00  0.00     0.054 A
HETATM   11  C21 UNL     1      -1.708  22.669  -6.304  1.00  0.00     0.163 A
HETATM   12  C2  UNL     1      -3.397  21.061  -7.773  1.00  0.00     0.105 A
HETATM   13  C24 UNL     1      -3.417  22.402  -7.978  1.00  0.00     0.138 A
HETATM   14  C22 UNL     1      -2.554  23.192  -7.223  1.00  0.00     0.144 A
HETATM   15  F1  UNL     1      -0.909  23.525  -5.604  1.00  0.00    -0.202 F
HETATM   16  C19 UNL     1      -0.563  20.153  -2.719  1.00  0.00     0.145 C
BRANCH  12  17
HETATM   17  O1  UNL     1      -4.266  20.280  -8.503  1.00  0.00    -0.353 OA
HETATM   18  C1  UNL     1      -5.317  19.608  -7.853  1.00  0.00     0.210 C
ENDBRANCH  12  17
BRANCH  13  19
HETATM   19  O7  UNL     1      -4.250  23.036  -8.904  1.00  0.00    -0.351 OA
HETATM   20  C25 UNL     1      -5.603  23.302  -8.619  1.00  0.00     0.210 C
ENDBRANCH  13  19
BRANCH  14  21
HETATM   21  O6  UNL     1      -2.600  24.581  -7.467  1.00  0.00    -0.350 OA
HETATM   22  C23 UNL     1      -3.361  25.307  -6.466  1.00  0.00     0.210 C
ENDBRANCH  14  21
ENDBRANCH   1   4
BRANCH   1  23
HETATM   23  C8  UNL     1       0.820  16.448  -2.356  1.00  0.00     0.087 A
HETATM   24  C9  UNL     1       0.316  15.931  -3.553  1.00  0.00     0.045 A
HETATM   25  C10 UNL     1       0.302  14.591  -3.864  1.00  0.00     0.060 A
HETATM   26  C11 UNL     1      -0.163  14.159  -5.076  1.00  0.00     0.261 A
HETATM   27  C13 UNL     1       0.820  13.649  -2.952  1.00  0.00     0.052 A
HETATM   28  O4  UNL     1      -0.629  14.954  -5.900  1.00  0.00    -0.267 OA
HETATM   29  N2  UNL     1      -0.099  12.815  -5.344  1.00  0.00    -0.275 N
HETATM   30  C12 UNL     1       0.392  11.969  -4.457  1.00  0.00     0.327 A
ATOM     31  H2  UNL     1      -0.436  12.464  -6.241  1.00  0.00     0.173 HD
HETATM   32  O5  UNL     1       0.431  10.748  -4.750  1.00  0.00    -0.247 OA
HETATM   33  N3  UNL     1       0.872  12.338  -3.224  1.00  0.00    -0.308 N
ATOM     34  H3  UNL     1       1.244  11.658  -2.560  1.00  0.00     0.170 HD
HETATM   35  C14 UNL     1       1.305  14.158  -1.789  1.00  0.00     0.039 A
HETATM   36  C15 UNL     1       1.328  15.488  -1.463  1.00  0.00    -0.028 A
BRANCH  36  37
HETATM   37  C16 UNL     1       1.850  15.985  -0.164  1.00  0.00     0.020 A
HETATM   38  C17 UNL     1       1.045  15.550   1.069  1.00  0.00     0.010 A
HETATM   39  C18 UNL     1       2.470  15.143   0.851  1.00  0.00     0.010 A
ENDBRANCH  36  37
ENDBRANCH   1  23
TORSDOF 6
ENDMDL