MODEL 1
REMARK VINA RESULT: -7.637732110      0.000      0.000
REMARK  8 active torsions:
REMARK  status: ('A' for Active; 'I' for Inactive)
REMARK    1  A    between atoms: O1_2  and  C2_3
REMARK    2  A    between atoms: C2_3  and  C3_5
REMARK    3  A    between atoms: C8_10  and  O3_11
REMARK    4  A    between atoms: C10_13  and  C11_14
REMARK    5  A    between atoms: C11_14  and  C12_15
REMARK    6  A    between atoms: C12_15  and  C13_16
REMARK       I    between atoms: C13_16  and  N1_18
REMARK    7  A    between atoms: N1_18  and  C14_20
REMARK    8  A    between atoms: C20_29  and  C21_30
ROOT
HETATM    1  C11 UNL     1      -2.102  18.900  -6.370  1.00  0.00     0.051 C
ENDROOT
BRANCH   1   2
HETATM    2  C10 UNL     1      -2.614  20.214  -6.778  1.00  0.00    -0.016 A
HETATM    3  C8  UNL     1      -2.033  21.377  -6.323  1.00  0.00     0.082 A
HETATM    4  C7  UNL     1      -2.564  22.592  -6.781  1.00  0.00    -0.011 A
HETATM    5  C6  UNL     1      -1.874  23.775  -6.272  1.00  0.00     0.046 A
HETATM    6  C25 UNL     1      -3.644  22.681  -7.667  1.00  0.00     0.011 A
HETATM    7  C5  UNL     1      -2.443  25.086  -6.602  1.00  0.00     0.033 A
HETATM    8  C4  UNL     1      -3.544  25.056  -7.543  1.00  0.00    -0.008 A
HETATM    9  C3  UNL     1      -4.159  23.980  -8.070  1.00  0.00     0.048 A
HETATM   10  C24 UNL     1      -4.197  21.512  -8.097  1.00  0.00     0.052 A
HETATM   11  C22 UNL     1      -3.674  20.291  -7.647  1.00  0.00    -0.030 A
HETATM   12 CL1  UNL     1      -5.543  21.441  -9.184  1.00  0.00    -0.083 Cl
HETATM   13  C23 UNL     1      -4.304  19.036  -8.129  1.00  0.00     0.050 C
BRANCH   3  14
HETATM   14  O3  UNL     1      -0.979  21.449  -5.449  1.00  0.00    -0.355 OA
HETATM   15  C9  UNL     1      -0.916  21.350  -4.082  1.00  0.00     0.210 C
ENDBRANCH   3  14
BRANCH   9  16
HETATM   16  C2  UNL     1      -5.235  24.190  -8.988  1.00  0.00     0.293 C
HETATM   17  O2  UNL     1      -5.293  24.356 -10.166  1.00  0.00    -0.259 OA
BRANCH  16  18
HETATM   18  O1  UNL     1      -6.567  24.216  -8.415  1.00  0.00    -0.323 OA
HETATM   19  C1  UNL     1      -7.702  23.995  -9.214  1.00  0.00     0.213 C
ENDBRANCH  16  18
ENDBRANCH   9  16
ENDBRANCH   1   2
BRANCH   1  20
HETATM   20  C12 UNL     1      -0.650  18.651  -6.653  1.00  0.00     0.107 C
BRANCH  20  21
HETATM   21  C13 UNL     1       0.077  18.208  -5.430  1.00  0.00     0.218 C
HETATM   22  O4  UNL     1       1.248  18.659  -5.255  1.00  0.00    -0.274 OA
HETATM   23  N1  UNL     1      -0.452  17.327  -4.466  1.00  0.00    -0.345 N
ATOM     24  H1  UNL     1      -1.394  16.954  -4.586  1.00  0.00     0.163 HD
BRANCH  23  25
HETATM   25  C14 UNL     1       0.313  16.952  -3.326  1.00  0.00     0.210 C
HETATM   26  C15 UNL     1      -0.489  16.246  -2.250  1.00  0.00     0.247 C
HETATM   27  O5  UNL     1      -1.249  16.737  -1.382  1.00  0.00    -0.271 OA
HETATM   28  N2  UNL     1      -0.012  14.964  -2.670  1.00  0.00    -0.318 N
HETATM   29  C16 UNL     1       1.064  15.656  -3.350  1.00  0.00     0.183 C
HETATM   30  C20 UNL     1       0.077  13.547  -2.843  1.00  0.00     0.207 C
HETATM   31  S1  UNL     1       1.051  14.733  -4.913  1.00  0.00    -0.129 SA
HETATM   32  C17 UNL     1       0.169  13.255  -4.332  1.00  0.00     0.033 C
HETATM   33  C18 UNL     1      -1.257  13.237  -4.862  1.00  0.00     0.029 C
HETATM   34  C19 UNL     1       0.905  12.008  -4.667  1.00  0.00     0.029 C
BRANCH  30  35
HETATM   35  C21 UNL     1       1.182  13.020  -2.050  1.00  0.00     0.198 C
HETATM   36  O6  UNL     1       2.308  13.574  -1.933  1.00  0.00    -0.646 OA
HETATM   37  O7  UNL     1       1.034  11.832  -1.358  1.00  0.00    -0.646 OA
ENDBRANCH  30  35
ENDBRANCH  23  25
ENDBRANCH  20  21
ENDBRANCH   1  20
TORSDOF 8
ENDMDL