MODEL 5
REMARK VINA RESULT: -6.491055440      1.135      1.541
REMARK  9 active torsions:
REMARK  status: ('A' for Active; 'I' for Inactive)
REMARK    1  A    between atoms: C16_19  and  N1_20
REMARK    2  A    between atoms: N1_20  and  C17_21
REMARK       I    between atoms: N1_20  and  C19_25
REMARK    3  A    between atoms: C17_21  and  C18_22
REMARK    4  A    between atoms: C18_22  and  O2_23
REMARK    5  A    between atoms: C19_25  and  C20_27
REMARK    6  A    between atoms: C20_27  and  N2_28
REMARK    7  A    between atoms: N3_31  and  C23_32
REMARK    8  A    between atoms: C23_32  and  C24_33
REMARK    9  A    between atoms: C24_33  and  O4_34
ROOT
HETATM    1  C1  UNL     1      -0.294  19.135  -2.476  1.00  0.00     0.018 C
HETATM    2  C2  UNL     1       0.413  18.305  -3.450  1.00  0.00    -0.019 C
HETATM    3  C3  UNL     1      -0.391  17.115  -3.934  1.00  0.00     0.012 C
HETATM    4  C4  UNL     1      -0.567  16.119  -2.803  1.00  0.00     0.010 C
HETATM    5  C5  UNL     1       0.794  15.639  -2.348  1.00  0.00     0.037 C
HETATM    6  C6  UNL     1       1.511  16.868  -1.777  1.00  0.00     0.017 C
HETATM    7  C7  UNL     1       2.785  16.457  -1.070  1.00  0.00     0.087 C
HETATM    8 CL1  UNL     1       4.074  15.982  -2.168  1.00  0.00    -0.125 Cl
HETATM    9  C8  UNL     1       2.490  15.455   0.003  1.00  0.00     0.024 C
HETATM   10  C9  UNL     1       1.039  14.971  -0.015  1.00  0.00     0.051 C
HETATM   11  C10 UNL     1       0.770  14.491  -1.423  1.00  0.00     0.113 C
HETATM   12  O1  UNL     1      -0.340  13.673  -1.514  1.00  0.00    -0.368 OA
HETATM   13  C11 UNL     1      -0.222  12.844  -2.596  1.00  0.00     0.180 C
HETATM   14  C12 UNL     1       0.985  11.925  -2.325  1.00  0.00     0.103 C
HETATM   15  S1  UNL     1       2.114  13.274  -1.768  1.00  0.00    -0.129 SA
HETATM   16  C13 UNL     1       1.756  17.762  -2.915  1.00  0.00     0.002 C
HETATM   17  C14 UNL     1       2.485  19.022  -2.691  1.00  0.00     0.008 C
HETATM   18  C15 UNL     1       2.167  19.795  -3.987  1.00  0.00     0.026 C
HETATM   19  C16 UNL     1       0.995  19.103  -4.598  1.00  0.00     0.095 C
ENDROOT
BRANCH  19  20
HETATM   20  N1  UNL     1       0.109  19.849  -5.394  1.00  0.00    -0.343 N
HETATM   21  C19 UNL     1      -0.691  19.396  -6.440  1.00  0.00     0.248 C
HETATM   22  O3  UNL     1      -0.804  18.193  -6.734  1.00  0.00    -0.271 OA
BRANCH  20  23
HETATM   23  C17 UNL     1      -0.007  21.289  -5.066  1.00  0.00     0.152 C
BRANCH  23  24
HETATM   24  C18 UNL     1       1.038  22.088  -5.823  1.00  0.00     0.184 C
BRANCH  24  25
HETATM   25  O2  UNL     1       0.429  23.128  -6.554  1.00  0.00    -0.399 OA
ATOM     26  H2  UNL     1       0.463  23.941  -6.065  1.00  0.00     0.209 HD
ENDBRANCH  24  25
ENDBRANCH  23  24
ENDBRANCH  20  23
BRANCH  21  27
HETATM   27  C20 UNL     1      -1.465  20.386  -7.270  1.00  0.00     0.374 C
BRANCH  27  28
HETATM   28  N2  UNL     1      -2.716  20.714  -6.682  1.00  0.00     0.100 N
HETATM   29  C21 UNL     1      -3.697  19.715  -6.929  1.00  0.00     0.303 C
HETATM   30  C22 UNL     1      -4.371  20.009  -8.274  1.00  0.00     0.302 C
HETATM   31  N3  UNL     1      -5.104  21.260  -8.099  1.00  0.00     0.093 N
HETATM   32  C25 UNL     1      -4.126  22.293  -7.966  1.00  0.00     0.302 C
HETATM   33  C26 UNL     1      -3.092  22.064  -6.907  1.00  0.00     0.303 C
BRANCH  31  34
HETATM   34  C23 UNL     1      -5.833  21.457  -9.338  1.00  0.00     0.298 C
BRANCH  34  35
HETATM   35  C24 UNL     1      -5.875  20.171 -10.099  1.00  0.00     0.194 C
BRANCH  35  36
HETATM   36  O4  UNL     1      -6.137  20.490 -11.446  1.00  0.00    -0.399 OA
ATOM     37  H4  UNL     1      -6.154  19.674 -11.932  1.00  0.00     0.209 HD
ENDBRANCH  35  36
ENDBRANCH  34  35
ENDBRANCH  31  34
ENDBRANCH  27  28
ENDBRANCH  21  27
ENDBRANCH  19  20
TORSDOF 9
ENDMDL