MODEL 2
REMARK VINA RESULT: -8.170099320      0.894      1.123
REMARK  8 active torsions:
REMARK  status: ('A' for Active; 'I' for Inactive)
REMARK    1  A    between atoms: O1_2  and  C2_3
REMARK    2  A    between atoms: C2_3  and  C3_5
REMARK    3  A    between atoms: C8_11  and  S1_12
REMARK    4  A    between atoms: S1_12  and  N1_15
REMARK    5  A    between atoms: N1_15  and  C9_17
REMARK    6  A    between atoms: C9_17  and  C10_18
REMARK    7  A    between atoms: C9_17  and  C14_22
REMARK    8  A    between atoms: C10_18  and  C11_19
REMARK       I    between atoms: C14_22  and  N2_24
ROOT
HETATM    1  S1  UNL     1       0.407  19.030  -5.391  1.00  0.00     0.261 S
HETATM    2  O3  UNL     1       0.836  18.253  -6.619  1.00  0.00    -0.200 OA
HETATM    3  O4  UNL     1       1.730  19.475  -4.760  1.00  0.00    -0.200 OA
ENDROOT
BRANCH   1   4
HETATM    4  C8  UNL     1      -0.434  20.483  -5.835  1.00  0.00     0.108 A
HETATM    5  C7  UNL     1      -1.697  20.428  -6.421  1.00  0.00     0.071 A
HETATM    6  C6  UNL     1      -2.388  21.554  -6.738  1.00  0.00     0.028 A
HETATM    7 CL1  UNL     1      -2.368  18.864  -6.802  1.00  0.00    -0.082 Cl
HETATM    8  C4  UNL     1      -3.646  21.478  -7.319  1.00  0.00    -0.025 A
HETATM    9  C22 UNL     1      -1.822  22.794  -6.475  1.00  0.00     0.092 A
HETATM   10  C3  UNL     1      -4.243  22.724  -7.593  1.00  0.00     0.121 A
HETATM   11  C5  UNL     1      -4.314  20.223  -7.627  1.00  0.00     0.050 C
HETATM   12  C23 UNL     1      -3.606  23.904  -7.297  1.00  0.00     0.305 A
HETATM   13  O6  UNL     1      -2.420  23.910  -6.750  1.00  0.00    -0.274 OA
HETATM   14  O7  UNL     1      -4.125  25.032  -7.536  1.00  0.00    -0.259 OA
HETATM   15  C21 UNL     1      -0.561  22.857  -5.893  1.00  0.00     0.046 A
HETATM   16  C19 UNL     1       0.133  21.714  -5.573  1.00  0.00    -0.034 A
HETATM   17  C20 UNL     1       1.486  21.837  -4.957  1.00  0.00     0.050 C
BRANCH  10  18
HETATM   18  C2  UNL     1      -5.570  22.748  -8.205  1.00  0.00     0.299 C
HETATM   19  O2  UNL     1      -6.597  22.819  -7.477  1.00  0.00    -0.259 OA
BRANCH  18  20
HETATM   20  O1  UNL     1      -5.765  22.697  -9.581  1.00  0.00    -0.322 OA
HETATM   21  C1  UNL     1      -6.597  21.726 -10.189  1.00  0.00     0.213 C
ENDBRANCH  18  20
ENDBRANCH  10  18
ENDBRANCH   1   4
BRANCH   1  22
HETATM   22  N1  UNL     1      -0.414  18.125  -4.272  1.00  0.00    -0.301 N
ATOM     23  H1  UNL     1      -1.323  18.440  -3.935  1.00  0.00     0.173 HD
BRANCH  22  24
HETATM   24  C9  UNL     1       0.149  16.888  -3.767  1.00  0.00     0.185 C
BRANCH  24  25
HETATM   25  C10 UNL     1       0.064  16.905  -2.261  1.00  0.00     0.039 C
BRANCH  25  26
HETATM   26  C11 UNL     1      -0.970  16.167  -1.555  1.00  0.00    -0.020 C
HETATM   27  C12 UNL     1      -1.845  16.869  -0.583  1.00  0.00     0.009 C
HETATM   28  C13 UNL     1      -0.272  15.047  -0.745  1.00  0.00     0.009 C
ENDBRANCH  25  26
ENDBRANCH  24  25
BRANCH  24  29
HETATM   29  C14 UNL     1      -0.541  15.779  -4.431  1.00  0.00     0.243 C
HETATM   30  O5  UNL     1      -1.754  15.869  -4.815  1.00  0.00    -0.271 OA
HETATM   31  N2  UNL     1       0.138  14.556  -4.675  1.00  0.00    -0.347 N
HETATM   32  C15 UNL     1       1.523  14.302  -4.354  1.00  0.00     0.153 C
HETATM   33  C18 UNL     1      -0.572  13.439  -5.306  1.00  0.00     0.153 C
HETATM   34  C16 UNL     1       1.782  12.807  -4.537  1.00  0.00     0.252 C
HETATM   35  N3  UNL     1       0.799  12.018  -3.854  1.00  0.00    -0.072 N
HETATM   36  C17 UNL     1      -0.523  12.263  -4.382  1.00  0.00     0.252 C
ATOM     37  H32 UNL     1       1.034  11.025  -3.875  1.00  0.00     0.277 HD
ATOM     38  H31 UNL     1       0.834  12.165  -2.846  1.00  0.00     0.277 HD
ENDBRANCH  24  29
ENDBRANCH  22  24
ENDBRANCH   1  22
TORSDOF 8
ENDMDL