MODEL 4
REMARK VINA RESULT: -8.670552955      1.453      1.691
REMARK  10 active torsions:
REMARK  status: ('A' for Active; 'I' for Inactive)
REMARK    1  A    between atoms: C5_6  and  C6_7
REMARK    2  A    between atoms: C6_7  and  C7_8
REMARK    3  A    between atoms: C6_7  and  C13_14
REMARK    4  A    between atoms: C7_8  and  C8_9
REMARK       I    between atoms: C13_14  and  N1_16
REMARK    5  A    between atoms: C17_22  and  C18_23
REMARK    6  A    between atoms: C18_23  and  O2_24
REMARK    7  A    between atoms: C18_23  and  N2_26
REMARK    8  A    between atoms: N2_26  and  C19_28
REMARK    9  A    between atoms: N3_31  and  C22_32
REMARK   10  A    between atoms: N5_39  and  O3_40
ROOT
HETATM    1  C22 UNL     1      -6.486  21.340  -8.977  1.00  0.00     0.191 C
HETATM    2  C23 UNL     1      -6.302  22.823  -9.265  1.00  0.00     0.048 C
HETATM    3  C24 UNL     1      -6.184  20.646 -10.243  1.00  0.00     0.084 C
HETATM    4  N4  UNL     1      -5.942  20.115 -11.239  1.00  0.00    -0.195 NA
ENDROOT
BRANCH   1   5
HETATM    5  N3  UNL     1      -5.619  20.972  -7.924  1.00  0.00    -0.357 N
HETATM    6  C21 UNL     1      -5.009  21.978  -7.162  1.00  0.00     0.066 C
HETATM    7  C20 UNL     1      -3.509  21.825  -7.219  1.00  0.00     0.069 C
HETATM    8  C19 UNL     1      -3.196  20.451  -6.582  1.00  0.00     0.088 C
HETATM    9  C26 UNL     1      -3.711  19.451  -7.582  1.00  0.00     0.069 C
HETATM   10  C25 UNL     1      -5.185  19.649  -7.818  1.00  0.00     0.066 C
BRANCH   8  11
HETATM   11  N2  UNL     1      -1.869  20.440  -6.273  1.00  0.00    -0.391 N
ATOM     12  H2  UNL     1      -1.258  20.092  -7.011  1.00  0.00     0.156 HD
BRANCH  11  13
HETATM   13  C18 UNL     1      -1.230  20.825  -5.122  1.00  0.00     0.224 C
BRANCH  13  14
HETATM   14  C17 UNL     1       0.053  20.146  -4.697  1.00  0.00     0.090 C
HETATM   15  C14 UNL     1       0.684  19.277  -5.671  1.00  0.00     0.008 C
HETATM   16  N1  UNL     1       0.411  18.063  -5.952  1.00  0.00    -0.333 N
HETATM   17  C15 UNL     1       1.817  19.938  -6.418  1.00  0.00     0.127 C
HETATM   18  C13 UNL     1      -0.524  17.161  -5.491  1.00  0.00     0.230 C
ATOM     19  H1  UNL     1       1.015  17.676  -6.676  1.00  0.00     0.168 HD
HETATM   20  O1  UNL     1      -1.744  17.307  -5.736  1.00  0.00    -0.272 OA
HETATM   21  S1  UNL     1       2.541  20.875  -5.015  1.00  0.00    -0.163 SA
HETATM   22  C16 UNL     1       1.020  21.076  -4.050  1.00  0.00     0.089 C
BRANCH  18  23
HETATM   23  C6  UNL     1      -0.096  15.975  -4.681  1.00  0.00     0.113 C
BRANCH  23  24
HETATM   24  C5  UNL     1       0.048  16.336  -3.251  1.00  0.00    -0.024 A
HETATM   25  C4  UNL     1      -0.982  16.131  -2.351  1.00  0.00     0.054 A
HETATM   26  C3  UNL     1      -0.811  16.480  -1.034  1.00  0.00     0.141 A
HETATM   27  C2  UNL     1       0.361  17.032  -0.572  1.00  0.00     0.074 A
HETATM   28  F1  UNL     1      -1.829  16.279  -0.135  1.00  0.00    -0.204 F
HETATM   29  C1  UNL     1       0.529  17.401   0.846  1.00  0.00     0.074 C
HETATM   30  N5  UNL     1       1.344  17.218  -1.471  1.00  0.00    -0.237 N
HETATM   31  C27 UNL     1       1.209  16.886  -2.778  1.00  0.00     0.131 A
BRANCH  30  32
HETATM   32  O3  UNL     1       2.529  17.769  -1.037  1.00  0.00    -0.283 OA
ATOM     33  H3  UNL     1       3.216  17.918  -1.675  1.00  0.00     0.245 HD
ENDBRANCH  30  32
ENDBRANCH  23  24
BRANCH  23  34
HETATM   34  C7  UNL     1      -0.921  14.760  -4.885  1.00  0.00     0.023 C
BRANCH  34  35
HETATM   35  C8  UNL     1      -0.213  13.534  -5.337  1.00  0.00    -0.013 C
HETATM   36  C9  UNL     1       1.293  13.700  -5.214  1.00  0.00     0.005 C
HETATM   37  C10 UNL     1       1.760  12.611  -4.250  1.00  0.00     0.000 C
HETATM   38  C11 UNL     1       0.541  12.524  -3.331  1.00  0.00     0.000 C
HETATM   39  C12 UNL     1      -0.566  12.414  -4.343  1.00  0.00     0.005 C
ENDBRANCH  34  35
ENDBRANCH  23  34
ENDBRANCH  18  23
ENDBRANCH  13  14
BRANCH  13  40
HETATM   40  O2  UNL     1      -0.890  22.212  -5.097  1.00  0.00    -0.376 OA
ATOM     41  H2  UNL     1      -1.236  22.505  -4.262  1.00  0.00     0.212 HD
ENDBRANCH  13  40
ENDBRANCH  11  13
ENDBRANCH   8  11
ENDBRANCH   1   5
TORSDOF 10
ENDMDL