MODEL 2
REMARK VINA RESULT: -8.070041914      1.408      1.546
REMARK  9 active torsions:
REMARK  status: ('A' for Active; 'I' for Inactive)
REMARK    1  A    between atoms: N1_2  and  C3_4
REMARK       I    between atoms: N2_7  and  C6_8
REMARK    2  A    between atoms: C6_8  and  C7_10
REMARK    3  A    between atoms: C7_10  and  C8_11
REMARK    4  A    between atoms: C8_11  and  C9_12
REMARK    5  A    between atoms: C10_14  and  C11_15
REMARK    6  A    between atoms: C11_15  and  O3_16
REMARK    7  A    between atoms: C17_25  and  O6_26
REMARK    8  A    between atoms: O6_26  and  C18_27
REMARK       I    between atoms: C18_27  and  N3_29
REMARK    9  A    between atoms: N3_29  and  C19_31
ROOT
HETATM    1  C9  UNL     1      -0.287  19.574  -4.374  1.00  0.00     0.154 C
HETATM    2  O2  UNL     1      -0.451  20.212  -3.221  1.00  0.00    -0.373 OA
HETATM    3  C10 UNL     1       0.225  19.943  -2.100  1.00  0.00     0.177 C
HETATM    4  C12 UNL     1       0.933  18.647  -1.961  1.00  0.00     0.188 C
HETATM    5  O4  UNL     1       2.329  18.814  -1.790  1.00  0.00    -0.345 OA
HETATM    6  C13 UNL     1       2.735  17.482  -1.924  1.00  0.00     0.158 C
HETATM    7  C14 UNL     1       2.338  16.690  -0.712  1.00  0.00     0.078 C
HETATM    8  C15 UNL     1       4.238  17.382  -2.070  1.00  0.00     0.078 C
HETATM    9  O5  UNL     1       2.100  17.066  -3.076  1.00  0.00    -0.345 OA
HETATM   10  C16 UNL     1       0.858  17.729  -3.126  1.00  0.00     0.189 C
HETATM   11  C17 UNL     1       0.789  18.507  -4.421  1.00  0.00     0.194 C
ENDROOT
BRANCH   1  12
HETATM   12  C8  UNL     1      -0.172  20.385  -5.640  1.00  0.00     0.044 C
BRANCH  12  13
HETATM   13  C7  UNL     1      -1.444  20.890  -6.211  1.00  0.00     0.105 C
BRANCH  13  14
HETATM   14  C6  UNL     1      -2.290  19.944  -6.936  1.00  0.00     0.219 C
HETATM   15  N2  UNL     1      -3.590  20.314  -7.442  1.00  0.00    -0.349 N
HETATM   16  C5  UNL     1      -4.031  21.661  -7.211  1.00  0.00     0.128 C
HETATM   17  C25 UNL     1      -4.340  19.313  -8.132  1.00  0.00     0.165 C
HETATM   18  C4  UNL     1      -5.544  21.697  -6.968  1.00  0.00     0.058 C
HETATM   19  C3  UNL     1      -6.185  21.024  -8.161  1.00  0.00     0.258 C
HETATM   20  C26 UNL     1      -5.828  19.571  -8.111  1.00  0.00     0.221 C
HETATM   21  F1  UNL     1      -6.443  18.836  -9.112  1.00  0.00    -0.245 F
HETATM   22  O1  UNL     1      -1.867  18.768  -7.118  1.00  0.00    -0.273 OA
BRANCH  19  23
HETATM   23  N1  UNL     1      -5.762  21.706  -9.349  1.00  0.00     0.087 N
HETATM   24  C1  UNL     1      -6.205  23.085  -9.254  1.00  0.00     0.310 C
HETATM   25  C2  UNL     1      -6.281  21.161 -10.567  1.00  0.00     0.310 C
ENDBRANCH  19  23
ENDBRANCH  13  14
ENDBRANCH  12  13
ENDBRANCH   1  12
BRANCH  11  26
HETATM   26  O6  UNL     1       0.462  17.560  -5.424  1.00  0.00    -0.293 OA
BRANCH  26  27
HETATM   27  C18 UNL     1      -0.133  16.353  -5.215  1.00  0.00     0.361 C
HETATM   28  O7  UNL     1      -1.384  16.319  -5.026  1.00  0.00    -0.238 OA
HETATM   29  N3  UNL     1       0.628  15.143  -5.205  1.00  0.00    -0.332 N
ATOM     30  H3  UNL     1       1.635  15.182  -5.357  1.00  0.00     0.165 HD
BRANCH  29  31
HETATM   31  C19 UNL     1      -0.016  13.846  -4.979  1.00  0.00     0.086 C
HETATM   32  C20 UNL     1       0.960  12.790  -5.469  1.00  0.00     0.025 C
HETATM   33  C21 UNL     1       0.389  11.417  -5.156  1.00  0.00     0.002 C
HETATM   34  C22 UNL     1       0.416  11.251  -3.646  1.00  0.00     0.000 C
HETATM   35  C23 UNL     1      -0.499  12.288  -3.060  1.00  0.00     0.002 C
HETATM   36  C24 UNL     1      -0.183  13.676  -3.500  1.00  0.00     0.025 C
ENDBRANCH  29  31
ENDBRANCH  26  27
ENDBRANCH  11  26
BRANCH   3  37
HETATM   37  C11 UNL     1       1.175  21.076  -1.670  1.00  0.00     0.198 C
BRANCH  37  38
HETATM   38  O3  UNL     1       1.987  21.473  -2.732  1.00  0.00    -0.398 OA
ATOM     39  H3  UNL     1       2.738  21.962  -2.418  1.00  0.00     0.209 HD
ENDBRANCH  37  38
ENDBRANCH   3  37
TORSDOF 9
ENDMDL