MODEL 4
REMARK VINA RESULT: -7.624573782      3.567      7.073
REMARK  8 active torsions:
REMARK  status: ('A' for Active; 'I' for Inactive)
REMARK    1  A    between atoms: S1_2  and  C2_4
REMARK    2  A    between atoms: C10_13  and  C11_14
REMARK    3  A    between atoms: C12_18  and  O3_19
REMARK    4  A    between atoms: O3_19  and  C13_20
REMARK    5  A    between atoms: C13_20  and  C14_21
REMARK    6  A    between atoms: C18_25  and  O4_26
REMARK    7  A    between atoms: C20_29  and  C21_30
REMARK       I    between atoms: C21_30  and  N3_32
REMARK    8  A    between atoms: N3_32  and  C22_34
ROOT
HETATM    1  O4  UNL     1       0.883  17.637  -2.479  1.00  0.00    -0.243 OA
HETATM    2  C19 UNL     1       2.236  17.729  -2.569  1.00  0.00     0.234 C
HETATM    3  N2  UNL     1       3.389  17.807  -2.648  1.00  0.00    -0.164 NA
ENDROOT
BRANCH   1   4
HETATM    4  C18 UNL     1       0.072  17.195  -3.514  1.00  0.00     0.098 C
HETATM    5  C11 UNL     1      -0.609  17.812  -4.627  1.00  0.00     0.253 C
HETATM    6  N1  UNL     1      -0.608  16.693  -5.609  1.00  0.00    -0.035 N
HETATM    7  C12 UNL     1      -1.081  15.590  -4.747  1.00  0.00     0.348 C
ATOM      8  H12 UNL     1      -1.146  16.851  -6.462  1.00  0.00     0.281 HD
ATOM      9  H11 UNL     1       0.273  16.529  -6.095  1.00  0.00     0.281 HD
HETATM   10  C17 UNL     1      -0.201  15.874  -3.575  1.00  0.00     0.069 C
BRANCH   5  11
HETATM   11  C10 UNL     1       0.030  18.911  -5.381  1.00  0.00     0.060 C
HETATM   12  C9  UNL     1       1.006  18.222  -6.350  1.00  0.00     0.175 C
HETATM   13  O2  UNL     1       1.259  18.916  -7.493  1.00  0.00    -0.386 OA
HETATM   14  C8  UNL     1       2.534  19.471  -7.593  1.00  0.00     0.208 C
HETATM   15  C7  UNL     1       2.491  20.875  -6.986  1.00  0.00    -0.008 A
HETATM   16  C2  UNL     1       3.515  21.828  -7.090  1.00  0.00     0.037 A
HETATM   17  C6  UNL     1       1.510  21.333  -6.317  1.00  0.00    -0.033 A
HETATM   18  C3  UNL     1       3.034  22.931  -6.396  1.00  0.00     0.008 A
HETATM   19  C4  UNL     1       1.778  22.684  -5.885  1.00  0.00     0.073 A
HETATM   20  C5  UNL     1       0.590  21.915  -5.625  1.00  0.00    -0.059 A
HETATM   21  C27 UNL     1      -0.709  21.256  -5.266  1.00  0.00     0.050 C
HETATM   22  C20 UNL     1      -0.755  19.947  -6.043  1.00  0.00     0.090 C
BRANCH  16  23
HETATM   23  S1  UNL     1       5.054  21.655  -7.912  1.00  0.00     0.046 S
HETATM   24  C1  UNL     1       6.110  20.484  -7.150  1.00  0.00     0.133 C
HETATM   25  O1  UNL     1       5.765  23.144  -8.142  1.00  0.00    -0.253 OA
ENDBRANCH  16  23
BRANCH  22  26
HETATM   26  C21 UNL     1      -2.113  19.631  -6.509  1.00  0.00     0.223 C
HETATM   27  O5  UNL     1      -2.489  18.476  -6.766  1.00  0.00    -0.273 OA
HETATM   28  N3  UNL     1      -3.053  20.670  -6.679  1.00  0.00    -0.353 N
ATOM     29  H3  UNL     1      -2.748  21.620  -6.467  1.00  0.00     0.163 HD
BRANCH  28  30
HETATM   30  C22 UNL     1      -4.409  20.490  -7.129  1.00  0.00     0.118 C
HETATM   31  C23 UNL     1      -4.549  19.517  -8.248  1.00  0.00     0.028 C
HETATM   32  C24 UNL     1      -5.872  19.875  -8.855  1.00  0.00     0.005 C
HETATM   33  C25 UNL     1      -5.874  21.382  -8.804  1.00  0.00     0.039 C
HETATM   34  C26 UNL     1      -4.855  21.805  -7.785  1.00  0.00     0.192 C
HETATM   35  F1  UNL     1      -5.391  22.635  -6.809  1.00  0.00    -0.247 F
ENDBRANCH  28  30
ENDBRANCH  22  26
ENDBRANCH   5  11
BRANCH   7  36
HETATM   36  O3  UNL     1      -0.776  14.382  -5.270  1.00  0.00    -0.356 OA
BRANCH  36  37
HETATM   37  C13 UNL     1       0.441  13.838  -5.174  1.00  0.00     0.175 C
BRANCH  37  38
HETATM   38  C14 UNL     1       0.692  12.595  -4.417  1.00  0.00     0.009 A
HETATM   39  C15 UNL     1       0.512  11.220  -4.869  1.00  0.00     0.007 A
HETATM   40  C16 UNL     1      -0.295  11.788  -3.694  1.00  0.00     0.007 A
ENDBRANCH  37  38
ENDBRANCH  36  37
ENDBRANCH   7  36
ENDBRANCH   1   4
TORSDOF 8
ENDMDL