MODEL 4
REMARK VINA RESULT: -6.791027096      1.452      3.971
REMARK  7 active torsions:
REMARK  status: ('A' for Active; 'I' for Inactive)
REMARK    1  A    between atoms: C2_3  and  C3_4
REMARK    2  A    between atoms: C3_4  and  N2_5
REMARK    3  A    between atoms: C4_6  and  O1_7
REMARK    4  A    between atoms: O1_7  and  C5_8
REMARK    5  A    between atoms: C5_8  and  C6_9
REMARK    6  A    between atoms: C6_9  and  N3_10
REMARK    7  A    between atoms: C14_24  and  N6_25
ROOT
HETATM    1  N1  UNL     1      -6.849  19.448 -11.229  1.00  0.00    -0.197 NA
HETATM    2  C1  UNL     1      -6.457  19.025 -10.230  1.00  0.00     0.060 C
HETATM    3  C2  UNL     1      -5.959  18.478  -8.967  1.00  0.00     0.144 C
ENDROOT
BRANCH   3   4
HETATM    4  C3  UNL     1      -6.373  19.461  -7.884  1.00  0.00     0.147 C
BRANCH   4   5
HETATM    5  N2  UNL     1      -5.461  20.563  -7.760  1.00  0.00    -0.304 N
HETATM    6  C4  UNL     1      -4.250  20.437  -7.147  1.00  0.00     0.176 A
HETATM    7  C11 UNL     1      -3.590  21.658  -7.179  1.00  0.00     0.119 A
HETATM    8  N4  UNL     1      -2.479  22.349  -6.849  1.00  0.00    -0.303 N
HETATM    9  C13 UNL     1      -4.465  22.510  -7.838  1.00  0.00     0.118 A
HETATM   10  C12 UNL     1      -2.632  23.608  -7.281  1.00  0.00     0.325 A
ATOM     11  H4  UNL     1      -1.667  21.978  -6.357  1.00  0.00     0.171 HD
HETATM   12  O3  UNL     1      -1.848  24.602  -7.194  1.00  0.00    -0.247 OA
HETATM   13  N5  UNL     1      -3.836  23.717  -7.884  1.00  0.00    -0.303 N
ATOM     14  H5  UNL     1      -4.213  24.566  -8.306  1.00  0.00     0.171 HD
HETATM   15  C14 UNL     1      -5.623  21.818  -8.191  1.00  0.00     0.207 A
BRANCH   6  16
HETATM   16  O1  UNL     1      -3.731  19.301  -6.578  1.00  0.00    -0.332 OA
BRANCH  16  17
HETATM   17  C5  UNL     1      -2.850  18.416  -7.149  1.00  0.00     0.207 C
BRANCH  17  18
HETATM   18  C6  UNL     1      -1.403  18.748  -7.127  1.00  0.00     0.299 C
BRANCH  18  19
HETATM   19  N3  UNL     1      -0.788  18.898  -5.839  1.00  0.00     0.094 N
HETATM   20  C7  UNL     1       0.643  19.152  -5.988  1.00  0.00     0.298 C
HETATM   21  C8  UNL     1       1.283  17.961  -6.632  1.00  0.00     0.198 C
HETATM   22  O2  UNL     1       1.190  16.906  -5.718  1.00  0.00    -0.388 OA
HETATM   23  C9  UNL     1      -0.100  16.576  -5.430  1.00  0.00     0.198 C
HETATM   24  C10 UNL     1      -0.962  17.724  -4.997  1.00  0.00     0.298 C
ENDBRANCH  18  19
ENDBRANCH  17  18
ENDBRANCH  16  17
ENDBRANCH   6  16
BRANCH  15  25
HETATM   25  N6  UNL     1      -6.727  22.398  -8.867  1.00  0.00    -0.095 N
HETATM   26  O4  UNL     1      -6.606  22.732 -10.059  1.00  0.00    -0.530 OA
HETATM   27  O5  UNL     1      -7.944  22.621  -8.282  1.00  0.00    -0.530 OA
ENDBRANCH  15  25
ENDBRANCH   4   5
ENDBRANCH   3   4
TORSDOF 7
ENDMDL