MODEL 3
REMARK VINA RESULT: -6.553216039      6.062      8.199
REMARK  7 active torsions:
REMARK  status: ('A' for Active; 'I' for Inactive)
REMARK    1  A    between atoms: C3_8  and  N4_9
REMARK    2  A    between atoms: C3_8  and  N5_15
REMARK    3  A    between atoms: C8_18  and  C9_19
REMARK    4  A    between atoms: C9_19  and  C10_20
REMARK    5  A    between atoms: N6_21  and  C11_23
REMARK    6  A    between atoms: C11_23  and  C12_24
REMARK    7  A    between atoms: C12_24  and  C13_25
ROOT
HETATM    1  N1  UNL     1       2.183  17.608  -8.276  1.00  0.00    -0.062 NA
HETATM    2  C1  UNL     1       1.132  17.980  -7.387  1.00  0.00     0.203 C
HETATM    3  N2  UNL     1       0.241  18.771  -7.935  1.00  0.00    -0.274 N
ATOM      4  H2  UNL     1       0.364  19.046  -8.910  1.00  0.00     0.189 HD
HETATM    5  N3  UNL     1      -0.877  19.257  -7.234  1.00  0.00    -0.309 N
ATOM      6  H3  UNL     1      -1.620  19.628  -7.825  1.00  0.00     0.185 HD
HETATM    7  C2  UNL     1      -1.119  19.313  -5.966  1.00  0.00     0.142 C
HETATM    8  C3  UNL     1      -0.252  18.862  -4.820  1.00  0.00     0.224 C
HETATM    9  C8  UNL     1       0.143  17.464  -5.036  1.00  0.00     0.149 C
HETATM   10  N7  UNL     1       1.197  17.454  -6.067  1.00  0.00    -0.354 N
ATOM     11  H7  UNL     1       2.080  17.017  -5.802  1.00  0.00     0.162 HD
ENDROOT
BRANCH   8  12
HETATM   12  N4  UNL     1      -0.892  19.252  -3.642  1.00  0.00    -0.352 N
HETATM   13  C4  UNL     1      -1.700  20.392  -3.616  1.00  0.00     0.087 C
HETATM   14  C5  UNL     1      -1.397  21.204  -2.376  1.00  0.00     0.212 C
HETATM   15  O1  UNL     1      -1.486  20.410  -1.248  1.00  0.00    -0.385 OA
HETATM   16  C6  UNL     1      -0.447  19.455  -1.312  1.00  0.00     0.188 C
HETATM   17  C7  UNL     1      -0.835  18.516  -2.472  1.00  0.00     0.151 C
ENDBRANCH   8  12
BRANCH   8  18
HETATM   18  N5  UNL     1       0.976  19.664  -4.983  1.00  0.00    -0.116 N
HETATM   19  O2  UNL     1       1.105  20.590  -5.771  1.00  0.00    -0.534 OA
HETATM   20  O3  UNL     1       2.032  19.312  -4.161  1.00  0.00    -0.534 OA
ENDBRANCH   8  18
BRANCH   9  21
HETATM   21  C9  UNL     1      -0.893  16.502  -5.515  1.00  0.00     0.074 C
BRANCH  21  22
HETATM   22  C10 UNL     1      -1.196  15.453  -4.480  1.00  0.00     0.057 C
HETATM   23  N6  UNL     1      -0.349  15.049  -3.624  1.00  0.00    -0.402 N
ATOM     24  H6  UNL     1       0.590  15.447  -3.628  1.00  0.00     0.158 HD
BRANCH  23  25
HETATM   25  C11 UNL     1      -0.675  14.056  -2.659  1.00  0.00     0.119 C
BRANCH  25  26
HETATM   26  C12 UNL     1       0.136  12.784  -2.908  1.00  0.00     0.024 C
BRANCH  26  27
HETATM   27  C13 UNL     1      -0.520  11.917  -3.946  1.00  0.00    -0.013 A
HETATM   28  C14 UNL     1       0.283  10.776  -4.537  1.00  0.00     0.005 A
HETATM   29  C15 UNL     1      -0.136  11.941  -5.367  1.00  0.00     0.005 A
ENDBRANCH  26  27
ENDBRANCH  25  26
ENDBRANCH  23  25
ENDBRANCH  21  22
ENDBRANCH   9  21
TORSDOF 7
ENDMDL