MODEL 2
REMARK VINA RESULT: -7.040612679      1.488      1.628
REMARK  8 active torsions:
REMARK  status: ('A' for Active; 'I' for Inactive)
REMARK    1  A    between atoms: C3_6  and  C4_7
REMARK    2  A    between atoms: C5_8  and  S1_9
REMARK    3  A    between atoms: S1_9  and  N3_12
REMARK    4  A    between atoms: N3_12  and  C6_14
REMARK    5  A    between atoms: C6_14  and  C7_15
REMARK    6  A    between atoms: C7_15  and  N4_16
REMARK    7  A    between atoms: C12_23  and  C13_24
REMARK    8  A    between atoms: C13_24  and  O4_25
ROOT
HETATM    1  N1  UNL     1      -6.850  17.645  -9.399  1.00  0.00    -0.190 NA
HETATM    2  C1  UNL     1      -5.992  18.107  -8.774  1.00  0.00     0.119 C
HETATM    3  C2  UNL     1      -4.904  18.714  -7.994  1.00  0.00     0.130 A
HETATM    4  N2  UNL     1      -3.783  18.098  -7.787  1.00  0.00    -0.341 N
ATOM      5  H2  UNL     1      -3.636  17.164  -8.169  1.00  0.00     0.167 HD
HETATM    6  C3  UNL     1      -2.832  18.680  -7.081  1.00  0.00     0.076 A
HETATM    7  S2  UNL     1      -3.531  20.181  -6.675  1.00  0.00    -0.072 SA
HETATM    8  C12 UNL     1      -5.050  19.968  -7.459  1.00  0.00     0.045 A
ENDROOT
BRANCH   8   9
HETATM    9  C13 UNL     1      -6.226  20.901  -7.533  1.00  0.00     0.213 C
BRANCH   9  10
HETATM   10  O4  UNL     1      -6.985  20.666  -6.369  1.00  0.00    -0.396 OA
ATOM     11  H4  UNL     1      -7.830  21.072  -6.519  1.00  0.00     0.209 HD
ENDBRANCH   9  10
ENDBRANCH   8   9
BRANCH   6  12
HETATM   12  C4  UNL     1      -1.502  18.132  -6.745  1.00  0.00     0.050 C
HETATM   13  C5  UNL     1      -0.853  18.495  -5.664  1.00  0.00     0.134 C
BRANCH  13  14
HETATM   14  S1  UNL     1       0.707  17.809  -5.330  1.00  0.00     0.248 S
HETATM   15  O1  UNL     1       1.729  18.916  -5.328  1.00  0.00    -0.201 OA
HETATM   16  O2  UNL     1       1.036  16.801  -6.411  1.00  0.00    -0.201 OA
BRANCH  14  17
HETATM   17  N3  UNL     1       0.717  17.048  -3.780  1.00  0.00    -0.314 N
ATOM     18  H3  UNL     1       1.536  16.688  -3.290  1.00  0.00     0.172 HD
BRANCH  17  19
HETATM   19  C6  UNL     1      -0.657  17.015  -3.300  1.00  0.00     0.162 C
BRANCH  19  20
HETATM   20  C7  UNL     1      -1.028  15.653  -2.782  1.00  0.00     0.292 C
BRANCH  20  21
HETATM   21  N4  UNL     1      -0.505  14.591  -3.578  1.00  0.00     0.094 N
HETATM   22  C8  UNL     1      -1.389  14.260  -4.670  1.00  0.00     0.298 C
HETATM   23  C9  UNL     1      -0.927  13.033  -5.416  1.00  0.00     0.198 C
HETATM   24  O3  UNL     1      -0.802  11.926  -4.596  1.00  0.00    -0.388 OA
HETATM   25  C10 UNL     1      -0.834  12.185  -3.253  1.00  0.00     0.198 C
HETATM   26  C11 UNL     1      -0.076  13.433  -2.845  1.00  0.00     0.298 C
ENDBRANCH  20  21
ENDBRANCH  19  20
ENDBRANCH  17  19
ENDBRANCH  14  17
ENDBRANCH  13  14
ENDBRANCH   6  12
TORSDOF 8
ENDMDL