MODEL 1
REMARK VINA RESULT: -6.450634788      0.000      0.000
REMARK  9 active torsions:
REMARK  status: ('A' for Active; 'I' for Inactive)
REMARK    1  A    between atoms: C2_3  and  C3_4
REMARK    2  A    between atoms: C3_4  and  C4_5
REMARK    3  A    between atoms: C4_5  and  N2_6
REMARK    4  A    between atoms: C7_11  and  N4_12
REMARK    5  A    between atoms: C12_20  and  N6_21
REMARK    6  A    between atoms: N6_21  and  C13_23
REMARK    7  A    between atoms: C13_23  and  C14_24
REMARK    8  A    between atoms: C14_24  and  C15_25
REMARK    9  A    between atoms: C15_25  and  O2_26
ROOT
HETATM    1  N1  UNL     1      -7.546  21.753  -7.058  1.00  0.00    -0.197 NA
HETATM    2  C1  UNL     1      -7.166  22.758  -6.613  1.00  0.00     0.059 C
HETATM    3  C2  UNL     1      -6.695  24.016  -6.037  1.00  0.00     0.125 C
ENDROOT
BRANCH   3   4
HETATM    4  C3  UNL     1      -5.183  24.095  -6.106  1.00  0.00     0.034 C
BRANCH   4   5
HETATM    5  C4  UNL     1      -4.623  23.409  -7.305  1.00  0.00     0.132 C
BRANCH   5   6
HETATM    6  N2  UNL     1      -3.577  22.471  -6.970  1.00  0.00    -0.327 N
HETATM    7  C5  UNL     1      -2.380  22.767  -6.437  1.00  0.00     0.185 A
HETATM    8  N3  UNL     1      -1.738  21.598  -6.294  1.00  0.00    -0.346 N
HETATM    9  C6  UNL     1      -2.467  20.557  -6.713  1.00  0.00     0.123 A
ATOM     10  H3  UNL     1      -0.798  21.513  -5.908  1.00  0.00     0.167 HD
HETATM   11  C7  UNL     1      -2.260  19.194  -6.776  1.00  0.00     0.150 A
HETATM   12  C16 UNL     1      -3.667  21.127  -7.154  1.00  0.00     0.155 A
HETATM   13  N5  UNL     1      -3.265  18.442  -7.279  1.00  0.00    -0.174 N
HETATM   14  C12 UNL     1      -4.419  18.984  -7.702  1.00  0.00     0.681 A
ATOM     15  H5  UNL     1      -3.144  17.431  -7.338  1.00  0.00     0.186 HD
HETATM   16  N7  UNL     1      -4.612  20.313  -7.638  1.00  0.00    -0.174 N
ATOM     17  H7  UNL     1      -5.494  20.708  -7.964  1.00  0.00     0.186 HD
BRANCH  11  18
HETATM   18  N4  UNL     1      -1.043  18.624  -6.328  1.00  0.00    -0.361 N
HETATM   19  C8  UNL     1      -1.023  18.023  -5.008  1.00  0.00     0.150 C
HETATM   20  C9  UNL     1      -0.127  16.812  -4.939  1.00  0.00     0.187 C
HETATM   21  O1  UNL     1       0.651  16.664  -6.084  1.00  0.00    -0.388 OA
HETATM   22  C10 UNL     1       1.223  17.888  -6.428  1.00  0.00     0.187 C
HETATM   23  C11 UNL     1       0.127  18.659  -7.183  1.00  0.00     0.150 C
ENDBRANCH  11  18
BRANCH  14  24
HETATM   24  N6  UNL     1      -5.316  18.184  -8.165  1.00  0.00    -0.226 N
ATOM     25  H6  UNL     1      -5.098  17.188  -8.216  1.00  0.00     0.177 HD
BRANCH  24  26
HETATM   26  C13 UNL     1      -6.610  18.626  -8.614  1.00  0.00     0.140 C
BRANCH  26  27
HETATM   27  C14 UNL     1      -6.495  19.027 -10.067  1.00  0.00     0.046 C
BRANCH  27  28
HETATM   28  C15 UNL     1      -7.128  20.387 -10.316  1.00  0.00     0.165 C
BRANCH  28  29
HETATM   29  O2  UNL     1      -6.247  21.378  -9.882  1.00  0.00    -0.401 OA
ATOM     30  H2  UNL     1      -6.741  22.044  -9.417  1.00  0.00     0.209 HD
ENDBRANCH  28  29
ENDBRANCH  27  28
ENDBRANCH  26  27
ENDBRANCH  24  26
ENDBRANCH  14  24
ENDBRANCH   5   6
ENDBRANCH   4   5
ENDBRANCH   3   4
TORSDOF 9
ENDMDL