MODEL 5
REMARK VINA RESULT: -6.082960305      1.433      3.207
REMARK  9 active torsions:
REMARK  status: ('A' for Active; 'I' for Inactive)
REMARK    1  A    between atoms: O1_2  and  C2_3
REMARK    2  A    between atoms: C4_5  and  O2_6
REMARK    3  A    between atoms: C6_8  and  O3_9
REMARK    4  A    between atoms: C8_11  and  O4_12
REMARK    5  A    between atoms: O4_12  and  C9_13
REMARK    6  A    between atoms: C10_15  and  C11_16
REMARK    7  A    between atoms: C11_16  and  O6_17
REMARK    8  A    between atoms: C12_19  and  O7_20
REMARK    9  A    between atoms: C13_22  and  O8_23
ROOT
HETATM    1  C9  UNL     1      -5.012  21.659  -7.422  1.00  0.00     0.273 C
HETATM    2  O5  UNL     1      -5.754  20.477  -7.280  1.00  0.00    -0.350 OA
HETATM    3  C10 UNL     1      -5.714  19.843  -8.498  1.00  0.00     0.179 C
HETATM    4  C12 UNL     1      -6.822  20.471  -9.352  1.00  0.00     0.178 C
HETATM    5  C13 UNL     1      -6.721  21.956  -9.249  1.00  0.00     0.160 C
HETATM    6  C15 UNL     1      -5.404  22.418  -8.666  1.00  0.00     0.069 C
HETATM    7  C16 UNL     1      -5.469  23.887  -8.312  1.00  0.00     0.017 C
ENDROOT
BRANCH   1   8
HETATM    8  O4  UNL     1      -3.672  21.269  -7.446  1.00  0.00    -0.317 OA
BRANCH   8   9
HETATM    9  C8  UNL     1      -2.699  21.379  -6.515  1.00  0.00     0.111 A
HETATM   10  C6  UNL     1      -2.295  20.200  -5.871  1.00  0.00     0.135 A
HETATM   11  C4  UNL     1      -1.308  20.301  -4.925  1.00  0.00     0.106 A
HETATM   12  C3  UNL     1      -0.703  21.515  -4.588  1.00  0.00     0.076 A
HETATM   13  C2  UNL     1      -1.111  22.657  -5.228  1.00  0.00     0.073 A
HETATM   14  C17 UNL     1      -2.118  22.574  -6.198  1.00  0.00     0.076 A
BRANCH  10  15
HETATM   15  O3  UNL     1      -2.853  18.975  -6.159  1.00  0.00    -0.351 OA
HETATM   16  C7  UNL     1      -2.383  18.129  -7.196  1.00  0.00     0.210 C
ENDBRANCH  10  15
BRANCH  11  17
HETATM   17  O2  UNL     1      -0.886  19.165  -4.272  1.00  0.00    -0.353 OA
HETATM   18  C5  UNL     1       0.341  18.529  -4.579  1.00  0.00     0.210 C
ENDBRANCH  11  17
BRANCH  13  19
HETATM   19  O1  UNL     1      -0.578  23.887  -4.965  1.00  0.00    -0.356 OA
HETATM   20  C1  UNL     1      -0.370  24.856  -5.952  1.00  0.00     0.210 C
ENDBRANCH  13  19
ENDBRANCH   8   9
ENDBRANCH   1   8
BRANCH   3  21
HETATM   21  C11 UNL     1      -5.888  18.348  -8.411  1.00  0.00     0.198 C
BRANCH  21  22
HETATM   22  O6  UNL     1      -7.232  17.984  -8.388  1.00  0.00    -0.398 OA
ATOM     23  H6  UNL     1      -7.801  18.728  -8.545  1.00  0.00     0.209 HD
ENDBRANCH  21  22
ENDBRANCH   3  21
BRANCH   5  24
HETATM   24  O8  UNL     1      -7.811  22.568  -8.694  1.00  0.00    -0.388 OA
HETATM   25  C14 UNL     1      -8.849  22.842  -9.544  1.00  0.00     0.202 C
ENDBRANCH   5  24
BRANCH   4  26
HETATM   26  O7  UNL     1      -6.619  19.989 -10.645  1.00  0.00    -0.390 OA
ATOM     27  H7  UNL     1      -7.267  20.424 -11.186  1.00  0.00     0.210 HD
ENDBRANCH   4  26
TORSDOF 9
ENDMDL