MODEL 4
REMARK VINA RESULT: -6.219293740      1.194      1.268
REMARK  10 active torsions:
REMARK  status: ('A' for Active; 'I' for Inactive)
REMARK    1  A    between atoms: O1_2  and  C2_3
REMARK    2  A    between atoms: C3_4  and  C4_5
REMARK       I    between atoms: C4_5  and  N1_7
REMARK    3  A    between atoms: N1_7  and  C5_9
REMARK    4  A    between atoms: C5_9  and  C6_10
REMARK    5  A    between atoms: C6_10  and  C7_11
REMARK    6  A    between atoms: C7_11  and  C9_13
REMARK    7  A    between atoms: C9_13  and  O3_14
REMARK    8  A    between atoms: C9_13  and  N2_16
REMARK    9  A    between atoms: N2_16  and  N3_18
REMARK   10  A    between atoms: N3_18  and  N4_19
ROOT
HETATM    1  C4  UNL     1      -4.102  19.533  -7.216  1.00  0.00     0.249 C
HETATM    2  O2  UNL     1      -4.466  18.968  -8.276  1.00  0.00    -0.271 OA
HETATM    3  N1  UNL     1      -4.935  20.585  -6.725  1.00  0.00    -0.359 N
ATOM      4  H1  UNL     1      -4.650  21.054  -5.865  1.00  0.00     0.162 HD
ENDROOT
BRANCH   3   5
HETATM    5  C5  UNL     1      -6.136  21.022  -7.355  1.00  0.00     0.123 C
BRANCH   5   6
HETATM    6  C6  UNL     1      -6.011  22.180  -8.281  1.00  0.00     0.028 C
BRANCH   6   7
HETATM    7  C7  UNL     1      -6.481  21.992  -9.673  1.00  0.00     0.034 C
HETATM    8  C8  UNL     1      -7.287  23.256 -10.024  1.00  0.00     0.014 C
BRANCH   7   9
HETATM    9  C9  UNL     1      -7.396  20.844  -9.929  1.00  0.00     0.250 C
BRANCH   9  10
HETATM   10  O3  UNL     1      -8.391  21.329 -10.820  1.00  0.00    -0.374 OA
ATOM     11  H3  UNL     1      -8.493  20.659 -11.486  1.00  0.00     0.212 HD
ENDBRANCH   9  10
BRANCH   9  12
HETATM   12  N2  UNL     1      -6.774  19.693 -10.537  1.00  0.00    -0.223 N
ATOM     13  H2  UNL     1      -6.241  19.836 -11.395  1.00  0.00     0.200 HD
BRANCH  12  14
HETATM   14  N3  UNL     1      -6.843  18.566 -10.093  1.00  0.00    -0.246 NA
BRANCH  14  15
HETATM   15  N4  UNL     1      -6.818  17.600  -9.330  1.00  0.00    -0.261 N
ATOM     16  H42 UNL     1      -5.989  17.910  -8.821  1.00  0.00     0.193 HD
ATOM     17  H41 UNL     1      -7.045  16.722  -8.863  1.00  0.00     0.193 HD
ENDBRANCH  14  15
ENDBRANCH  12  14
ENDBRANCH   9  12
ENDBRANCH   7   9
ENDBRANCH   6   7
ENDBRANCH   5   6
ENDBRANCH   3   5
BRANCH   1  18
HETATM   18  C3  UNL     1      -2.875  19.095  -6.556  1.00  0.00     0.248 C
HETATM   19  C2  UNL     1      -2.153  20.139  -5.767  1.00  0.00     0.193 C
HETATM   20  C14 UNL     1      -0.766  19.531  -5.694  1.00  0.00     0.212 C
HETATM   21  C10 UNL     1      -0.721  18.622  -6.891  1.00  0.00     0.296 C
HETATM   22  O6  UNL     1      -0.622  18.673  -4.617  1.00  0.00    -0.343 OA
HETATM   23  O4  UNL     1      -1.965  18.657  -7.506  1.00  0.00    -0.341 OA
HETATM   24  O5  UNL     1      -0.434  17.386  -6.339  1.00  0.00    -0.323 OA
HETATM   25  C11 UNL     1       0.241  17.699  -5.161  1.00  0.00     0.160 C
HETATM   26  C12 UNL     1       0.324  16.539  -4.215  1.00  0.00     0.078 C
HETATM   27  C13 UNL     1       1.597  18.293  -5.408  1.00  0.00     0.078 C
BRANCH  19  28
HETATM   28  O1  UNL     1      -2.154  21.401  -6.295  1.00  0.00    -0.385 OA
HETATM   29  C1  UNL     1      -2.059  22.436  -5.404  1.00  0.00     0.202 C
ENDBRANCH  19  28
ENDBRANCH   1  18
TORSDOF 10
ENDMDL