MODEL 2
REMARK VINA RESULT: -5.993510598      5.700      9.243
REMARK  9 active torsions:
REMARK  status: ('A' for Active; 'I' for Inactive)
REMARK    1  A    between atoms: O1_2  and  N1_3
REMARK    2  A    between atoms: C2_5  and  C3_6
REMARK    3  A    between atoms: C3_6  and  O2_7
REMARK    4  A    between atoms: C3_6  and  C4_9
REMARK    5  A    between atoms: C4_9  and  C5_10
REMARK    6  A    between atoms: C5_10  and  C6_11
REMARK    7  A    between atoms: C8_14  and  O4_15
REMARK    8  A    between atoms: O4_15  and  C9_16
REMARK    9  A    between atoms: C14_22  and  C15_23
ROOT
HETATM    1  C6  UNL     1       0.005  16.059  -3.994  1.00  0.00     0.199 C
HETATM    2  O3  UNL     1       1.295  16.533  -3.815  1.00  0.00    -0.349 OA
HETATM    3  C7  UNL     1       0.819  17.266  -2.739  1.00  0.00     0.216 C
HETATM    4  C8  UNL     1      -0.168  16.190  -2.501  1.00  0.00     0.148 C
HETATM    5  C11 UNL     1       0.522  14.974  -1.910  1.00  0.00     0.054 C
HETATM    6  C12 UNL     1      -0.384  13.808  -2.290  1.00  0.00     0.024 C
HETATM    7  C13 UNL     1       0.306  12.546  -1.884  1.00  0.00     0.013 C
HETATM    8  C14 UNL     1      -0.784  13.875  -3.727  1.00  0.00     0.229 C
HETATM    9  O8  UNL     1      -0.140  14.802  -4.482  1.00  0.00    -0.336 OA
ENDROOT
BRANCH   1  10
HETATM   10  C5  UNL     1      -0.816  17.025  -4.814  1.00  0.00     0.075 C
BRANCH  10  11
HETATM   11  C4  UNL     1      -0.051  17.562  -6.018  1.00  0.00     0.043 C
BRANCH  11  12
HETATM   12  C3  UNL     1      -1.034  18.453  -6.780  1.00  0.00     0.158 C
BRANCH  12  13
HETATM   13  C2  UNL     1      -2.354  17.793  -6.772  1.00  0.00     0.118 C
HETATM   14  N1  UNL     1      -3.371  18.406  -7.273  1.00  0.00    -0.280 N
ATOM     15  H1  UNL     1      -4.282  17.947  -7.266  1.00  0.00     0.193 HD
BRANCH  14  16
HETATM   16  O1  UNL     1      -3.256  19.649  -7.809  1.00  0.00    -0.286 OA
HETATM   17  C1  UNL     1      -3.970  20.775  -7.336  1.00  0.00     0.237 C
ENDBRANCH  14  16
ENDBRANCH  12  13
BRANCH  12  18
HETATM   18  O2  UNL     1      -0.590  18.699  -8.069  1.00  0.00    -0.390 OA
ATOM     19  H2  UNL     1       0.198  18.208  -8.270  1.00  0.00     0.210 HD
ENDBRANCH  12  18
ENDBRANCH  11  12
ENDBRANCH  10  11
ENDBRANCH   1  10
BRANCH   4  20
HETATM   20  O4  UNL     1      -1.430  16.503  -2.062  1.00  0.00    -0.302 OA
BRANCH  20  21
HETATM   21  C9  UNL     1      -1.870  16.429  -0.783  1.00  0.00     0.255 C
HETATM   22  C10 UNL     1      -1.337  17.315   0.324  1.00  0.00     0.126 C
HETATM   23  O5  UNL     1      -2.755  15.595  -0.488  1.00  0.00    -0.266 OA
ENDBRANCH  20  21
ENDBRANCH   4  20
BRANCH   8  24
HETATM   24  C15 UNL     1      -0.596  12.540  -4.346  1.00  0.00     0.203 C
HETATM   25  O6  UNL     1      -1.321  11.566  -4.024  1.00  0.00    -0.646 OA
HETATM   26  O7  UNL     1       0.383  12.315  -5.302  1.00  0.00    -0.646 OA
ENDBRANCH   8  24
TORSDOF 9
ENDMDL