MODEL 1
REMARK VINA RESULT: -6.278803094      0.000      0.000
REMARK  8 active torsions:
REMARK  status: ('A' for Active; 'I' for Inactive)
REMARK    1  A    between atoms: C3_3  and  S1_4
REMARK    2  A    between atoms: S1_4  and  C4_5
REMARK    3  A    between atoms: C4_5  and  C5_6
REMARK    4  A    between atoms: C5_6  and  N1_7
REMARK    5  A    between atoms: N2_10  and  C8_11
REMARK    6  A    between atoms: C9_14  and  C10_15
REMARK    7  A    between atoms: C11_17  and  N4_18
REMARK    8  A    between atoms: C12_23  and  N6_24
ROOT
HETATM    1  C1  UNL     1      -2.723  23.856  -7.187  1.00  0.00     0.013 C
HETATM    2  C2  UNL     1      -3.558  24.230  -6.403  1.00  0.00    -0.107 C
HETATM    3  C3  UNL     1      -4.583  24.716  -5.448  1.00  0.00     0.166 C
ENDROOT
BRANCH   3   4
HETATM    4  S1  UNL     1      -5.309  26.273  -6.089  1.00  0.00    -0.155 SA
BRANCH   4   5
HETATM    5  C4  UNL     1      -6.181  25.932  -7.660  1.00  0.00     0.105 C
BRANCH   5   6
HETATM    6  C5  UNL     1      -7.214  24.867  -7.458  1.00  0.00     0.282 C
BRANCH   6   7
HETATM    7  N1  UNL     1      -7.294  23.966  -8.556  1.00  0.00     0.092 N
HETATM    8  C6  UNL     1      -6.050  23.698  -9.189  1.00  0.00     0.292 C
HETATM    9  C7  UNL     1      -5.852  22.204  -9.464  1.00  0.00     0.154 C
HETATM   10  N2  UNL     1      -6.097  21.439  -8.260  1.00  0.00    -0.361 N
HETATM   11  C13 UNL     1      -7.274  21.819  -7.505  1.00  0.00     0.154 C
HETATM   12  C14 UNL     1      -8.061  22.786  -8.364  1.00  0.00     0.292 C
BRANCH  10  13
HETATM   13  C8  UNL     1      -5.203  20.398  -7.888  1.00  0.00     0.155 A
HETATM   14  N3  UNL     1      -4.143  20.659  -7.093  1.00  0.00    -0.334 N
HETATM   15  C9  UNL     1      -3.216  19.752  -6.734  1.00  0.00     0.116 A
ATOM     16  H3  UNL     1      -4.038  21.611  -6.740  1.00  0.00     0.168 HD
HETATM   17  C11 UNL     1      -3.316  18.474  -7.180  1.00  0.00     0.131 A
HETATM   18  N5  UNL     1      -4.370  18.173  -7.981  1.00  0.00    -0.319 N
HETATM   19  C12 UNL     1      -5.286  19.091  -8.328  1.00  0.00     0.219 A
ATOM     20  H5  UNL     1      -4.469  17.220  -8.329  1.00  0.00     0.169 HD
BRANCH  15  21
HETATM   21  C10 UNL     1      -2.160  20.231  -5.878  1.00  0.00     0.291 C
HETATM   22  O1  UNL     1      -1.876  19.691  -4.805  1.00  0.00    -0.300 OA
ENDBRANCH  15  21
BRANCH  17  23
HETATM   23  N4  UNL     1      -2.505  17.543  -6.910  1.00  0.00    -0.383 N
ATOM     24  H42 UNL     1      -2.819  16.820  -6.262  1.00  0.00     0.157 HD
ATOM     25  H41 UNL     1      -1.562  17.457  -7.288  1.00  0.00     0.157 HD
ENDBRANCH  17  23
BRANCH  19  26
HETATM   26  N6  UNL     1      -6.381  18.670  -9.111  1.00  0.00    -0.094 N
HETATM   27  O2  UNL     1      -7.328  18.078  -8.507  1.00  0.00    -0.530 OA
HETATM   28  O3  UNL     1      -6.543  18.819 -10.446  1.00  0.00    -0.530 OA
ENDBRANCH  19  26
ENDBRANCH  10  13
ENDBRANCH   6   7
ENDBRANCH   5   6
ENDBRANCH   4   5
ENDBRANCH   3   4
TORSDOF 8
ENDMDL