MODEL 1
REMARK VINA RESULT: -6.047948228      0.000      0.000
REMARK  7 active torsions:
REMARK  status: ('A' for Active; 'I' for Inactive)
REMARK    1  A    between atoms: O1_2  and  C2_3
REMARK    2  A    between atoms: C3_5  and  O3_6
REMARK    3  A    between atoms: O3_6  and  C4_7
REMARK    4  A    between atoms: C7_10  and  N1_11
REMARK       I    between atoms: N1_11  and  C8_13
REMARK    5  A    between atoms: C8_13  and  C9_15
REMARK    6  A    between atoms: C12_22  and  O5_23
REMARK    7  A    between atoms: C14_25  and  O6_26
ROOT
HETATM    1  C2  UNL     1      -6.229  21.950  -6.723  1.00  0.00     0.293 C
HETATM    2  O2  UNL     1      -6.323  20.580  -6.910  1.00  0.00    -0.327 OA
HETATM    3  C3  UNL     1      -5.221  20.055  -7.587  1.00  0.00     0.288 C
HETATM    4  C7  UNL     1      -4.006  20.917  -7.273  1.00  0.00     0.171 C
HETATM    5  C12 UNL     1      -4.174  22.159  -8.150  1.00  0.00     0.182 C
HETATM    6  C14 UNL     1      -5.568  22.668  -7.879  1.00  0.00     0.207 C
ENDROOT
BRANCH   4   7
HETATM    7  N1  UNL     1      -2.772  20.235  -7.473  1.00  0.00    -0.342 N
HETATM    8  C8  UNL     1      -2.002  19.755  -6.393  1.00  0.00     0.286 C
HETATM    9  O4  UNL     1      -2.384  19.913  -5.190  1.00  0.00    -0.264 OA
ATOM     10  H1  UNL     1      -2.434  20.091  -8.425  1.00  0.00     0.163 HD
BRANCH   8  11
HETATM   11  C9  UNL     1      -0.740  19.058  -6.597  1.00  0.00     0.174 A
HETATM   12  N2  UNL     1      -0.074  19.027  -7.768  1.00  0.00    -0.346 N
HETATM   13  C10 UNL     1       1.060  18.296  -7.616  1.00  0.00     0.107 A
ATOM     14  H2  UNL     1      -0.374  19.480  -8.632  1.00  0.00     0.167 HD
HETATM   15  C11 UNL     1       1.091  17.865  -6.309  1.00  0.00     0.107 A
HETATM   16  N3  UNL     1      -0.019  18.355  -5.740  1.00  0.00    -0.346 N
ATOM     17  H3  UNL     1      -0.276  18.204  -4.765  1.00  0.00     0.167 HD
ENDBRANCH   8  11
ENDBRANCH   4   7
BRANCH   3  18
HETATM   18  O3  UNL     1      -5.487  20.209  -8.928  1.00  0.00    -0.354 OA
BRANCH  18  19
HETATM   19  C4  UNL     1      -6.489  19.443  -9.450  1.00  0.00     0.116 C
HETATM   20  C5  UNL     1      -6.400  17.973  -9.131  1.00  0.00     0.039 C
HETATM   21  C6  UNL     1      -6.659  19.618 -10.946  1.00  0.00     0.039 C
ENDBRANCH  18  19
ENDBRANCH   3  18
BRANCH   5  22
HETATM   22  O5  UNL     1      -3.196  23.096  -7.898  1.00  0.00    -0.386 OA
HETATM   23  C13 UNL     1      -2.962  23.183  -6.511  1.00  0.00     0.202 C
ENDBRANCH   5  22
BRANCH   6  24
HETATM   24  O6  UNL     1      -5.509  24.024  -7.573  1.00  0.00    -0.383 OA
HETATM   25  C15 UNL     1      -5.961  24.794  -8.650  1.00  0.00     0.202 C
ENDBRANCH   6  24
BRANCH   1  26
HETATM   26  O1  UNL     1      -7.560  22.427  -6.686  1.00  0.00    -0.363 OA
HETATM   27  C1  UNL     1      -8.244  22.110  -7.857  1.00  0.00     0.204 C
ENDBRANCH   1  26
TORSDOF 7
ENDMDL