MODEL 5
REMARK VINA RESULT: -6.741016395      2.749      7.458
REMARK  8 active torsions:
REMARK  status: ('A' for Active; 'I' for Inactive)
REMARK    1  A    between atoms: O1_2  and  C2_3
REMARK    2  A    between atoms: C2_3  and  C3_4
REMARK    3  A    between atoms: C3_4  and  C4_5
REMARK    4  A    between atoms: C4_5  and  N1_6
REMARK    5  A    between atoms: N1_6  and  C5_8
REMARK    6  A    between atoms: C6_11  and  N3_12
REMARK    7  A    between atoms: C11_20  and  S1_21
REMARK    8  A    between atoms: S1_21  and  C12_22
ROOT
HETATM    1  C5  UNL     1      -2.417  18.202  -7.066  1.00  0.00     0.694 A
HETATM    2  N2  UNL     1      -2.248  17.265  -6.142  1.00  0.00    -0.022 N
ATOM      3  H2  UNL     1      -3.053  16.698  -5.879  1.00  0.00     0.203 HD
HETATM    4  C6  UNL     1      -1.070  17.022  -5.530  1.00  0.00     0.697 A
HETATM    5  N4  UNL     1      -0.040  17.790  -5.905  1.00  0.00    -0.169 N
ATOM      6  H4  UNL     1       0.866  17.634  -5.464  1.00  0.00     0.186 HD
HETATM    7  C11 UNL     1      -0.140  18.757  -6.835  1.00  0.00     0.174 A
HETATM    8  N6  UNL     1      -1.350  18.947  -7.407  1.00  0.00    -0.169 N
ATOM      9  H6  UNL     1      -1.456  19.673  -8.116  1.00  0.00     0.186 HD
ENDROOT
BRANCH   7  10
HETATM   10  S1  UNL     1       1.304  19.714  -7.246  1.00  0.00    -0.086 SA
BRANCH  10  11
HETATM   11  C12 UNL     1       2.745  18.661  -7.501  1.00  0.00     0.082 C
HETATM   12  C13 UNL     1       3.600  18.664  -6.237  1.00  0.00     0.045 C
HETATM   13  C14 UNL     1       4.830  19.454  -6.610  1.00  0.00     0.233 C
HETATM   14  N5  UNL     1       5.009  19.157  -8.016  1.00  0.00    -0.074 N
HETATM   15  C15 UNL     1       3.647  19.258  -8.534  1.00  0.00     0.247 C
ATOM     16  H52 UNL     1       5.695  19.741  -8.494  1.00  0.00     0.277 HD
ATOM     17  H51 UNL     1       5.479  18.273  -8.212  1.00  0.00     0.277 HD
ENDBRANCH  10  11
ENDBRANCH   7  10
BRANCH   4  18
HETATM   18  N3  UNL     1      -1.009  16.002  -4.564  1.00  0.00    -0.213 N
HETATM   19  C7  UNL     1      -1.568  14.708  -4.855  1.00  0.00     0.167 C
HETATM   20  C8  UNL     1      -0.769  13.571  -4.303  1.00  0.00     0.188 C
HETATM   21  O2  UNL     1       0.292  13.926  -3.507  1.00  0.00    -0.388 OA
HETATM   22  C9  UNL     1      -0.028  14.925  -2.590  1.00  0.00     0.188 C
HETATM   23  C10 UNL     1      -0.397  16.219  -3.284  1.00  0.00     0.167 C
ENDBRANCH   4  18
BRANCH   1  24
HETATM   24  N1  UNL     1      -3.547  18.405  -7.625  1.00  0.00    -0.225 N
ATOM     25  H1  UNL     1      -3.772  17.807  -8.420  1.00  0.00     0.177 HD
BRANCH  24  26
HETATM   26  C4  UNL     1      -4.532  19.372  -7.264  1.00  0.00     0.140 C
BRANCH  26  27
HETATM   27  C3  UNL     1      -5.513  19.543  -8.427  1.00  0.00     0.046 C
BRANCH  27  28
HETATM   28  C2  UNL     1      -6.273  18.262  -8.651  1.00  0.00     0.168 C
BRANCH  28  29
HETATM   29  O1  UNL     1      -6.818  18.204  -9.939  1.00  0.00    -0.396 OA
HETATM   30  C1  UNL     1      -6.654  19.430 -10.578  1.00  0.00     0.201 C
ENDBRANCH  28  29
ENDBRANCH  27  28
ENDBRANCH  26  27
ENDBRANCH  24  26
ENDBRANCH   1  24
TORSDOF 8
ENDMDL