MODEL 3
REMARK VINA RESULT: -7.359751839      1.551      2.339
REMARK  5 active torsions:
REMARK  status: ('A' for Active; 'I' for Inactive)
REMARK    1  A    between atoms: C2_2  and  O1_3
REMARK    2  A    between atoms: O1_3  and  C3_4
REMARK    3  A    between atoms: C6_7  and  N1_8
REMARK    4  A    between atoms: N1_8  and  C7_10
REMARK    5  A    between atoms: C10_16  and  C11_17
ROOT
HETATM    1  C7  UNL     1      44.623  -2.331  65.348  1.00  0.00     0.150 A
HETATM    2  N2  UNL     1      44.092  -2.581  64.144  1.00  0.00    -0.330 N
ATOM      3  H2  UNL     1      43.084  -2.696  64.027  1.00  0.00     0.168 HD
HETATM    4  C8  UNL     1      44.900  -2.674  63.127  1.00  0.00     0.089 A
HETATM    5  C9  UNL     1      46.236  -2.514  63.313  1.00  0.00     0.049 A
HETATM    6  S1  UNL     1      46.286  -2.231  65.002  1.00  0.00    -0.051 SA
HETATM    7  C10 UNL     1      47.248  -2.591  62.215  1.00  0.00    -0.028 C
HETATM    8  C14 UNL     1      47.069  -3.393  61.011  1.00  0.00    -0.010 C
HETATM    9  C15 UNL     1      46.893  -2.548  59.742  1.00  0.00     0.021 C
HETATM   10  C16 UNL     1      48.229  -4.330  60.757  1.00  0.00     0.021 C
HETATM   11  C17 UNL     1      45.817  -4.274  61.009  1.00  0.00     0.094 C
HETATM   12  S2  UNL     1      44.466  -3.072  61.396  1.00  0.00    -0.110 SA
ENDROOT
BRANCH   1  13
HETATM   13  N1  UNL     1      44.027  -2.196  66.505  1.00  0.00    -0.337 N
ATOM     14  H1  UNL     1      44.178  -2.910  67.218  1.00  0.00     0.168 HD
BRANCH  13  15
HETATM   15  C6  UNL     1      43.191  -1.114  66.807  1.00  0.00     0.034 A
HETATM   16  C5  UNL     1      43.555  -0.261  67.829  1.00  0.00     0.032 A
HETATM   17  C4  UNL     1      42.762   0.817  68.161  1.00  0.00     0.039 A
HETATM   18  C3  UNL     1      41.591   1.074  67.486  1.00  0.00     0.068 A
HETATM   19  C19 UNL     1      41.243   0.202  66.457  1.00  0.00     0.039 A
HETATM   20  C18 UNL     1      42.013  -0.874  66.110  1.00  0.00     0.032 A
BRANCH  18  21
HETATM   21  O1  UNL     1      40.805   2.165  67.832  1.00  0.00    -0.352 OA
BRANCH  21  22
HETATM   22  C2  UNL     1      40.352   2.240  69.178  1.00  0.00     0.171 C
HETATM   23  C1  UNL     1      39.091   1.437  69.338  1.00  0.00     0.034 C
ENDBRANCH  21  22
ENDBRANCH  18  21
ENDBRANCH  13  15
ENDBRANCH   1  13
BRANCH   7  24
HETATM   24  C11 UNL     1      48.324  -1.865  62.393  1.00  0.00    -0.079 C
HETATM   25  C12 UNL     1      48.377  -0.408  61.978  1.00  0.00     0.043 C
HETATM   26  C13 UNL     1      49.556  -2.367  63.014  1.00  0.00     0.043 C
ENDBRANCH   7  24
TORSDOF 5
ENDMDL