MODEL 4
REMARK VINA RESULT: -8.378656123      2.576      7.526
REMARK  4 active torsions:
REMARK  status: ('A' for Active; 'I' for Inactive)
REMARK    1  A    between atoms: C7_7  and  O1_8
REMARK    2  A    between atoms: O1_8  and  C8_9
REMARK    3  A    between atoms: C12_13  and  O2_14
REMARK    4  A    between atoms: C14_17  and  C15_18
ROOT
HETATM    1  C15 UNL     1      40.244  -5.388  60.655  1.00  0.00     0.069 C
HETATM    2  C16 UNL     1      41.449  -5.742  59.806  1.00  0.00     0.036 C
HETATM    3  C17 UNL     1      39.461  -6.592  61.040  1.00  0.00     0.036 C
HETATM    4  C18 UNL     1      39.355  -4.521  59.826  1.00  0.00     0.073 C
HETATM    5  N1  UNL     1      38.665  -3.839  59.204  1.00  0.00    -0.196 NA
ENDROOT
BRANCH   1   6
HETATM    6  C14 UNL     1      40.641  -4.520  61.794  1.00  0.00    -0.033 A
HETATM    7  C13 UNL     1      39.695  -3.949  62.594  1.00  0.00     0.046 A
HETATM    8  C12 UNL     1      40.007  -3.086  63.689  1.00  0.00     0.078 A
HETATM    9  C11 UNL     1      41.371  -2.874  63.865  1.00  0.00     0.019 A
HETATM   10  C5  UNL     1      41.830  -2.022  64.952  1.00  0.00     0.014 A
HETATM   11  C20 UNL     1      42.316  -3.444  63.070  1.00  0.00    -0.010 A
HETATM   12  C4  UNL     1      43.204  -1.846  65.119  1.00  0.00     0.082 A
HETATM   13  C6  UNL     1      40.945  -1.362  65.766  1.00  0.00     0.052 A
HETATM   14  C3  UNL     1      43.634  -0.977  66.138  1.00  0.00     0.047 A
HETATM   15  O3  UNL     1      44.132  -2.486  64.333  1.00  0.00    -0.335 OA
HETATM   16  C2  UNL     1      42.717  -0.334  66.927  1.00  0.00    -0.026 A
HETATM   17  C1  UNL     1      43.258   0.575  67.986  1.00  0.00     0.051 C
HETATM   18  C7  UNL     1      41.370  -0.503  66.771  1.00  0.00     0.076 A
HETATM   19  C21 UNL     1      43.804  -3.224  63.209  1.00  0.00     0.088 C
HETATM   20  C22 UNL     1      44.436  -4.602  63.293  1.00  0.00     0.051 C
HETATM   21  C23 UNL     1      44.338  -2.483  61.996  1.00  0.00     0.051 C
HETATM   22  C19 UNL     1      41.979  -4.278  62.021  1.00  0.00     0.020 A
BRANCH   8  23
HETATM   23  O2  UNL     1      38.986  -2.626  64.354  1.00  0.00    -0.360 OA
ATOM     24  H2  UNL     1      38.950  -2.094  65.141  1.00  0.00     0.217 HD
ENDBRANCH   8  23
BRANCH  18  25
HETATM   25  O1  UNL     1      40.473   0.123  67.544  1.00  0.00    -0.346 OA
BRANCH  25  26
HETATM   26  C8  UNL     1      39.744   1.280  67.415  1.00  0.00     0.120 C
HETATM   27  C9  UNL     1      38.251   1.034  67.231  1.00  0.00     0.040 C
HETATM   28  C10 UNL     1      39.921   2.141  68.650  1.00  0.00     0.040 C
ENDBRANCH  25  26
ENDBRANCH  18  25
ENDBRANCH   1   6
TORSDOF 4
ENDMDL