MODEL 2
REMARK VINA RESULT: -6.237727078      3.524      7.720
REMARK  4 active torsions:
REMARK  status: ('A' for Active; 'I' for Inactive)
REMARK    1  A    between atoms: C2_2  and  C3_3
REMARK    2  A    between atoms: C3_3  and  C5_5
REMARK    3  A    between atoms: C5_5  and  C6_6
REMARK    4  A    between atoms: C11_11  and  O1_12
ROOT
HETATM    1  C5  UNL     1      45.376  -3.565  62.132  1.00  0.00     0.032 C
HETATM    2  C9  UNL     1      43.934  -3.736  62.423  1.00  0.00     0.028 A
HETATM    3  C10 UNL     1      43.252  -4.629  61.582  1.00  0.00     0.150 A
HETATM    4  C11 UNL     1      41.909  -4.865  61.698  1.00  0.00     0.109 A
HETATM    5  C12 UNL     1      41.123  -4.239  62.664  1.00  0.00    -0.012 A
HETATM    6  C13 UNL     1      39.697  -4.512  62.761  1.00  0.00     0.052 C
HETATM    7  C14 UNL     1      41.775  -3.367  63.500  1.00  0.00     0.012 A
HETATM    8  C15 UNL     1      43.159  -3.132  63.367  1.00  0.00     0.090 A
HETATM    9  O2  UNL     1      43.756  -2.281  64.207  1.00  0.00    -0.346 OA
HETATM   10  C16 UNL     1      43.171  -1.639  65.257  1.00  0.00     0.204 A
HETATM   11  C17 UNL     1      41.724  -1.890  65.378  1.00  0.00     0.007 A
HETATM   12  C18 UNL     1      41.025  -2.703  64.565  1.00  0.00    -0.050 A
HETATM   13  C19 UNL     1      39.599  -2.904  64.732  1.00  0.00     0.049 C
HETATM   14  O3  UNL     1      43.984  -5.322  60.583  1.00  0.00    -0.193 OA
HETATM   15  O4  UNL     1      45.186  -5.619  60.878  1.00  0.00    -0.224 OA
HETATM   16  C20 UNL     1      45.744  -5.075  62.040  1.00  0.00     0.102 C
HETATM   17  C21 UNL     1      45.123  -5.899  63.128  1.00  0.00     0.050 C
HETATM   18  C22 UNL     1      47.146  -5.503  62.022  1.00  0.00     0.050 C
ENDROOT
BRANCH   1  19
HETATM   19  C3  UNL     1      45.433  -3.091  60.664  1.00  0.00    -0.002 C
HETATM   20  C4  UNL     1      46.697  -3.016  59.988  1.00  0.00     0.011 C
BRANCH  19  21
HETATM   21  C2  UNL     1      44.658  -1.816  60.386  1.00  0.00     0.001 C
HETATM   22  C1  UNL     1      43.917  -2.047  59.067  1.00  0.00     0.005 C
ENDBRANCH  19  21
ENDBRANCH   1  19
BRANCH   1  23
HETATM   23  C6  UNL     1      46.260  -2.842  63.011  1.00  0.00    -0.006 C
HETATM   24  C7  UNL     1      47.377  -1.989  62.496  1.00  0.00     0.011 C
HETATM   25  C8  UNL     1      46.845  -3.378  64.253  1.00  0.00     0.011 C
ENDBRANCH   1  23
BRANCH   4  26
HETATM   26  O1  UNL     1      41.263  -5.766  60.826  1.00  0.00    -0.357 OA
ATOM     27  H1  UNL     1      40.737  -5.445  60.103  1.00  0.00     0.217 HD
ENDBRANCH   4  26
TORSDOF 4
ENDMDL