MODEL 3
REMARK VINA RESULT: -6.059800480      1.230      1.647
REMARK  4 active torsions:
REMARK  status: ('A' for Active; 'I' for Inactive)
REMARK    1  A    between atoms: O1_2  and  C2_3
REMARK    2  A    between atoms: C2_3  and  C3_4
REMARK    3  A    between atoms: C7_9  and  O3_11
REMARK    4  A    between atoms: O3_11  and  O4_12
ROOT
HETATM    1  C3  UNL     1      36.915  -0.527  63.061  1.00  0.00    -0.056 C
HETATM    2  C4  UNL     1      36.798   0.950  63.272  1.00  0.00     0.046 C
HETATM    3  C5  UNL     1      37.916  -1.246  63.537  1.00  0.00    -0.047 C
HETATM    4  C6  UNL     1      37.980  -2.695  63.273  1.00  0.00     0.206 C
HETATM    5  O2  UNL     1      38.258  -2.879  61.915  1.00  0.00    -0.348 OA
HETATM    6  C7  UNL     1      39.144  -3.924  61.690  1.00  0.00     0.197 C
HETATM    7  C8  UNL     1      38.753  -4.539  60.344  1.00  0.00     0.082 C
HETATM    8  C9  UNL     1      40.530  -3.328  61.619  1.00  0.00     0.104 C
HETATM    9  C10 UNL     1      41.595  -4.387  61.755  1.00  0.00    -0.082 C
HETATM   10  C11 UNL     1      41.837  -5.296  60.600  1.00  0.00     0.043 C
HETATM   11  C12 UNL     1      42.308  -4.543  62.836  1.00  0.00    -0.020 C
HETATM   12  C13 UNL     1      42.189  -3.724  64.066  1.00  0.00     0.060 C
HETATM   13  C14 UNL     1      42.884  -2.432  63.991  1.00  0.00    -0.084 C
HETATM   14  C15 UNL     1      43.859  -2.120  62.895  1.00  0.00     0.043 C
HETATM   15  C16 UNL     1      42.649  -1.522  64.906  1.00  0.00    -0.024 C
HETATM   16  C17 UNL     1      41.702  -1.705  66.050  1.00  0.00     0.028 C
HETATM   17  C18 UNL     1      40.715  -0.598  66.020  1.00  0.00     0.013 C
HETATM   18  C19 UNL     1      39.315  -1.024  65.624  1.00  0.00    -0.036 A
HETATM   19  C20 UNL     1      38.715  -2.212  66.306  1.00  0.00     0.016 C
HETATM   20  C21 UNL     1      38.359   0.182  65.558  1.00  0.00     0.019 A
HETATM   21  C22 UNL     1      38.930  -0.504  64.328  1.00  0.00     0.026 A
ENDROOT
BRANCH   1  22
HETATM   22  C2  UNL     1      35.854  -1.193  62.262  1.00  0.00     0.201 C
BRANCH  22  23
HETATM   23  O1  UNL     1      35.955  -0.851  60.899  1.00  0.00    -0.392 OA
HETATM   24  C1  UNL     1      35.517  -1.968  60.192  1.00  0.00     0.201 C
ENDBRANCH  22  23
ENDBRANCH   1  22
BRANCH   6  25
HETATM   25  O3  UNL     1      39.115  -4.900  62.652  1.00  0.00    -0.203 OA
BRANCH  25  26
HETATM   26  O4  UNL     1      38.522  -5.994  62.296  1.00  0.00    -0.247 OA
ATOM     27  H4  UNL     1      39.017  -6.536  61.692  1.00  0.00     0.253 HD
ENDBRANCH  25  26
ENDBRANCH   6  25
TORSDOF 4
ENDMDL