MODEL 1
REMARK VINA RESULT: -8.914486874      0.000      0.000
REMARK  4 active torsions:
REMARK  status: ('A' for Active; 'I' for Inactive)
REMARK    1  A    between atoms: S1_2  and  C2_3
REMARK    2  A    between atoms: C5_9  and  C6_10
REMARK    3  A    between atoms: C6_10  and  O3_12
REMARK    4  A    between atoms: O3_12  and  C7_13
ROOT
HETATM    1  C2  UNL     1      38.845  -3.062  62.755  1.00  0.00     0.100 A
HETATM    2  N1  UNL     1      38.162  -3.304  61.623  1.00  0.00    -0.254 N
ATOM      3  H1  UNL     1      38.412  -4.012  60.933  1.00  0.00     0.195 HD
HETATM    4  O1  UNL     1      37.141  -2.510  61.534  1.00  0.00    -0.241 OA
HETATM    5  C3  UNL     1      37.122  -1.733  62.590  1.00  0.00     0.086 A
HETATM    6  C4  UNL     1      38.197  -2.039  63.418  1.00  0.00     0.023 A
HETATM    7  C5  UNL     1      38.405  -1.312  64.667  1.00  0.00     0.127 C
HETATM    8  C17 UNL     1      37.134  -0.952  65.385  1.00  0.00    -0.000 C
HETATM    9  C18 UNL     1      36.819  -1.995  66.461  1.00  0.00     0.011 C
HETATM   10  C19 UNL     1      35.968  -0.679  64.530  1.00  0.00     0.012 C
HETATM   11  C20 UNL     1      36.227  -0.644  63.056  1.00  0.00     0.068 C
ENDROOT
BRANCH   7  12
HETATM   12  C6  UNL     1      39.261  -0.106  64.499  1.00  0.00     0.268 C
HETATM   13  O2  UNL     1      38.882   0.891  63.844  1.00  0.00    -0.264 OA
BRANCH  12  14
HETATM   14  O3  UNL     1      40.537  -0.031  65.069  1.00  0.00    -0.311 OA
BRANCH  14  15
HETATM   15  C7  UNL     1      40.832   0.706  66.208  1.00  0.00     0.165 C
HETATM   16  C8  UNL     1      39.768   0.376  67.282  1.00  0.00     0.070 C
HETATM   17  C9  UNL     1      40.082   1.141  68.516  1.00  0.00    -0.085 C
HETATM   18  C10 UNL     1      38.880   1.503  69.357  1.00  0.00     0.043 C
HETATM   19  C11 UNL     1      41.296   1.486  68.867  1.00  0.00    -0.020 C
HETATM   20  C12 UNL     1      42.494   1.155  68.079  1.00  0.00     0.064 C
HETATM   21  C13 UNL     1      42.109   0.325  66.861  1.00  0.00    -0.045 C
HETATM   22  C14 UNL     1      42.922  -0.635  66.522  1.00  0.00    -0.082 C
HETATM   23  C15 UNL     1      44.164  -0.866  67.299  1.00  0.00     0.043 C
HETATM   24  C16 UNL     1      42.657  -1.531  65.379  1.00  0.00     0.043 C
ENDBRANCH  14  15
ENDBRANCH  12  14
ENDBRANCH   7  12
BRANCH   1  25
HETATM   25  S1  UNL     1      40.317  -3.854  63.375  1.00  0.00    -0.114 SA
HETATM   26  C1  UNL     1      41.204  -4.594  62.002  1.00  0.00     0.097 C
ENDBRANCH   1  25
TORSDOF 4
ENDMDL