MODEL 5
REMARK VINA RESULT: -8.491961870      2.393      4.762
REMARK  4 active torsions:
REMARK  status: ('A' for Active; 'I' for Inactive)
REMARK    1  A    between atoms: C2_2  and  C3_3
REMARK    2  A    between atoms: C9_9  and  S1_10
REMARK    3  A    between atoms: S1_10  and  C10_13
REMARK    4  A    between atoms: C11_14  and  O3_15
ROOT
HETATM    1  C10 UNL     1      37.736  -2.218  64.610  1.00  0.00     0.104 A
HETATM    2  C11 UNL     1      38.757  -2.993  64.074  1.00  0.00     0.088 A
HETATM    3  C12 UNL     1      38.897  -3.219  62.735  1.00  0.00     0.051 A
HETATM    4  C13 UNL     1      37.991  -2.663  61.810  1.00  0.00    -0.015 A
HETATM    5  C14 UNL     1      38.009  -2.806  60.459  1.00  0.00     0.027 A
HETATM    6  C15 UNL     1      37.025  -2.174  59.759  1.00  0.00    -0.020 A
HETATM    7  C16 UNL     1      36.793  -2.151  58.282  1.00  0.00     0.056 C
HETATM    8  S2  UNL     1      36.109  -1.406  60.975  1.00  0.00    -0.094 SA
HETATM    9  C17 UNL     1      36.999  -1.907  62.343  1.00  0.00     0.023 A
HETATM   10  C18 UNL     1      36.845  -1.666  63.727  1.00  0.00    -0.019 A
HETATM   11  C19 UNL     1      35.740  -0.760  64.084  1.00  0.00     0.051 C
ENDROOT
BRANCH   1  12
HETATM   12  S1  UNL     1      37.637  -1.884  66.306  1.00  0.00     0.210 S
HETATM   13  O1  UNL     1      36.149  -2.030  66.634  1.00  0.00    -0.217 OA
HETATM   14  O2  UNL     1      38.262  -3.009  67.126  1.00  0.00    -0.217 OA
BRANCH  12  15
HETATM   15  C9  UNL     1      38.194  -0.343  66.819  1.00  0.00     0.071 A
HETATM   16  C7  UNL     1      39.501   0.014  66.924  1.00  0.00    -0.034 A
HETATM   17  C5  UNL     1      39.818   1.306  67.361  1.00  0.00    -0.054 A
HETATM   18  C8  UNL     1      40.618  -0.887  66.596  1.00  0.00     0.050 C
HETATM   19  C4  UNL     1      38.857   2.221  67.687  1.00  0.00     0.014 A
HETATM   20  C6  UNL     1      41.245   1.709  67.480  1.00  0.00     0.049 C
HETATM   21  C3  UNL     1      37.530   1.878  67.588  1.00  0.00    -0.057 A
HETATM   22  C20 UNL     1      37.238   0.616  67.161  1.00  0.00     0.031 A
BRANCH  21  23
HETATM   23  C2  UNL     1      36.446   2.855  67.937  1.00  0.00     0.034 C
HETATM   24  C1  UNL     1      35.377   2.863  66.879  1.00  0.00     0.010 C
ENDBRANCH  21  23
ENDBRANCH  12  15
ENDBRANCH   1  12
BRANCH   2  25
HETATM   25  O3  UNL     1      39.685  -3.566  64.982  1.00  0.00    -0.359 OA
ATOM     26  H3  UNL     1      39.616  -4.499  65.144  1.00  0.00     0.217 HD
ENDBRANCH   2  25
TORSDOF 4
ENDMDL