MODEL 4
REMARK VINA RESULT: -7.515103191      1.389      1.539
REMARK  6 active torsions:
REMARK  status: ('A' for Active; 'I' for Inactive)
REMARK    1  A    between atoms: C4_7  and  C5_8
REMARK    2  A    between atoms: C5_8  and  C6_10
REMARK    3  A    between atoms: C7_11  and  C8_12
REMARK    4  A    between atoms: C10_14  and  C11_15
REMARK    5  A    between atoms: C15_19  and  O2_20
REMARK    6  A    between atoms: C16_22  and  C17_23
ROOT
HETATM    1  C8  UNL     1      41.398  -1.478  65.348  1.00  0.00    -0.029 A
HETATM    2  C9  UNL     1      40.100  -1.664  64.946  1.00  0.00     0.022 A
HETATM    3  C10 UNL     1      39.106  -0.965  65.552  1.00  0.00    -0.016 A
HETATM    4  C15 UNL     1      39.377  -0.059  66.578  1.00  0.00     0.080 A
HETATM    5  C16 UNL     1      40.700   0.158  67.020  1.00  0.00    -0.010 A
HETATM    6  C21 UNL     1      41.682  -0.556  66.388  1.00  0.00    -0.042 A
HETATM    7  C22 UNL     1      43.093  -0.323  66.697  1.00  0.00     0.049 C
ENDROOT
BRANCH   1   8
HETATM    8  C7  UNL     1      42.492  -2.232  64.761  1.00  0.00     0.016 C
HETATM    9  C6  UNL     1      42.332  -3.365  64.107  1.00  0.00     0.057 C
BRANCH   9  10
HETATM   10  C5  UNL     1      43.455  -4.084  63.538  1.00  0.00     0.191 C
HETATM   11  O1  UNL     1      43.407  -5.319  63.416  1.00  0.00    -0.287 OA
BRANCH  10  12
HETATM   12  C4  UNL     1      44.666  -3.385  63.096  1.00  0.00     0.078 A
HETATM   13  C2  UNL     1      44.890  -2.777  61.886  1.00  0.00     0.026 A
HETATM   14  C1  UNL     1      43.827  -2.763  60.795  1.00  0.00     0.070 C
HETATM   15  N1  UNL     1      46.042  -2.217  61.713  1.00  0.00    -0.362 N
HETATM   16  C3  UNL     1      46.949  -2.241  62.675  1.00  0.00     0.139 A
ATOM     17  H1  UNL     1      46.253  -1.754  60.829  1.00  0.00     0.165 HD
HETATM   18  S1  UNL     1      46.141  -3.105  63.907  1.00  0.00    -0.079 SA
ENDBRANCH  10  12
ENDBRANCH   9  10
ENDBRANCH   1   8
BRANCH   3  19
HETATM   19  C11 UNL     1      37.703  -1.183  65.100  1.00  0.00    -0.021 C
HETATM   20  C12 UNL     1      36.825  -1.665  66.231  1.00  0.00     0.019 C
HETATM   21  C13 UNL     1      37.670  -2.215  64.011  1.00  0.00     0.019 C
HETATM   22  C14 UNL     1      37.200   0.119  64.509  1.00  0.00     0.019 C
ENDBRANCH   3  19
BRANCH   5  23
HETATM   23  C17 UNL     1      40.848   1.063  68.113  1.00  0.00    -0.021 C
HETATM   24  C18 UNL     1      39.972   1.064  69.303  1.00  0.00     0.019 C
HETATM   25  C19 UNL     1      42.270   1.011  68.735  1.00  0.00     0.019 C
HETATM   26  C20 UNL     1      40.767   2.534  67.593  1.00  0.00     0.019 C
ENDBRANCH   5  23
BRANCH   4  27
HETATM   27  O2  UNL     1      38.342   0.565  67.096  1.00  0.00    -0.360 OA
ATOM     28  H2  UNL     1      37.497   0.148  66.982  1.00  0.00     0.217 HD
ENDBRANCH   4  27
TORSDOF 6
ENDMDL