MODEL 4
REMARK VINA RESULT: -8.655384242      1.749      2.682
REMARK  4 active torsions:
REMARK  status: ('A' for Active; 'I' for Inactive)
REMARK    1  A    between atoms: C4_4  and  C5_5
REMARK    2  A    between atoms: C5_5  and  C6_6
REMARK    3  A    between atoms: C6_6  and  C7_7
REMARK    4  A    between atoms: C20_23  and  O4_24
ROOT
HETATM    1  C7  UNL     1      38.260  -0.442  65.756  1.00  0.00     0.074 C
HETATM    2  C8  UNL     1      37.085  -0.003  66.572  1.00  0.00     0.047 C
HETATM    3  O1  UNL     1      39.493  -0.189  66.397  1.00  0.00    -0.338 OA
HETATM    4  C9  UNL     1      40.651  -0.798  65.947  1.00  0.00     0.087 A
HETATM    5  C10 UNL     1      41.851  -0.326  66.399  1.00  0.00    -0.027 A
HETATM    6  C11 UNL     1      41.886   0.810  67.345  1.00  0.00     0.051 C
HETATM    7  C12 UNL     1      43.059  -0.896  65.984  1.00  0.00     0.024 A
HETATM    8  C13 UNL     1      42.979  -1.937  65.115  1.00  0.00     0.005 A
HETATM    9  C14 UNL     1      44.151  -2.543  64.668  1.00  0.00    -0.043 A
HETATM   10  C15 UNL     1      45.484  -2.075  65.123  1.00  0.00     0.049 C
HETATM   11  C16 UNL     1      44.069  -3.607  63.781  1.00  0.00     0.090 A
HETATM   12  C17 UNL     1      42.829  -4.021  63.375  1.00  0.00     0.288 A
HETATM   13  O2  UNL     1      42.774  -4.994  62.562  1.00  0.00    -0.260 OA
HETATM   14  O3  UNL     1      41.755  -3.422  63.820  1.00  0.00    -0.274 OA
HETATM   15  C18 UNL     1      41.775  -2.412  64.661  1.00  0.00     0.102 A
HETATM   16  C19 UNL     1      40.571  -1.848  65.071  1.00  0.00     0.040 A
HETATM   17  C20 UNL     1      39.285  -2.378  64.566  1.00  0.00     0.167 C
HETATM   18  C21 UNL     1      38.180  -1.927  65.509  1.00  0.00     0.014 C
HETATM   19  C22 UNL     1      36.823  -2.351  64.981  1.00  0.00     0.021 C
HETATM   20  C23 UNL     1      38.409  -2.629  66.826  1.00  0.00     0.021 C
ENDROOT
BRANCH   1  21
HETATM   21  C6  UNL     1      38.272   0.355  64.460  1.00  0.00     0.043 C
BRANCH  21  22
HETATM   22  C5  UNL     1      36.982   1.133  64.406  1.00  0.00     0.030 C
BRANCH  22  23
HETATM   23  C4  UNL     1      36.143   0.748  63.242  1.00  0.00    -0.025 C
HETATM   24  C2  UNL     1      34.994   1.263  62.937  1.00  0.00    -0.091 C
HETATM   25  C1  UNL     1      34.398   2.330  63.772  1.00  0.00     0.042 C
HETATM   26  C3  UNL     1      34.243   0.800  61.749  1.00  0.00     0.042 C
ENDBRANCH  22  23
ENDBRANCH  21  22
ENDBRANCH   1  21
BRANCH  17  27
HETATM   27  O4  UNL     1      39.248  -3.753  64.499  1.00  0.00    -0.390 OA
ATOM     28  H4  UNL     1      38.905  -4.082  63.677  1.00  0.00     0.210 HD
ENDBRANCH  17  27
TORSDOF 4
ENDMDL