MODEL 5
REMARK VINA RESULT: -7.982890637      2.035      2.641
REMARK  4 active torsions:
REMARK  status: ('A' for Active; 'I' for Inactive)
REMARK    1  A    between atoms: C2_2  and  C3_3
REMARK    2  A    between atoms: C4_4  and  C5_5
REMARK    3  A    between atoms: C8_8  and  C10_10
REMARK    4  A    between atoms: C14_14  and  C15_15
ROOT
HETATM    1  C5  UNL     1      40.526  -1.105  65.386  1.00  0.00    -0.014 C
HETATM    2  C6  UNL     1      39.230  -0.796  65.715  1.00  0.00    -0.058 C
HETATM    3  C7  UNL     1      39.119   0.369  66.567  1.00  0.00     0.045 C
HETATM    4  C8  UNL     1      38.009  -1.512  65.269  1.00  0.00     0.024 C
HETATM    5  C9  UNL     1      36.823  -0.661  65.634  1.00  0.00     0.027 C
HETATM    6  C12 UNL     1      38.006  -1.797  63.814  1.00  0.00     0.049 A
HETATM    7  C13 UNL     1      36.946  -1.506  63.004  1.00  0.00     0.066 A
HETATM    8  C14 UNL     1      37.298  -1.925  61.733  1.00  0.00     0.127 A
HETATM    9  N1  UNL     1      38.517  -2.437  61.821  1.00  0.00    -0.287 N
ATOM     10  H1  UNL     1      39.032  -2.827  61.032  1.00  0.00     0.188 HD
HETATM   11  N2  UNL     1      38.981  -2.381  63.049  1.00  0.00    -0.257 N
HETATM   12  C16 UNL     1      40.283  -2.849  63.502  1.00  0.00     0.081 A
HETATM   13  C17 UNL     1      40.921  -2.240  64.567  1.00  0.00     0.045 A
HETATM   14  S1  UNL     1      42.338  -3.141  64.749  1.00  0.00    -0.091 SA
HETATM   15  C18 UNL     1      42.123  -4.271  63.486  1.00  0.00    -0.012 A
HETATM   16  C19 UNL     1      43.046  -5.383  63.088  1.00  0.00     0.057 C
HETATM   17  C20 UNL     1      40.922  -3.904  62.952  1.00  0.00    -0.019 A
HETATM   18  C21 UNL     1      40.349  -4.670  61.774  1.00  0.00     0.052 C
ENDROOT
BRANCH   1  19
HETATM   19  C4  UNL     1      41.562  -0.272  65.904  1.00  0.00     0.009 C
HETATM   20  C3  UNL     1      42.392  -0.565  66.864  1.00  0.00    -0.026 C
BRANCH  20  21
HETATM   21  C2  UNL     1      43.449   0.472  67.292  1.00  0.00     0.022 C
HETATM   22  C1  UNL     1      42.966   1.003  68.627  1.00  0.00     0.009 C
ENDBRANCH  20  21
ENDBRANCH   1  19
BRANCH   4  23
HETATM   23  C10 UNL     1      37.912  -2.882  65.939  1.00  0.00     0.015 C
HETATM   24  C11 UNL     1      37.965  -2.784  67.441  1.00  0.00     0.006 C
ENDBRANCH   4  23
BRANCH   8  25
HETATM   25  C15 UNL     1      36.492  -1.831  60.517  1.00  0.00     0.228 C
HETATM   26  O1  UNL     1      35.236  -1.855  60.589  1.00  0.00    -0.643 OA
HETATM   27  O2  UNL     1      37.058  -1.716  59.274  1.00  0.00    -0.643 OA
ENDBRANCH   8  25
TORSDOF 4
ENDMDL