MODEL 5
REMARK VINA RESULT: -6.321545955      2.266      3.687
REMARK  4 active torsions:
REMARK  status: ('A' for Active; 'I' for Inactive)
REMARK    1  A    between atoms: C4_4  and  O1_5
REMARK    2  A    between atoms: C5_7  and  C7_9
REMARK    3  A    between atoms: C7_9  and  C8_10
REMARK    4  A    between atoms: C8_10  and  C9_11
ROOT
HETATM    1  C1  UNL     1      38.009  -3.822  62.327  1.00  0.00     0.043 C
HETATM    2  C2  UNL     1      36.888  -2.815  62.701  1.00  0.00    -0.085 C
HETATM    3  C3  UNL     1      37.032  -2.132  63.811  1.00  0.00     0.007 C
HETATM    4  C4  UNL     1      36.273  -1.139  64.516  1.00  0.00     0.149 C
HETATM    5  C5  UNL     1      36.581   0.312  64.373  1.00  0.00    -0.008 C
HETATM    6  C6  UNL     1      36.290   0.831  65.831  1.00  0.00     0.018 C
HETATM    7  C12 UNL     1      35.489   1.066  63.646  1.00  0.00     0.039 C
HETATM    8  C13 UNL     1      35.458   1.048  62.185  1.00  0.00     0.138 C
HETATM    9  C14 UNL     1      34.110   0.866  61.532  1.00  0.00     0.037 C
HETATM   10  C15 UNL     1      33.284  -0.275  61.949  1.00  0.00     0.036 C
HETATM   11  C16 UNL     1      33.074  -1.331  60.917  1.00  0.00    -0.087 C
HETATM   12  C17 UNL     1      32.222  -0.946  59.730  1.00  0.00     0.043 C
HETATM   13  C18 UNL     1      33.567  -2.548  60.961  1.00  0.00    -0.024 C
HETATM   14  C19 UNL     1      34.437  -3.063  62.092  1.00  0.00     0.031 C
HETATM   15  C20 UNL     1      35.831  -2.779  61.685  1.00  0.00     0.037 C
HETATM   16  O2  UNL     1      35.773   2.425  61.839  1.00  0.00    -0.315 OA
HETATM   17  C21 UNL     1      35.039   3.179  62.741  1.00  0.00     0.263 C
HETATM   18  O3  UNL     1      34.292   4.183  62.540  1.00  0.00    -0.265 OA
HETATM   19  C22 UNL     1      35.348   2.501  64.056  1.00  0.00     0.089 C
HETATM   20  C23 UNL     1      34.166   2.760  64.961  1.00  0.00     0.021 C
ENDROOT
BRANCH   5  21
HETATM   21  C7  UNL     1      37.950   0.751  64.181  1.00  0.00     0.013 C
BRANCH  21  22
HETATM   22  C8  UNL     1      39.139  -0.045  64.430  1.00  0.00     0.005 C
BRANCH  22  23
HETATM   23  C9  UNL     1      39.606   0.299  65.869  1.00  0.00    -0.023 C
HETATM   24  C10 UNL     1      41.077   0.561  65.841  1.00  0.00     0.009 C
HETATM   25  C11 UNL     1      39.283  -0.790  66.825  1.00  0.00     0.009 C
ENDBRANCH  22  23
ENDBRANCH  21  22
ENDBRANCH   5  21
BRANCH   4  26
HETATM   26  O1  UNL     1      36.326  -1.554  65.903  1.00  0.00    -0.391 OA
ATOM     27  H1  UNL     1      36.866  -0.898  66.330  1.00  0.00     0.210 HD
ENDBRANCH   4  26
TORSDOF 4
ENDMDL