MODEL 2
REMARK VINA RESULT: -8.769976564      2.434      4.286
REMARK  6 active torsions:
REMARK  status: ('A' for Active; 'I' for Inactive)
REMARK    1  A    between atoms: C2_2  and  O1_5
REMARK    2  A    between atoms: O1_5  and  C5_6
REMARK    3  A    between atoms: C5_6  and  C6_7
REMARK    4  A    between atoms: C6_7  and  C7_8
REMARK    5  A    between atoms: C7_8  and  C8_9
REMARK       I    between atoms: C8_9  and  N1_11
REMARK    6  A    between atoms: N2_25  and  O3_27
ROOT
HETATM    1  C8  UNL     1       3.374  24.566  -3.102  1.00  0.00     0.229 C
HETATM    2  O2  UNL     1       3.914  23.628  -3.739  1.00  0.00    -0.273 OA
HETATM    3  N1  UNL     1       2.184  24.446  -2.339  1.00  0.00    -0.280 N
HETATM    4  C9  UNL     1       1.920  25.355  -1.266  1.00  0.00     0.059 A
HETATM    5  C10 UNL     1       2.981  26.002  -0.618  1.00  0.00     0.031 A
HETATM    6  C11 UNL     1       2.823  26.780   0.506  1.00  0.00     0.002 A
HETATM    7  C12 UNL     1       1.580  26.950   1.049  1.00  0.00     0.002 A
HETATM    8  C13 UNL     1       0.506  26.338   0.459  1.00  0.00     0.021 A
HETATM    9  C14 UNL     1       0.710  25.572  -0.661  1.00  0.00     0.033 A
HETATM   10  S1  UNL     1      -0.750  24.801  -1.311  1.00  0.00    -0.086 SA
HETATM   11  C15 UNL     1      -0.173  23.598  -2.486  1.00  0.00     0.033 A
HETATM   12  C16 UNL     1      -1.128  22.744  -2.974  1.00  0.00     0.021 A
HETATM   13  C17 UNL     1      -0.809  21.828  -3.931  1.00  0.00     0.002 A
HETATM   14  C18 UNL     1       0.487  21.806  -4.373  1.00  0.00     0.002 A
HETATM   15  C19 UNL     1       1.473  22.666  -3.889  1.00  0.00     0.031 A
HETATM   16  C20 UNL     1       1.150  23.589  -2.922  1.00  0.00     0.059 A
ENDROOT
BRANCH   1  17
HETATM   17  C7  UNL     1       4.187  25.771  -3.337  1.00  0.00     0.112 C
BRANCH  17  18
HETATM   18  C6  UNL     1       5.680  25.467  -3.235  1.00  0.00     0.095 C
BRANCH  18  19
HETATM   19  C5  UNL     1       6.511  26.637  -3.492  1.00  0.00     0.138 C
HETATM   20  N2  UNL     1       7.323  27.027  -2.571  1.00  0.00    -0.251 N
ATOM     21  H2  UNL     1       7.905  27.846  -2.751  1.00  0.00     0.196 HD
BRANCH  19  22
HETATM   22  O1  UNL     1       6.497  27.373  -4.667  1.00  0.00    -0.328 OA
BRANCH  22  23
HETATM   23  C2  UNL     1       7.522  27.195  -5.626  1.00  0.00     0.058 C
HETATM   24  C1  UNL     1       7.065  27.801  -6.951  1.00  0.00     0.045 C
HETATM   25  C3  UNL     1       8.788  27.922  -5.219  1.00  0.00     0.045 C
HETATM   26  C4  UNL     1       7.815  25.749  -5.874  1.00  0.00     0.045 C
ENDBRANCH  22  23
ENDBRANCH  19  22
BRANCH  20  27
HETATM   27  O3  UNL     1       7.440  26.393  -1.361  1.00  0.00    -0.288 OA
ATOM     28  H3  UNL     1       8.101  26.623  -0.718  1.00  0.00     0.244 HD
ENDBRANCH  20  27
ENDBRANCH  18  19
ENDBRANCH  17  18
ENDBRANCH   1  17
TORSDOF 6
ENDMDL