MODEL 4
REMARK VINA RESULT: -7.979573794      1.975      2.870
REMARK  7 active torsions:
REMARK  status: ('A' for Active; 'I' for Inactive)
REMARK    1  A    between atoms: C2_2  and  C3_3
REMARK    2  A    between atoms: C2_2  and  C17_24
REMARK    3  A    between atoms: C4_5  and  C5_6
REMARK    4  A    between atoms: N1_8  and  O1_10
REMARK    5  A    between atoms: C8_13  and  C9_14
REMARK    6  A    between atoms: C13_18  and  O2_19
REMARK    7  A    between atoms: O2_19  and  C14_20
ROOT
HETATM    1  C3  UNL     1       4.235  24.087  -3.548  1.00  0.00     0.023 A
HETATM    2  S1  UNL     1       5.864  24.212  -4.088  1.00  0.00    -0.087 SA
HETATM    3  C4  UNL     1       5.874  22.928  -5.228  1.00  0.00     0.030 A
HETATM    4  C7  UNL     1       4.603  22.450  -5.145  1.00  0.00     0.034 A
HETATM    5  C8  UNL     1       3.752  23.054  -4.271  1.00  0.00    -0.007 A
ENDROOT
BRANCH   5   6
HETATM    6  C9  UNL     1       2.314  22.617  -4.180  1.00  0.00    -0.022 A
HETATM    7  C10 UNL     1       1.938  21.370  -4.633  1.00  0.00     0.012 A
HETATM    8  C11 UNL     1       0.609  21.014  -4.521  1.00  0.00     0.004 A
HETATM    9  C12 UNL     1      -0.321  21.874  -3.975  1.00  0.00     0.037 A
HETATM   10  C13 UNL     1       0.037  23.125  -3.518  1.00  0.00     0.080 A
HETATM   11  C16 UNL     1       1.369  23.466  -3.637  1.00  0.00     0.049 A
BRANCH  10  12
HETATM   12  O2  UNL     1      -0.887  24.011  -2.964  1.00  0.00    -0.279 OA
BRANCH  12  13
HETATM   13  C14 UNL     1      -0.971  24.227  -1.587  1.00  0.00     0.260 C
HETATM   14  C15 UNL     1      -0.804  25.598  -1.011  1.00  0.00     0.126 C
HETATM   15  O3  UNL     1      -1.192  23.214  -0.875  1.00  0.00    -0.265 OA
ENDBRANCH  12  13
ENDBRANCH  10  12
ENDBRANCH   5   6
BRANCH   1  16
HETATM   16  C2  UNL     1       3.599  24.966  -2.534  1.00  0.00    -0.042 C
HETATM   17  C1  UNL     1       2.839  25.938  -2.986  1.00  0.00     0.021 C
BRANCH  16  18
HETATM   18  C17 UNL     1       3.836  24.729  -1.092  1.00  0.00    -0.024 C
HETATM   19  C18 UNL     1       2.579  24.974  -0.274  1.00  0.00     0.019 C
HETATM   20  C19 UNL     1       4.243  23.293  -0.819  1.00  0.00     0.019 C
HETATM   21  C20 UNL     1       4.895  25.678  -0.602  1.00  0.00     0.019 C
ENDBRANCH  16  18
ENDBRANCH   1  16
BRANCH   3  22
HETATM   22  C5  UNL     1       7.015  22.496  -6.065  1.00  0.00     0.045 C
HETATM   23  C6  UNL     1       7.004  21.038  -6.456  1.00  0.00     0.071 C
HETATM   24  N1  UNL     1       7.916  23.269  -6.423  1.00  0.00    -0.273 N
ATOM     25  H1  UNL     1       8.641  22.839  -6.998  1.00  0.00     0.194 HD
BRANCH  24  26
HETATM   26  O1  UNL     1       8.094  24.564  -6.183  1.00  0.00    -0.290 OA
ATOM     27  H1  UNL     1       7.740  25.330  -6.618  1.00  0.00     0.244 HD
ENDBRANCH  24  26
ENDBRANCH   3  22
TORSDOF 7
ENDMDL