MODEL 1
REMARK VINA RESULT: -8.306800298      0.000      0.000
REMARK  3 active torsions:
REMARK  status: ('A' for Active; 'I' for Inactive)
REMARK    1  A    between atoms: O1_2  and  C2_3
REMARK    2  A    between atoms: C6_7  and  O2_8
REMARK    3  A    between atoms: C8_10  and  O3_11
ROOT
HETATM    1  C2  UNL     1       0.975  26.810   0.869  1.00  0.00     0.105 A
HETATM    2  C3  UNL     1       2.254  26.463   0.487  1.00  0.00     0.060 A
HETATM    3  C4  UNL     1       2.447  25.675  -0.630  1.00  0.00     0.034 A
HETATM    4  C5  UNL     1       1.420  25.193  -1.414  1.00  0.00     0.086 A
HETATM    5  C6  UNL     1       0.137  25.544  -1.022  1.00  0.00     0.132 A
HETATM    6  C8  UNL     1      -0.056  26.335   0.095  1.00  0.00     0.137 A
HETATM    7  N1  UNL     1       1.430  24.385  -2.580  1.00  0.00    -0.352 N
ATOM      8  H1  UNL     1       0.526  24.298  -3.045  1.00  0.00     0.166 HD
HETATM    9  C10 UNL     1       2.487  23.678  -3.208  1.00  0.00     0.041 A
HETATM   10  C11 UNL     1       2.073  22.519  -3.813  1.00  0.00     0.037 A
HETATM   11  C12 UNL     1       2.975  21.715  -4.472  1.00  0.00    -0.054 A
HETATM   12  C13 UNL     1       2.483  20.468  -5.114  1.00  0.00     0.049 C
HETATM   13  C14 UNL     1       4.312  22.021  -4.560  1.00  0.00    -0.055 A
HETATM   14  C15 UNL     1       5.239  21.129  -5.277  1.00  0.00     0.049 C
HETATM   15  C16 UNL     1       4.735  23.209  -3.939  1.00  0.00     0.018 A
HETATM   16  C17 UNL     1       3.836  24.018  -3.278  1.00  0.00    -0.013 A
HETATM   17  C18 UNL     1       4.467  25.200  -2.707  1.00  0.00     0.035 C
HETATM   18  C19 UNL     1       3.858  26.415  -3.405  1.00  0.00     0.032 C
HETATM   19  C20 UNL     1       5.957  25.179  -2.903  1.00  0.00     0.032 C
HETATM   20  S1  UNL     1       4.187  25.361  -0.921  1.00  0.00    -0.113 SA
ENDROOT
BRANCH   1  21
HETATM   21  O1  UNL     1       0.695  27.598   1.976  1.00  0.00    -0.353 OA
HETATM   22  C1  UNL     1       1.008  28.974   2.022  1.00  0.00     0.210 C
ENDBRANCH   1  21
BRANCH   6  23
HETATM   23  O3  UNL     1      -1.356  26.663   0.450  1.00  0.00    -0.351 OA
HETATM   24  C9  UNL     1      -1.994  27.788  -0.119  1.00  0.00     0.210 C
ENDBRANCH   6  23
BRANCH   5  25
HETATM   25  O2  UNL     1      -0.935  25.081  -1.781  1.00  0.00    -0.351 OA
HETATM   26  C7  UNL     1      -1.597  23.877  -1.377  1.00  0.00     0.210 C
ENDBRANCH   5  25
TORSDOF 3
ENDMDL