MODEL 3
REMARK VINA RESULT: -7.649811942      1.840      4.721
REMARK  6 active torsions:
REMARK  status: ('A' for Active; 'I' for Inactive)
REMARK    1  A    between atoms: C5_5  and  C6_6
REMARK    2  A    between atoms: C6_6  and  O2_8
REMARK    3  A    between atoms: O2_8  and  C7_9
REMARK    4  A    between atoms: C9_11  and  S1_12
REMARK    5  A    between atoms: S1_12  and  C10_13
REMARK    6  A    between atoms: C13_17  and  C14_18
ROOT
HETATM    1  C7  UNL     1       5.534  26.274  -3.060  1.00  0.00     0.095 A
HETATM    2  C8  UNL     1       5.011  26.427  -1.835  1.00  0.00     0.064 A
HETATM    3  C9  UNL     1       5.468  27.476  -1.077  1.00  0.00     0.044 A
HETATM    4  S2  UNL     1       6.613  28.207  -2.105  1.00  0.00    -0.084 SA
HETATM    5  C13 UNL     1       6.483  27.174  -3.457  1.00  0.00     0.025 A
ENDROOT
BRANCH   1   6
HETATM    6  O2  UNL     1       5.156  25.231  -3.956  1.00  0.00    -0.274 OA
BRANCH   6   7
HETATM    7  C6  UNL     1       4.707  24.026  -3.395  1.00  0.00     0.304 C
HETATM    8  O1  UNL     1       5.550  23.340  -2.742  1.00  0.00    -0.259 OA
BRANCH   7   9
HETATM    9  C5  UNL     1       3.349  23.565  -3.540  1.00  0.00     0.107 A
HETATM   10  C4  UNL     1       2.361  24.047  -2.726  1.00  0.00     0.025 A
HETATM   11  C3  UNL     1       1.071  23.582  -2.892  1.00  0.00     0.026 A
HETATM   12  C2  UNL     1       0.790  22.648  -3.863  1.00  0.00     0.008 A
HETATM   13  C1  UNL     1      -0.591  22.154  -4.036  1.00  0.00     0.068 C
HETATM   14  N1  UNL     1       1.790  22.211  -4.630  1.00  0.00    -0.327 N
HETATM   15  C18 UNL     1       3.053  22.637  -4.502  1.00  0.00     0.262 A
ATOM     16  H1  UNL     1       1.582  21.519  -5.350  1.00  0.00     0.169 HD
HETATM   17  O3  UNL     1       3.949  22.165  -5.280  1.00  0.00    -0.267 OA
ENDBRANCH   7   9
ENDBRANCH   6   7
ENDBRANCH   1   6
BRANCH   5  18
HETATM   18  C14 UNL     1       7.258  27.283  -4.735  1.00  0.00    -0.015 C
HETATM   19  C15 UNL     1       8.587  27.984  -4.414  1.00  0.00     0.020 C
HETATM   20  C16 UNL     1       6.587  28.106  -5.782  1.00  0.00     0.020 C
HETATM   21  C17 UNL     1       7.606  25.945  -5.304  1.00  0.00     0.020 C
ENDBRANCH   5  18
BRANCH   3  22
HETATM   22  S1  UNL     1       4.952  27.924   0.598  1.00  0.00    -0.118 SA
BRANCH  22  23
HETATM   23  C10 UNL     1       3.150  28.005   0.707  1.00  0.00     0.045 C
HETATM   24  C11 UNL     1       2.707  28.884   1.856  1.00  0.00     0.021 C
HETATM   25  C12 UNL     1       2.515  26.638   0.771  1.00  0.00     0.021 C
ENDBRANCH  22  23
ENDBRANCH   3  22
TORSDOF 6
ENDMDL