MODEL 5
REMARK VINA RESULT: -7.057934760      3.445      8.055
REMARK  6 active torsions:
REMARK  status: ('A' for Active; 'I' for Inactive)
REMARK    1  A    between atoms: C5_7  and  C6_8
REMARK    2  A    between atoms: C7_11  and  C8_12
REMARK    3  A    between atoms: C8_12  and  N3_13
REMARK    4  A    between atoms: N3_13  and  C9_14
REMARK    5  A    between atoms: N3_13  and  C12_17
REMARK    6  A    between atoms: C20_26  and  O1_27
ROOT
HETATM    1  C6  UNL     1       2.819  23.573  -3.645  1.00  0.00     0.087 A
HETATM    2  N2  UNL     1       3.913  24.232  -3.434  1.00  0.00    -0.351 N
ATOM      3  H2  UNL     1       3.893  24.990  -2.752  1.00  0.00     0.166 HD
HETATM    4  C7  UNL     1       5.020  23.987  -4.033  1.00  0.00     0.040 A
HETATM    5  C16 UNL     1       4.968  22.928  -4.959  1.00  0.00     0.005 A
HETATM    6  C17 UNL     1       6.060  22.384  -5.820  1.00  0.00     0.058 C
HETATM    7  S1  UNL     1       3.346  22.438  -4.839  1.00  0.00    -0.074 SA
ENDROOT
BRANCH   1   8
HETATM    8  C5  UNL     1       1.505  23.729  -3.050  1.00  0.00     0.029 A
HETATM    9  C3  UNL     1       1.271  24.775  -2.164  1.00  0.00     0.019 A
HETATM   10  N1  UNL     1       0.008  24.868  -1.649  1.00  0.00    -0.360 N
HETATM   11  C4  UNL     1       2.249  25.771  -1.742  1.00  0.00     0.069 C
HETATM   12  C2  UNL     1      -0.981  24.037  -1.939  1.00  0.00     0.039 A
ATOM     13  H1  UNL     1      -0.186  25.629  -0.998  1.00  0.00     0.165 HD
HETATM   14  C1  UNL     1      -2.336  24.232  -1.313  1.00  0.00     0.071 C
HETATM   15  C20 UNL     1      -0.787  22.991  -2.809  1.00  0.00     0.094 A
HETATM   16  C18 UNL     1       0.492  22.858  -3.361  1.00  0.00    -0.012 A
HETATM   17  C19 UNL     1       0.652  21.716  -4.292  1.00  0.00     0.052 C
BRANCH  15  18
HETATM   18  O1  UNL     1      -1.813  22.114  -3.121  1.00  0.00    -0.358 OA
ATOM     19  H1  UNL     1      -2.003  21.876  -4.020  1.00  0.00     0.217 HD
ENDBRANCH  15  18
ENDBRANCH   1   8
BRANCH   4  20
HETATM   20  C8  UNL     1       6.313  24.678  -3.817  1.00  0.00     0.176 C
BRANCH  20  21
HETATM   21  N3  UNL     1       6.345  26.092  -3.810  1.00  0.00    -0.396 N
BRANCH  21  22
HETATM   22  C9  UNL     1       7.143  26.680  -4.800  1.00  0.00     0.072 C
HETATM   23  C10 UNL     1       7.766  25.727  -5.818  1.00  0.00     0.031 C
HETATM   24  C11 UNL     1       6.494  27.853  -5.520  1.00  0.00     0.031 C
ENDBRANCH  21  22
BRANCH  21  25
HETATM   25  C12 UNL     1       6.350  26.563  -2.484  1.00  0.00     0.017 C
HETATM   26  C13 UNL     1       5.218  27.544  -2.186  1.00  0.00     0.037 C
HETATM   27  C14 UNL     1       6.312  25.561  -1.367  1.00  0.00     0.037 C
HETATM   28  C15 UNL     1       7.646  27.340  -2.268  1.00  0.00     0.037 C
ENDBRANCH  21  25
ENDBRANCH  20  21
ENDBRANCH   4  20
TORSDOF 6
ENDMDL