MODEL 2
REMARK VINA RESULT: -9.051961540      2.885      7.361
REMARK  3 active torsions:
REMARK  status: ('A' for Active; 'I' for Inactive)
REMARK    1  A    between atoms: C5_5  and  C6_6
REMARK       I    between atoms: C6_6  and  N1_8
REMARK       I    between atoms: N1_8  and  C7_10
REMARK       I    between atoms: C7_10  and  N2_12
REMARK    2  A    between atoms: N3_14  and  C8_16
REMARK    3  A    between atoms: C9_17  and  C10_18
ROOT
HETATM    1  C6  UNL     1       3.065  25.292  -2.557  1.00  0.00     0.259 C
HETATM    2  O1  UNL     1       3.426  26.070  -3.497  1.00  0.00    -0.267 OA
HETATM    3  N1  UNL     1       3.818  25.277  -1.366  1.00  0.00    -0.274 N
ATOM      4  H1  UNL     1       3.535  24.656  -0.608  1.00  0.00     0.173 HD
HETATM    5  C7  UNL     1       4.975  26.115  -1.193  1.00  0.00     0.341 C
HETATM    6  O2  UNL     1       5.282  26.858  -2.151  1.00  0.00    -0.245 OA
HETATM    7  N2  UNL     1       5.746  26.130  -0.033  1.00  0.00    -0.251 N
ATOM      8  H2  UNL     1       6.191  25.251   0.226  1.00  0.00     0.191 HD
HETATM    9  N3  UNL     1       5.952  27.100   0.726  1.00  0.00    -0.295 N
ATOM     10  H3  UNL     1       6.542  26.972   1.549  1.00  0.00     0.187 HD
ENDROOT
BRANCH   9  11
HETATM   11  C8  UNL     1       5.368  28.418   0.463  1.00  0.00     0.072 A
HETATM   12  C9  UNL     1       6.054  29.427  -0.117  1.00  0.00     0.010 A
HETATM   13  C16 UNL     1       5.379  30.606  -0.303  1.00  0.00     0.065 A
HETATM   14  S1  UNL     1       3.831  30.281   0.326  1.00  0.00    -0.104 SA
HETATM   15  C17 UNL     1       4.066  28.669   0.810  1.00  0.00     0.007 A
HETATM   16  C18 UNL     1       3.074  27.755   1.460  1.00  0.00     0.059 C
BRANCH  12  17
HETATM   17  C10 UNL     1       7.483  29.316  -0.556  1.00  0.00    -0.023 A
HETATM   18  C11 UNL     1       8.501  29.757   0.261  1.00  0.00     0.012 A
HETATM   19  C12 UNL     1       9.821  29.646  -0.163  1.00  0.00     0.001 A
HETATM   20  C13 UNL     1      10.110  29.097  -1.397  1.00  0.00     0.000 A
HETATM   21  C14 UNL     1       9.102  28.649  -2.231  1.00  0.00     0.001 A
HETATM   22  C15 UNL     1       7.812  28.778  -1.770  1.00  0.00     0.012 A
ENDBRANCH  12  17
ENDBRANCH   9  11
BRANCH   1  23
HETATM   23  C5  UNL     1       1.900  24.466  -2.767  1.00  0.00     0.032 A
HETATM   24  C4  UNL     1       0.742  24.653  -2.085  1.00  0.00     0.017 A
HETATM   25  C3  UNL     1      -0.350  23.833  -2.322  1.00  0.00     0.007 A
HETATM   26  C2  UNL     1      -0.277  22.833  -3.241  1.00  0.00    -0.062 A
HETATM   27  C1  UNL     1      -1.436  21.951  -3.503  1.00  0.00     0.048 C
HETATM   28  C20 UNL     1       0.880  22.623  -3.943  1.00  0.00     0.007 A
HETATM   29  C19 UNL     1       1.942  23.427  -3.705  1.00  0.00     0.017 A
ENDBRANCH   1  23
TORSDOF 3
ENDMDL