MODEL 3
REMARK VINA RESULT: -8.050898890      1.630      2.270
REMARK  7 active torsions:
REMARK  status: ('A' for Active; 'I' for Inactive)
REMARK    1  A    between atoms: C2_2  and  C3_3
REMARK    2  A    between atoms: C3_3  and  C12_12
REMARK    3  A    between atoms: C4_4  and  C5_5
REMARK    4  A    between atoms: C12_12  and  O1_13
REMARK    5  A    between atoms: C12_12  and  C13_15
REMARK    6  A    between atoms: N1_19  and  C15_20
REMARK    7  A    between atoms: C19_24  and  O2_25
ROOT
HETATM    1  C12 UNL     1       5.171  23.515  -3.064  1.00  0.00     0.093 C
ENDROOT
BRANCH   1   2
HETATM    2  C3  UNL     1       4.601  22.861  -4.178  1.00  0.00    -0.023 C
HETATM    3  C4  UNL     1       3.265  22.968  -4.378  1.00  0.00     0.021 C
BRANCH   2   4
HETATM    4  C2  UNL     1       5.294  22.170  -5.324  1.00  0.00     0.037 C
HETATM    5  C1  UNL     1       6.429  22.952  -5.886  1.00  0.00     0.010 C
ENDBRANCH   2   4
BRANCH   3   6
HETATM    6  C5  UNL     1       2.225  23.518  -3.594  1.00  0.00    -0.035 A
HETATM    7  C6  UNL     1       2.326  24.692  -2.848  1.00  0.00     0.011 A
HETATM    8  C7  UNL     1       1.310  25.214  -2.095  1.00  0.00     0.001 A
HETATM    9  C8  UNL     1       0.094  24.564  -2.046  1.00  0.00     0.007 A
HETATM   10  C9  UNL     1      -0.046  23.398  -2.771  1.00  0.00    -0.061 A
HETATM   11  C10 UNL     1      -1.365  22.676  -2.733  1.00  0.00     0.048 C
HETATM   12  C11 UNL     1       0.975  22.878  -3.525  1.00  0.00     0.018 A
ENDBRANCH   3   6
ENDBRANCH   1   2
BRANCH   1  13
HETATM   13  O1  UNL     1       5.199  22.740  -1.964  1.00  0.00    -0.359 OA
ATOM     14  H1  UNL     1       5.803  22.011  -2.044  1.00  0.00     0.217 HD
ENDBRANCH   1  13
BRANCH   1  15
HETATM   15  C13 UNL     1       5.751  24.820  -2.780  1.00  0.00     0.092 A
HETATM   16  S1  UNL     1       6.695  25.702  -4.000  1.00  0.00    -0.053 SA
HETATM   17  C14 UNL     1       7.116  27.042  -3.073  1.00  0.00     0.148 A
HETATM   18  S2  UNL     1       8.041  28.362  -3.519  1.00  0.00    -0.052 SA
HETATM   19  N1  UNL     1       6.547  26.807  -1.884  1.00  0.00    -0.303 N
HETATM   20  C19 UNL     1       5.859  25.679  -1.751  1.00  0.00     0.165 A
BRANCH  19  21
HETATM   21  C15 UNL     1       6.736  27.851  -0.853  1.00  0.00     0.030 C
HETATM   22  C16 UNL     1       8.224  28.066  -0.616  1.00  0.00     0.038 C
HETATM   23  C17 UNL     1       6.153  29.168  -1.351  1.00  0.00     0.038 C
HETATM   24  C18 UNL     1       6.108  27.578   0.466  1.00  0.00     0.038 C
ENDBRANCH  19  21
BRANCH  20  25
HETATM   25  O2  UNL     1       5.223  25.377  -0.499  1.00  0.00    -0.345 OA
ATOM     26  H2  UNL     1       4.616  25.999  -0.116  1.00  0.00     0.219 HD
ENDBRANCH  20  25
ENDBRANCH   1  15
TORSDOF 7
ENDMDL