MODEL 2
REMARK VINA RESULT: -6.822124986      1.155      1.885
REMARK  4 active torsions:
REMARK  status: ('A' for Active; 'I' for Inactive)
REMARK    1  A    between atoms: O1_2  and  C2_3
REMARK    2  A    between atoms: C8_9  and  O2_10
REMARK    3  A    between atoms: C13_16  and  S1_17
REMARK    4  A    between atoms: S1_17  and  S2_18
ROOT
HETATM    1  C2  UNL     1       4.789  24.862  -1.912  1.00  0.00     0.155 C
HETATM    2  C3  UNL     1       4.381  25.602  -3.166  1.00  0.00     0.036 C
HETATM    3  C4  UNL     1       2.954  25.516  -3.539  1.00  0.00     0.012 C
HETATM    4  C5  UNL     1       2.079  24.642  -2.714  1.00  0.00    -0.037 C
HETATM    5  C6  UNL     1       0.942  24.107  -3.549  1.00  0.00     0.015 C
HETATM    6  C7  UNL     1       2.829  23.514  -2.006  1.00  0.00     0.050 C
HETATM    7  C8  UNL     1       3.682  24.405  -1.067  1.00  0.00     0.089 C
HETATM    8  C9  UNL     1       2.657  25.256  -0.513  1.00  0.00     0.035 C
HETATM    9  C10 UNL     1       2.941  26.441   0.325  1.00  0.00     0.023 C
HETATM   10  C11 UNL     1       3.515  27.657  -0.271  1.00  0.00     0.015 C
HETATM   11  C12 UNL     1       2.914  28.830   0.533  1.00  0.00     0.048 C
HETATM   12  C13 UNL     1       1.618  28.227   0.923  1.00  0.00    -0.008 C
HETATM   13  C15 UNL     1       1.610  26.920   0.816  1.00  0.00    -0.062 C
HETATM   14  C16 UNL     1       0.392  26.065   1.151  1.00  0.00     0.036 C
HETATM   15  C17 UNL     1      -0.433  25.839  -0.095  1.00  0.00     0.005 C
HETATM   16  C18 UNL     1       0.216  24.948  -1.093  1.00  0.00     0.006 C
HETATM   17  C19 UNL     1       1.560  25.484  -1.542  1.00  0.00     0.001 C
ENDROOT
BRANCH  12  18
HETATM   18  S1  UNL     1       0.173  29.169   1.493  1.00  0.00    -0.062 SA
BRANCH  18  19
HETATM   19  S2  UNL     1       0.811  30.812   2.687  1.00  0.00    -0.097 SA
HETATM   20  C14 UNL     1       2.080  30.301   3.883  1.00  0.00     0.103 C
ENDBRANCH  18  19
ENDBRANCH  12  18
BRANCH   7  21
HETATM   21  O2  UNL     1       4.213  23.485  -0.130  1.00  0.00    -0.387 OA
ATOM     22  H2  UNL     1       3.789  23.649   0.704  1.00  0.00     0.210 HD
ENDBRANCH   7  21
BRANCH   1  23
HETATM   23  O1  UNL     1       5.850  25.465  -1.250  1.00  0.00    -0.388 OA
HETATM   24  C1  UNL     1       6.591  26.332  -1.996  1.00  0.00     0.202 C
ENDBRANCH   1  23
TORSDOF 4
ENDMDL