MODEL 5
REMARK VINA RESULT: -7.972390278      4.958      7.543
REMARK  4 active torsions:
REMARK  status: ('A' for Active; 'I' for Inactive)
REMARK    1  A    between atoms: C2_2  and  C3_3
REMARK    2  A    between atoms: C6_6  and  C7_7
REMARK       I    between atoms: N1_11  and  C11_12
REMARK       I    between atoms: C11_12  and  N2_14
REMARK    3  A    between atoms: N2_14  and  C12_16
REMARK    4  A    between atoms: C15_19  and  N3_20
ROOT
HETATM    1  C3  UNL     1       3.300  27.226   0.156  1.00  0.00    -0.006 A
HETATM    2  C4  UNL     1       2.983  25.996  -0.360  1.00  0.00    -0.026 A
HETATM    3  C5  UNL     1       1.890  25.159   0.169  1.00  0.00     0.051 C
HETATM    4  C6  UNL     1       3.829  25.712  -1.459  1.00  0.00     0.036 A
HETATM    5  N1  UNL     1       4.656  26.771  -1.598  1.00  0.00    -0.270 N
HETATM    6  C11 UNL     1       5.828  26.876  -2.380  1.00  0.00     0.332 C
HETATM    7  O1  UNL     1       6.554  25.915  -2.784  1.00  0.00    -0.246 OA
HETATM    8  N2  UNL     1       6.329  28.112  -2.824  1.00  0.00    -0.302 N
ATOM      9  H2  UNL     1       5.834  28.973  -2.591  1.00  0.00     0.171 HD
HETATM   10  C16 UNL     1       4.329  27.700  -0.609  1.00  0.00     0.028 A
HETATM   11  C17 UNL     1       4.997  28.997  -0.397  1.00  0.00     0.070 C
ENDROOT
BRANCH   4  12
HETATM   12  C7  UNL     1       3.633  24.442  -2.181  1.00  0.00    -0.007 C
HETATM   13  C8  UNL     1       4.027  24.358  -3.614  1.00  0.00     0.021 C
HETATM   14  C9  UNL     1       2.152  24.028  -2.132  1.00  0.00     0.021 C
HETATM   15  C10 UNL     1       4.374  23.300  -1.436  1.00  0.00     0.021 C
ENDBRANCH   4  12
BRANCH   8  16
HETATM   16  C12 UNL     1       7.547  28.169  -3.611  1.00  0.00     0.080 A
HETATM   17  C13 UNL     1       8.832  28.339  -3.181  1.00  0.00     0.040 A
HETATM   18  C14 UNL     1       9.792  28.357  -4.111  1.00  0.00     0.046 A
HETATM   19  C15 UNL     1       9.411  28.204  -5.417  1.00  0.00     0.145 A
HETATM   20  S1  UNL     1       7.724  28.040  -5.311  1.00  0.00    -0.048 SA
BRANCH  19  21
HETATM   21  N3  UNL     1      10.285  28.194  -6.568  1.00  0.00    -0.108 N
HETATM   22  O2  UNL     1      10.898  27.162  -6.885  1.00  0.00    -0.531 OA
HETATM   23  O3  UNL     1      10.451  29.313  -7.325  1.00  0.00    -0.531 OA
ENDBRANCH  19  21
ENDBRANCH   8  16
BRANCH   1  24
HETATM   24  C2  UNL     1       2.597  27.834   1.292  1.00  0.00     0.003 C
HETATM   25  C1  UNL     1       1.629  28.679   1.242  1.00  0.00     0.012 C
ENDBRANCH   1  24
TORSDOF 4
ENDMDL