MODEL 1
REMARK VINA RESULT: -8.568447117      0.000      0.000
REMARK  4 active torsions:
REMARK  status: ('A' for Active; 'I' for Inactive)
REMARK    1  A    between atoms: C2_2  and  C3_3
REMARK    2  A    between atoms: C3_3  and  C4_4
REMARK    3  A    between atoms: C4_4  and  C5_5
REMARK    4  A    between atoms: C10_11  and  O2_12
ROOT
HETATM    1  C5  UNL     1      -0.948  24.207  -1.269  1.00  0.00     0.166 C
HETATM    2  O1  UNL     1       0.169  24.742  -2.018  1.00  0.00    -0.340 OA
HETATM    3  C6  UNL     1       1.324  25.363  -1.626  1.00  0.00     0.080 A
HETATM    4  C7  UNL     1       2.233  25.491  -2.675  1.00  0.00     0.051 A
HETATM    5  C8  UNL     1       3.465  26.095  -2.481  1.00  0.00     0.003 A
HETATM    6  C9  UNL     1       3.732  26.552  -1.208  1.00  0.00     0.114 A
HETATM    7  C10 UNL     1       2.846  26.435  -0.155  1.00  0.00     0.109 A
HETATM    8  C11 UNL     1       1.613  25.828  -0.361  1.00  0.00     0.017 A
HETATM    9  C12 UNL     1       0.794  25.785   0.855  1.00  0.00     0.112 C
HETATM   10  C13 UNL     1      -0.677  25.932   0.560  1.00  0.00     0.091 A
HETATM   11  O3  UNL     1      -1.480  26.756   1.154  1.00  0.00    -0.241 OA
HETATM   12  N1  UNL     1      -2.678  26.661   0.697  1.00  0.00    -0.265 N
ATOM     13  H1  UNL     1      -3.472  27.215   1.019  1.00  0.00     0.194 HD
HETATM   14  C14 UNL     1      -2.730  25.712  -0.282  1.00  0.00     0.040 A
HETATM   15  C15 UNL     1      -3.956  25.328  -1.038  1.00  0.00     0.071 C
HETATM   16  C16 UNL     1      -1.452  25.236  -0.379  1.00  0.00     0.027 A
HETATM   17  O4  UNL     1       4.968  27.152  -1.035  1.00  0.00    -0.333 OA
HETATM   18  C17 UNL     1       5.945  27.331  -2.009  1.00  0.00     0.078 A
HETATM   19  C18 UNL     1       6.309  28.800  -2.114  1.00  0.00     0.051 C
HETATM   20  C19 UNL     1       7.204  26.553  -1.588  1.00  0.00     0.051 C
HETATM   21  C20 UNL     1       5.605  26.820  -3.355  1.00  0.00     0.011 A
HETATM   22  C21 UNL     1       4.437  26.244  -3.555  1.00  0.00     0.013 A
ENDROOT
BRANCH   1  23
HETATM   23  C4  UNL     1      -1.841  23.610  -2.277  1.00  0.00     0.037 C
BRANCH  23  24
HETATM   24  C3  UNL     1      -1.226  22.214  -2.583  1.00  0.00     0.002 C
BRANCH  24  25
HETATM   25  C2  UNL     1      -0.957  22.081  -4.053  1.00  0.00    -0.004 C
HETATM   26  C1  UNL     1       0.528  22.214  -4.299  1.00  0.00     0.005 C
ENDBRANCH  24  25
ENDBRANCH  23  24
ENDBRANCH   1  23
BRANCH   7  27
HETATM   27  O2  UNL     1       3.139  26.904   1.114  1.00  0.00    -0.357 OA
ATOM     28  H2  UNL     1       2.612  26.680   1.871  1.00  0.00     0.217 HD
ENDBRANCH   7  27
TORSDOF 4
ENDMDL