MODEL 4
REMARK VINA RESULT: -8.988691137      1.517      2.085
REMARK  5 active torsions:
REMARK  status: ('A' for Active; 'I' for Inactive)
REMARK       I    between atoms: C2_2  and  N1_4
REMARK    1  A    between atoms: N1_4  and  C3_6
REMARK    2  A    between atoms: C6_9  and  C7_10
REMARK    3  A    between atoms: N2_12  and  N3_14
REMARK    4  A    between atoms: N3_14  and  C9_16
REMARK    5  A    between atoms: C11_19  and  C12_20
ROOT
HETATM    1  C7  UNL     1      32.147  51.607  -0.492  1.00  0.00     0.032 C
HETATM    2  C8  UNL     1      31.927  50.864  -1.819  1.00  0.00     0.070 C
HETATM    3  N2  UNL     1      32.933  51.123   0.339  1.00  0.00    -0.303 N
ATOM      4  H2  UNL     1      33.316  50.257  -0.040  1.00  0.00     0.186 HD
ENDROOT
BRANCH   3   5
HETATM    5  N3  UNL     1      33.456  51.327   1.547  1.00  0.00    -0.288 N
ATOM      6  H3  UNL     1      32.820  51.504   2.325  1.00  0.00     0.188 HD
BRANCH   5   7
HETATM    7  C9  UNL     1      34.725  51.312   1.784  1.00  0.00     0.131 A
HETATM    8  S1  UNL     1      35.928  50.415   0.998  1.00  0.00    -0.074 SA
HETATM    9  C10 UNL     1      37.450  50.760   1.697  1.00  0.00     0.072 A
HETATM   10  C11 UNL     1      37.329  51.674   2.718  1.00  0.00     0.024 A
HETATM   11  S2  UNL     1      35.693  52.130   2.913  1.00  0.00    -0.063 SA
BRANCH  10  12
HETATM   12  C12 UNL     1      38.454  52.179   3.521  1.00  0.00    -0.018 A
HETATM   13  C13 UNL     1      39.714  51.649   3.349  1.00  0.00     0.013 A
HETATM   14  C14 UNL     1      40.778  52.131   4.112  1.00  0.00     0.001 A
HETATM   15  C15 UNL     1      40.621  53.129   5.045  1.00  0.00     0.000 A
HETATM   16  C16 UNL     1      39.344  53.651   5.204  1.00  0.00     0.001 A
HETATM   17  C17 UNL     1      38.312  53.176   4.456  1.00  0.00     0.013 A
ENDBRANCH  10  12
ENDBRANCH   5   7
ENDBRANCH   3   5
BRANCH   1  18
HETATM   18  C6  UNL     1      31.397  52.834  -0.334  1.00  0.00    -0.012 A
HETATM   19  C5  UNL     1      30.114  52.893  -0.882  1.00  0.00     0.015 A
HETATM   20  C4  UNL     1      29.383  54.077  -0.732  1.00  0.00     0.030 A
HETATM   21  C3  UNL     1      29.859  55.169  -0.082  1.00  0.00     0.034 A
HETATM   22  C19 UNL     1      31.150  55.065   0.450  1.00  0.00     0.030 A
HETATM   23  C18 UNL     1      31.901  53.910   0.322  1.00  0.00     0.015 A
BRANCH  21  24
HETATM   24  N1  UNL     1      29.149  56.362   0.106  1.00  0.00    -0.328 N
HETATM   25  C2  UNL     1      28.854  57.325  -0.866  1.00  0.00     0.218 C
HETATM   26  C1  UNL     1      28.076  58.570  -0.476  1.00  0.00     0.117 C
HETATM   27  O1  UNL     1      29.206  57.203  -2.049  1.00  0.00    -0.274 OA
ATOM     28  H1  UNL     1      28.813  56.548   1.050  1.00  0.00     0.169 HD
ENDBRANCH  21  24
ENDBRANCH   1  18
TORSDOF 5
ENDMDL