MODEL 3
REMARK VINA RESULT: -7.508147874      2.410      3.175
REMARK  6 active torsions:
REMARK  status: ('A' for Active; 'I' for Inactive)
REMARK    1  A    between atoms: C4_4  and  N1_5
REMARK       I    between atoms: N1_5  and  C5_7
REMARK    2  A    between atoms: C5_7  and  O2_9
REMARK    3  A    between atoms: O2_9  and  C6_10
REMARK    4  A    between atoms: C11_15  and  N2_16
REMARK    5  A    between atoms: C12_19  and  S1_20
REMARK    6  A    between atoms: S1_20  and  C13_21
ROOT
HETATM    1  C1  UNL     1      36.020  49.836  -0.496  1.00  0.00     0.049 C
HETATM    2  C2  UNL     1      35.031  50.688   0.251  1.00  0.00    -0.040 A
HETATM    3  C3  UNL     1      34.082  51.445  -0.451  1.00  0.00     0.038 A
HETATM    4  C4  UNL     1      33.167  52.231   0.196  1.00  0.00     0.039 A
HETATM    5  C10 UNL     1      33.226  52.240   1.609  1.00  0.00     0.067 A
HETATM    6  C11 UNL     1      34.161  51.493   2.279  1.00  0.00     0.122 A
HETATM    7  C12 UNL     1      35.063  50.718   1.603  1.00  0.00     0.044 A
ENDROOT
BRANCH   4   8
HETATM    8  N1  UNL     1      32.205  53.019  -0.443  1.00  0.00    -0.303 N
HETATM    9  C5  UNL     1      32.316  54.391  -0.736  1.00  0.00     0.365 C
HETATM   10  O1  UNL     1      33.274  55.146  -0.485  1.00  0.00    -0.238 OA
ATOM     11  H1  UNL     1      31.341  52.556  -0.724  1.00  0.00     0.171 HD
BRANCH   9  12
HETATM   12  O2  UNL     1      31.252  55.045  -1.393  1.00  0.00    -0.294 OA
BRANCH  12  13
HETATM   13  C6  UNL     1      30.078  55.362  -0.725  1.00  0.00     0.061 C
HETATM   14  C7  UNL     1      28.900  54.495  -1.094  1.00  0.00     0.046 C
HETATM   15  C8  UNL     1      29.699  56.791  -1.130  1.00  0.00     0.046 C
HETATM   16  C9  UNL     1      30.211  55.346   0.778  1.00  0.00     0.046 C
ENDBRANCH  12  13
ENDBRANCH   9  12
ENDBRANCH   4   8
BRANCH   6  17
HETATM   17  N2  UNL     1      34.231  51.494   3.706  1.00  0.00    -0.114 N
HETATM   18  O3  UNL     1      34.045  50.453   4.380  1.00  0.00    -0.532 OA
HETATM   19  O4  UNL     1      34.510  52.657   4.386  1.00  0.00    -0.532 OA
ENDBRANCH   6  17
BRANCH   7  20
HETATM   20  S1  UNL     1      36.298  49.731   2.456  1.00  0.00    -0.087 SA
BRANCH  20  21
HETATM   21  C13 UNL     1      37.725  50.766   2.859  1.00  0.00     0.005 A
HETATM   22  C14 UNL     1      38.963  50.417   2.397  1.00  0.00     0.019 A
HETATM   23  C15 UNL     1      40.060  51.183   2.687  1.00  0.00     0.001 A
HETATM   24  C16 UNL     1      39.925  52.338   3.464  1.00  0.00     0.000 A
HETATM   25  C17 UNL     1      38.669  52.669   3.919  1.00  0.00     0.001 A
HETATM   26  C18 UNL     1      37.578  51.895   3.622  1.00  0.00     0.019 A
ENDBRANCH  20  21
ENDBRANCH   7  20
TORSDOF 6
ENDMDL