MODEL 4
REMARK VINA RESULT: -7.415728093      2.331      8.942
REMARK  5 active torsions:
REMARK  status: ('A' for Active; 'I' for Inactive)
REMARK    1  A    between atoms: C4_4  and  N1_5
REMARK       I    between atoms: N1_5  and  C5_7
REMARK    2  A    between atoms: C5_7  and  C6_9
REMARK    3  A    between atoms: C9_12  and  S1_13
REMARK    4  A    between atoms: S1_13  and  C10_14
REMARK    5  A    between atoms: C14_18  and  N2_19
ROOT
HETATM    1  C6  UNL     1      33.194  53.785   2.201  1.00  0.00     0.034 A
HETATM    2  C7  UNL     1      33.842  52.708   1.642  1.00  0.00     0.018 A
HETATM    3  C8  UNL     1      34.925  52.125   2.312  1.00  0.00     0.022 A
HETATM    4  C9  UNL     1      35.354  52.611   3.523  1.00  0.00     0.034 A
HETATM    5  C14 UNL     1      34.713  53.686   4.083  1.00  0.00     0.120 A
HETATM    6  C15 UNL     1      33.642  54.260   3.418  1.00  0.00     0.054 A
ENDROOT
BRANCH   1   7
HETATM    7  C5  UNL     1      32.055  54.415   1.527  1.00  0.00     0.256 C
HETATM    8  N1  UNL     1      31.336  53.758   0.540  1.00  0.00    -0.317 N
ATOM      9  H1  UNL     1      31.636  52.813   0.304  1.00  0.00     0.169 HD
HETATM   10  O1  UNL     1      31.766  55.575   1.889  1.00  0.00    -0.267 OA
BRANCH   8  11
HETATM   11  C4  UNL     1      30.204  54.284  -0.185  1.00  0.00     0.077 A
HETATM   12  C3  UNL     1      29.085  53.673  -0.668  1.00  0.00     0.045 A
HETATM   13  C2  UNL     1      28.178  54.435  -1.321  1.00  0.00    -0.046 A
HETATM   14  C1  UNL     1      26.892  53.858  -1.901  1.00  0.00     0.049 C
HETATM   15  C16 UNL     1      28.455  55.764  -1.448  1.00  0.00    -0.013 A
HETATM   16  S2  UNL     1      29.952  55.930  -0.667  1.00  0.00    -0.077 SA
HETATM   17  C17 UNL     1      27.639  56.832  -2.115  1.00  0.00     0.057 C
ENDBRANCH   8  11
ENDBRANCH   1   7
BRANCH   5  18
HETATM   18  N2  UNL     1      35.112  54.242   5.327  1.00  0.00    -0.114 N
HETATM   19  O2  UNL     1      34.389  54.132   6.308  1.00  0.00    -0.532 OA
HETATM   20  O3  UNL     1      36.310  54.897   5.406  1.00  0.00    -0.532 OA
ENDBRANCH   5  18
BRANCH   4  21
HETATM   21  S1  UNL     1      36.725  51.860   4.352  1.00  0.00    -0.118 SA
BRANCH  21  22
HETATM   22  C10 UNL     1      38.316  52.376   3.714  1.00  0.00     0.002 C
HETATM   23  C11 UNL     1      39.080  51.181   3.120  1.00  0.00     0.026 C
HETATM   24  C12 UNL     1      39.243  52.952   4.760  1.00  0.00     0.026 C
HETATM   25  C13 UNL     1      38.142  53.410   2.627  1.00  0.00     0.026 C
ENDBRANCH  21  22
ENDBRANCH   4  21
TORSDOF 5
ENDMDL