MODEL 5
REMARK VINA RESULT: -7.781454169      2.675      5.975
REMARK  6 active torsions:
REMARK  status: ('A' for Active; 'I' for Inactive)
REMARK    1  A    between atoms: C3_3  and  C4_4
REMARK    2  A    between atoms: C5_5  and  C6_6
REMARK    3  A    between atoms: C6_6  and  C7_8
REMARK    4  A    between atoms: C8_9  and  C9_10
REMARK    5  A    between atoms: C10_11  and  C11_12
REMARK    6  A    between atoms: C20_24  and  O5_25
ROOT
HETATM    1  C7  UNL     1      37.414  49.688   0.541  1.00  0.00     0.051 C
HETATM    2  C8  UNL     1      36.336  49.898   1.249  1.00  0.00    -0.014 C
ENDROOT
BRANCH   1   3
HETATM    3  C6  UNL     1      38.626  49.221   1.192  1.00  0.00     0.171 C
HETATM    4  O1  UNL     1      39.163  48.166   0.704  1.00  0.00    -0.289 OA
BRANCH   3   5
HETATM    5  C5  UNL     1      39.242  49.875   2.336  1.00  0.00     0.055 C
HETATM    6  C4  UNL     1      39.389  51.176   2.431  1.00  0.00     0.018 C
BRANCH   6   7
HETATM    7  C3  UNL     1      40.014  51.802   3.599  1.00  0.00    -0.003 A
HETATM    8  C2  UNL     1      39.471  52.702   4.459  1.00  0.00     0.008 A
HETATM    9  C1  UNL     1      38.077  53.231   4.350  1.00  0.00     0.054 C
HETATM   10  C20 UNL     1      40.420  53.018   5.408  1.00  0.00     0.189 A
HETATM   11  O4  UNL     1      41.483  52.318   5.106  1.00  0.00    -0.299 OA
HETATM   12  C19 UNL     1      41.301  51.577   4.041  1.00  0.00     0.157 A
BRANCH  10  13
HETATM   13  O5  UNL     1      40.223  53.899   6.439  1.00  0.00    -0.340 OA
ATOM     14  H5  UNL     1      40.411  53.711   7.352  1.00  0.00     0.220 HD
ENDBRANCH  10  13
ENDBRANCH   6   7
ENDBRANCH   3   5
ENDBRANCH   1   3
BRANCH   2  15
HETATM   15  C9  UNL     1      35.026  50.364   0.792  1.00  0.00     0.056 C
HETATM   16  C10 UNL     1      34.882  50.670  -0.647  1.00  0.00     0.148 C
HETATM   17  O2  UNL     1      33.992  51.782  -0.720  1.00  0.00    -0.314 OA
HETATM   18  C15 UNL     1      33.497  52.076   0.540  1.00  0.00     0.268 C
HETATM   19  O3  UNL     1      32.391  52.624   0.798  1.00  0.00    -0.264 OA
HETATM   20  C16 UNL     1      34.547  51.606   1.484  1.00  0.00     0.050 C
HETATM   21  C17 UNL     1      35.604  52.688   1.537  1.00  0.00     0.026 C
HETATM   22  C18 UNL     1      34.018  51.364   2.864  1.00  0.00     0.026 C
BRANCH  16  23
HETATM   23  C11 UNL     1      34.228  49.560  -1.444  1.00  0.00    -0.024 C
HETATM   24  C12 UNL     1      35.317  48.950  -2.315  1.00  0.00     0.017 C
HETATM   25  C13 UNL     1      33.206  50.148  -2.407  1.00  0.00     0.017 C
HETATM   26  C14 UNL     1      33.629  48.490  -0.588  1.00  0.00     0.017 C
ENDBRANCH  16  23
ENDBRANCH   2  15
TORSDOF 6
ENDMDL