MODEL 2
REMARK VINA RESULT: -7.930835126      3.355      7.266
REMARK  5 active torsions:
REMARK  status: ('A' for Active; 'I' for Inactive)
REMARK    1  A    between atoms: C7_7  and  O1_8
REMARK    2  A    between atoms: C8_10  and  N1_11
REMARK    3  A    between atoms: C9_13  and  C10_14
REMARK    4  A    between atoms: C13_19  and  O2_20
REMARK    5  A    between atoms: O2_20  and  C14_21
ROOT
HETATM    1  C1  UNL     1      40.865  51.884   4.177  1.00  0.00     0.018 C
HETATM    2  C2  UNL     1      40.457  51.155   3.309  1.00  0.00    -0.075 C
HETATM    3  C3  UNL     1      39.970  50.245   2.274  1.00  0.00     0.053 A
HETATM    4  C4  UNL     1      40.948  49.693   1.471  1.00  0.00     0.033 A
HETATM    5  C5  UNL     1      40.584  48.797   0.489  1.00  0.00    -0.025 A
HETATM    6  C6  UNL     1      41.645  48.207  -0.371  1.00  0.00     0.051 C
HETATM    7  C7  UNL     1      39.255  48.474   0.329  1.00  0.00     0.101 A
HETATM    8  C8  UNL     1      38.281  49.021   1.124  1.00  0.00     0.101 A
HETATM    9  C13 UNL     1      38.643  49.936   2.131  1.00  0.00     0.124 A
ENDROOT
BRANCH   9  10
HETATM   10  O2  UNL     1      37.690  50.464   2.888  1.00  0.00    -0.306 OA
BRANCH  10  11
HETATM   11  C14 UNL     1      36.694  51.318   2.937  1.00  0.00     0.088 A
HETATM   12  C15 UNL     1      35.451  50.904   3.440  1.00  0.00    -0.027 A
HETATM   13  C16 UNL     1      35.290  49.533   3.975  1.00  0.00     0.051 C
HETATM   14  C17 UNL     1      34.349  51.718   3.521  1.00  0.00     0.016 A
HETATM   15  C18 UNL     1      34.431  53.003   3.103  1.00  0.00    -0.061 A
HETATM   16  C19 UNL     1      33.244  53.891   3.187  1.00  0.00     0.048 C
HETATM   17  C20 UNL     1      35.603  53.467   2.608  1.00  0.00     0.016 A
HETATM   18  C21 UNL     1      36.730  52.630   2.525  1.00  0.00    -0.027 A
HETATM   19  C22 UNL     1      37.955  53.184   1.966  1.00  0.00     0.051 C
ENDBRANCH  10  11
ENDBRANCH   9  10
BRANCH   8  20
HETATM   20  N1  UNL     1      36.888  48.683   0.905  1.00  0.00    -0.363 N
HETATM   21  C9  UNL     1      36.291  49.378  -0.002  1.00  0.00     0.095 C
ATOM     22  H1  UNL     1      36.415  47.948   1.431  1.00  0.00     0.165 HD
BRANCH  21  23
HETATM   23  C10 UNL     1      34.845  49.104  -0.304  1.00  0.00     0.237 C
HETATM   24  C11 UNL     1      34.244  50.205  -1.051  1.00  0.00     0.084 C
HETATM   25  N2  UNL     1      33.757  51.071  -1.648  1.00  0.00    -0.195 NA
HETATM   26  C12 UNL     1      34.730  47.902  -1.156  1.00  0.00     0.084 C
HETATM   27  N3  UNL     1      34.636  46.977  -1.834  1.00  0.00    -0.195 NA
ENDBRANCH  21  23
ENDBRANCH   8  20
BRANCH   7  28
HETATM   28  O1  UNL     1      38.909  47.568  -0.667  1.00  0.00    -0.358 OA
ATOM     29  H1  UNL     1      38.096  47.084  -0.576  1.00  0.00     0.217 HD
ENDBRANCH   7  28
TORSDOF 5
ENDMDL