MODEL 1
REMARK VINA RESULT: -8.972550617      0.000      0.000
REMARK  7 active torsions:
REMARK  status: ('A' for Active; 'I' for Inactive)
REMARK    1  A    between atoms: C1_2  and  O2_3
REMARK    2  A    between atoms: C1_2  and  C15_24
REMARK    3  A    between atoms: O2_3  and  C2_4
REMARK    4  A    between atoms: C7_9  and  N1_10
REMARK    5  A    between atoms: N2_12  and  C8_14
REMARK    6  A    between atoms: C8_14  and  N3_16
REMARK    7  A    between atoms: N3_16  and  C9_18
ROOT
HETATM    1  C2  UNL     1      33.273  53.992   3.098  1.00  0.00     0.107 A
HETATM    2  C3  UNL     1      32.567  55.090   3.543  1.00  0.00     0.040 A
HETATM    3  C4  UNL     1      33.001  55.729   4.704  1.00  0.00     0.003 A
HETATM    4  C5  UNL     1      34.105  55.300   5.412  1.00  0.00     0.002 A
HETATM    5  C6  UNL     1      34.794  54.193   4.938  1.00  0.00     0.034 A
HETATM    6  C7  UNL     1      34.379  53.541   3.786  1.00  0.00     0.082 A
ENDROOT
BRANCH   6   7
HETATM    7  N1  UNL     1      35.132  52.413   3.358  1.00  0.00    -0.296 N
HETATM    8  N2  UNL     1      35.749  52.532   2.250  1.00  0.00    -0.276 N
ATOM      9  H2  UNL     1      35.683  53.405   1.727  1.00  0.00     0.189 HD
ATOM     10  H1  UNL     1      35.176  51.555   3.909  1.00  0.00     0.187 HD
BRANCH   8  11
HETATM   11  C8  UNL     1      36.542  51.443   1.727  1.00  0.00     0.191 C
HETATM   12  S1  UNL     1      35.721  50.145   1.243  1.00  0.00    -0.039 SA
BRANCH  11  13
HETATM   13  N3  UNL     1      37.916  51.590   1.651  1.00  0.00    -0.332 N
ATOM     14  H3  UNL     1      38.307  51.492   0.714  1.00  0.00     0.168 HD
BRANCH  13  15
HETATM   15  C9  UNL     1      38.858  51.853   2.664  1.00  0.00     0.034 A
HETATM   16  C10 UNL     1      38.740  52.849   3.599  1.00  0.00     0.029 A
HETATM   17  C11 UNL     1      39.698  53.044   4.605  1.00  0.00     0.002 A
HETATM   18  C12 UNL     1      40.808  52.242   4.705  1.00  0.00     0.000 A
HETATM   19  C13 UNL     1      40.927  51.242   3.764  1.00  0.00     0.002 A
HETATM   20  C14 UNL     1      40.003  51.038   2.777  1.00  0.00     0.029 A
ENDBRANCH  13  15
ENDBRANCH  11  13
ENDBRANCH   8  11
ENDBRANCH   6   7
BRANCH   1  21
HETATM   21  O2  UNL     1      32.889  53.327   1.963  1.00  0.00    -0.271 OA
BRANCH  21  22
HETATM   22  C1  UNL     1      32.815  53.890   0.708  1.00  0.00     0.315 C
HETATM   23  O1  UNL     1      33.784  53.781  -0.064  1.00  0.00    -0.257 OA
BRANCH  22  24
HETATM   24  C15 UNL     1      31.618  54.615   0.258  1.00  0.00     0.108 A
HETATM   25  C16 UNL     1      31.713  55.887  -0.267  1.00  0.00     0.036 A
HETATM   26  C17 UNL     1      30.587  56.590  -0.700  1.00  0.00     0.004 A
HETATM   27  C18 UNL     1      29.356  55.987  -0.594  1.00  0.00     0.017 A
HETATM   28  C19 UNL     1      29.282  54.711  -0.062  1.00  0.00     0.088 A
HETATM   29  N4  UNL     1      30.395  54.068   0.343  1.00  0.00    -0.361 N
ATOM     30  H4  UNL     1      30.305  53.128   0.730  1.00  0.00     0.165 HD
ENDBRANCH  22  24
ENDBRANCH  21  22
ENDBRANCH   1  21
TORSDOF 7
ENDMDL