MODEL 5
REMARK VINA RESULT: -8.037005816      2.347      3.430
REMARK  6 active torsions:
REMARK  status: ('A' for Active; 'I' for Inactive)
REMARK    1  A    between atoms: C2_2  and  C15_23
REMARK    2  A    between atoms: C3_3  and  C4_4
REMARK    3  A    between atoms: C4_4  and  C5_5
REMARK    4  A    between atoms: N2_8  and  N3_10
REMARK    5  A    between atoms: N3_10  and  C7_12
REMARK    6  A    between atoms: C10_17  and  C11_18
ROOT
HETATM    1  C5  UNL     1      34.043  52.321   0.911  1.00  0.00     0.109 C
HETATM    2  C6  UNL     1      34.361  50.928   0.761  1.00  0.00     0.115 C
HETATM    3  N1  UNL     1      34.608  49.802   0.656  1.00  0.00    -0.190 NA
HETATM    4  N2  UNL     1      33.361  52.909  -0.012  1.00  0.00    -0.292 N
ATOM      5  H2  UNL     1      33.074  52.351  -0.818  1.00  0.00     0.187 HD
ENDROOT
BRANCH   1   6
HETATM    6  C4  UNL     1      34.520  53.029   2.131  1.00  0.00     0.098 C
BRANCH   6   7
HETATM    7  C3  UNL     1      35.954  52.713   2.341  1.00  0.00    -0.012 C
HETATM    8  C2  UNL     1      36.600  53.031   3.431  1.00  0.00    -0.048 C
HETATM    9  C1  UNL     1      35.885  53.743   4.521  1.00  0.00     0.049 C
BRANCH   8  10
HETATM   10  C15 UNL     1      38.027  52.707   3.619  1.00  0.00     0.010 A
HETATM   11  C16 UNL     1      38.923  53.308   4.460  1.00  0.00     0.020 A
HETATM   12  C17 UNL     1      40.175  52.843   4.462  1.00  0.00     0.008 A
HETATM   13  C18 UNL     1      40.462  51.799   3.621  1.00  0.00     0.050 A
HETATM   14  S2  UNL     1      38.964  51.508   2.856  1.00  0.00    -0.102 SA
ENDBRANCH   8  10
ENDBRANCH   6   7
ENDBRANCH   1   6
BRANCH   4  15
HETATM   15  N3  UNL     1      32.993  54.233   0.013  1.00  0.00    -0.279 N
ATOM     16  H3  UNL     1      33.712  54.945   0.147  1.00  0.00     0.189 HD
BRANCH  15  17
HETATM   17  C7  UNL     1      31.737  54.612  -0.132  1.00  0.00     0.164 A
HETATM   18  N4  UNL     1      30.650  53.844  -0.055  1.00  0.00    -0.338 N
HETATM   19  C8  UNL     1      29.477  54.398  -0.228  1.00  0.00     0.021 A
ATOM     20  H4  UNL     1      30.730  52.846   0.136  1.00  0.00     0.168 HD
HETATM   21  C9  UNL     1      28.162  53.632  -0.164  1.00  0.00     0.069 C
HETATM   22  C10 UNL     1      29.445  55.745  -0.481  1.00  0.00     0.016 A
HETATM   23  S1  UNL     1      31.101  56.156  -0.459  1.00  0.00    -0.054 SA
BRANCH  22  24
HETATM   24  C11 UNL     1      28.238  56.619  -0.716  1.00  0.00    -0.016 C
HETATM   25  C12 UNL     1      28.790  58.049  -0.728  1.00  0.00     0.020 C
HETATM   26  C13 UNL     1      27.251  56.510   0.403  1.00  0.00     0.020 C
HETATM   27  C14 UNL     1      27.617  56.372  -2.053  1.00  0.00     0.020 C
ENDBRANCH  22  24
ENDBRANCH  15  17
ENDBRANCH   4  15
TORSDOF 6
ENDMDL