MODEL 5
REMARK VINA RESULT: -7.562642902      2.495      3.489
REMARK  8 active torsions:
REMARK  status: ('A' for Active; 'I' for Inactive)
REMARK    1  A    between atoms: C4_4  and  C5_5
REMARK    2  A    between atoms: C5_5  and  O2_7
REMARK    3  A    between atoms: O2_7  and  C6_8
REMARK    4  A    between atoms: C9_11  and  N1_12
REMARK    5  A    between atoms: N1_12  and  N2_14
REMARK    6  A    between atoms: N2_14  and  N3_15
REMARK    7  A    between atoms: C11_19  and  C12_20
REMARK    8  A    between atoms: C16_25  and  C17_26
ROOT
HETATM    1  C6  UNL     1      36.763  50.148   1.864  1.00  0.00     0.086 A
HETATM    2  C7  UNL     1      37.000  48.977   1.132  1.00  0.00     0.040 A
HETATM    3  C8  UNL     1      38.257  48.495   0.871  1.00  0.00     0.035 A
HETATM    4  C9  UNL     1      39.346  49.187   1.348  1.00  0.00     0.063 A
HETATM    5  C10 UNL     1      39.162  50.342   2.073  1.00  0.00     0.042 A
HETATM    6  C11 UNL     1      37.864  50.821   2.330  1.00  0.00    -0.014 A
ENDROOT
BRANCH   1   7
HETATM    7  O2  UNL     1      35.495  50.601   2.101  1.00  0.00    -0.274 OA
BRANCH   7   8
HETATM    8  C5  UNL     1      34.546  50.929   1.165  1.00  0.00     0.305 C
HETATM    9  O1  UNL     1      34.325  50.138   0.243  1.00  0.00    -0.258 OA
BRANCH   8  10
HETATM   10  C4  UNL     1      33.819  52.203   1.279  1.00  0.00     0.082 A
HETATM   11  C3  UNL     1      33.627  52.966   2.402  1.00  0.00     0.033 A
HETATM   12  C2  UNL     1      32.923  54.098   2.257  1.00  0.00    -0.037 A
HETATM   13  C1  UNL     1      32.626  55.050   3.405  1.00  0.00     0.050 C
HETATM   14  C16 UNL     1      32.458  54.396   1.006  1.00  0.00     0.088 A
HETATM   15  S1  UNL     1      33.016  53.087   0.067  1.00  0.00    -0.077 SA
BRANCH  14  16
HETATM   16  C17 UNL     1      31.664  55.579   0.592  1.00  0.00     0.217 C
HETATM   17  O3  UNL     1      30.425  55.617   0.778  1.00  0.00    -0.643 OA
HETATM   18  O4  UNL     1      32.287  56.639  -0.000  1.00  0.00    -0.643 OA
ENDBRANCH  14  16
ENDBRANCH   8  10
ENDBRANCH   7   8
ENDBRANCH   1   7
BRANCH   6  19
HETATM   19  C12 UNL     1      37.702  52.069   3.117  1.00  0.00    -0.021 C
HETATM   20  C13 UNL     1      39.036  52.415   3.786  1.00  0.00     0.019 C
HETATM   21  C14 UNL     1      37.227  53.226   2.294  1.00  0.00     0.019 C
HETATM   22  C15 UNL     1      36.735  51.883   4.284  1.00  0.00     0.019 C
ENDBRANCH   6  19
BRANCH   4  23
HETATM   23  N1  UNL     1      40.669  48.697   1.086  1.00  0.00    -0.217 N
ATOM     24  H1  UNL     1      41.472  49.312   1.213  1.00  0.00     0.203 HD
BRANCH  23  25
HETATM   25  N2  UNL     1      40.838  47.540   0.709  1.00  0.00    -0.243 NA
BRANCH  25  26
HETATM   26  N3  UNL     1      41.140  46.495   0.117  1.00  0.00    -0.260 N
ATOM     27  H32 UNL     1      41.558  46.107   0.963  1.00  0.00     0.193 HD
ATOM     28  H31 UNL     1      41.290  45.737  -0.548  1.00  0.00     0.193 HD
ENDBRANCH  25  26
ENDBRANCH  23  25
ENDBRANCH   4  23
TORSDOF 8
ENDMDL