MODEL 1
REMARK VINA RESULT: -8.250237392      0.000      0.000
REMARK  6 active torsions:
REMARK  status: ('A' for Active; 'I' for Inactive)
REMARK    1  A    between atoms: C3_3  and  C6_6
REMARK    2  A    between atoms: C10_10  and  C11_11
REMARK    3  A    between atoms: C11_11  and  C12_13
REMARK    4  A    between atoms: C13_14  and  C14_15
REMARK    5  A    between atoms: C17_18  and  N1_19
REMARK    6  A    between atoms: C18_22  and  O4_23
ROOT
HETATM    1  C1  UNL     1      40.655  51.481   4.002  1.00  0.00     0.013 C
HETATM    2  C2  UNL     1      39.739  52.264   4.175  1.00  0.00    -0.103 C
HETATM    3  C3  UNL     1      38.630  53.175   4.373  1.00  0.00     0.049 C
HETATM    4  C4  UNL     1      38.230  53.319   5.822  1.00  0.00     0.034 C
HETATM    5  C5  UNL     1      38.880  54.537   3.804  1.00  0.00     0.034 C
ENDROOT
BRANCH   3   6
HETATM    6  C6  UNL     1      37.445  52.579   3.655  1.00  0.00     0.004 A
HETATM    7  C7  UNL     1      36.475  51.765   4.160  1.00  0.00     0.024 A
HETATM    8  C8  UNL     1      35.500  51.342   3.315  1.00  0.00    -0.040 A
HETATM    9  C9  UNL     1      34.390  50.408   3.804  1.00  0.00     0.049 C
HETATM   10  C10 UNL     1      35.558  51.761   2.022  1.00  0.00     0.061 A
HETATM   11  S1  UNL     1      36.991  52.744   2.030  1.00  0.00    -0.088 SA
BRANCH  10  12
HETATM   12  C11 UNL     1      34.724  51.570   0.848  1.00  0.00     0.189 C
HETATM   13  O1  UNL     1      35.065  50.606   0.057  1.00  0.00    -0.287 OA
BRANCH  12  14
HETATM   14  C12 UNL     1      33.570  52.300   0.428  1.00  0.00     0.057 C
HETATM   15  C13 UNL     1      33.583  53.632   0.403  1.00  0.00     0.015 C
BRANCH  15  16
HETATM   16  C14 UNL     1      32.507  54.481   0.009  1.00  0.00    -0.033 A
HETATM   17  C15 UNL     1      32.650  55.852  -0.011  1.00  0.00     0.014 A
HETATM   18  C16 UNL     1      31.641  56.705  -0.379  1.00  0.00     0.040 A
HETATM   19  C17 UNL     1      30.381  56.208  -0.764  1.00  0.00     0.136 A
HETATM   20  C18 UNL     1      30.225  54.848  -0.749  1.00  0.00     0.099 A
HETATM   21  C19 UNL     1      31.272  53.999  -0.369  1.00  0.00     0.050 A
BRANCH  19  22
HETATM   22  N1  UNL     1      29.402  57.154  -1.123  1.00  0.00    -0.113 N
HETATM   23  O2  UNL     1      28.987  58.073  -0.401  1.00  0.00    -0.532 OA
HETATM   24  O3  UNL     1      28.780  57.097  -2.375  1.00  0.00    -0.532 OA
ENDBRANCH  19  22
BRANCH  20  25
HETATM   25  O4  UNL     1      29.010  54.268  -1.112  1.00  0.00    -0.358 OA
ATOM     26  H4  UNL     1      28.957  53.682  -1.858  1.00  0.00     0.217 HD
ENDBRANCH  20  25
ENDBRANCH  15  16
ENDBRANCH  12  14
ENDBRANCH  10  12
ENDBRANCH   3   6
TORSDOF 6
ENDMDL