MODEL 1
REMARK VINA RESULT: -8.796443302      0.000      0.000
REMARK  5 active torsions:
REMARK  status: ('A' for Active; 'I' for Inactive)
REMARK    1  A    between atoms: O1_2  and  C2_3
REMARK    2  A    between atoms: C4_5  and  C5_6
REMARK    3  A    between atoms: C7_8  and  C8_9
REMARK    4  A    between atoms: C18_22  and  O2_23
REMARK    5  A    between atoms: C19_25  and  O3_26
ROOT
HETATM    1  C5  UNL     1      36.543  52.620   2.988  1.00  0.00    -0.010 A
HETATM    2  C6  UNL     1      37.888  52.231   2.832  1.00  0.00     0.038 A
HETATM    3  C7  UNL     1      38.888  52.473   3.714  1.00  0.00     0.014 A
HETATM    4  N1  UNL     1      38.522  53.139   4.810  1.00  0.00    -0.353 N
ATOM      5  H1  UNL     1      39.226  53.353   5.516  1.00  0.00     0.166 HD
HETATM    6  C11 UNL     1      37.226  53.546   5.017  1.00  0.00     0.086 A
HETATM    7  S1  UNL     1      36.514  54.410   6.310  1.00  0.00    -0.076 SA
HETATM    8  C12 UNL     1      34.928  54.481   5.742  1.00  0.00    -0.012 A
HETATM    9  C13 UNL     1      33.730  55.121   6.415  1.00  0.00     0.057 C
HETATM   10  C14 UNL     1      34.973  53.820   4.532  1.00  0.00    -0.035 A
HETATM   11  C15 UNL     1      33.665  53.774   3.743  1.00  0.00     0.050 C
HETATM   12  C16 UNL     1      36.187  53.322   4.150  1.00  0.00     0.016 A
ENDROOT
BRANCH   1  13
HETATM   13  C4  UNL     1      35.620  52.177   1.961  1.00  0.00    -0.019 A
HETATM   14  C3  UNL     1      34.909  53.038   1.168  1.00  0.00     0.052 A
HETATM   15  C2  UNL     1      33.996  52.633   0.213  1.00  0.00     0.105 A
HETATM   16  C19 UNL     1      33.811  51.273   0.072  1.00  0.00     0.135 A
HETATM   17  C18 UNL     1      34.496  50.349   0.841  1.00  0.00     0.102 A
HETATM   18  C17 UNL     1      35.404  50.825   1.788  1.00  0.00     0.052 A
BRANCH  15  19
HETATM   19  O1  UNL     1      33.282  53.479  -0.585  1.00  0.00    -0.353 OA
HETATM   20  C1  UNL     1      32.910  54.793  -0.239  1.00  0.00     0.210 C
ENDBRANCH  15  19
BRANCH  16  21
HETATM   21  O3  UNL     1      32.896  50.803  -0.882  1.00  0.00    -0.351 OA
HETATM   22  C20 UNL     1      33.268  50.547  -2.224  1.00  0.00     0.210 C
ENDBRANCH  16  21
BRANCH  17  23
HETATM   23  O2  UNL     1      34.301  48.982   0.692  1.00  0.00    -0.358 OA
ATOM     24  H2  UNL     1      34.712  48.520  -0.030  1.00  0.00     0.217 HD
ENDBRANCH  17  23
ENDBRANCH   1  13
BRANCH   3  25
HETATM   25  C8  UNL     1      40.300  52.036   3.493  1.00  0.00     0.027 C
HETATM   26  C9  UNL     1      40.349  50.593   2.985  1.00  0.00     0.016 C
HETATM   27  C10 UNL     1      41.108  52.081   4.765  1.00  0.00     0.016 C
ENDBRANCH   3  25
TORSDOF 5
ENDMDL