MODEL 2
REMARK VINA RESULT: -5.084259952      2.479      3.400
REMARK  4 active torsions:
REMARK  status: ('A' for Active; 'I' for Inactive)
REMARK    1  A    between atoms: C2_2  and  N1_5
REMARK    2  A    between atoms: N1_5  and  C5_7
REMARK    3  A    between atoms: C6_10  and  N3_11
REMARK    4  A    between atoms: C8_18  and  N5_19
ROOT
HETATM    1  C5  UNL     1     -13.459  -2.926 -38.771  1.00  0.00     0.154 A
HETATM    2  N2  UNL     1     -13.514  -3.518 -37.562  1.00  0.00    -0.175 N
ATOM      3  H2  UNL     1     -14.431  -3.734 -37.168  1.00  0.00     0.186 HD
HETATM    4  C6  UNL     1     -12.418  -3.839 -36.848  1.00  0.00     0.678 A
HETATM    5  N4  UNL     1     -11.199  -3.570 -37.331  1.00  0.00    -0.179 N
ATOM      6  H4  UNL     1     -10.368  -3.811 -36.790  1.00  0.00     0.185 HD
HETATM    7  C7  UNL     1     -11.076  -2.980 -38.530  1.00  0.00     0.153 A
HETATM    8  S1  UNL     1      -9.592  -2.646 -39.131  1.00  0.00    -0.057 SA
HETATM    9  C8  UNL     1     -12.205  -2.643 -39.281  1.00  0.00     0.185 A
ENDROOT
BRANCH   1  10
HETATM   10  N1  UNL     1     -14.583  -2.583 -39.537  1.00  0.00    -0.366 N
ATOM     11  H1  UNL     1     -14.396  -2.131 -40.432  1.00  0.00     0.162 HD
BRANCH  10  12
HETATM   12  C2  UNL     1     -15.965  -2.792 -39.210  1.00  0.00     0.021 C
HETATM   13  C1  UNL     1     -16.425  -4.092 -39.794  1.00  0.00     0.037 C
HETATM   14  C3  UNL     1     -16.781  -1.683 -39.888  1.00  0.00     0.037 C
HETATM   15  C4  UNL     1     -16.261  -2.718 -37.749  1.00  0.00     0.037 C
ENDBRANCH  10  12
ENDBRANCH   1  10
BRANCH   9  16
HETATM   16  N5  UNL     1     -11.993  -2.023 -40.537  1.00  0.00    -0.108 N
HETATM   17  O1  UNL     1     -12.339  -0.856 -40.709  1.00  0.00    -0.532 OA
HETATM   18  O2  UNL     1     -11.403  -2.757 -41.529  1.00  0.00    -0.532 OA
ENDBRANCH   9  16
BRANCH   4  19
HETATM   19  N3  UNL     1     -12.524  -4.416 -35.674  1.00  0.00    -0.234 N
ATOM     20  H32 UNL     1     -13.333  -4.205 -35.090  1.00  0.00     0.174 HD
ATOM     21  H31 UNL     1     -11.811  -5.067 -35.345  1.00  0.00     0.174 HD
ENDBRANCH   4  19
TORSDOF 4
ENDMDL