MODEL 2
REMARK VINA RESULT: -5.974539407      3.845      6.484
REMARK  3 active torsions:
REMARK  status: ('A' for Active; 'I' for Inactive)
REMARK    1  A    between atoms: N1_1  and  C1_4
REMARK    2  A    between atoms: C4_12  and  O1_13
REMARK    3  A    between atoms: O1_13  and  C5_14
ROOT
HETATM    1  C1  UNL     1     -11.790  -2.887 -37.287  1.00  0.00     0.701 A
HETATM    2  N2  UNL     1     -11.003  -2.894 -38.357  1.00  0.00    -0.165 N
ATOM      3  H2  UNL     1     -10.013  -2.688 -38.226  1.00  0.00     0.186 HD
HETATM    4  C2  UNL     1     -11.434  -3.156 -39.595  1.00  0.00     0.192 A
HETATM    5  S1  UNL     1     -10.483  -3.168 -40.913  1.00  0.00    -0.040 SA
HETATM    6  N3  UNL     1     -12.749  -3.426 -39.738  1.00  0.00    -0.314 N
ATOM      7  H3  UNL     1     -13.123  -3.632 -40.663  1.00  0.00     0.170 HD
HETATM    8  C3  UNL     1     -13.574  -3.426 -38.668  1.00  0.00     0.182 A
HETATM    9  C4  UNL     1     -14.937  -3.672 -38.575  1.00  0.00     0.132 A
HETATM   10  C10 UNL     1     -15.242  -3.535 -37.239  1.00  0.00     0.149 A
HETATM   11  N4  UNL     1     -14.118  -3.224 -36.567  1.00  0.00    -0.286 N
ATOM     12  H4  UNL     1     -14.051  -3.065 -35.562  1.00  0.00     0.187 HD
HETATM   13  N5  UNL     1     -13.101  -3.159 -37.440  1.00  0.00    -0.067 N
ENDROOT
BRANCH   9  14
HETATM   14  O1  UNL     1     -15.756  -3.984 -39.650  1.00  0.00    -0.341 OA
BRANCH  14  15
HETATM   15  C5  UNL     1     -16.905  -4.735 -39.452  1.00  0.00     0.129 C
HETATM   16  C6  UNL     1     -18.153  -3.862 -39.264  1.00  0.00     0.032 C
HETATM   17  C7  UNL     1     -19.225  -4.918 -39.344  1.00  0.00     0.002 C
HETATM   18  C8  UNL     1     -18.821  -5.676 -40.589  1.00  0.00     0.002 C
HETATM   19  C9  UNL     1     -17.314  -5.536 -40.678  1.00  0.00     0.032 C
ENDBRANCH  14  15
ENDBRANCH   9  14
BRANCH   1  20
HETATM   20  N1  UNL     1     -11.328  -2.628 -36.112  1.00  0.00    -0.233 N
ATOM     21  H12 UNL     1     -11.944  -2.696 -35.303  1.00  0.00     0.174 HD
ATOM     22  H11 UNL     1     -10.355  -2.354 -35.970  1.00  0.00     0.174 HD
ENDBRANCH   1  20
TORSDOF 3
ENDMDL