MODEL 2
REMARK VINA RESULT: -6.097173742      1.162      2.997
REMARK  2 active torsions:
REMARK  status: ('A' for Active; 'I' for Inactive)
REMARK    1  A    between atoms: N1_2  and  C2_3
REMARK    2  A    between atoms: N1_2  and  C7_14
ROOT
HETATM    1  C2  UNL     1     -15.587  -3.202 -38.185  1.00  0.00     0.166 A
HETATM    2  O1  UNL     1     -15.284  -3.600 -36.981  1.00  0.00    -0.274 OA
HETATM    3  C3  UNL     1     -14.052  -3.757 -36.555  1.00  0.00     0.168 A
HETATM    4  N2  UNL     1     -13.752  -4.156 -35.356  1.00  0.00    -0.378 N
ATOM      5  H21 UNL     1     -12.795  -4.278 -35.025  1.00  0.00     0.158 HD
ATOM      6  H22 UNL     1     -14.525  -4.352 -34.720  1.00  0.00     0.158 HD
HETATM    7  C4  UNL     1     -13.014  -3.494 -37.409  1.00  0.00     0.098 A
HETATM    8  N3  UNL     1     -11.669  -3.655 -36.960  1.00  0.00    -0.098 NA
HETATM    9  C5  UNL     1     -13.268  -3.065 -38.707  1.00  0.00     0.054 A
HETATM   10  C6  UNL     1     -14.596  -2.919 -39.095  1.00  0.00     0.065 A
HETATM   11  S1  UNL     1     -14.921  -2.362 -40.756  1.00  0.00    -0.048 SA
ENDROOT
BRANCH   1  12
HETATM   12  N1  UNL     1     -16.945  -3.060 -38.552  1.00  0.00    -0.360 N
HETATM   13  C1  UNL     1     -17.619  -4.286 -38.995  1.00  0.00     0.152 C
BRANCH  12  14
HETATM   14  C7  UNL     1     -17.719  -1.870 -38.540  1.00  0.00     0.086 C
HETATM   15  C8  UNL     1     -17.217  -0.807 -37.583  1.00  0.00     0.025 C
HETATM   16  C9  UNL     1     -18.315   0.241 -37.807  1.00  0.00     0.002 C
HETATM   17  C10 UNL     1     -19.577  -0.596 -37.927  1.00  0.00     0.002 C
HETATM   18  C11 UNL     1     -19.115  -2.052 -37.993  1.00  0.00     0.025 C
ENDBRANCH  12  14
ENDBRANCH   1  12
TORSDOF 2
ENDMDL