MODEL 4
REMARK VINA RESULT: -6.202179046      2.406      3.179
REMARK  5 active torsions:
REMARK  status: ('A' for Active; 'I' for Inactive)
REMARK    1  A    between atoms: C3_5  and  C4_6
REMARK    2  A    between atoms: C7_13  and  N4_14
REMARK    3  A    between atoms: C8_18  and  C9_19
REMARK    4  A    between atoms: C10_20  and  O1_21
REMARK    5  A    between atoms: O1_21  and  N5_22
ROOT
HETATM    1  C1  UNL     1     -12.794  -1.943 -40.702  1.00  0.00     0.069 C
HETATM    2  C2  UNL     1     -13.759  -2.517 -39.679  1.00  0.00     0.023 A
HETATM    3  N1  UNL     1     -14.952  -2.872 -40.027  1.00  0.00    -0.352 N
ATOM      4  H1  UNL     1     -15.252  -2.767 -40.996  1.00  0.00     0.166 HD
HETATM    5  C3  UNL     1     -15.784  -3.371 -39.129  1.00  0.00     0.091 A
HETATM    6  S1  UNL     1     -14.841  -3.340 -37.714  1.00  0.00    -0.070 SA
HETATM    7  C8  UNL     1     -13.407  -2.678 -38.362  1.00  0.00     0.031 A
ENDROOT
BRANCH   5   8
HETATM    8  C4  UNL     1     -17.152  -3.820 -39.340  1.00  0.00     0.066 A
HETATM    9  C5  UNL     1     -18.285  -3.125 -38.899  1.00  0.00     0.038 A
HETATM   10  C6  UNL     1     -18.227  -1.840 -38.162  1.00  0.00     0.071 C
HETATM   11  N2  UNL     1     -19.378  -3.813 -39.257  1.00  0.00    -0.303 N
HETATM   12  N3  UNL     1     -19.025  -4.903 -39.896  1.00  0.00    -0.285 N
ATOM     13  H2  UNL     1     -20.339  -3.532 -39.062  1.00  0.00     0.186 HD
HETATM   14  C7  UNL     1     -17.657  -4.934 -39.962  1.00  0.00     0.128 A
ATOM     15  H3  UNL     1     -19.659  -5.606 -40.276  1.00  0.00     0.188 HD
BRANCH  14  16
HETATM   16  N4  UNL     1     -16.958  -5.858 -40.518  1.00  0.00    -0.384 N
ATOM     17  H42 UNL     1     -16.379  -5.742 -41.350  1.00  0.00     0.157 HD
ATOM     18  H41 UNL     1     -16.895  -6.825 -40.199  1.00  0.00     0.157 HD
ENDBRANCH  14  16
ENDBRANCH   5   8
BRANCH   7  19
HETATM   19  C9  UNL     1     -12.119  -2.353 -37.721  1.00  0.00     0.047 C
HETATM   20  C10 UNL     1     -11.839  -2.800 -36.513  1.00  0.00     0.168 C
BRANCH  20  21
HETATM   21  O1  UNL     1     -10.640  -2.512 -35.884  1.00  0.00    -0.257 OA
BRANCH  21  22
HETATM   22  N5  UNL     1     -10.355  -1.255 -35.417  1.00  0.00    -0.306 N
ATOM     23  H52 UNL     1     -10.877  -0.469 -35.805  1.00  0.00     0.184 HD
ATOM     24  H51 UNL     1      -9.645  -1.098 -34.703  1.00  0.00     0.184 HD
ENDBRANCH  21  22
ENDBRANCH  20  21
ENDBRANCH   7  19
TORSDOF 5
ENDMDL