MODEL 3
REMARK VINA RESULT: -6.809075215      3.286      4.519
REMARK  4 active torsions:
REMARK  status: ('A' for Active; 'I' for Inactive)
REMARK       I    between atoms: C1_2  and  N7_18
REMARK    1  A    between atoms: N2_3  and  N3_5
REMARK    2  A    between atoms: N4_7  and  C2_9
REMARK    3  A    between atoms: C4_15  and  O1_16
REMARK    4  A    between atoms: N7_18  and  C5_20
ROOT
HETATM    1  N3  UNL     1     -13.436  -3.684 -38.936  1.00  0.00    -0.240 N
ATOM      2  H3  UNL     1     -13.856  -4.258 -39.666  1.00  0.00     0.208 HD
HETATM    3  N4  UNL     1     -12.188  -3.782 -38.778  1.00  0.00    -0.281 N
ATOM      4  H4  UNL     1     -11.631  -4.410 -39.358  1.00  0.00     0.188 HD
ENDROOT
BRANCH   1   5
HETATM    5  N2  UNL     1     -14.283  -2.874 -38.215  1.00  0.00    -0.259 N
HETATM    6  C1  UNL     1     -15.543  -3.040 -38.091  1.00  0.00     0.204 C
HETATM    7  N1  UNL     1     -16.155  -4.147 -38.742  1.00  0.00    -0.062 NA
HETATM    8  N7  UNL     1     -16.277  -2.118 -37.313  1.00  0.00    -0.359 N
ATOM      9  H7  UNL     1     -15.949  -1.902 -36.372  1.00  0.00     0.162 HD
ATOM     10  H2  UNL     1     -13.870  -2.072 -37.738  1.00  0.00     0.191 HD
BRANCH   8  11
HETATM   11  C5  UNL     1     -17.457  -1.478 -37.791  1.00  0.00     0.084 C
HETATM   12  C6  UNL     1     -18.729  -2.097 -37.294  1.00  0.00     0.025 C
HETATM   13  C7  UNL     1     -19.869  -1.137 -37.167  1.00  0.00     0.002 C
HETATM   14  C8  UNL     1     -19.827   0.036 -38.058  1.00  0.00     0.000 C
HETATM   15  C9  UNL     1     -18.498   0.646 -38.293  1.00  0.00     0.002 C
HETATM   16  C10 UNL     1     -17.482  -0.013 -37.373  1.00  0.00     0.025 C
ENDBRANCH   8  11
ENDBRANCH   1   5
BRANCH   3  17
HETATM   17  C2  UNL     1     -11.580  -2.985 -37.759  1.00  0.00     0.118 A
HETATM   18  C3  UNL     1     -10.612  -2.036 -37.976  1.00  0.00     0.142 A
HETATM   19  N5  UNL     1     -10.318  -1.526 -36.767  1.00  0.00    -0.307 N
HETATM   20  N6  UNL     1     -11.063  -2.122 -35.827  1.00  0.00    -0.279 N
ATOM     21  H5  UNL     1      -9.630  -0.794 -36.591  1.00  0.00     0.186 HD
HETATM   22  C4  UNL     1     -11.860  -3.036 -36.410  1.00  0.00     0.185 A
ATOM     23  H6  UNL     1     -11.031  -1.917 -34.829  1.00  0.00     0.189 HD
BRANCH  22  24
HETATM   24  O1  UNL     1     -12.786  -3.869 -35.765  1.00  0.00    -0.343 OA
ATOM     25  H1  UNL     1     -13.438  -3.616 -35.121  1.00  0.00     0.219 HD
ENDBRANCH  22  24
ENDBRANCH   3  17
TORSDOF 4
ENDMDL