MODEL 3
REMARK VINA RESULT: -6.040229220      2.463      3.767
REMARK  4 active torsions:
REMARK  status: ('A' for Active; 'I' for Inactive)
REMARK    1  A    between atoms: C2_4  and  N2_5
REMARK    2  A    between atoms: N2_5  and  C3_7
REMARK    3  A    between atoms: C8_13  and  N3_14
REMARK    4  A    between atoms: N3_14  and  C9_16
ROOT
HETATM    1  C1  UNL     1     -15.610  -3.244 -37.335  1.00  0.00     0.127 A
HETATM    2  N1  UNL     1     -14.357  -3.357 -37.669  1.00  0.00    -0.344 N
ATOM      3  H1  UNL     1     -13.645  -3.564 -36.968  1.00  0.00     0.167 HD
HETATM    4  C2  UNL     1     -14.027  -3.194 -38.952  1.00  0.00     0.146 A
HETATM    5  S1  UNL     1     -15.525  -2.875 -39.700  1.00  0.00    -0.035 SA
HETATM    6  C8  UNL     1     -16.519  -2.966 -38.319  1.00  0.00     0.095 A
ENDROOT
BRANCH   6   7
HETATM    7  N3  UNL     1     -17.950  -2.793 -38.211  1.00  0.00    -0.321 N
ATOM      8  H3  UNL     1     -18.568  -3.594 -38.342  1.00  0.00     0.169 HD
BRANCH   7   9
HETATM    9  C9  UNL     1     -18.496  -1.530 -37.928  1.00  0.00     0.176 C
HETATM   10  N4  UNL     1     -18.141  -0.403 -38.457  1.00  0.00    -0.361 N
HETATM   11  C10 UNL     1     -18.919   0.697 -37.929  1.00  0.00     0.142 C
ATOM     12  H4  UNL     1     -17.406  -0.303 -39.157  1.00  0.00     0.162 HD
HETATM   13  C11 UNL     1     -20.118  -0.014 -37.339  1.00  0.00     0.142 C
HETATM   14  N5  UNL     1     -19.546  -1.310 -36.994  1.00  0.00    -0.361 N
ATOM     15  H5  UNL     1     -19.839  -1.930 -36.239  1.00  0.00     0.162 HD
ENDBRANCH   7   9
ENDBRANCH   6   7
BRANCH   4  16
HETATM   16  N2  UNL     1     -12.815  -3.280 -39.416  1.00  0.00    -0.366 N
ATOM     17  H2  UNL     1     -12.701  -3.514 -40.403  1.00  0.00     0.162 HD
BRANCH  16  18
HETATM   18  C3  UNL     1     -11.644  -3.071 -38.650  1.00  0.00     0.083 C
HETATM   19  C4  UNL     1     -11.320  -1.623 -38.363  1.00  0.00     0.025 C
HETATM   20  C5  UNL     1      -9.929  -1.765 -37.727  1.00  0.00     0.002 C
HETATM   21  C6  UNL     1      -9.260  -2.640 -38.797  1.00  0.00     0.002 C
HETATM   22  C7  UNL     1     -10.374  -3.605 -39.215  1.00  0.00     0.025 C
ENDBRANCH  16  18
ENDBRANCH   4  16
TORSDOF 4
ENDMDL