MODEL 5
REMARK VINA RESULT: -4.842292096      3.186      4.372
REMARK  4 active torsions:
REMARK  status: ('A' for Active; 'I' for Inactive)
REMARK    1  A    between atoms: C2_2  and  N1_5
REMARK    2  A    between atoms: N1_5  and  C5_7
REMARK    3  A    between atoms: C7_14  and  N4_15
REMARK    4  A    between atoms: C8_18  and  N5_19
ROOT
HETATM    1  C5  UNL     1     -16.133  -2.821 -38.319  1.00  0.00     0.141 A
HETATM    2  N2  UNL     1     -16.523  -1.600 -37.926  1.00  0.00    -0.317 N
ATOM      3  H2  UNL     1     -15.822  -0.976 -37.524  1.00  0.00     0.170 HD
HETATM    4  C6  UNL     1     -17.804  -1.147 -38.035  1.00  0.00     0.179 A
HETATM    5  S1  UNL     1     -18.199   0.368 -37.526  1.00  0.00    -0.040 SA
HETATM    6  N3  UNL     1     -18.738  -1.957 -38.561  1.00  0.00    -0.317 N
ATOM      7  H3  UNL     1     -19.699  -1.624 -38.644  1.00  0.00     0.170 HD
HETATM    8  C7  UNL     1     -18.433  -3.196 -38.980  1.00  0.00     0.138 A
HETATM    9  C8  UNL     1     -17.133  -3.633 -38.862  1.00  0.00     0.189 A
ENDROOT
BRANCH   1  10
HETATM   10  N1  UNL     1     -14.825  -3.314 -38.224  1.00  0.00    -0.366 N
ATOM     11  H1  UNL     1     -14.676  -4.060 -37.544  1.00  0.00     0.162 HD
BRANCH  10  12
HETATM   12  C2  UNL     1     -13.669  -2.897 -38.971  1.00  0.00     0.021 C
HETATM   13  C1  UNL     1     -12.648  -4.014 -39.016  1.00  0.00     0.037 C
HETATM   14  C3  UNL     1     -12.967  -1.732 -38.230  1.00  0.00     0.037 C
HETATM   15  C4  UNL     1     -13.958  -2.377 -40.342  1.00  0.00     0.037 C
ENDBRANCH  10  12
ENDBRANCH   1  10
BRANCH   9  16
HETATM   16  N5  UNL     1     -16.848  -4.950 -39.318  1.00  0.00    -0.108 N
HETATM   17  O1  UNL     1     -16.837  -5.855 -38.463  1.00  0.00    -0.531 OA
HETATM   18  O2  UNL     1     -16.596  -5.226 -40.639  1.00  0.00    -0.531 OA
ENDBRANCH   9  16
BRANCH   8  19
HETATM   19  N4  UNL     1     -19.326  -3.950 -39.476  1.00  0.00    -0.383 N
ATOM     20  H42 UNL     1     -19.105  -4.910 -39.743  1.00  0.00     0.157 HD
ATOM     21  H41 UNL     1     -20.277  -3.609 -39.614  1.00  0.00     0.157 HD
ENDBRANCH   8  19
TORSDOF 4
ENDMDL