MODEL 3
REMARK VINA RESULT: -5.282221336      1.694      2.082
REMARK  4 active torsions:
REMARK  status: ('A' for Active; 'I' for Inactive)
REMARK    1  A    between atoms: C2_2  and  S1_4
REMARK    2  A    between atoms: S1_4  and  C4_5
REMARK    3  A    between atoms: C6_11  and  N3_12
REMARK    4  A    between atoms: C7_17  and  N5_18
ROOT
HETATM    1  C4  UNL     1     -14.277  -2.912 -37.981  1.00  0.00     0.114 A
HETATM    2  N1  UNL     1     -13.783  -3.270 -39.147  1.00  0.00    -0.330 N
ATOM      3  H1  UNL     1     -14.408  -3.574 -39.894  1.00  0.00     0.168 HD
HETATM    4  C5  UNL     1     -12.495  -3.239 -39.349  1.00  0.00     0.143 A
HETATM    5  N2  UNL     1     -11.837  -3.583 -40.503  1.00  0.00    -0.175 N
ATOM      6  H2  UNL     1     -12.369  -3.901 -41.314  1.00  0.00     0.186 HD
HETATM    7  C6  UNL     1     -10.518  -3.506 -40.573  1.00  0.00     0.679 A
HETATM    8  N4  UNL     1      -9.710  -3.107 -39.586  1.00  0.00    -0.176 N
ATOM      9  H4  UNL     1      -8.698  -3.069 -39.704  1.00  0.00     0.186 HD
HETATM   10  C7  UNL     1     -10.298  -2.760 -38.436  1.00  0.00     0.135 A
HETATM   11  C8  UNL     1     -11.697  -2.827 -38.319  1.00  0.00     0.096 A
HETATM   12  S2  UNL     1     -12.873  -2.506 -37.107  1.00  0.00    -0.058 SA
ENDROOT
BRANCH   1  13
HETATM   13  S1  UNL     1     -15.922  -2.817 -37.330  1.00  0.00    -0.101 SA
BRANCH  13  14
HETATM   14  C2  UNL     1     -17.013  -1.805 -38.333  1.00  0.00     0.046 C
HETATM   15  C1  UNL     1     -18.260  -2.532 -38.760  1.00  0.00     0.021 C
HETATM   16  C3  UNL     1     -17.421  -0.525 -37.637  1.00  0.00     0.021 C
ENDBRANCH  13  14
ENDBRANCH   1  13
BRANCH  10  17
HETATM   17  N5  UNL     1      -9.657  -2.355 -37.400  1.00  0.00    -0.384 N
ATOM     18  H52 UNL     1      -9.091  -3.051 -36.917  1.00  0.00     0.157 HD
ATOM     19  H51 UNL     1      -9.691  -1.398 -37.049  1.00  0.00     0.157 HD
ENDBRANCH  10  17
BRANCH   7  20
HETATM   20  N3  UNL     1      -9.965  -3.856 -41.710  1.00  0.00    -0.234 N
ATOM     21  H32 UNL     1     -10.110  -4.812 -42.033  1.00  0.00     0.174 HD
ATOM     22  H31 UNL     1      -9.427  -3.141 -42.198  1.00  0.00     0.174 HD
ENDBRANCH   7  20
TORSDOF 4
ENDMDL