MODEL 5
REMARK VINA RESULT: -6.439075006      1.694      2.325
REMARK  2 active torsions:
REMARK  status: ('A' for Active; 'I' for Inactive)
REMARK    1  A    between atoms: C2_2  and  C3_3
REMARK    2  A    between atoms: C3_3  and  C4_4
ROOT
HETATM    1  C4  UNL     1     -14.898  -2.922 -39.407  1.00  0.00     0.086 A
HETATM    2  N1  UNL     1     -15.563  -4.141 -39.410  1.00  0.00    -0.320 N
ATOM      3  H1  UNL     1     -15.169  -4.865 -40.011  1.00  0.00     0.169 HD
HETATM    4  C5  UNL     1     -16.586  -4.458 -38.765  1.00  0.00     0.196 A
HETATM    5  N2  UNL     1     -17.199  -5.767 -38.849  1.00  0.00    -0.063 NA
HETATM    6  N3  UNL     1     -17.180  -3.507 -37.882  1.00  0.00    -0.304 N
ATOM      7  H3  UNL     1     -18.017  -3.747 -37.349  1.00  0.00     0.171 HD
HETATM    8  C6  UNL     1     -16.643  -2.340 -37.769  1.00  0.00     0.196 A
HETATM    9  N4  UNL     1     -17.276  -1.431 -36.879  1.00  0.00    -0.063 NA
HETATM   10  N5  UNL     1     -15.470  -1.993 -38.478  1.00  0.00    -0.320 N
ATOM     11  H5  UNL     1     -15.032  -1.084 -38.329  1.00  0.00     0.169 HD
ENDROOT
BRANCH   1  12
HETATM   12  C3  UNL     1     -13.406  -2.951 -39.447  1.00  0.00     0.086 C
BRANCH  12  13
HETATM   13  C2  UNL     1     -12.625  -3.113 -38.224  1.00  0.00    -0.024 C
HETATM   14  C1  UNL     1     -13.439  -3.598 -37.020  1.00  0.00     0.016 C
HETATM   15  C7  UNL     1     -11.652  -4.283 -38.471  1.00  0.00     0.011 C
HETATM   16  C8  UNL     1     -10.351  -3.927 -39.035  1.00  0.00     0.001 C
HETATM   17  C9  UNL     1     -10.137  -2.555 -39.537  1.00  0.00     0.001 C
HETATM   18  C10 UNL     1     -10.783  -1.471 -38.758  1.00  0.00     0.017 C
HETATM   19  C11 UNL     1     -11.854  -1.916 -37.802  1.00  0.00     0.067 C
HETATM   20  S1  UNL     1     -11.099  -2.172 -36.144  1.00  0.00    -0.092 SA
ENDBRANCH  12  13
ENDBRANCH   1  12
TORSDOF 2
ENDMDL