MODEL 4
REMARK VINA RESULT: -5.975095187      2.432      3.143
REMARK  4 active torsions:
REMARK  status: ('A' for Active; 'I' for Inactive)
REMARK    1  A    between atoms: C2_2  and  C5_6
REMARK    2  A    between atoms: C5_6  and  C6_7
REMARK    3  A    between atoms: C7_8  and  O1_9
REMARK    4  A    between atoms: C9_16  and  N3_17
ROOT
HETATM    1  C1  UNL     1     -12.202  -1.419 -38.784  1.00  0.00     0.031 C
HETATM    2  C2  UNL     1     -12.090  -2.849 -39.178  1.00  0.00     0.046 C
HETATM    3  C3  UNL     1     -11.064  -3.447 -38.168  1.00  0.00     0.031 C
HETATM    4  C4  UNL     1     -11.368  -2.892 -40.452  1.00  0.00     0.068 C
HETATM    5  N1  UNL     1     -10.808  -2.935 -41.467  1.00  0.00    -0.196 NA
ENDROOT
BRANCH   2   6
HETATM    6  C5  UNL     1     -13.276  -3.715 -39.080  1.00  0.00     0.069 C
BRANCH   6   7
HETATM    7  C6  UNL     1     -14.582  -3.102 -38.796  1.00  0.00     0.028 A
HETATM    8  C7  UNL     1     -15.051  -3.116 -37.505  1.00  0.00     0.150 A
HETATM    9  N2  UNL     1     -16.180  -2.573 -37.040  1.00  0.00    -0.322 N
HETATM   10  C8  UNL     1     -17.108  -1.898 -37.724  1.00  0.00     0.146 A
ATOM     11  H2  UNL     1     -16.355  -2.689 -36.042  1.00  0.00     0.169 HD
HETATM   12  S1  UNL     1     -18.453  -1.290 -36.986  1.00  0.00    -0.052 SA
HETATM   13  S2  UNL     1     -16.768  -1.737 -39.380  1.00  0.00    -0.043 SA
HETATM   14  C9  UNL     1     -15.268  -2.496 -39.821  1.00  0.00     0.081 A
BRANCH   8  15
HETATM   15  O1  UNL     1     -14.290  -3.778 -36.495  1.00  0.00    -0.346 OA
ATOM     16  H1  UNL     1     -13.950  -4.649 -36.667  1.00  0.00     0.219 HD
ENDBRANCH   8  15
BRANCH  14  17
HETATM   17  N3  UNL     1     -14.933  -2.470 -41.059  1.00  0.00    -0.393 N
ATOM     18  H32 UNL     1     -15.334  -3.180 -41.671  1.00  0.00     0.156 HD
ATOM     19  H31 UNL     1     -14.275  -1.826 -41.500  1.00  0.00     0.156 HD
ENDBRANCH  14  17
ENDBRANCH   6   7
ENDBRANCH   2   6
TORSDOF 4
ENDMDL