MODEL 3
REMARK VINA RESULT: -6.804920850      1.416      2.381
REMARK  1 active torsions:
REMARK  status: ('A' for Active; 'I' for Inactive)
REMARK    1  A    between atoms: C7_8  and  C8_10
ROOT
HETATM    1  C1  UNL     1     -10.547   1.787  35.794  1.00  0.00     0.015 C
HETATM    2  C2  UNL     1     -10.989   2.114  37.195  1.00  0.00    -0.036 C
HETATM    3  C3  UNL     1     -11.563   0.889  37.890  1.00  0.00     0.039 C
HETATM    4  C4  UNL     1     -12.114   1.356  39.214  1.00  0.00     0.278 C
HETATM    5  N1  UNL     1     -11.871   2.754  39.454  1.00  0.00     0.134 N
HETATM    6  C5  UNL     1     -10.429   2.938  39.422  1.00  0.00     0.278 C
HETATM    7  C6  UNL     1      -9.842   2.582  38.070  1.00  0.00     0.039 C
HETATM    8  C7  UNL     1     -12.448   3.629  38.488  1.00  0.00     0.356 C
HETATM    9  F1  UNL     1     -11.961   4.909  38.749  1.00  0.00    -0.202 F
HETATM   10  C9  UNL     1     -12.008   3.227  37.104  1.00  0.00     0.092 C
ENDROOT
BRANCH   8  11
HETATM   11  C8  UNL     1     -13.947   3.675  38.504  1.00  0.00     0.424 C
HETATM   12  F2  UNL     1     -14.524   2.983  37.459  1.00  0.00    -0.209 F
HETATM   13  F3  UNL     1     -14.350   3.127  39.729  1.00  0.00    -0.209 F
ENDBRANCH   8  11
TORSDOF 1
ENDMDL