MODEL 1
REMARK VINA RESULT: -6.170190674      0.000      0.000
REMARK  2 active torsions:
REMARK  status: ('A' for Active; 'I' for Inactive)
REMARK    1  A    between atoms: C1_2  and  C2_5
REMARK    2  A    between atoms: C2_5  and  N1_7
ROOT
HETATM    1  N1  UNL     1     -12.233   3.140  38.445  1.00  0.00    -0.368 N
HETATM    2  C3  UNL     1     -10.911   3.701  38.451  1.00  0.00     0.123 C
HETATM    3  C4  UNL     1     -10.054   3.172  39.580  1.00  0.00     0.020 C
HETATM    4  C5  UNL     1     -10.892   3.188  40.838  1.00  0.00     0.003 C
HETATM    5  C6  UNL     1     -12.067   2.253  40.737  1.00  0.00     0.020 C
HETATM    6  C7  UNL     1     -12.743   2.237  39.430  1.00  0.00     0.123 C
ENDROOT
BRANCH   1   7
HETATM    7  C2  UNL     1     -13.086   3.519  37.375  1.00  0.00     0.183 C
HETATM    8  S1  UNL     1     -14.714   3.473  37.651  1.00  0.00    -0.056 SA
BRANCH   7   9
HETATM    9  C1  UNL     1     -12.651   3.945  36.039  1.00  0.00     0.443 C
HETATM   10  F1  UNL     1     -12.006   5.172  36.037  1.00  0.00    -0.164 F
HETATM   11  F2  UNL     1     -13.753   4.030  35.175  1.00  0.00    -0.164 F
HETATM   12  F3  UNL     1     -11.843   2.962  35.502  1.00  0.00    -0.164 F
ENDBRANCH   7   9
ENDBRANCH   1   7
TORSDOF 2
ENDMDL