MODEL 5
REMARK VINA RESULT: -6.003547642      2.577      3.528
REMARK  1 active torsions:
REMARK  status: ('A' for Active; 'I' for Inactive)
REMARK    1  A    between atoms: C2_2  and  C3_3
ROOT
HETATM    1  C1  UNL     1     -11.677   4.662  37.387  1.00  0.00     0.057 C
HETATM    2  C2  UNL     1     -12.206   3.236  37.592  1.00  0.00     0.225 C
HETATM    3  C4  UNL     1     -12.071   2.553  36.242  1.00  0.00     0.075 C
HETATM    4  C5  UNL     1     -10.677   2.144  35.922  1.00  0.00     0.172 C
HETATM    5  O1  UNL     1     -10.219   1.404  37.010  1.00  0.00    -0.364 OA
HETATM    6  C6  UNL     1     -10.163   2.135  38.158  1.00  0.00     0.405 C
HETATM    7  N1  UNL     1     -11.445   2.629  38.624  1.00  0.00    -0.037 N
HETATM    8  C7  UNL     1     -12.095   1.545  39.314  1.00  0.00     0.276 C
HETATM    9  C8  UNL     1     -11.085   3.621  39.651  1.00  0.00     0.276 C
ENDROOT
BRANCH   2  10
HETATM   10  C3  UNL     1     -13.664   3.345  37.834  1.00  0.00     0.420 C
HETATM   11  F1  UNL     1     -14.203   3.971  36.698  1.00  0.00    -0.168 F
HETATM   12  F2  UNL     1     -14.293   2.108  37.887  1.00  0.00    -0.168 F
HETATM   13  F3  UNL     1     -14.045   4.068  38.906  1.00  0.00    -0.168 F
ENDBRANCH   2  10
TORSDOF 1
ENDMDL