MODEL 1
REMARK VINA RESULT: -6.520408541      0.000      0.000
REMARK  2 active torsions:
REMARK  status: ('A' for Active; 'I' for Inactive)
REMARK    1  A    between atoms: C8_9  and  O1_10
REMARK    2  A    between atoms: C8_9  and  C9_12
ROOT
HETATM    1  C1  UNL     1     -14.390   2.590  37.960  1.00  0.00     0.276 C
HETATM    2  N1  UNL     1     -12.999   2.481  38.404  1.00  0.00    -0.034 N
HETATM    3  C2  UNL     1     -12.585   1.153  37.998  1.00  0.00     0.276 C
HETATM    4  C3  UNL     1     -13.107   2.478  39.841  1.00  0.00     0.240 C
HETATM    5  C4  UNL     1     -11.907   2.058  40.576  1.00  0.00     0.028 C
HETATM    6  C5  UNL     1     -10.927   3.236  40.539  1.00  0.00     0.002 C
HETATM    7  C6  UNL     1     -10.104   3.050  39.322  1.00  0.00     0.005 C
HETATM    8  C7  UNL     1     -10.714   3.268  38.014  1.00  0.00     0.079 C
HETATM    9  C8  UNL     1     -12.173   3.525  37.899  1.00  0.00     0.325 C
ENDROOT
BRANCH   9  10
HETATM   10  O1  UNL     1     -12.560   4.711  38.558  1.00  0.00    -0.358 OA
ATOM     11  H1  UNL     1     -13.278   5.083  38.062  1.00  0.00     0.213 HD
ENDBRANCH   9  10
BRANCH   9  12
HETATM   12  C9  UNL     1     -12.365   3.817  36.428  1.00  0.00     0.446 C
HETATM   13  F1  UNL     1     -11.805   5.093  36.231  1.00  0.00    -0.166 F
HETATM   14  F2  UNL     1     -13.613   3.877  35.976  1.00  0.00    -0.166 F
HETATM   15  F3  UNL     1     -11.611   2.972  35.627  1.00  0.00    -0.166 F
ENDBRANCH   9  12
TORSDOF 2
ENDMDL