MODEL 5
REMARK VINA RESULT: -5.813467456      2.686      3.572
REMARK  1 active torsions:
REMARK  status: ('A' for Active; 'I' for Inactive)
REMARK    1  A    between atoms: C2_2  and  C3_3
ROOT
HETATM    1  C1  UNL     1     -12.260   1.429  39.635  1.00  0.00     0.039 C
HETATM    2  C2  UNL     1     -11.516   2.474  38.789  1.00  0.00     0.134 C
HETATM    3  C4  UNL     1     -10.506   1.768  37.986  1.00  0.00     0.059 C
HETATM    4  C5  UNL     1     -10.339   2.181  36.576  1.00  0.00     0.235 C
HETATM    5  N1  UNL     1     -11.519   2.390  35.824  1.00  0.00    -0.065 N
ATOM      6  H11 UNL     1     -12.153   1.593  35.887  1.00  0.00     0.278 HD
ATOM      7  H12 UNL     1     -11.338   2.363  34.821  1.00  0.00     0.278 HD
HETATM    8  C6  UNL     1     -12.165   3.624  36.221  1.00  0.00     0.341 C
HETATM    9  S1  UNL     1     -12.718   3.373  37.891  1.00  0.00     0.058 S
HETATM   10  O1  UNL     1     -14.223   2.644  37.939  1.00  0.00    -0.255 OA
ENDROOT
BRANCH   2  11
HETATM   11  C3  UNL     1     -10.904   3.430  39.822  1.00  0.00     0.406 C
HETATM   12  F1  UNL     1      -9.552   3.512  39.710  1.00  0.00    -0.169 F
HETATM   13  F2  UNL     1     -11.492   4.673  39.549  1.00  0.00    -0.169 F
HETATM   14  F3  UNL     1     -11.350   3.050  41.059  1.00  0.00    -0.169 F
ENDBRANCH   2  11
TORSDOF 1
ENDMDL