MODEL 1
REMARK VINA RESULT: -5.940334138      0.000      0.000
REMARK  0 active torsions:
REMARK  status: ('A' for Active; 'I' for Inactive)
ROOT
HETATM    1  C1  UNL     1     -12.586   4.006  36.151  1.00  0.00     0.272 C
HETATM    2  N1  UNL     1     -12.023   3.112  37.191  1.00  0.00    -0.074 N
HETATM    3  C2  UNL     1     -11.224   2.154  36.443  1.00  0.00     0.272 C
HETATM    4  C3  UNL     1     -11.245   3.984  38.004  1.00  0.00     0.246 C
HETATM    5  C4  UNL     1     -10.310   3.366  38.963  1.00  0.00     0.107 C
HETATM    6  S1  UNL     1     -11.108   3.085  40.583  1.00  0.00    -0.091 SA
HETATM    7  C5  UNL     1     -12.472   1.954  40.175  1.00  0.00     0.293 C
HETATM    8  F1  UNL     1     -13.153   1.688  41.350  1.00  0.00    -0.194 F
HETATM    9  F2  UNL     1     -12.036   0.772  39.671  1.00  0.00    -0.194 F
HETATM   10  C6  UNL     1     -13.375   2.723  39.234  1.00  0.00     0.119 C
HETATM   11  C7  UNL     1     -13.130   2.469  37.801  1.00  0.00     0.243 C
ENDROOT
TORSDOF 0
ENDMDL