MODEL 3
REMARK VINA RESULT: -5.771983934      1.698      2.620
REMARK  1 active torsions:
REMARK  status: ('A' for Active; 'I' for Inactive)
REMARK    1  A    between atoms: C2_2  and  C3_3
ROOT
HETATM    1  C1  UNL     1     -12.763   3.565  35.839  1.00  0.00     0.056 C
HETATM    2  C2  UNL     1     -12.781   3.418  37.372  1.00  0.00     0.158 C
HETATM    3  C4  UNL     1     -12.229   2.047  37.653  1.00  0.00     0.075 C
HETATM    4  C5  UNL     1     -11.766   1.939  39.060  1.00  0.00     0.242 C
HETATM    5  N1  UNL     1     -10.975   3.075  39.465  1.00  0.00    -0.054 N
HETATM    6  C6  UNL     1     -10.879   2.998  40.931  1.00  0.00     0.274 C
HETATM    7  C7  UNL     1      -9.614   3.021  38.970  1.00  0.00     0.274 C
HETATM    8  C8  UNL     1     -11.569   4.340  39.125  1.00  0.00     0.405 C
HETATM    9  O1  UNL     1     -12.034   4.447  37.858  1.00  0.00    -0.344 OA
ENDROOT
BRANCH   2  10
HETATM   10  C3  UNL     1     -14.263   3.522  37.735  1.00  0.00     0.418 C
HETATM   11  F1  UNL     1     -14.742   2.220  37.800  1.00  0.00    -0.168 F
HETATM   12  F2  UNL     1     -14.866   4.136  36.630  1.00  0.00    -0.168 F
HETATM   13  F3  UNL     1     -14.482   4.231  38.869  1.00  0.00    -0.168 F
ENDBRANCH   2  10
TORSDOF 1
ENDMDL