MODEL 2
REMARK VINA RESULT: -5.428847392      2.025      2.962
REMARK  1 active torsions:
REMARK  status: ('A' for Active; 'I' for Inactive)
REMARK    1  A    between atoms: C5_7  and  C6_9
ROOT
HETATM    1  C1  UNL     1     -11.763   4.475  39.051  1.00  0.00     0.277 C
HETATM    2  N1  UNL     1     -11.921   3.293  38.208  1.00  0.00    -0.019 N
HETATM    3  C2  UNL     1     -12.672   3.758  37.029  1.00  0.00     0.277 C
HETATM    4  C3  UNL     1     -10.616   2.959  37.745  1.00  0.00     0.252 C
HETATM    5  C4  UNL     1     -10.667   1.699  36.953  1.00  0.00     0.107 C
HETATM    6  S1  UNL     1     -11.751   0.732  38.083  1.00  0.00    -0.086 SA
HETATM    7  C5  UNL     1     -12.565   2.212  38.805  1.00  0.00     0.412 C
HETATM    8  F1  UNL     1     -13.885   2.156  38.362  1.00  0.00    -0.189 F
ENDROOT
BRANCH   7   9
HETATM    9  C6  UNL     1     -12.578   2.094  40.273  1.00  0.00     0.462 C
HETATM   10  F2  UNL     1     -13.799   2.446  40.797  1.00  0.00    -0.165 F
HETATM   11  F3  UNL     1     -11.527   2.729  40.910  1.00  0.00    -0.165 F
HETATM   12  F4  UNL     1     -12.431   0.736  40.595  1.00  0.00    -0.165 F
ENDBRANCH   7   9
TORSDOF 1
ENDMDL