MODEL 2
REMARK VINA RESULT: -5.776380916      2.290      2.953
REMARK  2 active torsions:
REMARK  status: ('A' for Active; 'I' for Inactive)
REMARK    1  A    between atoms: C3_3  and  C4_4
REMARK    2  A    between atoms: C4_4  and  C5_5
ROOT
HETATM    1  C1  UNL     1     -13.943   4.443  35.263  1.00  0.00     0.112 C
HETATM    2  C2  UNL     1     -13.047   3.852  36.268  1.00  0.00    -0.110 C
HETATM    3  C3  UNL     1     -12.325   3.359  37.101  1.00  0.00    -0.086 C
ENDROOT
BRANCH   3   4
HETATM    4  C4  UNL     1     -11.448   2.748  38.101  1.00  0.00     0.148 C
HETATM    5  C6  UNL     1     -11.031   3.779  39.146  1.00  0.00     0.064 C
HETATM    6  C7  UNL     1     -11.147   3.023  40.435  1.00  0.00     0.274 C
HETATM    7  N1  UNL     1     -12.022   1.918  40.244  1.00  0.00     0.086 N
HETATM    8  C8  UNL     1     -13.265   2.010  40.978  1.00  0.00     0.310 C
HETATM    9  C9  UNL     1     -12.236   1.726  38.839  1.00  0.00     0.303 C
BRANCH   4  10
HETATM   10  C5  UNL     1     -10.216   2.146  37.424  1.00  0.00     0.407 C
HETATM   11  F1  UNL     1      -9.065   2.524  38.053  1.00  0.00    -0.169 F
HETATM   12  F2  UNL     1     -10.342   0.770  37.546  1.00  0.00    -0.169 F
HETATM   13  F3  UNL     1     -10.145   2.498  36.114  1.00  0.00    -0.169 F
ENDBRANCH   4  10
ENDBRANCH   3   4
TORSDOF 2
ENDMDL