MODEL 4
REMARK VINA RESULT: -6.223809833      2.009      2.892
REMARK  3 active torsions:
REMARK  status: ('A' for Active; 'I' for Inactive)
REMARK    1  A    between atoms: C2_2  and  C4_4
REMARK    2  A    between atoms: C5_5  and  C6_6
REMARK    3  A    between atoms: C6_6  and  C7_7
ROOT
HETATM    1  C6  UNL     1     -12.023   2.711  39.038  1.00  0.00     0.223 C
HETATM    2  C8  UNL     1     -11.165   3.885  39.391  1.00  0.00     0.087 C
HETATM    3  C9  UNL     1     -11.010   3.152  40.686  1.00  0.00     0.174 C
HETATM    4  O1  UNL     1     -12.040   2.279  40.363  1.00  0.00    -0.359 OA
ENDROOT
BRANCH   1   5
HETATM    5  C5  UNL     1     -13.345   3.076  38.537  1.00  0.00    -0.058 C
HETATM    6  C4  UNL     1     -14.431   3.380  38.106  1.00  0.00    -0.099 C
BRANCH   6   7
HETATM    7  C2  UNL     1     -15.746   3.755  37.557  1.00  0.00     0.057 C
HETATM    8  C1  UNL     1     -16.521   2.482  37.322  1.00  0.00     0.023 C
HETATM    9  C3  UNL     1     -16.492   4.619  38.561  1.00  0.00     0.023 C
ENDBRANCH   6   7
ENDBRANCH   1   5
BRANCH   1  10
HETATM   10  C7  UNL     1     -11.352   1.751  38.079  1.00  0.00     0.430 C
HETATM   11  F1  UNL     1     -11.846   1.887  36.794  1.00  0.00    -0.167 F
HETATM   12  F2  UNL     1     -11.621   0.470  38.521  1.00  0.00    -0.167 F
HETATM   13  F3  UNL     1      -9.995   1.967  38.029  1.00  0.00    -0.167 F
ENDBRANCH   1  10
TORSDOF 3
ENDMDL