MODEL 4
REMARK VINA RESULT: -7.133114896      2.165      2.988
REMARK  4 active torsions:
REMARK  status: ('A' for Active; 'I' for Inactive)
REMARK    1  A    between atoms: O1_1  and  C1_3
REMARK    2  A    between atoms: C1_3  and  N1_4
REMARK    3  A    between atoms: C1_3  and  C10_14
REMARK    4  A    between atoms: N1_4  and  C2_6
ROOT
HETATM    1  N1  UNL     1       2.819   6.742  -0.652  1.00  0.00    -0.388 N
ATOM      2  H1  UNL     1       1.935   7.238  -0.769  1.00  0.00     0.156 HD
ENDROOT
BRANCH   1   3
HETATM    3  C1  UNL     1       4.042   7.448  -0.562  1.00  0.00     0.252 C
BRANCH   3   4
HETATM    4  O1  UNL     1       4.792   7.664  -1.667  1.00  0.00    -0.373 OA
ATOM      5  H1  UNL     1       5.264   8.480  -1.776  1.00  0.00     0.212 HD
ENDBRANCH   3   4
BRANCH   3   6
HETATM    6  C10 UNL     1       3.895   8.688   0.277  1.00  0.00     0.037 A
HETATM    7  C11 UNL     1       4.123   9.978  -0.130  1.00  0.00     0.040 A
HETATM    8  C12 UNL     1       3.900  10.817   0.931  1.00  0.00     0.144 A
HETATM    9  O2  UNL     1       3.551  10.083   1.937  1.00  0.00    -0.310 OA
HETATM   10  C13 UNL     1       3.531   8.788   1.597  1.00  0.00     0.154 A
HETATM   11 CL1  UNL     1       3.105   7.550   2.723  1.00  0.00    -0.056 Cl
ENDBRANCH   3   6
ENDBRANCH   1   3
BRANCH   1  12
HETATM   12  C2  UNL     1       2.851   5.356  -0.578  1.00  0.00     0.089 C
HETATM   13  C3  UNL     1       1.620   4.707  -0.156  1.00  0.00     0.026 C
HETATM   14  C4  UNL     1       1.253   3.290  -0.558  1.00  0.00     0.002 C
HETATM   15  C5  UNL     1       1.677   2.249   0.455  1.00  0.00     0.001 C
HETATM   16  C6  UNL     1       2.923   1.480   0.309  1.00  0.00     0.011 C
HETATM   17  C7  UNL     1       4.241   2.213   0.708  1.00  0.00     0.080 C
HETATM   18  C8  UNL     1       4.027   3.547   0.329  1.00  0.00    -0.181 C
HETATM   19  C9  UNL     1       4.162   4.937   0.194  1.00  0.00     0.104 C
ENDBRANCH   1  12
TORSDOF 4
ENDMDL