MODEL 5
REMARK VINA RESULT: -6.255661322      2.988      5.709
REMARK  4 active torsions:
REMARK  status: ('A' for Active; 'I' for Inactive)
REMARK    1  A    between atoms: C2_2  and  C3_3
REMARK    2  A    between atoms: C2_2  and  C8_12
REMARK    3  A    between atoms: C4_4  and  C5_5
REMARK    4  A    between atoms: C7_9  and  O2_10
ROOT
HETATM    1  C1  UNL     1       4.544   6.177  -1.100  1.00  0.00     0.017 C
HETATM    2  C2  UNL     1       3.186   6.527  -0.452  1.00  0.00     0.050 C
ENDROOT
BRANCH   2   3
HETATM    3  C3  UNL     1       3.377   7.579   0.553  1.00  0.00     0.015 A
HETATM    4  C4  UNL     1       3.910   8.832   0.368  1.00  0.00    -0.011 A
HETATM    5  C6  UNL     1       3.872   9.482   1.587  1.00  0.00     0.153 A
HETATM    6  O1  UNL     1       3.348   8.652   2.433  1.00  0.00    -0.299 OA
HETATM    7  C7  UNL     1       3.036   7.510   1.873  1.00  0.00     0.190 A
BRANCH   4   8
HETATM    8  C5  UNL     1       4.462   9.456  -0.860  1.00  0.00     0.155 C
HETATM    9 CL1  UNL     1       6.146   9.978  -0.582  1.00  0.00    -0.125 Cl
ENDBRANCH   4   8
BRANCH   7  10
HETATM   10  O2  UNL     1       2.460   6.481   2.612  1.00  0.00    -0.340 OA
ATOM     11  H2  UNL     1       2.299   6.401   3.545  1.00  0.00     0.220 HD
ENDBRANCH   7  10
ENDBRANCH   2   3
BRANCH   2  12
HETATM   12  C8  UNL     1       2.579   5.258   0.112  1.00  0.00     0.194 C
HETATM   13  C9  UNL     1       1.417   4.862  -0.790  1.00  0.00     0.034 C
HETATM   14  C10 UNL     1       0.726   3.687  -0.138  1.00  0.00     0.002 C
HETATM   15  C11 UNL     1       1.458   2.386  -0.411  1.00  0.00     0.002 C
HETATM   16  C12 UNL     1       2.387   2.047   0.741  1.00  0.00     0.027 C
HETATM   17  C13 UNL     1       3.164   3.246   1.211  1.00  0.00     0.232 C
HETATM   18  N1  UNL     1       3.487   4.156   0.137  1.00  0.00    -0.070 N
ATOM     19  H12 UNL     1       3.525   3.678  -0.763  1.00  0.00     0.277 HD
ATOM     20  H11 UNL     1       4.457   4.469   0.188  1.00  0.00     0.277 HD
ENDBRANCH   2  12
TORSDOF 4
ENDMDL