MODEL 5
REMARK VINA RESULT: -7.409954748      2.579      3.319
REMARK  4 active torsions:
REMARK  status: ('A' for Active; 'I' for Inactive)
REMARK    1  A    between atoms: C2_2  and  C4_4
REMARK    2  A    between atoms: C2_2  and  C5_6
REMARK    3  A    between atoms: C7_8  and  C8_9
REMARK    4  A    between atoms: C13_18  and  O2_19
ROOT
HETATM    1  C5  UNL     1       4.590   7.378  -0.302  1.00  0.00    -0.006 A
HETATM    2  C6  UNL     1       3.690   6.498   0.176  1.00  0.00     0.030 A
HETATM    3  C7  UNL     1       3.441   5.383  -0.590  1.00  0.00     0.008 A
HETATM    4  S1  UNL     1       4.459   5.602  -1.934  1.00  0.00    -0.065 SA
HETATM    5  C13 UNL     1       5.174   7.083  -1.506  1.00  0.00     0.115 A
ENDROOT
BRANCH   3   6
HETATM    6  C8  UNL     1       2.504   4.278  -0.302  1.00  0.00     0.031 C
HETATM    7  C9  UNL     1       2.987   3.189   0.245  1.00  0.00     0.012 C
HETATM    8  C10 UNL     1       4.370   2.847   0.650  1.00  0.00     0.064 C
HETATM    9  C12 UNL     1       2.177   2.009   0.578  1.00  0.00     0.247 C
HETATM   10  C11 UNL     1       4.134   1.827   1.744  1.00  0.00     0.128 C
HETATM   11  N1  UNL     1       3.030   1.053   1.195  1.00  0.00    -0.357 N
ATOM     12  H1  UNL     1       2.897   0.043   1.243  1.00  0.00     0.162 HD
HETATM   13  O1  UNL     1       0.938   1.814   0.381  1.00  0.00    -0.268 OA
ENDBRANCH   3   6
BRANCH   1  14
HETATM   14  C2  UNL     1       4.967   8.654   0.437  1.00  0.00     0.009 C
HETATM   15  C1  UNL     1       4.083   8.701   1.667  1.00  0.00     0.022 C
HETATM   16  C3  UNL     1       6.421   8.603   0.797  1.00  0.00     0.022 C
BRANCH  14  17
HETATM   17  C4  UNL     1       4.684   9.881  -0.382  1.00  0.00     0.236 C
HETATM   18  F1  UNL     1       5.849  10.587  -0.486  1.00  0.00    -0.254 F
ENDBRANCH  14  17
ENDBRANCH   1  14
BRANCH   5  19
HETATM   19  O2  UNL     1       6.135   7.830  -2.214  1.00  0.00    -0.353 OA
ATOM     20  H2  UNL     1       7.056   7.945  -2.010  1.00  0.00     0.218 HD
ENDBRANCH   5  19
TORSDOF 4
ENDMDL