MODEL 1
REMARK VINA RESULT: -5.993224527      0.000      0.000
REMARK  6 active torsions:
REMARK  status: ('A' for Active; 'I' for Inactive)
REMARK    1  A    between atoms: C2_2  and  C3_3
REMARK    2  A    between atoms: C3_3  and  C4_4
REMARK    3  A    between atoms: C4_4  and  N1_5
REMARK    4  A    between atoms: C5_6  and  O1_7
REMARK    5  A    between atoms: C6_9  and  C7_10
REMARK    6  A    between atoms: C8_11  and  C9_12
ROOT
HETATM    1  N1  UNL     1       4.286   7.053  -0.593  1.00  0.00    -0.302 N
HETATM    2  C5  UNL     1       4.195   5.758  -0.998  1.00  0.00     0.181 A
HETATM    3  C6  UNL     1       3.661   4.981   0.010  1.00  0.00     0.140 A
HETATM    4  N2  UNL     1       3.433   5.834   1.029  1.00  0.00    -0.322 N
ATOM      5  H2  UNL     1       3.037   5.579   1.934  1.00  0.00     0.169 HD
HETATM    6  C12 UNL     1       3.811   7.085   0.663  1.00  0.00     0.181 A
HETATM    7  S1  UNL     1       3.687   8.369   1.662  1.00  0.00    -0.040 SA
ENDROOT
BRANCH   3   8
HETATM    8  C7  UNL     1       3.397   3.557  -0.009  1.00  0.00    -0.041 C
HETATM    9  C8  UNL     1       3.196   2.368  -0.014  1.00  0.00    -0.056 C
BRANCH   9  10
HETATM   10  C9  UNL     1       2.968   0.927  -0.001  1.00  0.00     0.159 C
HETATM   11  C10 UNL     1       3.035   0.463   1.444  1.00  0.00     0.066 C
HETATM   12  C11 UNL     1       1.603   0.552  -0.523  1.00  0.00     0.066 C
HETATM   13  F1  UNL     1       3.908   0.260  -0.761  1.00  0.00    -0.230 F
ENDBRANCH   9  10
ENDBRANCH   3   8
BRANCH   2  14
HETATM   14  O1  UNL     1       4.588   5.292  -2.254  1.00  0.00    -0.344 OA
ATOM     15  H1  UNL     1       4.620   4.375  -2.504  1.00  0.00     0.219 HD
ENDBRANCH   2  14
BRANCH   1  16
HETATM   16  C4  UNL     1       4.812   8.135  -1.385  1.00  0.00     0.133 C
BRANCH  16  17
HETATM   17  C3  UNL     1       6.302   8.216  -1.432  1.00  0.00     0.020 C
BRANCH  17  18
HETATM   18  C2  UNL     1       6.917   9.034  -0.351  1.00  0.00    -0.003 C
HETATM   19  C1  UNL     1       6.222  10.398  -0.218  1.00  0.00     0.005 C
ENDBRANCH  17  18
ENDBRANCH  16  17
ENDBRANCH   1  16
TORSDOF 6
ENDMDL