MODEL 2
REMARK VINA RESULT: -5.991895908      2.405      2.965
REMARK  5 active torsions:
REMARK  status: ('A' for Active; 'I' for Inactive)
REMARK    1  A    between atoms: C2_2  and  C3_3
REMARK    2  A    between atoms: C3_3  and  C4_4
REMARK    3  A    between atoms: N1_5  and  C5_7
REMARK    4  A    between atoms: C8_11  and  O1_12
REMARK    5  A    between atoms: C10_15  and  O2_16
ROOT
HETATM    1  C5  UNL     1       3.931   6.577  -1.031  1.00  0.00     0.066 A
HETATM    2  C6  UNL     1       3.640   7.514  -0.063  1.00  0.00     0.054 A
HETATM    3  C7  UNL     1       4.382   8.678   0.029  1.00  0.00     0.046 A
HETATM    4 BR1  UNL     1       3.965   9.978   1.385  1.00  0.00    -0.048 Br
HETATM    5  C8  UNL     1       5.427   8.959  -0.824  1.00  0.00     0.085 A
HETATM    6  C9  UNL     1       5.716   8.021  -1.792  1.00  0.00     0.076 A
HETATM    7  C10 UNL     1       4.980   6.858  -1.887  1.00  0.00     0.095 A
ENDROOT
BRANCH   1   8
HETATM    8  N1  UNL     1       3.217   5.365  -1.185  1.00  0.00    -0.367 N
HETATM    9  C4  UNL     1       2.108   5.082  -0.635  1.00  0.00     0.061 C
ATOM     10  H1  UNL     1       3.630   4.656  -1.792  1.00  0.00     0.165 HD
BRANCH   9  11
HETATM   11  C3  UNL     1       1.506   3.751  -0.916  1.00  0.00     0.044 C
BRANCH  11  12
HETATM   12  C2  UNL     1      -0.001   3.820  -1.013  1.00  0.00     0.001 C
HETATM   13  C1  UNL     1      -0.398   5.274  -1.038  1.00  0.00     0.005 C
ENDBRANCH  11  12
ENDBRANCH   9  11
ENDBRANCH   1   8
BRANCH   7  14
HETATM   14  O2  UNL     1       5.285   5.918  -2.871  1.00  0.00    -0.358 OA
ATOM     15  H2  UNL     1       4.963   6.078  -3.751  1.00  0.00     0.217 HD
ENDBRANCH   7  14
BRANCH   5  16
HETATM   16  O1  UNL     1       6.167  10.146  -0.714  1.00  0.00    -0.359 OA
ATOM     17  H1  UNL     1       6.802  10.399  -1.373  1.00  0.00     0.217 HD
ENDBRANCH   5  16
TORSDOF 5
ENDMDL