MODEL 4
REMARK VINA RESULT: -6.309526645      2.744      5.672
REMARK  4 active torsions:
REMARK  status: ('A' for Active; 'I' for Inactive)
REMARK    1  A    between atoms: C2_2  and  C3_3
REMARK    2  A    between atoms: C6_8  and  C7_9
REMARK    3  A    between atoms: C7_9  and  N2_11
REMARK    4  A    between atoms: N2_11  and  C8_14
ROOT
HETATM    1  C7  UNL     1       2.186   5.992   0.578  1.00  0.00     0.317 C
HETATM    2 CL1  UNL     1       2.530   6.427   2.175  1.00  0.00    -0.089 Cl
ENDROOT
BRANCH   1   3
HETATM    3  C6  UNL     1       1.790   4.599   0.220  1.00  0.00     0.025 A
HETATM    4  C3  UNL     1       2.474   3.452   0.342  1.00  0.00    -0.040 A
HETATM    5  C4  UNL     1       1.827   2.289  -0.049  1.00  0.00     0.059 A
HETATM    6  S1  UNL     1       0.302   2.804  -0.572  1.00  0.00    -0.086 SA
HETATM    7  C5  UNL     1       0.487   4.460  -0.298  1.00  0.00     0.097 A
HETATM    8  N1  UNL     1      -0.475   5.512  -0.539  1.00  0.00    -0.094 NA
BRANCH   4   9
HETATM    9  C2  UNL     1       3.917   3.340   0.833  1.00  0.00     0.035 C
HETATM   10  C1  UNL     1       4.083   2.175   1.768  1.00  0.00     0.010 C
ENDBRANCH   4   9
ENDBRANCH   1   3
BRANCH   1  11
HETATM   11  N2  UNL     1       3.361   6.377  -0.235  1.00  0.00    -0.050 N
ATOM     12  H22 UNL     1       4.034   5.615  -0.312  1.00  0.00     0.279 HD
ATOM     13  H21 UNL     1       3.122   6.473  -1.221  1.00  0.00     0.279 HD
BRANCH  11  14
HETATM   14  C8  UNL     1       3.968   7.570   0.281  1.00  0.00     0.188 C
HETATM   15  C9  UNL     1       3.724   8.736  -0.620  1.00  0.00     0.033 C
HETATM   16  C10 UNL     1       5.008   9.525  -0.708  1.00  0.00     0.002 C
HETATM   17  C11 UNL     1       6.070   8.500  -0.500  1.00  0.00     0.002 C
HETATM   18  C12 UNL     1       5.472   7.450   0.388  1.00  0.00     0.033 C
ENDBRANCH  11  14
ENDBRANCH   1  11
TORSDOF 4
ENDMDL