MODEL 4
REMARK VINA RESULT: -6.282465323      2.298      3.508
REMARK  5 active torsions:
REMARK  status: ('A' for Active; 'I' for Inactive)
REMARK    1  A    between atoms: C2_2  and  C3_3
REMARK    2  A    between atoms: C3_3  and  C4_4
REMARK    3  A    between atoms: C3_3  and  C8_14
REMARK    4  A    between atoms: C5_6  and  O2_7
REMARK    5  A    between atoms: C6_9  and  O3_10
ROOT
HETATM    1  C4  UNL     1       4.639   7.903   0.579  1.00  0.00     0.105 A
HETATM    2  O1  UNL     1       4.164   8.179   1.787  1.00  0.00    -0.284 OA
HETATM    3  C5  UNL     1       3.234   7.337   2.155  1.00  0.00     0.219 A
HETATM    4  C6  UNL     1       3.039   6.405   1.160  1.00  0.00     0.144 A
HETATM    5  C7  UNL     1       3.940   6.765   0.141  1.00  0.00     0.083 A
HETATM    6 BR1  UNL     1       4.183   5.777  -1.479  1.00  0.00    -0.045 Br
ENDROOT
BRANCH   1   7
HETATM    7  C3  UNL     1       5.657   8.619  -0.187  1.00  0.00    -0.020 C
BRANCH   7   8
HETATM    8  C2  UNL     1       7.028   8.131  -0.181  1.00  0.00    -0.000 C
HETATM    9  C1  UNL     1       7.970   8.381  -1.074  1.00  0.00     0.012 C
ENDBRANCH   7   8
BRANCH   7  10
HETATM   10  C8  UNL     1       5.464  10.030  -0.524  1.00  0.00     0.013 C
HETATM   11  C9  UNL     1       6.187  11.049   0.290  1.00  0.00     0.015 C
HETATM   12  C10 UNL     1       3.989  10.444  -0.517  1.00  0.00     0.015 C
ENDBRANCH   7  10
ENDBRANCH   1   7
BRANCH   3  13
HETATM   13  O2  UNL     1       2.486   7.325   3.360  1.00  0.00    -0.339 OA
ATOM     14  H2  UNL     1       2.055   6.589   3.777  1.00  0.00     0.220 HD
ENDBRANCH   3  13
BRANCH   4  15
HETATM   15  O3  UNL     1       2.151   5.346   1.174  1.00  0.00    -0.355 OA
ATOM     16  H3  UNL     1       2.208   4.559   1.703  1.00  0.00     0.218 HD
ENDBRANCH   4  15
TORSDOF 5
ENDMDL