MODEL 3
REMARK VINA RESULT: -6.986001611      2.080      3.593
REMARK  3 active torsions:
REMARK  status: ('A' for Active; 'I' for Inactive)
REMARK    1  A    between atoms: C5_5  and  N1_6
REMARK    2  A    between atoms: N1_6  and  C6_8
REMARK    3  A    between atoms: C6_8  and  C7_9
ROOT
HETATM    1  C1  UNL     1      -1.418   3.777  -0.397  1.00  0.00     0.018 C
HETATM    2  C2  UNL     1      -0.238   4.025  -0.278  1.00  0.00    -0.076 C
HETATM    3  C3  UNL     1       1.154   4.339  -0.134  1.00  0.00     0.037 A
HETATM    4  C4  UNL     1       1.657   5.601  -0.253  1.00  0.00     0.051 A
HETATM    5  C5  UNL     1       3.036   5.733  -0.083  1.00  0.00     0.030 A
HETATM    6  C10 UNL     1       3.852   4.680   0.184  1.00  0.00     0.044 A
HETATM    7  C11 UNL     1       3.347   3.375   0.309  1.00  0.00     0.013 A
HETATM    8  C12 UNL     1       4.037   2.242   0.570  1.00  0.00     0.103 A
HETATM    9  N2  UNL     1       5.480   2.176   0.777  1.00  0.00    -0.098 NA
HETATM   10  C13 UNL     1       3.321   1.079   0.645  1.00  0.00     0.183 A
HETATM   11  F1  UNL     1       3.799  -0.190   0.898  1.00  0.00    -0.196 F
HETATM   12  S1  UNL     1       1.717   1.593   0.349  1.00  0.00    -0.056 SA
HETATM   13  C14 UNL     1       2.003   3.258   0.142  1.00  0.00     0.038 A
ENDROOT
BRANCH   5  14
HETATM   14  N1  UNL     1       3.579   7.048  -0.204  1.00  0.00    -0.389 N
ATOM     15  H1  UNL     1       3.044   7.800  -0.636  1.00  0.00     0.159 HD
BRANCH  14  16
HETATM   16  C6  UNL     1       4.908   7.279   0.304  1.00  0.00     0.124 C
BRANCH  16  17
HETATM   17  C7  UNL     1       4.957   8.295   1.395  1.00  0.00     0.003 A
HETATM   18  C8  UNL     1       3.935   9.361   1.496  1.00  0.00     0.007 A
HETATM   19  C9  UNL     1       3.875   8.174   2.439  1.00  0.00     0.007 A
ENDBRANCH  16  17
ENDBRANCH  14  16
ENDBRANCH   5  14
TORSDOF 3
ENDMDL