MODEL 5
REMARK VINA RESULT: -5.921638212      1.090      1.476
REMARK  6 active torsions:
REMARK  status: ('A' for Active; 'I' for Inactive)
REMARK    1  A    between atoms: C1_2  and  C2_5
REMARK    2  A    between atoms: C2_5  and  S1_6
REMARK    3  A    between atoms: C2_5  and  C7_14
REMARK    4  A    between atoms: S1_6  and  C3_7
REMARK    5  A    between atoms: C3_7  and  N1_9
REMARK    6  A    between atoms: N1_9  and  C4_11
ROOT
HETATM    1  C2  UNL     1     -13.167  -2.828 -37.353  1.00  0.00     0.166 C
ENDROOT
BRANCH   1   2
HETATM    2  C1  UNL     1     -12.423  -3.725 -36.353  1.00  0.00     0.400 C
HETATM    3  F1  UNL     1     -13.384  -4.045 -35.385  1.00  0.00    -0.170 F
HETATM    4  F2  UNL     1     -11.456  -3.012 -35.688  1.00  0.00    -0.170 F
HETATM    5  F3  UNL     1     -12.002  -4.890 -36.910  1.00  0.00    -0.170 F
ENDBRANCH   1   2
BRANCH   1   6
HETATM    6  S1  UNL     1     -13.916  -3.874 -38.599  1.00  0.00    -0.086 SA
BRANCH   6   7
HETATM    7  C3  UNL     1     -15.637  -3.608 -38.876  1.00  0.00     0.135 C
HETATM    8  S2  UNL     1     -16.610  -4.808 -39.387  1.00  0.00    -0.053 SA
BRANCH   7   9
HETATM    9  N1  UNL     1     -16.222  -2.311 -38.670  1.00  0.00    -0.371 N
ATOM     10  H1  UNL     1     -15.785  -1.497 -39.102  1.00  0.00     0.161 HD
BRANCH   9  11
HETATM   11  C4  UNL     1     -17.400  -2.127 -37.877  1.00  0.00     0.083 A
HETATM   12  C5  UNL     1     -17.378  -1.086 -36.781  1.00  0.00     0.027 A
HETATM   13  C6  UNL     1     -18.143  -0.839 -38.031  1.00  0.00     0.027 A
ENDBRANCH   9  11
ENDBRANCH   7   9
ENDBRANCH   6   7
ENDBRANCH   1   6
BRANCH   1  14
HETATM   14  C7  UNL     1     -12.207  -1.827 -37.951  1.00  0.00     0.008 A
HETATM   15  C8  UNL     1     -12.275  -1.362 -39.340  1.00  0.00     0.006 A
HETATM   16  C9  UNL     1     -11.231  -2.402 -38.954  1.00  0.00     0.006 A
ENDBRANCH   1  14
TORSDOF 6
ENDMDL