MODEL 3
REMARK VINA RESULT: -7.250181461      1.662      2.711
REMARK  5 active torsions:
REMARK  status: ('A' for Active; 'I' for Inactive)
REMARK    1  A    between atoms: N1_1  and  C1_5
REMARK    2  A    between atoms: C3_7  and  C4_8
REMARK    3  A    between atoms: C4_8  and  C5_9
REMARK    4  A    between atoms: C6_10  and  C7_11
REMARK    5  A    between atoms: C12_17  and  C13_18
ROOT
HETATM    1  C1  UNL     1     -11.318  -3.712 -38.618  1.00  0.00     0.223 C
HETATM    2  C2  UNL     1     -12.256  -4.427 -37.666  1.00  0.00     0.068 C
HETATM    3  C3  UNL     1     -12.786  -3.235 -36.894  1.00  0.00     0.128 C
HETATM    4  O1  UNL     1     -12.997  -2.291 -37.859  1.00  0.00    -0.369 OA
HETATM    5  C12 UNL     1     -11.972  -2.408 -38.806  1.00  0.00     0.259 C
ENDROOT
BRANCH   3   6
HETATM    6  C4  UNL     1     -14.090  -3.578 -36.186  1.00  0.00     0.059 C
BRANCH   6   7
HETATM    7  C5  UNL     1     -15.039  -4.019 -37.227  1.00  0.00    -0.028 C
HETATM    8  C6  UNL     1     -16.010  -3.427 -37.832  1.00  0.00    -0.026 C
BRANCH   8   9
HETATM    9  C7  UNL     1     -16.605  -2.116 -37.787  1.00  0.00     0.008 C
HETATM   10  C8  UNL     1     -17.804  -1.806 -38.579  1.00  0.00     0.008 C
HETATM   11  C9  UNL     1     -18.137  -0.389 -38.096  1.00  0.00     0.001 C
HETATM   12  C10 UNL     1     -18.005  -0.553 -36.591  1.00  0.00     0.001 C
HETATM   13  C11 UNL     1     -17.065  -1.730 -36.374  1.00  0.00     0.008 C
ENDBRANCH   8   9
ENDBRANCH   6   7
ENDBRANCH   3   6
BRANCH   1  14
HETATM   14  N1  UNL     1     -11.048  -4.464 -39.804  1.00  0.00    -0.072 N
ATOM     15  H13 UNL     1     -11.369  -3.964 -40.634  1.00  0.00     0.274 HD
ATOM     16  H12 UNL     1     -10.047  -4.488 -40.000  1.00  0.00     0.274 HD
ATOM     17  H11 UNL     1     -11.437  -5.407 -39.775  1.00  0.00     0.274 HD
ENDBRANCH   1  14
BRANCH   5  18
HETATM   18  C13 UNL     1     -12.572  -2.156 -40.146  1.00  0.00     0.415 C
HETATM   19  F1  UNL     1     -12.662  -0.764 -40.296  1.00  0.00    -0.168 F
HETATM   20  F2  UNL     1     -11.814  -2.602 -41.198  1.00  0.00    -0.168 F
HETATM   21  F3  UNL     1     -13.869  -2.628 -40.176  1.00  0.00    -0.168 F
ENDBRANCH   5  18
TORSDOF 5
ENDMDL