MODEL 4
REMARK VINA RESULT: -6.245153346      4.008      4.781
REMARK  4 active torsions:
REMARK  status: ('A' for Active; 'I' for Inactive)
REMARK    1  A    between atoms: C2_2  and  S1_4
REMARK    2  A    between atoms: S1_4  and  C4_5
REMARK    3  A    between atoms: N1_10  and  C9_12
REMARK    4  A    between atoms: C9_12  and  C10_13
ROOT
HETATM    1  C4  UNL     1     -14.248  -2.565 -39.069  1.00  0.00     0.145 C
HETATM    2  C5  UNL     1     -13.989  -3.796 -38.191  1.00  0.00     0.036 C
HETATM    3  C6  UNL     1     -15.027  -3.808 -37.093  1.00  0.00     0.010 C
HETATM    4  C7  UNL     1     -16.403  -3.707 -37.654  1.00  0.00     0.076 C
HETATM    5  C8  UNL     1     -16.383  -3.774 -39.136  1.00  0.00     0.073 C
HETATM    6  N1  UNL     1     -17.100  -4.572 -39.851  1.00  0.00    -0.371 N
ATOM      7  H1  UNL     1     -16.975  -4.500 -40.861  1.00  0.00     0.161 HD
HETATM    8  N2  UNL     1     -15.480  -2.858 -39.775  1.00  0.00    -0.367 N
ATOM      9  H2  UNL     1     -15.694  -2.435 -40.678  1.00  0.00     0.162 HD
ENDROOT
BRANCH   6  10
HETATM   10  C9  UNL     1     -18.033  -5.532 -39.413  1.00  0.00     0.238 C
BRANCH  10  11
HETATM   11  C10 UNL     1     -17.436  -6.942 -39.471  1.00  0.00     0.403 C
HETATM   12  F1  UNL     1     -18.331  -7.788 -40.077  1.00  0.00    -0.169 F
HETATM   13  F2  UNL     1     -16.212  -6.957 -40.079  1.00  0.00    -0.169 F
HETATM   14  F3  UNL     1     -17.321  -7.372 -38.150  1.00  0.00    -0.169 F
ENDBRANCH  10  11
ENDBRANCH   6  10
BRANCH   1  15
HETATM   15  S1  UNL     1     -12.871  -2.338 -40.229  1.00  0.00    -0.140 SA
BRANCH  15  16
HETATM   16  C2  UNL     1     -11.460  -3.338 -39.778  1.00  0.00     0.041 C
HETATM   17  C1  UNL     1     -10.592  -3.699 -40.969  1.00  0.00     0.021 C
HETATM   18  C3  UNL     1     -10.605  -2.554 -38.791  1.00  0.00     0.021 C
ENDBRANCH  15  16
ENDBRANCH   1  15
TORSDOF 4
ENDMDL