MODEL 4
REMARK VINA RESULT: -6.563237219      2.177      2.910
REMARK  5 active torsions:
REMARK  status: ('A' for Active; 'I' for Inactive)
REMARK    1  A    between atoms: O1_2  and  C2_3
REMARK    2  A    between atoms: C5_6  and  N1_7
REMARK    3  A    between atoms: N1_7  and  C6_10
REMARK    4  A    between atoms: C6_10  and  C7_11
REMARK    5  A    between atoms: C7_11  and  C8_12
ROOT
HETATM    1  N1  UNL     1     -13.987  -3.120 -37.664  1.00  0.00    -0.070 N
ATOM      2  H11 UNL     1     -13.589  -3.393 -36.765  1.00  0.00     0.277 HD
ATOM      3  H12 UNL     1     -13.838  -2.112 -37.620  1.00  0.00     0.277 HD
ENDROOT
BRANCH   1   4
HETATM    4  C5  UNL     1     -15.404  -3.423 -37.706  1.00  0.00     0.186 C
HETATM    5  C4  UNL     1     -16.164  -2.144 -37.761  1.00  0.00     0.035 C
HETATM    6  C3  UNL     1     -17.590  -2.311 -38.185  1.00  0.00     0.034 C
HETATM    7  C2  UNL     1     -18.033  -3.720 -38.417  1.00  0.00     0.120 C
HETATM    8  C12 UNL     1     -17.058  -4.533 -39.229  1.00  0.00     0.034 C
HETATM    9  C11 UNL     1     -15.627  -4.164 -39.002  1.00  0.00     0.035 C
BRANCH   7  10
HETATM   10  O1  UNL     1     -19.255  -3.841 -39.022  1.00  0.00    -0.391 OA
HETATM   11  C1  UNL     1     -19.489  -5.029 -39.662  1.00  0.00     0.202 C
ENDBRANCH   7  10
ENDBRANCH   1   4
BRANCH   1  12
HETATM   12  C6  UNL     1     -13.232  -3.695 -38.743  1.00  0.00     0.251 C
BRANCH  12  13
HETATM   13  C7  UNL     1     -12.251  -2.692 -39.296  1.00  0.00     0.081 A
HETATM   14  C9  UNL     1     -12.322  -1.264 -38.846  1.00  0.00     0.021 A
HETATM   15  C10 UNL     1     -12.660  -1.678 -40.270  1.00  0.00     0.021 A
BRANCH  13  16
HETATM   16  C8  UNL     1     -10.818  -3.224 -39.378  1.00  0.00     0.397 C
HETATM   17  F1  UNL     1     -10.041  -2.426 -38.585  1.00  0.00    -0.170 F
HETATM   18  F2  UNL     1     -10.856  -4.499 -38.821  1.00  0.00    -0.170 F
HETATM   19  F3  UNL     1     -10.376  -3.339 -40.662  1.00  0.00    -0.170 F
ENDBRANCH  13  16
ENDBRANCH  12  13
ENDBRANCH   1  12
TORSDOF 5
ENDMDL