MODEL 2
REMARK VINA RESULT: -7.744330774      1.441      1.762
REMARK  4 active torsions:
REMARK  status: ('A' for Active; 'I' for Inactive)
REMARK    1  A    between atoms: C3_3  and  C4_4
REMARK    2  A    between atoms: C3_3  and  C13_16
REMARK    3  A    between atoms: C4_4  and  C5_5
REMARK    4  A    between atoms: C5_5  and  C6_6
ROOT
HETATM    1  C1  UNL     1     -17.231  -2.117 -38.870  1.00  0.00     0.097 C
HETATM    2  C2  UNL     1     -16.125  -2.410 -38.426  1.00  0.00    -0.174 C
HETATM    3  C3  UNL     1     -14.836  -2.763 -37.861  1.00  0.00     0.160 C
ENDROOT
BRANCH   3   4
HETATM    4  C4  UNL     1     -13.850  -3.312 -38.759  1.00  0.00     0.042 C
BRANCH   4   5
HETATM    5  C5  UNL     1     -12.662  -2.633 -39.272  1.00  0.00     0.019 C
HETATM    6  C8  UNL     1     -12.301  -1.650 -38.106  1.00  0.00     0.047 C
HETATM    7  C9  UNL     1     -11.242  -2.350 -37.322  1.00  0.00     0.025 C
HETATM    8  C10 UNL     1     -11.706  -3.091 -36.112  1.00  0.00     0.038 C
HETATM    9  C11 UNL     1     -10.291  -1.267 -36.831  1.00  0.00     0.038 C
HETATM   10  N1  UNL     1     -10.650  -3.199 -38.291  1.00  0.00    -0.373 N
HETATM   11  C12 UNL     1     -11.397  -3.358 -39.340  1.00  0.00     0.098 C
ATOM     12  H1  UNL     1      -9.736  -3.638 -38.177  1.00  0.00     0.161 HD
HETATM   13  N2  UNL     1     -10.821  -4.188 -40.380  1.00  0.00    -0.087 NA
BRANCH   5  14
HETATM   14  C6  UNL     1     -12.877  -1.686 -40.416  1.00  0.00     0.012 C
HETATM   15  C7  UNL     1     -13.999  -1.890 -41.327  1.00  0.00     0.006 C
ENDBRANCH   5  14
ENDBRANCH   4   5
ENDBRANCH   3   4
BRANCH   3  16
HETATM   16  C13 UNL     1     -15.174  -3.870 -36.821  1.00  0.00     0.400 C
HETATM   17  F1  UNL     1     -14.039  -4.574 -36.491  1.00  0.00    -0.170 F
HETATM   18  F2  UNL     1     -16.127  -4.706 -37.355  1.00  0.00    -0.170 F
HETATM   19  F3  UNL     1     -15.631  -3.231 -35.684  1.00  0.00    -0.170 F
ENDBRANCH   3  16
TORSDOF 4
ENDMDL