MODEL 3
REMARK VINA RESULT: -7.125531745      1.150      1.819
REMARK  5 active torsions:
REMARK  status: ('A' for Active; 'I' for Inactive)
REMARK    1  A    between atoms: C2_2  and  C3_3
REMARK    2  A    between atoms: C3_3  and  O1_4
REMARK    3  A    between atoms: O1_4  and  C4_5
REMARK    4  A    between atoms: C7_8  and  N1_9
REMARK    5  A    between atoms: C7_8  and  C8_13
ROOT
HETATM    1  C4  UNL     1     -14.554  -3.524 -37.195  1.00  0.00     0.121 C
HETATM    2  C5  UNL     1     -13.939  -3.544 -38.591  1.00  0.00     0.035 C
HETATM    3  C6  UNL     1     -12.737  -2.627 -38.478  1.00  0.00     0.051 C
HETATM    4  C7  UNL     1     -11.731  -3.377 -37.652  1.00  0.00     0.220 C
HETATM    5  C9  UNL     1     -12.205  -3.786 -36.314  1.00  0.00     0.051 C
HETATM    6  C10 UNL     1     -13.646  -4.038 -36.146  1.00  0.00     0.035 C
ENDROOT
BRANCH   4   7
HETATM    7  N1  UNL     1     -11.391  -4.589 -38.412  1.00  0.00    -0.062 N
ATOM      8  H13 UNL     1     -12.026  -4.770 -39.189  1.00  0.00     0.275 HD
ATOM      9  H12 UNL     1     -10.539  -4.494 -38.965  1.00  0.00     0.275 HD
ATOM     10  H11 UNL     1     -11.351  -5.352 -37.736  1.00  0.00     0.275 HD
ENDBRANCH   4   7
BRANCH   4  11
HETATM   11  C8  UNL     1     -10.446  -2.564 -37.588  1.00  0.00     0.420 C
HETATM   12  F1  UNL     1      -9.518  -2.998 -38.500  1.00  0.00    -0.168 F
HETATM   13  F2  UNL     1      -9.929  -2.518 -36.317  1.00  0.00    -0.168 F
HETATM   14  F3  UNL     1     -10.792  -1.263 -37.939  1.00  0.00    -0.168 F
ENDBRANCH   4  11
BRANCH   1  15
HETATM   15  O1  UNL     1     -15.748  -4.216 -37.154  1.00  0.00    -0.385 OA
BRANCH  15  16
HETATM   16  C3  UNL     1     -16.434  -4.112 -38.384  1.00  0.00     0.177 C
BRANCH  16  17
HETATM   17  C2  UNL     1     -17.634  -3.226 -38.214  1.00  0.00    -0.022 A
HETATM   18  C1  UNL     1     -18.966  -3.941 -38.400  1.00  0.00     0.017 C
HETATM   19  C11 UNL     1     -17.527  -1.798 -38.654  1.00  0.00     0.012 A
HETATM   20  C12 UNL     1     -17.633  -2.151 -37.195  1.00  0.00     0.012 A
ENDBRANCH  16  17
ENDBRANCH  15  16
ENDBRANCH   1  15
TORSDOF 5
ENDMDL