MODEL 2
REMARK VINA RESULT: -7.508452653      1.352      2.078
REMARK  5 active torsions:
REMARK  status: ('A' for Active; 'I' for Inactive)
REMARK    1  A    between atoms: N1_1  and  C1_5
REMARK    2  A    between atoms: C3_7  and  C4_8
REMARK    3  A    between atoms: N2_12  and  C5_13
REMARK    4  A    between atoms: C5_13  and  C6_14
REMARK    5  A    between atoms: C6_14  and  C7_15
ROOT
HETATM    1  C1  UNL     1     -10.858  -3.203 -40.343  1.00  0.00     0.214 C
HETATM    2  C2  UNL     1     -10.764  -3.704 -38.940  1.00  0.00     0.079 C
HETATM    3  C3  UNL     1     -11.979  -3.085 -38.244  1.00  0.00     0.331 C
HETATM    4  N2  UNL     1     -12.991  -3.146 -39.262  1.00  0.00     0.104 N
HETATM    5  C13 UNL     1     -12.338  -3.043 -40.547  1.00  0.00     0.305 C
ENDROOT
BRANCH   4   6
HETATM    6  C5  UNL     1     -13.995  -2.110 -39.115  1.00  0.00     0.273 C
BRANCH   6   7
HETATM    7  C6  UNL     1     -15.295  -2.671 -39.651  1.00  0.00     0.034 C
BRANCH   7   8
HETATM    8  C7  UNL     1     -16.265  -3.048 -38.531  1.00  0.00    -0.013 C
HETATM    9  C8  UNL     1     -16.691  -4.455 -38.595  1.00  0.00     0.005 C
HETATM   10  C9  UNL     1     -18.112  -4.795 -38.534  1.00  0.00     0.000 C
HETATM   11  C10 UNL     1     -19.101  -3.697 -38.524  1.00  0.00     0.000 C
HETATM   12  C11 UNL     1     -18.591  -2.465 -37.834  1.00  0.00     0.000 C
HETATM   13  C12 UNL     1     -17.373  -2.031 -38.606  1.00  0.00     0.005 C
ENDBRANCH   7   8
ENDBRANCH   6   7
ENDBRANCH   4   6
BRANCH   3  14
HETATM   14  C4  UNL     1     -12.297  -4.013 -37.080  1.00  0.00     0.418 C
HETATM   15  F1  UNL     1     -13.635  -4.224 -36.946  1.00  0.00    -0.169 F
HETATM   16  F2  UNL     1     -11.712  -5.253 -37.326  1.00  0.00    -0.169 F
HETATM   17  F3  UNL     1     -11.709  -3.514 -35.940  1.00  0.00    -0.169 F
ENDBRANCH   3  14
BRANCH   1  18
HETATM   18  N1  UNL     1     -10.317  -4.101 -41.340  1.00  0.00    -0.073 N
ATOM     19  H13 UNL     1      -9.591  -4.688 -40.930  1.00  0.00     0.274 HD
ATOM     20  H12 UNL     1     -11.003  -4.814 -41.585  1.00  0.00     0.274 HD
ATOM     21  H11 UNL     1      -9.968  -3.640 -42.180  1.00  0.00     0.274 HD
ENDBRANCH   1  18
TORSDOF 5
ENDMDL