MODEL 2
REMARK VINA RESULT: -7.049009683      2.276      3.363
REMARK  5 active torsions:
REMARK  status: ('A' for Active; 'I' for Inactive)
REMARK    1  A    between atoms: C2_2  and  C4_4
REMARK    2  A    between atoms: C4_4  and  C5_5
REMARK    3  A    between atoms: C5_5  and  N2_10
REMARK    4  A    between atoms: N1_6  and  O1_8
REMARK    5  A    between atoms: C8_13  and  C9_14
ROOT
HETATM    1  N2  UNL     1     -13.350  -3.294 -39.300  1.00  0.00    -0.369 N
HETATM    2  C6  UNL     1     -14.220  -2.485 -40.151  1.00  0.00     0.125 C
HETATM    3  C7  UNL     1     -15.634  -2.699 -39.651  1.00  0.00     0.033 C
HETATM    4  C8  UNL     1     -15.649  -2.327 -38.187  1.00  0.00     0.096 C
HETATM    5  C10 UNL     1     -14.927  -3.374 -37.413  1.00  0.00     0.033 C
HETATM    6  C11 UNL     1     -13.851  -4.077 -38.191  1.00  0.00     0.125 C
ENDROOT
BRANCH   1   7
HETATM    7  C5  UNL     1     -11.961  -3.307 -39.580  1.00  0.00     0.099 C
HETATM    8  N1  UNL     1     -11.607  -3.207 -40.811  1.00  0.00    -0.257 N
ATOM      9  H1  UNL     1     -12.330  -3.125 -41.527  1.00  0.00     0.195 HD
BRANCH   7  10
HETATM   10  C4  UNL     1     -10.915  -3.426 -38.557  1.00  0.00     0.082 C
BRANCH  10  11
HETATM   11  C2  UNL     1     -10.702  -2.180 -37.752  1.00  0.00    -0.016 C
HETATM   12  C1  UNL     1     -11.552  -1.033 -38.170  1.00  0.00     0.010 C
HETATM   13  C3  UNL     1     -11.018  -2.513 -36.305  1.00  0.00     0.010 C
ENDBRANCH  10  11
ENDBRANCH   7  10
BRANCH   8  14
HETATM   14  O1  UNL     1     -10.285  -3.209 -41.197  1.00  0.00    -0.288 OA
ATOM     15  H1  UNL     1     -10.024  -3.274 -42.108  1.00  0.00     0.244 HD
ENDBRANCH   8  14
ENDBRANCH   1   7
BRANCH   4  16
HETATM   16  C9  UNL     1     -17.082  -2.142 -37.735  1.00  0.00     0.391 C
HETATM   17  F1  UNL     1     -17.090  -1.611 -36.460  1.00  0.00    -0.171 F
HETATM   18  F2  UNL     1     -17.773  -3.318 -37.697  1.00  0.00    -0.171 F
HETATM   19  F3  UNL     1     -17.710  -1.274 -38.625  1.00  0.00    -0.171 F
ENDBRANCH   4  16
TORSDOF 5
ENDMDL