MODEL 1
REMARK VINA RESULT: -5.570506885      0.000      0.000
REMARK  2 active torsions:
REMARK  status: ('A' for Active; 'I' for Inactive)
REMARK    1  A    between atoms: O1_2  and  C2_3
REMARK    2  A    between atoms: C11_14  and  N2_15
ROOT
HETATM    1  C2  UNL     1      15.576  -3.972  38.965  1.00  0.00     0.083 A
HETATM    2  C3  UNL     1      15.733  -4.037  37.657  1.00  0.00     0.120 A
HETATM    3  N1  UNL     1      14.765  -3.598  36.736  1.00  0.00    -0.386 N
ATOM      4  H1  UNL     1      14.944  -3.725  35.740  1.00  0.00     0.159 HD
HETATM    5  C4  UNL     1      13.548  -2.984  37.135  1.00  0.00     0.145 A
HETATM    6  C5  UNL     1      13.398  -2.952  38.595  1.00  0.00    -0.031 A
HETATM    7  C6  UNL     1      14.310  -3.390  39.403  1.00  0.00     0.047 A
HETATM    8  C7  UNL     1      12.101  -2.416  39.086  1.00  0.00     0.012 C
HETATM    9  C8  UNL     1      10.995  -2.781  38.417  1.00  0.00    -0.081 C
HETATM   10  C9  UNL     1       9.665  -2.291  38.830  1.00  0.00     0.043 C
HETATM   11  C10 UNL     1      11.110  -3.721  37.290  1.00  0.00     0.069 C
HETATM   12  C11 UNL     1      12.316  -3.500  36.473  1.00  0.00     0.214 C
ENDROOT
BRANCH  12  13
HETATM   13  N2  UNL     1      12.648  -4.693  35.679  1.00  0.00    -0.072 N
ATOM     14  H23 UNL     1      12.104  -4.746  34.818  1.00  0.00     0.274 HD
ATOM     15  H22 UNL     1      13.576  -4.631  35.261  1.00  0.00     0.274 HD
ATOM     16  H21 UNL     1      12.539  -5.527  36.255  1.00  0.00     0.274 HD
ENDBRANCH  12  13
BRANCH   1  17
HETATM   17  O1  UNL     1      16.525  -4.410  39.849  1.00  0.00    -0.355 OA
HETATM   18  C1  UNL     1      16.870  -5.782  39.929  1.00  0.00     0.210 C
ENDBRANCH   1  17
TORSDOF 2
ENDMDL