MODEL 5
REMARK VINA RESULT: -8.451275106      3.625      4.920
REMARK  5 active torsions:
REMARK  status: ('A' for Active; 'I' for Inactive)
REMARK    1  A    between atoms: C6_6  and  O1_8
REMARK    2  A    between atoms: C8_10  and  N1_11
REMARK       I    between atoms: N1_11  and  C9_12
REMARK    3  A    between atoms: C9_12  and  C10_14
REMARK    4  A    between atoms: C10_14  and  C11_15
REMARK    5  A    between atoms: C17_23  and  C18_24
ROOT
HETATM    1  C10 UNL     1      15.777  -2.892  37.405  1.00  0.00     0.157 C
ENDROOT
BRANCH   1   2
HETATM    2  C9  UNL     1      15.310  -2.610  38.849  1.00  0.00     0.291 C
HETATM    3  N1  UNL     1      14.029  -2.987  39.111  1.00  0.00    -0.406 NA
HETATM    4  O2  UNL     1      16.149  -2.084  39.597  1.00  0.00    -0.257 OA
BRANCH   3   5
HETATM    5  C8  UNL     1      12.731  -3.367  39.378  1.00  0.00     0.204 C
HETATM    6  C2  UNL     1      11.964  -3.696  38.100  1.00  0.00     0.024 C
HETATM    7  C1  UNL     1      11.460  -5.098  38.042  1.00  0.00     0.014 C
HETATM    8  C3  UNL     1      10.828  -2.703  38.000  1.00  0.00    -0.009 C
HETATM    9  C4  UNL     1      10.600  -2.237  36.571  1.00  0.00     0.010 C
HETATM   10  C5  UNL     1      11.285  -1.584  38.889  1.00  0.00     0.045 C
HETATM   11  C6  UNL     1      11.853  -2.316  40.073  1.00  0.00     0.087 C
HETATM   12  C7  UNL     1      10.799  -3.029  40.905  1.00  0.00     0.049 C
BRANCH  11  13
HETATM   13  O1  UNL     1      12.577  -1.478  40.917  1.00  0.00    -0.387 OA
ATOM     14  H1  UNL     1      12.785  -1.893  41.746  1.00  0.00     0.210 HD
ENDBRANCH  11  13
ENDBRANCH   3   5
ENDBRANCH   1   2
BRANCH   1  15
HETATM   15  C11 UNL     1      17.234  -2.832  37.376  1.00  0.00    -0.044 A
HETATM   16  C12 UNL     1      17.936  -3.919  37.866  1.00  0.00     0.032 A
HETATM   17  C13 UNL     1      19.310  -3.954  37.845  1.00  0.00     0.043 A
HETATM   18 CL1  UNL     1      20.188  -5.345  38.490  1.00  0.00    -0.084 Cl
HETATM   19  C14 UNL     1      19.996  -2.872  37.320  1.00  0.00    -0.000 A
HETATM   20  C15 UNL     1      19.306  -1.769  36.825  1.00  0.00     0.078 A
HETATM   21  C19 UNL     1      21.451  -2.608  37.154  1.00  0.00     0.086 C
HETATM   22  C16 UNL     1      17.929  -1.770  36.862  1.00  0.00     0.045 A
HETATM   23  O3  UNL     1      20.215  -0.809  36.354  1.00  0.00    -0.334 OA
HETATM   24  C17 UNL     1      21.467  -1.459  36.144  1.00  0.00     0.234 C
BRANCH  24  25
HETATM   25  C18 UNL     1      21.584  -1.962  34.769  1.00  0.00     0.204 C
HETATM   26  O4  UNL     1      21.415  -3.167  34.490  1.00  0.00    -0.646 OA
HETATM   27  O5  UNL     1      21.896  -1.056  33.741  1.00  0.00    -0.646 OA
ENDBRANCH  24  25
ENDBRANCH   1  15
TORSDOF 5
ENDMDL