MODEL 1
REMARK VINA RESULT: -8.287950633      0.000      0.000
REMARK  8 active torsions:
REMARK  status: ('A' for Active; 'I' for Inactive)
REMARK    1  A    between atoms: C2_2  and  C4_4
REMARK    2  A    between atoms: C2_2  and  C5_7
REMARK    3  A    between atoms: C4_4  and  O1_5
REMARK    4  A    between atoms: C5_7  and  C6_8
REMARK    5  A    between atoms: C6_8  and  O2_9
REMARK    6  A    between atoms: C8_12  and  O3_13
REMARK    7  A    between atoms: C8_12  and  C9_15
REMARK    8  A    between atoms: C9_15  and  C10_16
ROOT
HETATM    1  C5  UNL     1      12.265  -2.596  38.792  1.00  0.00     0.093 C
HETATM    2  C7  UNL     1      13.518  -2.859  39.529  1.00  0.00     0.079 C
HETATM    3  C8  UNL     1      14.682  -3.357  38.693  1.00  0.00     0.065 C
HETATM    4  C18 UNL     1      14.242  -4.156  37.525  1.00  0.00     0.064 C
HETATM    5  C19 UNL     1      13.218  -3.363  36.779  1.00  0.00     0.172 C
HETATM    6  O6  UNL     1      12.222  -2.822  37.464  1.00  0.00    -0.377 OA
ENDROOT
BRANCH   3   7
HETATM    7  O3  UNL     1      15.514  -4.186  39.484  1.00  0.00    -0.390 OA
ATOM      8  H3  UNL     1      15.351  -5.097  39.269  1.00  0.00     0.210 HD
ENDBRANCH   3   7
BRANCH   3   9
HETATM    9  C9  UNL     1      15.543  -2.203  38.252  1.00  0.00     0.072 C
BRANCH   9  10
HETATM   10  C10 UNL     1      16.876  -2.113  38.919  1.00  0.00     0.156 C
HETATM   11  C11 UNL     1      17.807  -3.204  38.355  1.00  0.00     0.208 C
HETATM   12  O4  UNL     1      18.427  -2.755  37.173  1.00  0.00    -0.346 OA
HETATM   13  C12 UNL     1      19.085  -1.535  37.203  1.00  0.00     0.102 A
HETATM   14  C13 UNL     1      20.204  -1.296  36.424  1.00  0.00     0.041 A
HETATM   15  C17 UNL     1      18.588  -0.562  38.038  1.00  0.00     0.104 A
HETATM   16  C14 UNL     1      20.858  -0.089  36.450  1.00  0.00     0.026 A
HETATM   17  C15 UNL     1      20.352   0.889  37.294  1.00  0.00     0.036 A
HETATM   18 CL1  UNL     1      21.155   2.433  37.357  1.00  0.00    -0.084 Cl
HETATM   19  C16 UNL     1      19.241   0.652  38.069  1.00  0.00     0.063 A
HETATM   20  O5  UNL     1      17.472  -0.839  38.798  1.00  0.00    -0.341 OA
ENDBRANCH   9  10
ENDBRANCH   3   9
BRANCH   1  21
HETATM   21  C2  UNL     1      11.043  -3.249  39.413  1.00  0.00     0.007 C
HETATM   22  C1  UNL     1      10.884  -4.691  39.081  1.00  0.00     0.020 C
HETATM   23  C3  UNL     1       9.765  -2.530  38.962  1.00  0.00     0.020 C
BRANCH  21  24
HETATM   24  C4  UNL     1      11.044  -3.119  40.922  1.00  0.00     0.176 C
BRANCH  24  25
HETATM   25  O1  UNL     1      10.277  -4.209  41.397  1.00  0.00    -0.400 OA
ATOM     26  H1  UNL     1      10.689  -4.474  42.211  1.00  0.00     0.209 HD
ENDBRANCH  24  25
ENDBRANCH  21  24
ENDBRANCH   1  21
BRANCH   1  27
HETATM   27  C6  UNL     1      12.009  -1.080  38.940  1.00  0.00     0.203 C
BRANCH  27  28
HETATM   28  O2  UNL     1      12.290  -0.390  37.790  1.00  0.00    -0.398 OA
ATOM     29  H2  UNL     1      12.027   0.522  37.842  1.00  0.00     0.209 HD
ENDBRANCH  27  28
ENDBRANCH   1  27
TORSDOF 8
ENDMDL