MODEL 5
REMARK VINA RESULT: -6.181492071      3.486      5.673
REMARK  6 active torsions:
REMARK  status: ('A' for Active; 'I' for Inactive)
REMARK    1  A    between atoms: C2_2  and  O1_3
REMARK    2  A    between atoms: O1_3  and  C3_4
REMARK    3  A    between atoms: C3_4  and  C4_6
REMARK    4  A    between atoms: C7_9  and  C8_10
REMARK    5  A    between atoms: C13_17  and  O3_18
REMARK    6  A    between atoms: C17_25  and  O6_26
ROOT
HETATM    1  C4  UNL     1      21.183  -1.309  36.171  1.00  0.00     0.061 C
HETATM    2  C5  UNL     1      20.475  -2.453  36.144  1.00  0.00     0.022 C
HETATM    3  C6  UNL     1      19.722  -3.209  37.083  1.00  0.00     0.031 C
HETATM    4  C7  UNL     1      19.915  -4.215  37.885  1.00  0.00     0.045 C
HETATM    5  N1  UNL     1      21.126  -4.953  38.055  1.00  0.00    -0.315 N
ATOM      6  H1  UNL     1      21.159  -5.512  38.908  1.00  0.00     0.170 HD
HETATM    7  C13 UNL     1      22.278  -5.049  37.261  1.00  0.00     0.270 C
HETATM    8  O4  UNL     1      23.231  -4.095  36.996  1.00  0.00    -0.240 OA
HETATM    9  C14 UNL     1      23.786  -3.133  37.791  1.00  0.00     0.273 C
HETATM   10  O5  UNL     1      24.979  -2.717  37.565  1.00  0.00    -0.264 OA
HETATM   11  C15 UNL     1      23.137  -2.469  38.951  1.00  0.00     0.114 C
HETATM   12  C16 UNL     1      23.925  -3.042  40.169  1.00  0.00     0.023 C
HETATM   13  C17 UNL     1      23.242  -0.995  38.923  1.00  0.00     0.155 C
HETATM   14  C18 UNL     1      22.156  -0.282  38.307  1.00  0.00     0.030 C
HETATM   15  C19 UNL     1      21.390  -0.401  37.273  1.00  0.00     0.049 C
HETATM   16 CL1  UNL     1      20.354   1.121  37.075  1.00  0.00    -0.083 Cl
ENDROOT
BRANCH   1  17
HETATM   17  C3  UNL     1      21.824  -0.892  34.870  1.00  0.00     0.295 C
HETATM   18  O2  UNL     1      22.308   0.215  34.629  1.00  0.00    -0.259 OA
BRANCH  17  19
HETATM   19  O1  UNL     1      21.907  -1.799  33.798  1.00  0.00    -0.318 OA
BRANCH  19  20
HETATM   20  C2  UNL     1      23.115  -1.997  33.088  1.00  0.00     0.174 C
HETATM   21  C1  UNL     1      24.200  -2.398  34.048  1.00  0.00     0.034 C
ENDBRANCH  19  20
ENDBRANCH  17  19
ENDBRANCH   1  17
BRANCH   4  22
HETATM   22  C8  UNL     1      18.774  -4.683  38.727  1.00  0.00    -0.013 A
HETATM   23  C9  UNL     1      18.805  -5.041  40.003  1.00  0.00    -0.009 A
HETATM   24  C10 UNL     1      17.446  -5.438  40.443  1.00  0.00     0.055 A
HETATM   25  C11 UNL     1      16.611  -5.262  39.244  1.00  0.00    -0.022 A
HETATM   26  C12 UNL     1      17.412  -4.826  38.274  1.00  0.00     0.009 A
ENDBRANCH   4  22
BRANCH  13  27
HETATM   27  O6  UNL     1      24.505  -0.570  38.448  1.00  0.00    -0.391 OA
ATOM     28  H6  UNL     1      25.091  -0.343  39.161  1.00  0.00     0.210 HD
ENDBRANCH  13  27
BRANCH   7  29
HETATM   29  O3  UNL     1      22.499  -6.208  36.678  1.00  0.00    -0.326 OA
ATOM     30  H3  UNL     1      22.763  -6.182  35.766  1.00  0.00     0.221 HD
ENDBRANCH   7  29
TORSDOF 6
ENDMDL