MODEL 2
REMARK VINA RESULT: -6.822180419      2.699      4.973
REMARK  9 active torsions:
REMARK  status: ('A' for Active; 'I' for Inactive)
REMARK    1  A    between atoms: C3_3  and  C4_4
REMARK    2  A    between atoms: C3_3  and  C19_29
REMARK    3  A    between atoms: C10_11  and  C11_12
REMARK       I    between atoms: C11_12  and  N1_14
REMARK    4  A    between atoms: N1_14  and  C12_16
REMARK    5  A    between atoms: C12_16  and  C13_17
REMARK    6  A    between atoms: C13_17  and  O3_19
REMARK    7  A    between atoms: C15_21  and  O4_22
REMARK    8  A    between atoms: O4_22  and  C16_23
REMARK    9  A    between atoms: C18_26  and  O6_27
ROOT
HETATM    1  C4  UNL     1      13.574  -4.070  38.308  1.00  0.00     0.015 C
HETATM    2  C5  UNL     1      14.655  -3.699  38.844  1.00  0.00    -0.023 C
HETATM    3  C6  UNL     1      15.616  -4.833  39.360  1.00  0.00     0.213 C
HETATM    4  O1  UNL     1      16.871  -4.587  38.793  1.00  0.00    -0.344 OA
HETATM    5  C7  UNL     1      17.259  -3.330  38.374  1.00  0.00     0.109 A
HETATM    6  C8  UNL     1      16.533  -2.231  38.505  1.00  0.00    -0.007 A
HETATM    7  C9  UNL     1      17.290  -1.102  37.937  1.00  0.00     0.087 A
HETATM    8  C10 UNL     1      18.560  -1.682  37.453  1.00  0.00     0.051 A
HETATM    9  C15 UNL     1      18.543  -2.967  37.705  1.00  0.00     0.124 A
HETATM   10  C18 UNL     1      15.191  -2.380  39.159  1.00  0.00     0.181 C
ENDROOT
BRANCH   8  11
HETATM   11  C11 UNL     1      19.662  -0.917  36.793  1.00  0.00     0.254 C
HETATM   12  O2  UNL     1      19.731   0.306  37.052  1.00  0.00    -0.268 OA
HETATM   13  N1  UNL     1      20.543  -1.567  35.941  1.00  0.00    -0.334 N
ATOM     14  H1  UNL     1      20.336  -2.558  35.820  1.00  0.00     0.168 HD
BRANCH  13  15
HETATM   15  C12 UNL     1      21.665  -1.136  35.209  1.00  0.00     0.095 C
BRANCH  15  16
HETATM   16  C13 UNL     1      22.399  -2.128  34.402  1.00  0.00     0.152 C
HETATM   17  C14 UNL     1      22.023  -2.212  32.966  1.00  0.00     0.045 C
BRANCH  16  18
HETATM   18  O3  UNL     1      22.152  -3.421  34.993  1.00  0.00    -0.391 OA
ATOM     19  H3  UNL     1      22.697  -4.047  34.532  1.00  0.00     0.210 HD
ENDBRANCH  16  18
ENDBRANCH  15  16
ENDBRANCH  13  15
ENDBRANCH   8  11
BRANCH   9  20
HETATM   20  O4  UNL     1      19.574  -3.850  37.391  1.00  0.00    -0.276 OA
BRANCH  20  21
HETATM   21  C16 UNL     1      20.630  -4.120  38.240  1.00  0.00     0.260 C
HETATM   22  C17 UNL     1      20.464  -4.753  39.573  1.00  0.00     0.126 C
HETATM   23  O5  UNL     1      21.782  -3.810  37.860  1.00  0.00    -0.265 OA
ENDBRANCH  20  21
ENDBRANCH   9  20
BRANCH  10  24
HETATM   24  O6  UNL     1      15.399  -2.276  40.578  1.00  0.00    -0.387 OA
ATOM     25  H6  UNL     1      15.300  -1.370  40.845  1.00  0.00     0.210 HD
ENDBRANCH  10  24
BRANCH   1  26
HETATM   26  C3  UNL     1      12.469  -3.409  37.721  1.00  0.00    -0.048 C
HETATM   27  C2  UNL     1      12.311  -3.499  36.381  1.00  0.00    -0.023 C
HETATM   28  C1  UNL     1      13.269  -4.263  35.592  1.00  0.00     0.036 C
BRANCH  26  29
HETATM   29  C19 UNL     1      11.446  -2.603  38.392  1.00  0.00     0.152 C
HETATM   30 CL1  UNL     1      11.989  -0.888  38.394  1.00  0.00    -0.126 Cl
ENDBRANCH  26  29
ENDBRANCH   1  26
TORSDOF 9
ENDMDL