MODEL 5
REMARK VINA RESULT: -6.986423756      2.474      7.453
REMARK  7 active torsions:
REMARK  status: ('A' for Active; 'I' for Inactive)
REMARK    1  A    between atoms: C6_8  and  C7_9
REMARK    2  A    between atoms: C6_8  and  C16_21
REMARK    3  A    between atoms: C7_9  and  C8_10
REMARK    4  A    between atoms: C8_10  and  O4_12
REMARK    5  A    between atoms: O4_12  and  C9_13
REMARK    6  A    between atoms: C9_13  and  C10_14
REMARK    7  A    between atoms: C18_25  and  O6_26
ROOT
HETATM    1  C1  UNL     1       8.583  -2.193  38.615  1.00  0.00     0.040 C
HETATM    2  C2  UNL     1       9.878  -2.974  38.558  1.00  0.00     0.126 C
HETATM    3  O1  UNL     1       9.871  -3.933  39.536  1.00  0.00    -0.386 OA
HETATM    4  C3  UNL     1      10.128  -3.442  40.788  1.00  0.00     0.170 C
HETATM    5  C4  UNL     1      11.551  -3.039  40.858  1.00  0.00     0.058 C
HETATM    6  C5  UNL     1      12.072  -2.338  39.607  1.00  0.00     0.134 C
HETATM    7  O2  UNL     1      13.133  -3.018  39.183  1.00  0.00    -0.364 OA
HETATM    8  C6  UNL     1      13.811  -2.630  38.044  1.00  0.00     0.150 C
HETATM    9  C17 UNL     1      13.043  -1.425  37.429  1.00  0.00     0.080 C
HETATM   10  C18 UNL     1      11.671  -2.003  37.231  1.00  0.00     0.130 C
HETATM   11  C19 UNL     1      11.021  -2.006  38.617  1.00  0.00     0.072 C
ENDROOT
BRANCH   8  12
HETATM   12  C7  UNL     1      15.194  -2.152  38.458  1.00  0.00     0.159 C
BRANCH  12  13
HETATM   13  C8  UNL     1      15.668  -2.849  39.716  1.00  0.00     0.262 C
HETATM   14  O3  UNL     1      15.464  -2.367  40.823  1.00  0.00    -0.265 OA
BRANCH  13  15
HETATM   15  O4  UNL     1      16.297  -4.010  39.589  1.00  0.00    -0.317 OA
BRANCH  15  16
HETATM   16  C9  UNL     1      17.078  -4.919  39.068  1.00  0.00     0.219 C
BRANCH  16  17
HETATM   17  C10 UNL     1      18.481  -4.719  39.560  1.00  0.00    -0.012 A
HETATM   18  C11 UNL     1      18.934  -5.382  40.667  1.00  0.00     0.011 A
HETATM   19  C12 UNL     1      20.202  -5.072  41.140  1.00  0.00     0.001 A
HETATM   20  C13 UNL     1      20.959  -4.107  40.458  1.00  0.00     0.002 A
HETATM   21  C14 UNL     1      20.483  -3.456  39.349  1.00  0.00     0.024 A
HETATM   22  C15 UNL     1      19.237  -3.757  38.893  1.00  0.00     0.042 A
HETATM   23 CL1  UNL     1      18.600  -2.950  37.476  1.00  0.00    -0.084 Cl
ENDBRANCH  16  17
ENDBRANCH  15  16
ENDBRANCH  13  15
ENDBRANCH  12  13
ENDBRANCH   8  12
BRANCH   8  24
HETATM   24  C16 UNL     1      13.875  -3.656  37.023  1.00  0.00     0.266 C
HETATM   25  N1  UNL     1      15.019  -3.904  36.169  1.00  0.00    -0.059 NA
HETATM   26  O5  UNL     1      12.859  -4.428  36.795  1.00  0.00    -0.273 OA
ENDBRANCH   8  24
BRANCH  10  27
HETATM   27  O6  UNL     1      10.929  -1.348  36.290  1.00  0.00    -0.395 OA
ATOM     28  H6  UNL     1      10.852  -1.819  35.468  1.00  0.00     0.210 HD
ENDBRANCH  10  27
TORSDOF 7
ENDMDL