MODEL 1
REMARK VINA RESULT: -7.529660245      0.000      0.000
REMARK  8 active torsions:
REMARK  status: ('A' for Active; 'I' for Inactive)
REMARK    1  A    between atoms: C2_2  and  O1_3
REMARK    2  A    between atoms: O1_3  and  C3_4
REMARK    3  A    between atoms: C7_9  and  O2_10
REMARK    4  A    between atoms: C8_12  and  O3_13
REMARK    5  A    between atoms: O3_13  and  C9_14
REMARK    6  A    between atoms: C9_14  and  C10_15
REMARK       I    between atoms: C10_15  and  N1_17
REMARK    7  A    between atoms: C12_19  and  O5_20
REMARK    8  A    between atoms: C16_25  and  O6_26
ROOT
HETATM    1  C10 UNL     1      15.545  -3.173  38.669  1.00  0.00     0.244 C
HETATM    2  O4  UNL     1      16.030  -4.003  39.485  1.00  0.00    -0.271 OA
HETATM    3  N1  UNL     1      14.157  -3.141  38.361  1.00  0.00    -0.346 N
HETATM    4  C11 UNL     1      13.188  -4.042  38.944  1.00  0.00     0.164 C
HETATM    5  C12 UNL     1      11.947  -3.918  38.064  1.00  0.00     0.085 C
HETATM    6  C13 UNL     1      10.758  -4.198  38.907  1.00  0.00     0.040 C
HETATM    7  C14 UNL     1       9.564  -3.337  38.621  1.00  0.00     0.006 C
HETATM    8  C15 UNL     1       9.877  -1.901  38.409  1.00  0.00     0.033 C
HETATM    9  C16 UNL     1      11.365  -1.616  38.581  1.00  0.00     0.131 C
HETATM   10  C17 UNL     1      12.071  -2.517  37.580  1.00  0.00     0.031 C
HETATM   11  C18 UNL     1      11.380  -2.433  36.217  1.00  0.00     0.023 C
HETATM   12  C19 UNL     1      13.526  -2.242  37.452  1.00  0.00     0.140 C
ENDROOT
BRANCH   1  13
HETATM   13  C9  UNL     1      16.480  -2.218  38.030  1.00  0.00     0.278 C
BRANCH  13  14
HETATM   14  O3  UNL     1      17.756  -2.268  38.634  1.00  0.00    -0.336 OA
BRANCH  14  15
HETATM   15  C8  UNL     1      18.888  -2.694  37.942  1.00  0.00     0.137 A
HETATM   16  C3  UNL     1      19.558  -1.871  37.063  1.00  0.00     0.126 A
HETATM   17  C4  UNL     1      20.678  -2.252  36.360  1.00  0.00     0.070 A
HETATM   18 CL1  UNL     1      21.501  -1.172  35.253  1.00  0.00    -0.081 Cl
HETATM   19  C5  UNL     1      21.169  -3.530  36.533  1.00  0.00     0.030 A
HETATM   20  C6  UNL     1      20.501  -4.376  37.418  1.00  0.00     0.041 A
HETATM   21  C7  UNL     1      19.383  -3.980  38.113  1.00  0.00     0.102 A
BRANCH  16  22
HETATM   22  O1  UNL     1      19.078  -0.573  36.875  1.00  0.00    -0.347 OA
BRANCH  22  23
HETATM   23  C2  UNL     1      19.476   0.414  37.819  1.00  0.00     0.171 C
HETATM   24  C1  UNL     1      20.185   1.557  37.126  1.00  0.00     0.034 C
ENDBRANCH  22  23
ENDBRANCH  16  22
BRANCH  21  25
HETATM   25  O2  UNL     1      18.732  -4.845  38.993  1.00  0.00    -0.358 OA
ATOM     26  H2  UNL     1      17.863  -5.179  38.804  1.00  0.00     0.217 HD
ENDBRANCH  21  25
ENDBRANCH  14  15
ENDBRANCH  13  14
ENDBRANCH   1  13
BRANCH   5  27
HETATM   27  O5  UNL     1      12.115  -4.788  36.998  1.00  0.00    -0.387 OA
ATOM     28  H5  UNL     1      11.405  -4.621  36.388  1.00  0.00     0.210 HD
ENDBRANCH   5  27
BRANCH   9  29
HETATM   29  O6  UNL     1      11.660  -0.287  38.425  1.00  0.00    -0.395 OA
ATOM     30  H6  UNL     1      12.428  -0.151  37.883  1.00  0.00     0.210 HD
ENDBRANCH   9  29
TORSDOF 8
ENDMDL