MODEL 1
REMARK VINA RESULT: -6.648228525      0.000      0.000
REMARK  0 active torsions:
REMARK  status: ('A' for Active; 'I' for Inactive)
ROOT
HETATM    1  C1  UNL     1      14.787  -4.002  35.958  1.00  0.00     0.049 C
HETATM    2  C2  UNL     1      14.121  -3.742  37.263  1.00  0.00     0.256 C
HETATM    3  N1  UNL     1      14.192  -2.384  37.707  1.00  0.00    -0.063 N
ATOM      4  H11 UNL     1      13.482  -1.799  37.266  1.00  0.00     0.278 HD
ATOM      5  H12 UNL     1      15.019  -1.906  37.350  1.00  0.00     0.278 HD
HETATM    6  C3  UNL     1      14.117  -2.339  39.158  1.00  0.00     0.246 C
HETATM    7  C4  UNL     1      12.788  -1.887  39.659  1.00  0.00     0.006 C
HETATM    8  C5  UNL     1      12.950  -1.557  41.145  1.00  0.00     0.021 C
HETATM    9  C6  UNL     1      12.269  -0.648  38.989  1.00  0.00     0.021 C
HETATM   10  C7  UNL     1      11.782  -2.975  39.480  1.00  0.00    -0.018 A
HETATM   11  C8  UNL     1      10.742  -3.162  40.290  1.00  0.00     0.096 A
HETATM   12  N2  UNL     1      10.032  -4.269  39.804  1.00  0.00    -0.374 N
ATOM     13  H2  UNL     1       9.183  -4.667  40.205  1.00  0.00     0.164 HD
HETATM   14  C9  UNL     1      10.716  -4.732  38.650  1.00  0.00     0.103 A
HETATM   15  C10 UNL     1      11.792  -3.970  38.414  1.00  0.00     0.036 A
HETATM   16  C11 UNL     1      12.712  -4.179  37.300  1.00  0.00     0.191 C
HETATM   17  O1  UNL     1      12.226  -4.781  36.314  1.00  0.00    -0.290 OA
ENDROOT
TORSDOF 0
ENDMDL