MODEL 5
REMARK VINA RESULT: -7.441961763      2.634      3.974
REMARK  7 active torsions:
REMARK  status: ('A' for Active; 'I' for Inactive)
REMARK    1  A    between atoms: C5_7  and  C6_8
REMARK       I    between atoms: C6_8  and  N1_10
REMARK    2  A    between atoms: N1_10  and  C7_12
REMARK    3  A    between atoms: C12_17  and  O3_18
REMARK    4  A    between atoms: C12_17  and  C13_20
REMARK    5  A    between atoms: C13_20  and  O5_22
REMARK    6  A    between atoms: O5_22  and  C14_23
REMARK    7  A    between atoms: C17_26  and  O6_28
ROOT
HETATM    1  C7  UNL     1      16.642  -3.734  38.315  1.00  0.00     0.051 C
HETATM    2  C8  UNL     1      16.202  -4.296  37.221  1.00  0.00     0.028 C
HETATM    3  C9  UNL     1      14.873  -4.145  36.647  1.00  0.00     0.003 C
HETATM    4  C10 UNL     1      13.997  -3.404  37.306  1.00  0.00     0.013 C
HETATM    5  C11 UNL     1      14.401  -2.805  38.604  1.00  0.00     0.021 C
HETATM    6  C12 UNL     1      13.522  -2.614  39.550  1.00  0.00     0.151 C
HETATM    7  C17 UNL     1      15.810  -2.520  38.760  1.00  0.00     0.126 C
HETATM    8  C18 UNL     1      16.319  -1.911  40.004  1.00  0.00     0.058 C
ENDROOT
BRANCH   1   9
HETATM    9  N1  UNL     1      17.887  -3.865  38.934  1.00  0.00    -0.323 N
HETATM   10  C6  UNL     1      18.289  -4.873  39.835  1.00  0.00     0.260 C
HETATM   11  O2  UNL     1      17.553  -5.822  40.213  1.00  0.00    -0.267 OA
ATOM     12  H1  UNL     1      18.583  -3.152  38.710  1.00  0.00     0.169 HD
BRANCH  10  13
HETATM   13  C5  UNL     1      19.677  -4.814  40.377  1.00  0.00     0.084 A
HETATM   14  C4  UNL     1      20.760  -4.131  39.701  1.00  0.00     0.209 A
HETATM   15  C3  UNL     1      21.926  -4.328  40.586  1.00  0.00     0.091 A
HETATM   16  O1  UNL     1      20.739  -3.502  38.600  1.00  0.00    -0.285 OA
HETATM   17  C2  UNL     1      21.562  -5.034  41.641  1.00  0.00    -0.035 A
HETATM   18 CL1  UNL     1      23.525  -3.700  40.244  1.00  0.00    -0.079 Cl
HETATM   19  C1  UNL     1      22.447  -5.449  42.773  1.00  0.00     0.050 C
HETATM   20  C19 UNL     1      20.135  -5.332  41.492  1.00  0.00     0.029 A
ENDBRANCH  10  13
ENDBRANCH   1   9
BRANCH   7  21
HETATM   21  O6  UNL     1      16.196  -1.581  37.692  1.00  0.00    -0.379 OA
ATOM     22  H6  UNL     1      17.068  -1.362  38.000  1.00  0.00     0.211 HD
ENDBRANCH   7  21
BRANCH   6  23
HETATM   23  O3  UNL     1      13.959  -2.037  40.765  1.00  0.00    -0.355 OA
ATOM     24  H3  UNL     1      14.147  -1.106  40.780  1.00  0.00     0.218 HD
ENDBRANCH   6  23
BRANCH   6  25
HETATM   25  C13 UNL     1      12.123  -2.961  39.439  1.00  0.00     0.317 C
HETATM   26  O4  UNL     1      11.510  -3.914  39.937  1.00  0.00    -0.257 OA
BRANCH  25  27
HETATM   27  O5  UNL     1      11.257  -2.135  38.662  1.00  0.00    -0.311 OA
BRANCH  27  28
HETATM   28  C14 UNL     1      10.392  -2.687  37.745  1.00  0.00     0.124 C
HETATM   29  C15 UNL     1      10.454  -2.097  36.362  1.00  0.00     0.040 C
HETATM   30  C16 UNL     1       8.969  -2.452  38.250  1.00  0.00     0.040 C
ENDBRANCH  27  28
ENDBRANCH  25  27
ENDBRANCH   6  25
TORSDOF 7
ENDMDL