MODEL 3
REMARK VINA RESULT: -6.793635275      1.117      1.328
REMARK  8 active torsions:
REMARK  status: ('A' for Active; 'I' for Inactive)
REMARK    1  A    between atoms: C5_5  and  C6_6
REMARK    2  A    between atoms: C6_6  and  N1_7
REMARK    3  A    between atoms: C8_10  and  O2_11
REMARK    4  A    between atoms: C8_10  and  O3_13
REMARK    5  A    between atoms: C9_15  and  C11_17
REMARK    6  A    between atoms: C11_17  and  O4_19
REMARK    7  A    between atoms: C11_17  and  C13_21
REMARK    8  A    between atoms: C13_21  and  C14_22
ROOT
HETATM    1  N1  UNL     1      14.725  -2.693  38.219  1.00  0.00    -0.277 N
HETATM    2  C7  UNL     1      15.096  -3.756  37.312  1.00  0.00     0.290 C
HETATM    3  O1  UNL     1      14.691  -3.926  36.130  1.00  0.00    -0.267 OA
HETATM    4  C8  UNL     1      16.050  -4.578  38.101  1.00  0.00     0.263 C
HETATM    5  C9  UNL     1      16.810  -3.532  38.821  1.00  0.00     0.134 C
HETATM    6  C10 UNL     1      17.498  -4.109  40.016  1.00  0.00     0.035 C
HETATM    7  C19 UNL     1      15.649  -2.707  39.331  1.00  0.00     0.244 C
HETATM    8  O5  UNL     1      15.459  -2.151  40.413  1.00  0.00    -0.272 OA
ENDROOT
BRANCH   5   9
HETATM    9  C11 UNL     1      17.663  -2.607  37.994  1.00  0.00     0.080 C
HETATM   10  C12 UNL     1      17.702  -1.299  38.701  1.00  0.00     0.047 C
BRANCH   9  11
HETATM   11  O4  UNL     1      16.922  -2.313  36.786  1.00  0.00    -0.388 OA
ATOM     12  H4  UNL     1      17.501  -1.821  36.217  1.00  0.00     0.210 HD
ENDBRANCH   9  11
BRANCH   9  13
HETATM   13  C13 UNL     1      18.932  -3.151  37.550  1.00  0.00     0.079 C
BRANCH  13  14
HETATM   14  C14 UNL     1      20.076  -2.231  37.495  1.00  0.00    -0.037 A
HETATM   15  C15 UNL     1      20.278  -1.338  36.483  1.00  0.00    -0.014 A
HETATM   16  C16 UNL     1      21.505  -0.559  36.691  1.00  0.00     0.056 A
HETATM   17  C17 UNL     1      22.060  -1.113  37.912  1.00  0.00     0.001 A
HETATM   18  C18 UNL     1      21.224  -2.061  38.353  1.00  0.00     0.036 A
HETATM   19 CL1  UNL     1      21.705  -2.984  39.793  1.00  0.00    -0.084 Cl
ENDBRANCH  13  14
ENDBRANCH   9  13
ENDBRANCH   5   9
BRANCH   4  20
HETATM   20  O2  UNL     1      16.708  -5.552  37.451  1.00  0.00    -0.357 OA
ATOM     21  H2  UNL     1      16.721  -6.413  37.852  1.00  0.00     0.213 HD
ENDBRANCH   4  20
BRANCH   4  22
HETATM   22  O3  UNL     1      15.242  -5.219  39.080  1.00  0.00    -0.357 OA
ATOM     23  H3  UNL     1      15.066  -6.079  38.717  1.00  0.00     0.213 HD
ENDBRANCH   4  22
BRANCH   1  24
HETATM   24  C6  UNL     1      13.608  -1.819  37.972  1.00  0.00     0.200 C
BRANCH  24  25
HETATM   25  C5  UNL     1      12.373  -2.260  38.633  1.00  0.00     0.071 A
HETATM   26  C4  UNL     1      11.102  -1.930  38.218  1.00  0.00     0.037 A
HETATM   27  C3  UNL     1      10.211  -2.527  39.082  1.00  0.00     0.035 A
HETATM   28  C2  UNL     1      10.997  -3.206  40.003  1.00  0.00     0.049 A
HETATM   29  C1  UNL     1      10.417  -3.993  41.121  1.00  0.00     0.076 C
HETATM   30  O6  UNL     1      12.254  -3.015  39.691  1.00  0.00    -0.318 OA
ENDBRANCH  24  25
ENDBRANCH   1  24
TORSDOF 8
ENDMDL