MODEL 1
REMARK VINA RESULT: -7.340931918      0.000      0.000
REMARK  5 active torsions:
REMARK  status: ('A' for Active; 'I' for Inactive)
REMARK    1  A    between atoms: C2_2  and  C3_3
REMARK    2  A    between atoms: C3_3  and  C4_4
REMARK    3  A    between atoms: N1_7  and  C7_8
REMARK    4  A    between atoms: N2_13  and  N3_15
REMARK       I    between atoms: N3_15  and  C12_17
REMARK    5  A    between atoms: C12_17  and  C13_19
ROOT
HETATM    1  C1  UNL     1      -3.741   2.670  10.922  1.00  0.00     0.065 C
HETATM    2  C2  UNL     1      -4.087   2.896  12.339  1.00  0.00     0.000 C
HETATM    3  N2  UNL     1      -4.056   1.911  13.156  1.00  0.00    -0.307 N
ATOM      4  H2  UNL     1      -3.791   0.990  12.806  1.00  0.00     0.186 HD
ENDROOT
BRANCH   2   5
HETATM    5  C3  UNL     1      -4.462   4.230  12.810  1.00  0.00     0.058 C
BRANCH   5   6
HETATM    6  C4  UNL     1      -3.277   5.111  13.147  1.00  0.00    -0.006 C
HETATM    7  C5  UNL     1      -3.372   5.600  14.535  1.00  0.00     0.035 C
HETATM    8  C6  UNL     1      -2.665   6.895  14.805  1.00  0.00     0.273 C
HETATM    9  N1  UNL     1      -1.747   7.274  13.740  1.00  0.00     0.092 N
HETATM   10  C10 UNL     1      -2.558   7.447  12.552  1.00  0.00     0.273 C
HETATM   11  C11 UNL     1      -3.198   6.174  12.093  1.00  0.00     0.035 C
BRANCH   9  12
HETATM   12  C7  UNL     1      -1.219   8.579  14.094  1.00  0.00     0.215 C
HETATM   13  C8  UNL     1      -1.409   8.875  15.570  1.00  0.00     0.042 C
HETATM   14  C9  UNL     1      -1.806   9.677  13.231  1.00  0.00     0.042 C
ENDBRANCH   9  12
ENDBRANCH   5   6
ENDBRANCH   2   5
BRANCH   3  15
HETATM   15  N3  UNL     1      -4.374   2.055  14.520  1.00  0.00    -0.270 N
HETATM   16  C12 UNL     1      -4.722   0.962  15.339  1.00  0.00     0.240 C
HETATM   17  O1  UNL     1      -4.752  -0.183  14.842  1.00  0.00    -0.271 OA
ATOM     18  H3  UNL     1      -4.351   2.987  14.932  1.00  0.00     0.190 HD
BRANCH  16  19
HETATM   19  C13 UNL     1      -5.046   1.162  16.753  1.00  0.00     0.079 C
HETATM   20  C14 UNL     1      -5.521   2.545  17.070  1.00  0.00     0.014 C
HETATM   21  C15 UNL     1      -6.805   2.352  17.856  1.00  0.00     0.001 C
HETATM   22  C16 UNL     1      -7.369   1.100  17.184  1.00  0.00     0.001 C
HETATM   23  C17 UNL     1      -6.147   0.208  17.159  1.00  0.00     0.014 C
ENDBRANCH  16  19
ENDBRANCH   3  15
TORSDOF 5
ENDMDL