MODEL 5
REMARK VINA RESULT: -6.681025359      1.761      5.838
REMARK  4 active torsions:
REMARK  status: ('A' for Active; 'I' for Inactive)
REMARK    1  A    between atoms: C5_8  and  C6_9
REMARK    2  A    between atoms: N2_10  and  C7_11
REMARK    3  A    between atoms: N2_10  and  C12_17
REMARK    4  A    between atoms: C7_11  and  C8_12
ROOT
HETATM    1  C6  UNL     1      -5.155   2.288  13.610  1.00  0.00     0.065 C
HETATM    2  N2  UNL     1      -4.795   3.286  14.470  1.00  0.00    -0.386 N
ENDROOT
BRANCH   2   3
HETATM    3  C7  UNL     1      -5.802   3.805  15.357  1.00  0.00     0.154 C
BRANCH   3   4
HETATM    4  C8  UNL     1      -6.150   3.121  16.592  1.00  0.00     0.139 C
HETATM    5  C9  UNL     1      -7.439   2.320  16.436  1.00  0.00     0.035 C
HETATM    6  C10 UNL     1      -7.144   1.001  17.170  1.00  0.00     0.029 C
HETATM    7  C11 UNL     1      -5.855   1.365  17.876  1.00  0.00     0.168 C
HETATM    8  O1  UNL     1      -5.206   2.055  16.822  1.00  0.00    -0.384 OA
ENDBRANCH   3   4
ENDBRANCH   2   3
BRANCH   2   9
HETATM    9  C12 UNL     1      -3.837   4.273  14.241  1.00  0.00     0.083 C
HETATM   10  C13 UNL     1      -4.304   5.665  14.556  1.00  0.00     0.025 C
HETATM   11  C14 UNL     1      -3.363   6.684  13.887  1.00  0.00     0.002 C
HETATM   12  C15 UNL     1      -1.939   6.438  14.343  1.00  0.00     0.000 C
HETATM   13  C16 UNL     1      -1.528   4.998  14.209  1.00  0.00     0.002 C
HETATM   14  C17 UNL     1      -2.512   4.131  14.971  1.00  0.00     0.025 C
ENDBRANCH   2   9
BRANCH   1  15
HETATM   15  C5  UNL     1      -4.176   1.454  12.835  1.00  0.00     0.050 C
HETATM   16  C4  UNL     1      -4.467   1.824  11.330  1.00  0.00     0.242 C
HETATM   17  N1  UNL     1      -5.508   0.972  10.801  1.00  0.00    -0.074 N
HETATM   18  C3  UNL     1      -4.843  -0.291  10.414  1.00  0.00     0.236 C
ATOM     19  H12 UNL     1      -6.039   1.401  10.043  1.00  0.00     0.277 HD
ATOM     20  H11 UNL     1      -6.290   0.841  11.441  1.00  0.00     0.277 HD
HETATM   21  C2  UNL     1      -3.913  -0.617  11.583  1.00  0.00     0.008 C
HETATM   22  C1  UNL     1      -3.716  -2.096  11.670  1.00  0.00     0.011 C
HETATM   23  C18 UNL     1      -4.527  -0.034  12.840  1.00  0.00     0.017 C
ENDBRANCH   1  15
TORSDOF 4
ENDMDL