MODEL 1
REMARK VINA RESULT: -7.229332100      0.000      0.000
REMARK  5 active torsions:
REMARK  status: ('A' for Active; 'I' for Inactive)
REMARK    1  A    between atoms: C2_3  and  N2_4
REMARK    2  A    between atoms: N2_4  and  C3_7
REMARK    3  A    between atoms: C3_7  and  C4_8
REMARK    4  A    between atoms: C4_8  and  C5_9
REMARK    5  A    between atoms: C4_8  and  N3_13
ROOT
HETATM    1  N1  UNL     1      -3.783   0.937  16.430  1.00  0.00    -0.195 NA
HETATM    2  C1  UNL     1      -4.744   1.554  16.275  1.00  0.00     0.099 C
HETATM    3  C2  UNL     1      -5.945   2.354  16.088  1.00  0.00     0.213 C
HETATM    4  C15 UNL     1      -6.163   3.150  17.373  1.00  0.00     0.055 C
HETATM    5  C16 UNL     1      -6.330   1.990  18.363  1.00  0.00     0.004 C
HETATM    6  C17 UNL     1      -7.024   0.900  17.575  1.00  0.00     0.004 C
HETATM    7  C18 UNL     1      -7.134   1.422  16.158  1.00  0.00     0.055 C
ENDROOT
BRANCH   3   8
HETATM    8  N2  UNL     1      -5.922   3.185  14.933  1.00  0.00    -0.048 N
ATOM      9  H22 UNL     1      -6.625   2.892  14.255  1.00  0.00     0.279 HD
ATOM     10  H21 UNL     1      -6.277   4.118  15.143  1.00  0.00     0.279 HD
BRANCH   8  11
HETATM   11  C3  UNL     1      -4.626   3.247  14.338  1.00  0.00     0.287 C
BRANCH  11  12
HETATM   12  C4  UNL     1      -4.582   3.335  12.858  1.00  0.00     0.018 C
BRANCH  12  13
HETATM   13  C5  UNL     1      -4.283   2.121  12.079  1.00  0.00     0.033 C
HETATM   14  C6  UNL     1      -4.313   0.801  12.836  1.00  0.00     0.010 C
HETATM   15  C7  UNL     1      -4.575   0.171  11.456  1.00  0.00     0.001 C
HETATM   16  C8  UNL     1      -5.248   1.526  11.136  1.00  0.00     0.010 C
ENDBRANCH  12  13
BRANCH  12  17
HETATM   17  N3  UNL     1      -3.902   4.447  12.316  1.00  0.00    -0.365 N
HETATM   18  C9  UNL     1      -4.283   5.749  12.617  1.00  0.00     0.063 C
HETATM   19  C10 UNL     1      -3.226   6.650  13.175  1.00  0.00     0.044 C
HETATM   20  C11 UNL     1      -2.093   6.982  12.283  1.00  0.00     0.005 C
HETATM   21  C12 UNL     1      -2.269   6.476  10.896  1.00  0.00     0.002 C
HETATM   22  C13 UNL     1      -2.088   4.986  10.748  1.00  0.00     0.020 C
HETATM   23  C14 UNL     1      -2.549   4.219  11.933  1.00  0.00     0.128 C
ENDBRANCH  12  17
ENDBRANCH  11  12
ENDBRANCH   8  11
ENDBRANCH   3   8
TORSDOF 5
ENDMDL