MODEL 2
REMARK VINA RESULT: -6.475316179      1.927      2.937
REMARK  5 active torsions:
REMARK  status: ('A' for Active; 'I' for Inactive)
REMARK    1  A    between atoms: C2_2  and  N1_3
REMARK    2  A    between atoms: N1_3  and  C3_4
REMARK       I    between atoms: N1_3  and  C16_20
REMARK    3  A    between atoms: C3_4  and  C4_5
REMARK    4  A    between atoms: C4_5  and  N2_6
REMARK    5  A    between atoms: N2_6  and  C5_8
ROOT
HETATM    1  C5  UNL     1      -3.642   4.229  12.768  1.00  0.00     0.079 C
HETATM    2  C6  UNL     1      -4.390   5.437  12.384  1.00  0.00     0.029 C
HETATM    3  C7  UNL     1      -3.611   6.739  12.582  1.00  0.00    -0.010 C
HETATM    4  C8  UNL     1      -2.918   6.791  13.909  1.00  0.00     0.007 C
HETATM    5  C9  UNL     1      -1.846   5.805  14.133  1.00  0.00     0.032 C
HETATM    6  C10 UNL     1      -1.287   5.143  12.899  1.00  0.00     0.124 C
HETATM    7  C11 UNL     1      -2.222   4.179  12.253  1.00  0.00     0.056 C
HETATM    8  O1  UNL     1      -0.740   5.961  11.997  1.00  0.00    -0.376 OA
HETATM    9  C12 UNL     1      -1.351   6.974  11.428  1.00  0.00     0.054 C
HETATM   10  C13 UNL     1      -0.927   6.960   9.940  1.00  0.00     0.045 C
HETATM   11  C14 UNL     1      -0.742   8.280  11.970  1.00  0.00     0.045 C
HETATM   12  C15 UNL     1      -2.808   7.129  11.412  1.00  0.00     0.042 C
ENDROOT
BRANCH   1  13
HETATM   13  N2  UNL     1      -4.285   3.058  12.212  1.00  0.00    -0.415 N
ATOM     14  H2  UNL     1      -4.476   2.960  11.214  1.00  0.00     0.153 HD
BRANCH  13  15
HETATM   15  C4  UNL     1      -4.635   2.047  13.162  1.00  0.00     0.134 C
BRANCH  15  16
HETATM   16  C3  UNL     1      -4.305   2.630  14.539  1.00  0.00     0.145 C
BRANCH  16  17
HETATM   17  N1  UNL     1      -5.251   2.244  15.546  1.00  0.00    -0.351 N
HETATM   18  C16 UNL     1      -4.953   1.103  16.339  1.00  0.00     0.215 C
HETATM   19  C17 UNL     1      -5.885   0.638  17.398  1.00  0.00     0.117 C
HETATM   20  O2  UNL     1      -3.890   0.436  16.184  1.00  0.00    -0.274 OA
BRANCH  17  21
HETATM   21  C2  UNL     1      -6.469   3.003  15.718  1.00  0.00     0.121 C
HETATM   22  C1  UNL     1      -6.254   4.473  15.413  1.00  0.00     0.026 C
ENDBRANCH  17  21
ENDBRANCH  16  17
ENDBRANCH  15  16
ENDBRANCH  13  15
ENDBRANCH   1  13
TORSDOF 5
ENDMDL