MODEL 3
REMARK VINA RESULT: -5.892832166      2.561      3.789
REMARK  8 active torsions:
REMARK  status: ('A' for Active; 'I' for Inactive)
REMARK    1  A    between atoms: C2_2  and  O1_3
REMARK    2  A    between atoms: O1_3  and  C3_4
REMARK    3  A    between atoms: C3_4  and  C4_5
REMARK    4  A    between atoms: N1_9  and  C7_10
REMARK    5  A    between atoms: C7_10  and  N2_12
REMARK    6  A    between atoms: N2_12  and  C8_14
REMARK    7  A    between atoms: C8_14  and  C9_15
REMARK    8  A    between atoms: C9_15  and  C10_16
ROOT
HETATM    1  C7  UNL     1      -4.154   2.349  13.044  1.00  0.00     0.170 C
HETATM    2  S2  UNL     1      -4.436   1.054  11.961  1.00  0.00    -0.041 SA
ENDROOT
BRANCH   1   3
HETATM    3  N1  UNL     1      -3.776   3.555  12.433  1.00  0.00    -0.342 N
HETATM    4  C4  UNL     1      -2.767   4.549  12.740  1.00  0.00     0.120 C
HETATM    5  C5  UNL     1      -1.695   4.260  11.666  1.00  0.00     0.103 C
HETATM    6  S1  UNL     1      -2.860   4.320  10.226  1.00  0.00    -0.147 SA
HETATM    7  C6  UNL     1      -4.412   4.128  11.229  1.00  0.00     0.200 C
BRANCH   4   8
HETATM    8  C3  UNL     1      -2.159   4.688  14.032  1.00  0.00     0.193 C
BRANCH   8   9
HETATM    9  O1  UNL     1      -1.605   5.910  14.345  1.00  0.00    -0.389 OA
BRANCH   9  10
HETATM   10  C2  UNL     1      -2.451   6.977  14.396  1.00  0.00     0.163 C
HETATM   11  C1  UNL     1      -2.026   8.189  15.132  1.00  0.00     0.033 C
ENDBRANCH   9  10
ENDBRANCH   8   9
ENDBRANCH   4   8
ENDBRANCH   1   3
BRANCH   1  12
HETATM   12  N2  UNL     1      -4.384   1.981  14.357  1.00  0.00    -0.367 N
ATOM     13  H2  UNL     1      -4.301   0.972  14.484  1.00  0.00     0.161 HD
BRANCH  12  14
HETATM   14  C8  UNL     1      -4.704   2.634  15.573  1.00  0.00     0.122 C
BRANCH  14  15
HETATM   15  C9  UNL     1      -5.112   1.732  16.711  1.00  0.00     0.028 C
BRANCH  15  16
HETATM   16  C10 UNL     1      -6.407   2.144  17.340  1.00  0.00    -0.050 C
HETATM   17  C11 UNL     1      -6.265   2.180  18.863  1.00  0.00     0.014 C
HETATM   18  C12 UNL     1      -6.937   3.447  16.832  1.00  0.00     0.014 C
HETATM   19  C13 UNL     1      -7.433   1.072  17.032  1.00  0.00     0.014 C
ENDBRANCH  15  16
ENDBRANCH  14  15
ENDBRANCH  12  14
ENDBRANCH   1  12
TORSDOF 8
ENDMDL