MODEL 4
REMARK VINA RESULT: -6.817337688      2.744      3.895
REMARK  5 active torsions:
REMARK  status: ('A' for Active; 'I' for Inactive)
REMARK    1  A    between atoms: C2_2  and  N1_4
REMARK    2  A    between atoms: N1_4  and  C4_5
REMARK    3  A    between atoms: N1_4  and  C12_17
REMARK    4  A    between atoms: C4_5  and  C5_6
REMARK       I    between atoms: C5_6  and  N2_8
REMARK    5  A    between atoms: N2_8  and  C6_10
ROOT
HETATM    1  C6  UNL     1      -4.095   6.012  10.310  1.00  0.00     0.122 C
HETATM    2  C7  UNL     1      -3.876   5.317   9.064  1.00  0.00     0.091 C
HETATM    3  N3  UNL     1      -3.692   4.757   8.096  1.00  0.00    -0.195 NA
HETATM    4  C8  UNL     1      -3.438   7.371  10.312  1.00  0.00     0.046 C
HETATM    5  C9  UNL     1      -4.255   8.144   9.287  1.00  0.00     0.004 C
HETATM    6  C10 UNL     1      -5.585   7.402   9.180  1.00  0.00     0.004 C
HETATM    7  C11 UNL     1      -5.570   6.436  10.377  1.00  0.00     0.046 C
ENDROOT
BRANCH   1   8
HETATM    8  N2  UNL     1      -3.695   5.245  11.463  1.00  0.00    -0.338 N
HETATM    9  C5  UNL     1      -4.283   3.993  11.769  1.00  0.00     0.237 C
HETATM   10  O1  UNL     1      -5.170   3.537  11.025  1.00  0.00    -0.272 OA
ATOM     11  H2  UNL     1      -2.968   5.614  12.075  1.00  0.00     0.164 HD
BRANCH   9  12
HETATM   12  C4  UNL     1      -3.824   3.272  12.967  1.00  0.00     0.230 C
BRANCH  12  13
HETATM   13  N1  UNL     1      -4.223   3.855  14.229  1.00  0.00    -0.353 N
BRANCH  13  14
HETATM   14  C2  UNL     1      -3.280   4.733  14.772  1.00  0.00    -0.018 C
HETATM   15  C1  UNL     1      -3.639   6.214  14.794  1.00  0.00     0.063 C
HETATM   16  C3  UNL     1      -1.835   4.550  14.394  1.00  0.00     0.063 C
ENDBRANCH  13  14
BRANCH  13  17
HETATM   17  C12 UNL     1      -5.074   3.048  14.965  1.00  0.00    -0.011 C
HETATM   18  C13 UNL     1      -6.244   3.574  15.665  1.00  0.00     0.052 C
HETATM   19  C14 UNL     1      -6.978   2.514  16.493  1.00  0.00     0.006 C
HETATM   20  C15 UNL     1      -5.959   1.916  17.470  1.00  0.00     0.001 C
HETATM   21  C16 UNL     1      -5.057   1.096  16.544  1.00  0.00     0.006 C
HETATM   22  C17 UNL     1      -4.215   2.087  15.783  1.00  0.00     0.052 C
ENDBRANCH  13  17
ENDBRANCH  12  13
ENDBRANCH   9  12
ENDBRANCH   1   8
TORSDOF 5
ENDMDL