MODEL 3
REMARK VINA RESULT: -5.909349180      2.095      6.296
REMARK  7 active torsions:
REMARK  status: ('A' for Active; 'I' for Inactive)
REMARK    1  A    between atoms: C2_2  and  C3_3
REMARK    2  A    between atoms: C3_3  and  C4_4
REMARK    3  A    between atoms: C4_4  and  C5_5
REMARK    4  A    between atoms: C5_5  and  N1_7
REMARK    5  A    between atoms: C9_12  and  C10_13
REMARK    6  A    between atoms: C10_13  and  N2_14
REMARK    7  A    between atoms: N2_14  and  C11_17
ROOT
HETATM    1  N1  UNL     1      -4.833   3.007  14.043  1.00  0.00    -0.370 N
HETATM    2  C6  UNL     1      -4.517   1.616  13.757  1.00  0.00     0.155 C
HETATM    3  C7  UNL     1      -4.016   1.475  12.333  1.00  0.00     0.136 C
HETATM    4  C8  UNL     1      -5.119   1.730  11.320  1.00  0.00     0.041 C
HETATM    5  O1  UNL     1      -2.897   2.231  12.082  1.00  0.00    -0.376 OA
HETATM    6  C9  UNL     1      -2.802   3.425  12.722  1.00  0.00     0.165 C
HETATM    7  C15 UNL     1      -4.029   3.984  13.338  1.00  0.00     0.157 C
ENDROOT
BRANCH   6   8
HETATM    8  C10 UNL     1      -2.245   4.532  11.813  1.00  0.00     0.266 C
BRANCH   8   9
HETATM    9  N2  UNL     1      -1.207   5.226  12.520  1.00  0.00    -0.065 N
ATOM     10  H22 UNL     1      -1.037   4.800  13.432  1.00  0.00     0.278 HD
ATOM     11  H21 UNL     1      -0.297   5.062  12.090  1.00  0.00     0.278 HD
BRANCH   9  12
HETATM   12  C11 UNL     1      -1.470   6.625  12.648  1.00  0.00     0.115 C
HETATM   13  C12 UNL     1      -0.209   7.426  12.367  1.00  0.00     0.045 C
HETATM   14  C13 UNL     1      -1.801   6.879  14.125  1.00  0.00     0.045 C
HETATM   15  C14 UNL     1      -2.624   7.138  11.855  1.00  0.00     0.045 C
ENDBRANCH   9  12
ENDBRANCH   8   9
ENDBRANCH   6   8
BRANCH   1  16
HETATM   16  C5  UNL     1      -5.848   3.379  14.934  1.00  0.00     0.075 C
HETATM   17  S1  UNL     1      -6.257   4.981  15.008  1.00  0.00    -0.066 SA
BRANCH  16  18
HETATM   18  C4  UNL     1      -6.587   2.472  15.816  1.00  0.00     0.069 C
BRANCH  18  19
HETATM   19  C3  UNL     1      -6.649   2.868  17.252  1.00  0.00     0.006 C
BRANCH  19  20
HETATM   20  C2  UNL     1      -6.317   1.752  18.203  1.00  0.00    -0.004 C
HETATM   21  C1  UNL     1      -6.068   0.447  17.481  1.00  0.00     0.005 C
ENDBRANCH  19  20
ENDBRANCH  18  19
ENDBRANCH  16  18
ENDBRANCH   1  16
TORSDOF 7
ENDMDL