MODEL 1
REMARK VINA RESULT: -6.358538166      0.000      0.000
REMARK  5 active torsions:
REMARK  status: ('A' for Active; 'I' for Inactive)
REMARK    1  A    between atoms: N1_2  and  C3_4
REMARK    2  A    between atoms: C3_4  and  C4_5
REMARK    3  A    between atoms: C4_5  and  C5_6
REMARK    4  A    between atoms: C8_9  and  N2_10
REMARK    5  A    between atoms: N2_10  and  C9_12
ROOT
HETATM    1  C5  UNL     1      -2.591   7.200  13.002  1.00  0.00    -0.013 C
HETATM    2  C6  UNL     1      -1.377   6.388  13.345  1.00  0.00     0.007 C
HETATM    3  C7  UNL     1      -1.688   5.300  14.383  1.00  0.00     0.025 C
HETATM    4  C8  UNL     1      -3.099   4.864  14.267  1.00  0.00     0.077 C
HETATM    5  C17 UNL     1      -3.543   4.939  12.812  1.00  0.00     0.025 C
HETATM    6  C18 UNL     1      -3.608   6.331  12.279  1.00  0.00     0.007 C
ENDROOT
BRANCH   4   7
HETATM    7  N2  UNL     1      -3.384   3.630  14.866  1.00  0.00    -0.411 N
ATOM      8  H2  UNL     1      -2.621   3.039  15.197  1.00  0.00     0.154 HD
BRANCH   7   9
HETATM    9  C9  UNL     1      -4.713   3.200  15.015  1.00  0.00     0.110 C
HETATM   10  C10 UNL     1      -5.788   4.247  15.144  1.00  0.00     0.027 C
HETATM   11  C11 UNL     1      -6.822   3.696  16.156  1.00  0.00     0.009 C
HETATM   12  C12 UNL     1      -6.480   2.246  16.138  1.00  0.00     0.023 C
HETATM   13  C13 UNL     1      -6.699   1.474  17.385  1.00  0.00     0.037 C
HETATM   14  C16 UNL     1      -4.955   2.395  16.236  1.00  0.00     0.248 C
HETATM   15  C14 UNL     1      -5.455   0.573  17.413  1.00  0.00     0.273 C
HETATM   16  N3  UNL     1      -4.568   1.073  16.356  1.00  0.00     0.091 N
HETATM   17  C15 UNL     1      -4.684   0.199  15.244  1.00  0.00     0.310 C
ENDBRANCH   7   9
ENDBRANCH   4   7
BRANCH   1  18
HETATM   18  C4  UNL     1      -2.268   8.434  12.269  1.00  0.00     0.034 C
BRANCH  18  19
HETATM   19  C3  UNL     1      -1.359   9.421  12.859  1.00  0.00     0.271 C
BRANCH  19  20
HETATM   20  N1  UNL     1      -1.715   9.932  14.167  1.00  0.00     0.080 N
HETATM   21  C1  UNL     1      -0.632   9.614  15.120  1.00  0.00     0.309 C
HETATM   22  C2  UNL     1      -1.801  11.408  14.115  1.00  0.00     0.309 C
ENDBRANCH  19  20
ENDBRANCH  18  19
ENDBRANCH   1  18
TORSDOF 5
ENDMDL