MODEL 3
REMARK VINA RESULT: -6.454493970      1.136      1.735
REMARK  6 active torsions:
REMARK  status: ('A' for Active; 'I' for Inactive)
REMARK    1  A    between atoms: O1_1  and  C1_3
REMARK    2  A    between atoms: C1_3  and  C2_4
REMARK    3  A    between atoms: C2_4  and  C3_5
REMARK    4  A    between atoms: C3_5  and  C4_6
REMARK    5  A    between atoms: C4_6  and  C5_7
REMARK    6  A    between atoms: N1_14  and  C11_15
ROOT
HETATM    1  C5  UNL     1      -4.039   3.096  12.894  1.00  0.00     0.018 C
HETATM    2  C6  UNL     1      -3.020   3.313  11.845  1.00  0.00     0.171 C
HETATM    3  O2  UNL     1      -1.752   3.237  12.381  1.00  0.00    -0.379 OA
HETATM    4  C7  UNL     1      -1.428   4.482  12.833  1.00  0.00     0.179 C
HETATM    5  C8  UNL     1      -2.331   5.481  12.117  1.00  0.00    -0.008 A
HETATM    6  C9  UNL     1      -3.336   6.232  12.887  1.00  0.00     0.057 C
HETATM    7  C10 UNL     1      -4.628   5.456  13.147  1.00  0.00     0.065 C
HETATM    8  N1  UNL     1      -4.502   4.179  13.662  1.00  0.00    -0.360 N
HETATM    9  C17 UNL     1      -2.107   5.507  10.671  1.00  0.00     0.020 A
HETATM   10  C18 UNL     1      -3.160   4.636  11.131  1.00  0.00     0.032 A
ENDROOT
BRANCH   1  11
HETATM   11  C4  UNL     1      -5.100   2.123  12.479  1.00  0.00     0.055 C
BRANCH  11  12
HETATM   12  C3  UNL     1      -5.146   1.577  11.120  1.00  0.00     0.008 C
BRANCH  12  13
HETATM   13  C2  UNL     1      -4.837   0.190  10.777  1.00  0.00     0.026 C
BRANCH  13  14
HETATM   14  C1  UNL     1      -4.280  -0.456  12.080  1.00  0.00     0.164 C
BRANCH  14  15
HETATM   15  O1  UNL     1      -4.015  -1.789  11.863  1.00  0.00    -0.401 OA
ATOM     16  H1  UNL     1      -3.261  -2.055  12.377  1.00  0.00     0.209 HD
ENDBRANCH  14  15
ENDBRANCH  13  14
ENDBRANCH  12  13
ENDBRANCH  11  12
ENDBRANCH   1  11
BRANCH   8  17
HETATM   17  C11 UNL     1      -4.840   3.876  14.970  1.00  0.00     0.088 C
HETATM   18  C12 UNL     1      -6.299   3.557  15.165  1.00  0.00     0.026 C
HETATM   19  C13 UNL     1      -6.514   2.848  16.499  1.00  0.00     0.002 C
HETATM   20  C14 UNL     1      -5.986   1.448  16.380  1.00  0.00     0.000 C
HETATM   21  C15 UNL     1      -4.708   1.450  15.554  1.00  0.00     0.002 C
HETATM   22  C16 UNL     1      -4.056   2.818  15.683  1.00  0.00     0.026 C
ENDBRANCH   8  17
TORSDOF 6
ENDMDL