MODEL 5
REMARK VINA RESULT: -6.495465246      2.289      7.055
REMARK  5 active torsions:
REMARK  status: ('A' for Active; 'I' for Inactive)
REMARK    1  A    between atoms: O1_2  and  C2_3
REMARK    2  A    between atoms: C2_3  and  C3_4
REMARK    3  A    between atoms: C3_4  and  N1_5
REMARK    4  A    between atoms: C9_11  and  N2_12
REMARK    5  A    between atoms: N2_12  and  C10_15
ROOT
HETATM    1  N1  UNL     1      -5.010   2.312  14.410  1.00  0.00    -0.391 N
HETATM    2  C4  UNL     1      -5.604   3.415  15.058  1.00  0.00     0.126 C
HETATM    3  C5  UNL     1      -4.864   4.722  14.813  1.00  0.00     0.006 C
HETATM    4  C6  UNL     1      -3.412   4.339  14.516  1.00  0.00     0.018 C
HETATM    5  C7  UNL     1      -3.591   3.816  13.082  1.00  0.00     0.055 C
HETATM    6  C8  UNL     1      -4.406   2.547  13.159  1.00  0.00     0.065 C
HETATM    7  C9  UNL     1      -4.290   4.982  12.491  1.00  0.00     0.195 C
HETATM    8  C18 UNL     1      -5.378   5.270  13.496  1.00  0.00     0.040 C
ENDROOT
BRANCH   7   9
HETATM    9  N2  UNL     1      -4.772   4.852  11.155  1.00  0.00    -0.066 N
ATOM     10  H22 UNL     1      -4.337   4.086  10.642  1.00  0.00     0.278 HD
ATOM     11  H21 UNL     1      -5.732   4.510  11.104  1.00  0.00     0.278 HD
BRANCH   9  12
HETATM   12  C10 UNL     1      -4.591   6.140  10.522  1.00  0.00     0.190 C
HETATM   13  C11 UNL     1      -4.214   7.255  11.432  1.00  0.00     0.038 C
HETATM   14  C12 UNL     1      -4.451   8.549  10.635  1.00  0.00    -0.013 C
HETATM   15  C13 UNL     1      -4.284   8.273   9.137  1.00  0.00     0.005 C
HETATM   16  C17 UNL     1      -5.930   8.868  10.824  1.00  0.00     0.005 C
HETATM   17  C14 UNL     1      -5.438   7.404   8.633  1.00  0.00     0.007 C
HETATM   18  C15 UNL     1      -5.890   6.584   9.830  1.00  0.00     0.016 C
HETATM   19  C16 UNL     1      -6.656   7.551  10.743  1.00  0.00     0.007 C
ENDBRANCH   9  12
ENDBRANCH   7   9
BRANCH   1  20
HETATM   20  C3  UNL     1      -4.611   1.209  15.185  1.00  0.00     0.148 C
BRANCH  20  21
HETATM   21  C2  UNL     1      -5.306   1.180  16.555  1.00  0.00     0.186 C
BRANCH  21  22
HETATM   22  O1  UNL     1      -6.388   0.295  16.517  1.00  0.00    -0.394 OA
HETATM   23  C1  UNL     1      -7.471   0.954  17.090  1.00  0.00     0.201 C
ENDBRANCH  21  22
ENDBRANCH  20  21
ENDBRANCH   1  20
TORSDOF 5
ENDMDL