MODEL 4
REMARK VINA RESULT: -7.483753660      2.517      4.979
REMARK  10 active torsions:
REMARK  status: ('A' for Active; 'I' for Inactive)
REMARK    1  A    between atoms: C3_3  and  C5_5
REMARK    2  A    between atoms: C5_5  and  C6_6
REMARK    3  A    between atoms: C6_6  and  C7_7
REMARK    4  A    between atoms: C7_7  and  O1_8
REMARK    5  A    between atoms: C7_7  and  C8_10
REMARK    6  A    between atoms: C7_7  and  C9_13
REMARK    7  A    between atoms: C9_13  and  O5_15
REMARK    8  A    between atoms: O5_15  and  C10_16
REMARK    9  A    between atoms: C10_16  and  C11_17
REMARK   10  A    between atoms: C11_17  and  O6_18
ROOT
HETATM    1  O5  UNL     1      27.057  21.085  -1.414  1.00  0.00    -0.315 OA
ENDROOT
BRANCH   1   2
HETATM    2  C9  UNL     1      27.590  22.239  -1.834  1.00  0.00     0.304 C
HETATM    3  O4  UNL     1      28.803  22.308  -2.086  1.00  0.00    -0.261 OA
BRANCH   2   4
HETATM    4  C7  UNL     1      26.777  23.510  -2.028  1.00  0.00     0.234 C
BRANCH   4   5
HETATM    5  C6  UNL     1      25.454  23.336  -1.354  1.00  0.00     0.064 C
BRANCH   5   6
HETATM    6  C5  UNL     1      24.277  23.442  -2.260  1.00  0.00     0.037 C
BRANCH   6   7
HETATM    7  C3  UNL     1      23.077  24.030  -1.638  1.00  0.00    -0.088 C
HETATM    8  C2  UNL     1      21.953  24.211  -2.277  1.00  0.00    -0.029 C
HETATM    9  C1  UNL     1      21.643  23.914  -3.684  1.00  0.00     0.036 C
HETATM   10  C4  UNL     1      23.185  24.407  -0.192  1.00  0.00     0.043 C
ENDBRANCH   6   7
ENDBRANCH   5   6
ENDBRANCH   4   5
BRANCH   4  11
HETATM   11  O1  UNL     1      26.642  23.709  -3.383  1.00  0.00    -0.370 OA
ATOM     12  H1  UNL     1      27.351  24.232  -3.737  1.00  0.00     0.212 HD
ENDBRANCH   4  11
BRANCH   4  13
HETATM   13  C8  UNL     1      27.519  24.632  -1.409  1.00  0.00     0.219 C
HETATM   14  O2  UNL     1      27.976  25.559  -2.156  1.00  0.00    -0.645 OA
HETATM   15  O3  UNL     1      27.762  24.771  -0.057  1.00  0.00    -0.645 OA
ENDBRANCH   4  13
ENDBRANCH   2   4
ENDBRANCH   1   2
BRANCH   1  16
HETATM   16  C10 UNL     1      26.357  20.063  -1.984  1.00  0.00     0.221 C
BRANCH  16  17
HETATM   17  C11 UNL     1      25.646  19.165  -1.053  1.00  0.00     0.104 C
HETATM   18  C12 UNL     1      26.067  17.747  -0.940  1.00  0.00     0.049 C
HETATM   19  C13 UNL     1      24.809  17.151  -0.252  1.00  0.00     0.046 C
HETATM   20  C14 UNL     1      23.741  17.887  -0.976  1.00  0.00    -0.007 C
HETATM   21  C15 UNL     1      24.197  19.026  -1.434  1.00  0.00    -0.033 C
HETATM   22  C21 UNL     1      22.342  17.527  -1.227  1.00  0.00     0.156 C
HETATM   23  C16 UNL     1      23.326  19.940  -2.188  1.00  0.00     0.047 C
HETATM   24  C17 UNL     1      21.903  19.941  -1.663  1.00  0.00    -0.037 C
HETATM   25  C18 UNL     1      21.886  20.784  -0.390  1.00  0.00     0.015 C
HETATM   26  C19 UNL     1      21.057  20.634  -2.711  1.00  0.00     0.015 C
HETATM   27  C20 UNL     1      21.343  18.589  -1.404  1.00  0.00     0.092 C
HETATM   28  O7  UNL     1      22.023  16.305  -1.285  1.00  0.00    -0.293 OA
BRANCH  17  29
HETATM   29  O6  UNL     1      25.675  19.675   0.280  1.00  0.00    -0.383 OA
ATOM     30  H6  UNL     1      24.800  19.875   0.591  1.00  0.00     0.211 HD
ENDBRANCH  17  29
ENDBRANCH  16  17
ENDBRANCH   1  16
TORSDOF 10
ENDMDL