MODEL 4
REMARK VINA RESULT: -7.908321821      3.638      5.598
REMARK  8 active torsions:
REMARK  status: ('A' for Active; 'I' for Inactive)
REMARK    1  A    between atoms: N1_1  and  N2_4
REMARK    2  A    between atoms: N2_4  and  C1_5
REMARK    3  A    between atoms: C1_5  and  C2_6
REMARK    4  A    between atoms: C1_5  and  C13_25
REMARK       I    between atoms: C2_6  and  N3_8
REMARK    5  A    between atoms: N3_8  and  O2_10
REMARK    6  A    between atoms: O2_10  and  S1_11
REMARK    7  A    between atoms: S1_11  and  C3_14
REMARK    8  A    between atoms: C6_17  and  C7_18
ROOT
HETATM    1  C2  UNL     1      25.987  20.032  -1.852  1.00  0.00     0.267 C
HETATM    2  O1  UNL     1      25.499  19.825  -2.984  1.00  0.00    -0.269 OA
HETATM    3  N3  UNL     1      26.584  21.270  -1.566  1.00  0.00    -0.215 N
ATOM      4  H3  UNL     1      26.974  21.410  -0.634  1.00  0.00     0.199 HD
ENDROOT
BRANCH   3   5
HETATM    5  O2  UNL     1      26.672  22.288  -2.454  1.00  0.00    -0.144 OA
BRANCH   5   6
HETATM    6  S1  UNL     1      25.879  23.640  -1.920  1.00  0.00     0.325 S
HETATM    7  O3  UNL     1      26.397  24.907  -2.522  1.00  0.00    -0.191 OA
HETATM    8  O4  UNL     1      25.979  23.791  -0.413  1.00  0.00    -0.191 OA
BRANCH   6   9
HETATM    9  C3  UNL     1      24.162  23.503  -2.261  1.00  0.00     0.129 A
HETATM   10  C4  UNL     1      23.336  24.317  -2.981  1.00  0.00     0.035 A
HETATM   11  C5  UNL     1      22.047  23.964  -3.082  1.00  0.00     0.022 A
HETATM   12  C6  UNL     1      21.662  22.811  -2.452  1.00  0.00     0.016 A
HETATM   13  S2  UNL     1      23.113  22.263  -1.742  1.00  0.00    -0.075 SA
BRANCH  12  14
HETATM   14  C7  UNL     1      20.354  22.164  -2.374  1.00  0.00    -0.019 A
HETATM   15  C8  UNL     1      19.168  22.842  -2.520  1.00  0.00     0.013 A
HETATM   16  C9  UNL     1      17.944  22.198  -2.441  1.00  0.00     0.001 A
HETATM   17  C10 UNL     1      17.874  20.828  -2.210  1.00  0.00     0.000 A
HETATM   18  C11 UNL     1      19.061  20.145  -2.063  1.00  0.00     0.001 A
HETATM   19  C12 UNL     1      20.273  20.792  -2.142  1.00  0.00     0.013 A
ENDBRANCH  12  14
ENDBRANCH   6   9
ENDBRANCH   5   6
ENDBRANCH   3   5
BRANCH   1  20
HETATM   20  C1  UNL     1      25.923  18.960  -0.835  1.00  0.00     0.225 C
BRANCH  20  21
HETATM   21  N2  UNL     1      26.348  19.482   0.470  1.00  0.00    -0.129 NA
BRANCH  21  22
HETATM   22  N1  UNL     1      27.672  19.116   0.691  1.00  0.00    -0.347 N
ATOM     23  H12 UNL     1      27.969  18.248   1.138  1.00  0.00     0.172 HD
ATOM     24  H11 UNL     1      28.282  19.852   0.334  1.00  0.00     0.172 HD
ENDBRANCH  21  22
ENDBRANCH  20  21
BRANCH  20  25
HETATM   25  C13 UNL     1      24.516  18.515  -0.634  1.00  0.00    -0.028 A
HETATM   26  C14 UNL     1      24.004  17.350  -1.157  1.00  0.00     0.009 A
HETATM   27  C15 UNL     1      22.694  17.046  -0.908  1.00  0.00     0.001 A
HETATM   28  C16 UNL     1      21.853  17.860  -0.151  1.00  0.00     0.000 A
HETATM   29  C17 UNL     1      22.373  19.018   0.364  1.00  0.00     0.001 A
HETATM   30  C18 UNL     1      23.701  19.343   0.123  1.00  0.00     0.009 A
ENDBRANCH  20  25
ENDBRANCH   1  20
TORSDOF 8
ENDMDL