MODEL 2
REMARK VINA RESULT: -8.520952852      2.351      4.102
REMARK  10 active torsions:
REMARK  status: ('A' for Active; 'I' for Inactive)
REMARK    1  A    between atoms: C3_3  and  C6_6
REMARK    2  A    between atoms: C6_6  and  O1_8
REMARK    3  A    between atoms: O1_8  and  C8_9
REMARK    4  A    between atoms: C8_9  and  C9_11
REMARK    5  A    between atoms: C9_11  and  C10_12
REMARK    6  A    between atoms: N1_13  and  C11_15
REMARK    7  A    between atoms: C14_18  and  O3_19
REMARK    8  A    between atoms: C16_21  and  C17_22
REMARK    9  A    between atoms: N2_24  and  N3_26
REMARK       I    between atoms: N3_26  and  C19_28
REMARK       I    between atoms: C19_28  and  N4_30
REMARK   10  A    between atoms: N4_30  and  N5_32
ROOT
HETATM    1  C1  UNL     1      24.558  19.213  -2.923  1.00  0.00     0.013 C
HETATM    2  C2  UNL     1      25.305  19.128  -1.981  1.00  0.00    -0.105 C
HETATM    3  C3  UNL     1      26.187  19.049  -0.847  1.00  0.00     0.042 C
HETATM    4  C4  UNL     1      26.778  17.658  -0.682  1.00  0.00     0.031 C
HETATM    5  C5  UNL     1      25.432  19.329   0.437  1.00  0.00     0.031 C
ENDROOT
BRANCH   3   6
HETATM    6  C6  UNL     1      27.339  20.013  -1.002  1.00  0.00     0.147 C
HETATM    7  C7  UNL     1      28.653  19.320  -1.072  1.00  0.00     0.042 C
BRANCH   6   8
HETATM    8  O1  UNL     1      27.150  20.951  -2.044  1.00  0.00    -0.314 OA
BRANCH   8   9
HETATM    9  C8  UNL     1      27.213  22.325  -1.862  1.00  0.00     0.264 C
HETATM   10  O2  UNL     1      28.317  22.761  -1.406  1.00  0.00    -0.265 OA
BRANCH   9  11
HETATM   11  C9  UNL     1      26.077  23.251  -2.169  1.00  0.00     0.155 C
BRANCH  11  12
HETATM   12  C10 UNL     1      25.236  23.521  -0.991  1.00  0.00     0.071 C
HETATM   13  N1  UNL     1      24.130  23.107  -0.731  1.00  0.00    -0.369 N
ATOM     14  H1  UNL     1      23.827  23.487   0.166  1.00  0.00     0.165 HD
BRANCH  13  15
HETATM   15  C11 UNL     1      23.137  22.291  -1.245  1.00  0.00     0.032 A
HETATM   16  C12 UNL     1      22.534  22.513  -2.469  1.00  0.00     0.032 A
HETATM   17  C13 UNL     1      21.543  21.652  -2.880  1.00  0.00     0.040 A
HETATM   18  C14 UNL     1      21.136  20.576  -2.107  1.00  0.00     0.080 A
HETATM   19  C16 UNL     1      21.719  20.322  -0.876  1.00  0.00     0.023 A
HETATM   20  C20 UNL     1      22.704  21.186  -0.478  1.00  0.00     0.045 A
BRANCH  18  21
HETATM   21  O3  UNL     1      20.135  19.743  -2.568  1.00  0.00    -0.355 OA
HETATM   22  C15 UNL     1      19.000  20.318  -3.208  1.00  0.00     0.210 C
ENDBRANCH  18  21
BRANCH  19  23
HETATM   23  C17 UNL     1      21.331  19.215  -0.017  1.00  0.00     0.035 C
HETATM   24  C18 UNL     1      20.783  19.465   1.321  1.00  0.00     0.070 C
HETATM   25  N2  UNL     1      21.483  18.021  -0.456  1.00  0.00    -0.300 N
ATOM     26  H2  UNL     1      21.872  17.920  -1.393  1.00  0.00     0.186 HD
BRANCH  25  27
HETATM   27  N3  UNL     1      21.168  16.848   0.223  1.00  0.00    -0.250 N
HETATM   28  C19 UNL     1      22.186  16.208   0.983  1.00  0.00     0.352 C
HETATM   29  O4  UNL     1      23.354  16.683   1.047  1.00  0.00    -0.244 OA
HETATM   30  N4  UNL     1      21.894  15.013   1.682  1.00  0.00    -0.257 N
ATOM     31  H4  UNL     1      20.949  14.635   1.629  1.00  0.00     0.191 HD
ATOM     32  H3  UNL     1      20.227  16.457   0.178  1.00  0.00     0.192 HD
BRANCH  30  33
HETATM   33  N5  UNL     1      22.847  14.327   2.445  1.00  0.00    -0.341 N
ATOM     34  H52 UNL     1      23.433  14.877   3.074  1.00  0.00     0.177 HD
ATOM     35  H51 UNL     1      22.974  13.316   2.396  1.00  0.00     0.177 HD
ENDBRANCH  30  33
ENDBRANCH  25  27
ENDBRANCH  19  23
ENDBRANCH  13  15
ENDBRANCH  11  12
ENDBRANCH   9  11
ENDBRANCH   8   9
ENDBRANCH   6   8
ENDBRANCH   3   6
TORSDOF 10
ENDMDL