MODEL 5
REMARK VINA RESULT: -5.623558616      0.372      1.415
REMARK  11 active torsions:
REMARK  status: ('A' for Active; 'I' for Inactive)
REMARK    1  A    between atoms: C3_4  and  C4_5
REMARK    2  A    between atoms: C4_5  and  C5_6
REMARK    3  A    between atoms: C4_5  and  C6_9
REMARK    4  A    between atoms: C5_6  and  O2_7
REMARK    5  A    between atoms: C6_9  and  O3_10
REMARK    6  A    between atoms: C9_15  and  C11_17
REMARK    7  A    between atoms: C11_17  and  O5_19
REMARK    8  A    between atoms: C13_21  and  O6_22
REMARK    9  A    between atoms: C13_21  and  C14_24
REMARK   10  A    between atoms: C14_24  and  C15_25
REMARK   11  A    between atoms: C15_25  and  C16_26
ROOT
HETATM    1  C1  UNL     1      22.536  23.415  -1.896  1.00  0.00     0.048 C
HETATM    2  C2  UNL     1      23.515  22.539  -2.032  1.00  0.00     0.060 C
HETATM    3  O1  UNL     1      24.572  22.773  -2.938  1.00  0.00    -0.348 OA
HETATM    4  C3  UNL     1      25.754  22.188  -2.419  1.00  0.00     0.139 C
HETATM    5  C7  UNL     1      25.341  21.171  -1.398  1.00  0.00     0.065 C
HETATM    6  C8  UNL     1      23.800  21.264  -1.411  1.00  0.00     0.085 C
HETATM    7  S1  UNL     1      23.280  21.047   0.284  1.00  0.00    -0.123 SA
HETATM    8  C9  UNL     1      22.561  19.363   0.093  1.00  0.00     0.132 C
HETATM    9  C10 UNL     1      21.448  19.264   1.065  1.00  0.00     0.042 C
HETATM   10  C13 UNL     1      22.103  19.449  -1.380  1.00  0.00     0.126 C
HETATM   11  C19 UNL     1      23.240  20.061  -2.092  1.00  0.00    -0.024 C
HETATM   12  C20 UNL     1      23.791  19.630  -3.221  1.00  0.00     0.020 C
ENDROOT
BRANCH   4  13
HETATM   13  C4  UNL     1      26.595  23.271  -1.801  1.00  0.00     0.062 C
BRANCH  13  14
HETATM   14  C5  UNL     1      27.817  22.609  -1.161  1.00  0.00     0.173 C
BRANCH  14  15
HETATM   15  O2  UNL     1      28.580  22.090  -2.192  1.00  0.00    -0.400 OA
ATOM     16  H2  UNL     1      29.225  21.516  -1.796  1.00  0.00     0.209 HD
ENDBRANCH  14  15
ENDBRANCH  13  14
BRANCH  13  17
HETATM   17  C6  UNL     1      25.850  23.952  -0.668  1.00  0.00     0.173 C
BRANCH  17  18
HETATM   18  O3  UNL     1      25.405  25.209  -1.062  1.00  0.00    -0.400 OA
ATOM     19  H3  UNL     1      24.674  25.490  -0.523  1.00  0.00     0.209 HD
ENDBRANCH  17  18
ENDBRANCH  13  17
ENDBRANCH   4  13
BRANCH   8  20
HETATM   20  C11 UNL     1      23.561  18.307   0.291  1.00  0.00     0.280 C
HETATM   21  O4  UNL     1      23.256  17.108   0.543  1.00  0.00    -0.263 OA
BRANCH  20  22
HETATM   22  O5  UNL     1      24.917  18.574   0.210  1.00  0.00    -0.325 OA
HETATM   23  C12 UNL     1      25.797  17.768  -0.551  1.00  0.00     0.213 C
ENDBRANCH  20  22
ENDBRANCH   8  20
BRANCH  10  24
HETATM   24  O6  UNL     1      21.973  18.118  -1.737  1.00  0.00    -0.379 OA
ATOM     25  H6  UNL     1      22.239  18.118  -2.649  1.00  0.00     0.211 HD
ENDBRANCH  10  24
BRANCH  10  26
HETATM   26  C14 UNL     1      20.809  20.118  -1.394  1.00  0.00     0.018 C
BRANCH  26  27
HETATM   27  C15 UNL     1      20.077  20.559  -2.563  1.00  0.00     0.001 C
BRANCH  27  28
HETATM   28  C16 UNL     1      18.679  20.983  -2.547  1.00  0.00    -0.088 C
HETATM   29  C17 UNL     1      18.452  22.481  -2.546  1.00  0.00     0.043 C
HETATM   30  C18 UNL     1      17.721  20.326  -1.629  1.00  0.00     0.043 C
ENDBRANCH  27  28
ENDBRANCH  26  27
ENDBRANCH  10  26
TORSDOF 11
ENDMDL