MODEL 4
REMARK VINA RESULT: -5.486517217      2.301      4.916
REMARK  9 active torsions:
REMARK  status: ('A' for Active; 'I' for Inactive)
REMARK    1  A    between atoms: C2_2  and  C3_3
REMARK    2  A    between atoms: C7_7  and  C8_8
REMARK    3  A    between atoms: C7_7  and  C12_12
REMARK    4  A    between atoms: C8_8  and  C9_9
REMARK    5  A    between atoms: C9_9  and  C10_10
REMARK    6  A    between atoms: C16_17  and  O1_18
REMARK    7  A    between atoms: C16_17  and  C17_20
REMARK    8  A    between atoms: C18_23  and  O4_24
REMARK    9  A    between atoms: O4_24  and  C19_25
ROOT
HETATM    1  C12 UNL     1      23.508  20.194  -1.646  1.00  0.00     0.071 C
HETATM    2  C13 UNL     1      24.256  18.940  -1.518  1.00  0.00     0.053 C
HETATM    3  C14 UNL     1      25.121  18.655  -0.383  1.00  0.00     0.022 C
HETATM    4  S1  UNL     1      22.959  17.605  -1.551  1.00  0.00    -0.160 SA
HETATM    5  C15 UNL     1      21.436  18.312  -2.262  1.00  0.00     0.126 C
HETATM    6  C16 UNL     1      21.093  19.616  -1.602  1.00  0.00     0.181 C
HETATM    7  C18 UNL     1      22.225  20.223  -0.825  1.00  0.00     0.187 C
ENDROOT
BRANCH   1   8
HETATM    8  C7  UNL     1      24.263  21.487  -1.590  1.00  0.00     0.087 C
HETATM    9  C6  UNL     1      24.378  22.188  -0.332  1.00  0.00     0.011 C
HETATM   10  C5  UNL     1      24.029  23.450  -0.492  1.00  0.00     0.013 C
HETATM   11  C3  UNL     1      23.658  23.663  -1.882  1.00  0.00     0.093 C
HETATM   12  C4  UNL     1      24.705  24.553  -2.508  1.00  0.00     0.055 C
HETATM   13  O6  UNL     1      23.519  22.420  -2.391  1.00  0.00    -0.357 OA
BRANCH  11  14
HETATM   14  C2  UNL     1      22.388  24.484  -2.029  1.00  0.00     0.004 C
HETATM   15  C1  UNL     1      21.591  24.141  -3.025  1.00  0.00     0.010 C
ENDBRANCH  11  14
BRANCH   8  16
HETATM   16  C8  UNL     1      25.547  21.367  -2.365  1.00  0.00     0.043 C
BRANCH  16  17
HETATM   17  C9  UNL     1      26.821  21.475  -1.640  1.00  0.00     0.003 C
BRANCH  17  18
HETATM   18  C10 UNL     1      27.590  22.637  -2.319  1.00  0.00    -0.004 C
HETATM   19  C11 UNL     1      27.960  23.679  -1.313  1.00  0.00     0.005 C
ENDBRANCH  17  18
ENDBRANCH  16  17
ENDBRANCH   8  16
ENDBRANCH   1   8
BRANCH   7  20
HETATM   20  O4  UNL     1      22.399  19.755   0.457  1.00  0.00    -0.297 OA
BRANCH  20  21
HETATM   21  C19 UNL     1      21.698  18.988   1.289  1.00  0.00     0.373 C
HETATM   22  N1  UNL     1      21.945  17.611   1.493  1.00  0.00    -0.032 NA
HETATM   23  O5  UNL     1      20.792  19.543   1.897  1.00  0.00    -0.242 OA
ENDBRANCH  20  21
ENDBRANCH   7  20
BRANCH   6  24
HETATM   24  O1  UNL     1      19.986  19.407  -0.722  1.00  0.00    -0.376 OA
ATOM     25  H1  UNL     1      19.566  20.243  -0.557  1.00  0.00     0.211 HD
ENDBRANCH   6  24
BRANCH   6  26
HETATM   26  C17 UNL     1      20.584  20.550  -2.584  1.00  0.00     0.212 C
HETATM   27  O2  UNL     1      21.075  20.841  -3.716  1.00  0.00    -0.646 OA
HETATM   28  O3  UNL     1      19.392  21.280  -2.339  1.00  0.00    -0.646 OA
ENDBRANCH   6  26
TORSDOF 9
ENDMDL