MODEL 4
REMARK VINA RESULT: -6.969341352      1.159      1.166
REMARK  7 active torsions:
REMARK  status: ('A' for Active; 'I' for Inactive)
REMARK    1  A    between atoms: O1_2  and  C2_3
REMARK    2  A    between atoms: C3_4  and  N1_5
REMARK       I    between atoms: N1_5  and  C4_7
REMARK    3  A    between atoms: C4_7  and  C5_9
REMARK    4  A    between atoms: C6_13  and  C7_14
REMARK    5  A    between atoms: C12_21  and  C13_22
REMARK       I    between atoms: C13_22  and  N4_24
REMARK    6  A    between atoms: N4_24  and  C14_26
REMARK    7  A    between atoms: C17_29  and  O6_30
ROOT
HETATM    1  C2  UNL     1      25.927  21.450  -1.377  1.00  0.00     0.129 A
HETATM    2  C3  UNL     1      24.733  21.718  -0.690  1.00  0.00     0.071 A
HETATM    3  C10 UNL     1      24.450  23.042  -0.502  1.00  0.00     0.034 A
HETATM    4  C11 UNL     1      25.284  24.034  -0.962  1.00  0.00     0.022 A
HETATM    5  C12 UNL     1      26.483  23.763  -1.656  1.00  0.00     0.068 A
HETATM    6  C17 UNL     1      26.767  22.437  -1.840  1.00  0.00     0.119 A
ENDROOT
BRANCH   2   7
HETATM    7  N1  UNL     1      23.954  20.626  -0.269  1.00  0.00    -0.319 N
HETATM    8  C4  UNL     1      22.711  20.212  -0.776  1.00  0.00     0.282 C
HETATM    9  O2  UNL     1      22.144  20.808  -1.703  1.00  0.00    -0.265 OA
ATOM     10  H1  UNL     1      24.337  20.069   0.495  1.00  0.00     0.169 HD
BRANCH   8  11
HETATM   11  C5  UNL     1      22.048  19.020  -0.190  1.00  0.00     0.174 A
HETATM   12  O3  UNL     1      20.992  18.979   0.571  1.00  0.00    -0.231 OA
HETATM   13  N2  UNL     1      20.700  17.759   0.893  1.00  0.00    -0.255 N
HETATM   14  C6  UNL     1      21.599  16.898   0.329  1.00  0.00     0.128 A
ATOM     15  H2  UNL     1      19.914  17.482   1.483  1.00  0.00     0.195 HD
HETATM   16  C8  UNL     1      22.469  17.704  -0.369  1.00  0.00     0.013 A
HETATM   17  C9  UNL     1      23.637  17.326  -1.174  1.00  0.00     0.054 C
BRANCH  14  18
HETATM   18  C7  UNL     1      21.605  15.454   0.460  1.00  0.00     0.283 C
HETATM   19  N3  UNL     1      22.210  14.870   1.622  1.00  0.00    -0.056 NA
HETATM   20  O4  UNL     1      21.119  14.660  -0.363  1.00  0.00    -0.269 OA
ENDBRANCH  14  18
ENDBRANCH   8  11
ENDBRANCH   2   7
BRANCH   1  21
HETATM   21  O1  UNL     1      26.294  20.132  -1.612  1.00  0.00    -0.351 OA
HETATM   22  C1  UNL     1      26.899  19.445  -0.515  1.00  0.00     0.210 C
ENDBRANCH   1  21
BRANCH   6  23
HETATM   23  O6  UNL     1      27.925  22.001  -2.500  1.00  0.00    -0.352 OA
HETATM   24  C18 UNL     1      29.110  22.136  -1.664  1.00  0.00     0.210 C
ENDBRANCH   6  23
BRANCH   5  25
HETATM   25  C13 UNL     1      27.234  24.865  -2.189  1.00  0.00     0.254 C
HETATM   26  O5  UNL     1      27.802  25.624  -1.313  1.00  0.00    -0.268 OA
HETATM   27  N4  UNL     1      27.436  25.224  -3.507  1.00  0.00    -0.353 N
ATOM     28  H4  UNL     1      27.009  24.677  -4.254  1.00  0.00     0.163 HD
BRANCH  27  29
HETATM   29  C14 UNL     1      28.268  26.392  -3.837  1.00  0.00     0.076 C
HETATM   30  C15 UNL     1      29.624  25.942  -4.352  1.00  0.00     0.032 C
HETATM   31  C16 UNL     1      27.593  27.141  -4.967  1.00  0.00     0.032 C
ENDBRANCH  27  29
ENDBRANCH   5  25
TORSDOF 7
ENDMDL