MODEL 2
REMARK VINA RESULT: -7.409500594      0.713      1.057
REMARK  13 active torsions:
REMARK  status: ('A' for Active; 'I' for Inactive)
REMARK    1  A    between atoms: C2_2  and  C3_3
REMARK    2  A    between atoms: C2_2  and  C15_22
REMARK    3  A    between atoms: C3_3  and  C4_4
REMARK    4  A    between atoms: C4_4  and  C5_5
REMARK    5  A    between atoms: C6_7  and  C8_9
REMARK    6  A    between atoms: C8_9  and  O2_11
REMARK    7  A    between atoms: C8_9  and  C10_13
REMARK    8  A    between atoms: C10_13  and  O3_14
REMARK    9  A    between atoms: C13_18  and  O4_20
REMARK   10  A    between atoms: C15_22  and  O5_23
REMARK   11  A    between atoms: C16_25  and  C17_26
REMARK   12  A    between atoms: C17_26  and  O7_28
REMARK   13  A    between atoms: O7_28  and  C18_29
ROOT
HETATM    1  C5  UNL     1      22.094  18.779  -1.233  1.00  0.00     0.161 C
HETATM    2  O1  UNL     1      23.388  19.216  -1.168  1.00  0.00    -0.365 OA
HETATM    3  C6  UNL     1      24.354  18.212  -0.997  1.00  0.00     0.108 C
HETATM    4  C7  UNL     1      24.548  17.407  -2.261  1.00  0.00     0.054 C
HETATM    5  C11 UNL     1      23.995  17.374   0.173  1.00  0.00     0.012 C
HETATM    6  C12 UNL     1      22.769  17.466   0.669  1.00  0.00     0.012 C
HETATM    7  C13 UNL     1      21.692  18.345   0.157  1.00  0.00     0.098 C
HETATM    8  C14 UNL     1      21.445  19.523   1.080  1.00  0.00     0.053 C
ENDROOT
BRANCH   1   9
HETATM    9  C4  UNL     1      21.228  19.901  -1.791  1.00  0.00     0.036 C
BRANCH   9  10
HETATM   10  C3  UNL     1      21.999  20.907  -2.543  1.00  0.00     0.013 C
BRANCH  10  11
HETATM   11  C2  UNL     1      22.049  22.283  -1.934  1.00  0.00     0.038 C
HETATM   12  C1  UNL     1      21.526  23.292  -2.970  1.00  0.00     0.017 C
BRANCH  11  13
HETATM   13  C15 UNL     1      23.363  22.745  -1.479  1.00  0.00     0.052 C
HETATM   14  C16 UNL     1      23.943  23.781  -2.030  1.00  0.00     0.114 C
BRANCH  13  15
HETATM   15  O5  UNL     1      24.058  22.114  -0.445  1.00  0.00    -0.364 OA
ATOM     16  H5  UNL     1      24.624  22.591   0.151  1.00  0.00     0.217 HD
ENDBRANCH  13  15
BRANCH  14  17
HETATM   17  C17 UNL     1      25.237  24.332  -1.666  1.00  0.00     0.286 C
HETATM   18  O6  UNL     1      25.770  23.988  -0.591  1.00  0.00    -0.260 OA
BRANCH  17  19
HETATM   19  O7  UNL     1      25.927  25.231  -2.447  1.00  0.00    -0.308 OA
BRANCH  19  20
HETATM   20  C18 UNL     1      26.980  24.886  -3.308  1.00  0.00     0.060 C
HETATM   21  C19 UNL     1      28.223  25.645  -2.869  1.00  0.00     0.046 C
HETATM   22  C20 UNL     1      26.709  25.267  -4.742  1.00  0.00     0.046 C
HETATM   23  C21 UNL     1      27.302  23.410  -3.266  1.00  0.00     0.046 C
ENDBRANCH  19  20
ENDBRANCH  17  19
ENDBRANCH  14  17
ENDBRANCH  11  13
ENDBRANCH  10  11
ENDBRANCH   9  10
ENDBRANCH   1   9
BRANCH   7  24
HETATM   24  O4  UNL     1      20.540  17.509   0.131  1.00  0.00    -0.384 OA
ATOM     25  H4  UNL     1      20.060  17.550   0.949  1.00  0.00     0.211 HD
ENDBRANCH   7  24
BRANCH   3  26
HETATM   26  C8  UNL     1      25.705  18.893  -0.745  1.00  0.00     0.109 C
HETATM   27  C9  UNL     1      26.824  17.938  -0.529  1.00  0.00     0.051 C
BRANCH  26  28
HETATM   28  O2  UNL     1      25.526  19.603   0.500  1.00  0.00    -0.385 OA
ATOM     29  H2  UNL     1      26.310  20.132   0.588  1.00  0.00     0.210 HD
ENDBRANCH  26  28
BRANCH  26  30
HETATM   30  C10 UNL     1      26.068  19.936  -1.735  1.00  0.00     0.204 C
BRANCH  30  31
HETATM   31  O3  UNL     1      26.614  21.091  -1.220  1.00  0.00    -0.398 OA
ATOM     32  H3  UNL     1      27.532  21.241  -1.416  1.00  0.00     0.209 HD
ENDBRANCH  30  31
ENDBRANCH  26  30
ENDBRANCH   3  26
TORSDOF 13
ENDMDL