MODEL 5
REMARK VINA RESULT: -5.221336653      5.318      7.841
REMARK  10 active torsions:
REMARK  status: ('A' for Active; 'I' for Inactive)
REMARK    1  A    between atoms: C2_2  and  C3_3
REMARK    2  A    between atoms: C3_3  and  C4_4
REMARK    3  A    between atoms: C5_5  and  O1_6
REMARK    4  A    between atoms: C6_8  and  O2_9
REMARK    5  A    between atoms: O2_9  and  C7_10
REMARK    6  A    between atoms: C14_18  and  O4_19
REMARK    7  A    between atoms: C17_23  and  O5_24
REMARK    8  A    between atoms: O5_24  and  C18_25
REMARK    9  A    between atoms: C18_25  and  C19_27
REMARK   10  A    between atoms: C19_27  and  C20_28
ROOT
HETATM    1  C4  UNL     1      31.206  18.606   0.201  1.00  0.00     0.050 C
HETATM    2  C5  UNL     1      31.118  17.480   1.204  1.00  0.00     0.155 C
HETATM    3  C6  UNL     1      30.805  16.139   0.610  1.00  0.00     0.172 C
HETATM    4  C9  UNL     1      31.399  15.875  -0.725  1.00  0.00     0.017 C
HETATM    5  C10 UNL     1      32.873  16.112  -0.806  1.00  0.00     0.021 C
HETATM    6  C11 UNL     1      31.218  14.365  -1.001  1.00  0.00     0.015 C
HETATM    7  C12 UNL     1      31.348  14.282  -2.527  1.00  0.00     0.004 C
HETATM    8  C13 UNL     1      31.290  15.710  -3.033  1.00  0.00     0.039 C
HETATM    9  C14 UNL     1      30.598  16.387  -1.871  1.00  0.00     0.073 C
HETATM   10  C15 UNL     1      30.379  17.810  -2.041  1.00  0.00     0.047 C
HETATM   11  C16 UNL     1      31.408  18.563  -2.856  1.00  0.00     0.016 C
HETATM   12  C17 UNL     1      30.116  18.608  -0.794  1.00  0.00     0.145 C
ENDROOT
BRANCH  12  13
HETATM   13  O5  UNL     1      28.874  18.249  -0.195  1.00  0.00    -0.315 OA
BRANCH  13  14
HETATM   14  C18 UNL     1      27.642  18.429  -0.788  1.00  0.00     0.259 C
HETATM   15  O6  UNL     1      26.995  17.414  -1.138  1.00  0.00    -0.265 OA
BRANCH  14  16
HETATM   16  C19 UNL     1      27.036  19.755  -1.035  1.00  0.00     0.115 C
BRANCH  16  17
HETATM   17  C20 UNL     1      25.535  19.659  -1.155  1.00  0.00    -0.013 C
HETATM   18  C21 UNL     1      24.824  19.810   0.149  1.00  0.00     0.010 C
HETATM   19  C22 UNL     1      25.071  20.768  -2.083  1.00  0.00     0.010 C
ENDBRANCH  16  17
ENDBRANCH  14  16
ENDBRANCH  13  14
ENDBRANCH  12  13
BRANCH   1  20
HETATM   20  C3  UNL     1      31.122  19.867   1.033  1.00  0.00     0.036 C
BRANCH  20  21
HETATM   21  C2  UNL     1      32.383  20.334   1.600  1.00  0.00    -0.036 C
HETATM   22  C1  UNL     1      32.397  20.661   2.903  1.00  0.00     0.007 C
ENDBRANCH  20  21
ENDBRANCH   1  20
BRANCH   2  23
HETATM   23  O1  UNL     1      30.225  17.763   2.232  1.00  0.00    -0.392 OA
ATOM     24  H1  UNL     1      29.921  18.662   2.205  1.00  0.00     0.210 HD
ENDBRANCH   2  23
BRANCH   9  25
HETATM   25  O4  UNL     1      29.337  15.741  -1.781  1.00  0.00    -0.389 OA
ATOM     26  H4  UNL     1      28.783  16.163  -2.426  1.00  0.00     0.210 HD
ENDBRANCH   9  25
BRANCH   3  27
HETATM   27  O2  UNL     1      31.306  15.176   1.552  1.00  0.00    -0.313 OA
BRANCH  27  28
HETATM   28  C7  UNL     1      30.417  14.498   2.340  1.00  0.00     0.255 C
HETATM   29  C8  UNL     1      30.743  14.027   3.722  1.00  0.00     0.126 C
HETATM   30  O3  UNL     1      29.271  14.250   1.901  1.00  0.00    -0.266 OA
ENDBRANCH  27  28
ENDBRANCH   3  27
TORSDOF 10
ENDMDL