MODEL 5
REMARK VINA RESULT: -6.832602342      2.376      4.704
REMARK  11 active torsions:
REMARK  status: ('A' for Active; 'I' for Inactive)
REMARK    1  A    between atoms: C2_2  and  C4_4
REMARK    2  A    between atoms: C4_4  and  C5_5
REMARK    3  A    between atoms: C5_5  and  O1_9
REMARK    4  A    between atoms: O1_9  and  C7_10
REMARK    5  A    between atoms: C7_10  and  C8_11
REMARK    6  A    between atoms: C15_18  and  C16_19
REMARK    7  A    between atoms: C16_19  and  O2_20
REMARK    8  A    between atoms: C16_19  and  C17_22
REMARK    9  A    between atoms: C17_22  and  O3_23
REMARK   10  A    between atoms: C17_22  and  C18_25
REMARK   11  A    between atoms: C18_25  and  O4_27
ROOT
HETATM    1  C8  UNL     1      23.057  20.343  -1.644  1.00  0.00     0.022 C
HETATM    2  C9  UNL     1      22.665  20.804  -2.985  1.00  0.00     0.020 C
HETATM    3  C10 UNL     1      21.177  20.755  -3.269  1.00  0.00     0.034 C
HETATM    4  C11 UNL     1      20.368  20.437  -2.065  1.00  0.00    -0.087 C
HETATM    5  C12 UNL     1      19.037  21.056  -1.916  1.00  0.00     0.043 C
HETATM    6  C13 UNL     1      20.846  19.594  -1.117  1.00  0.00    -0.016 C
HETATM    7  C14 UNL     1      22.163  19.093  -1.444  1.00  0.00     0.053 C
HETATM    8  C15 UNL     1      22.945  18.259  -0.555  1.00  0.00     0.162 C
HETATM    9  O5  UNL     1      24.169  18.893  -0.375  1.00  0.00    -0.371 OA
HETATM   10  C20 UNL     1      24.379  19.603  -1.585  1.00  0.00     0.065 C
HETATM   11  C21 UNL     1      24.613  18.702  -2.726  1.00  0.00     0.046 C
HETATM   12  C22 UNL     1      25.567  20.494  -1.413  1.00  0.00     0.046 C
ENDROOT
BRANCH   1  13
HETATM   13  C7  UNL     1      22.916  21.339  -0.583  1.00  0.00     0.190 C
BRANCH  13  14
HETATM   14  O1  UNL     1      23.842  22.280  -0.291  1.00  0.00    -0.338 OA
BRANCH  14  15
HETATM   15  C5  UNL     1      23.922  23.619  -0.803  1.00  0.00     0.117 C
HETATM   16  N1  UNL     1      25.103  23.893  -1.080  1.00  0.00    -0.379 N
HETATM   17  C6  UNL     1      25.855  24.933  -1.580  1.00  0.00     0.148 C
ATOM     18  H1  UNL     1      25.704  23.096  -0.872  1.00  0.00     0.160 HD
BRANCH  15  19
HETATM   19  C4  UNL     1      22.689  24.406  -0.916  1.00  0.00     0.116 C
BRANCH  19  20
HETATM   20  C2  UNL     1      22.029  24.271  -2.220  1.00  0.00    -0.086 C
HETATM   21  C1  UNL     1      22.756  24.260  -3.357  1.00  0.00     0.014 C
HETATM   22  C3  UNL     1      20.562  24.181  -2.364  1.00  0.00     0.043 C
ENDBRANCH  19  20
ENDBRANCH  15  19
ENDBRANCH  14  15
ENDBRANCH  13  14
ENDBRANCH   1  13
BRANCH   8  23
HETATM   23  C16 UNL     1      22.313  17.668   0.629  1.00  0.00     0.179 C
BRANCH  23  24
HETATM   24  O2  UNL     1      21.852  18.576   1.571  1.00  0.00    -0.390 OA
ATOM     25  H2  UNL     1      22.361  18.624   2.372  1.00  0.00     0.210 HD
ENDBRANCH  23  24
BRANCH  23  26
HETATM   26  C17 UNL     1      23.036  16.553   1.330  1.00  0.00     0.177 C
BRANCH  26  27
HETATM   27  O3  UNL     1      24.138  16.147   0.520  1.00  0.00    -0.390 OA
ATOM     28  H3  UNL     1      23.802  15.839  -0.314  1.00  0.00     0.210 HD
ENDBRANCH  26  27
BRANCH  26  29
HETATM   29  C18 UNL     1      22.259  15.323   1.641  1.00  0.00     0.145 C
HETATM   30  C19 UNL     1      21.291  14.843   0.639  1.00  0.00     0.042 C
BRANCH  29  31
HETATM   31  O4  UNL     1      23.030  14.329   2.251  1.00  0.00    -0.393 OA
ATOM     32  H4  UNL     1      23.402  13.714   1.630  1.00  0.00     0.210 HD
ENDBRANCH  29  31
ENDBRANCH  26  29
ENDBRANCH  23  26
ENDBRANCH   8  23
TORSDOF 11
ENDMDL