MODEL 1
REMARK VINA RESULT: -7.278424870      0.000      0.000
REMARK  10 active torsions:
REMARK  status: ('A' for Active; 'I' for Inactive)
REMARK    1  A    between atoms: C2_2  and  C3_3
REMARK    2  A    between atoms: C3_3  and  C4_4
REMARK    3  A    between atoms: C4_4  and  C5_5
REMARK    4  A    between atoms: C9_9  and  O1_10
REMARK    5  A    between atoms: C11_12  and  O2_13
REMARK    6  A    between atoms: C15_18  and  O4_19
REMARK    7  A    between atoms: O4_19  and  C16_20
REMARK    8  A    between atoms: C16_20  and  O5_23
REMARK    9  A    between atoms: C19_25  and  O6_26
REMARK   10  A    between atoms: C19_25  and  C20_28
ROOT
HETATM    1  C3  UNL     1      22.655  20.021  -1.075  1.00  0.00     0.060 C
HETATM    2  C9  UNL     1      23.062  21.468  -1.455  1.00  0.00     0.096 C
HETATM    3  C11 UNL     1      24.280  21.893  -1.578  1.00  0.00     0.149 C
HETATM    4  C13 UNL     1      25.471  21.020  -1.385  1.00  0.00     0.219 C
HETATM    5  O3  UNL     1      26.643  21.449  -1.496  1.00  0.00    -0.285 OA
HETATM    6  C14 UNL     1      25.131  19.642  -1.056  1.00  0.00     0.063 C
HETATM    7  C15 UNL     1      25.980  18.894  -0.437  1.00  0.00     0.153 C
HETATM    8  C19 UNL     1      23.795  19.167  -1.492  1.00  0.00     0.193 C
ENDROOT
BRANCH   1   9
HETATM    9  C2  UNL     1      22.361  20.169   0.358  1.00  0.00     0.016 C
HETATM   10  C1  UNL     1      21.452  19.343   1.109  1.00  0.00     0.006 C
ENDBRANCH   1   9
BRANCH   1  11
HETATM   11  C4  UNL     1      21.481  19.791  -1.991  1.00  0.00     0.048 C
BRANCH  11  12
HETATM   12  C5  UNL     1      20.139  20.051  -1.478  1.00  0.00    -0.023 C
HETATM   13  C6  UNL     1      19.106  20.283  -2.293  1.00  0.00    -0.091 C
HETATM   14  C7  UNL     1      17.741  20.549  -1.783  1.00  0.00     0.042 C
HETATM   15  C8  UNL     1      19.357  20.272  -3.756  1.00  0.00     0.042 C
ENDBRANCH  11  12
ENDBRANCH   1  11
BRANCH   2  16
HETATM   16  O1  UNL     1      22.019  22.360  -1.674  1.00  0.00    -0.356 OA
HETATM   17  C10 UNL     1      21.684  23.091  -2.780  1.00  0.00     0.209 C
ENDBRANCH   2  16
BRANCH   8  18
HETATM   18  O6  UNL     1      23.861  19.397  -2.931  1.00  0.00    -0.373 OA
ATOM     19  H6  UNL     1      24.451  18.713  -3.226  1.00  0.00     0.211 HD
ENDBRANCH   8  18
BRANCH   8  20
HETATM   20  C20 UNL     1      23.654  17.722  -1.403  1.00  0.00     0.215 C
HETATM   21  O7  UNL     1      24.250  16.903  -2.196  1.00  0.00    -0.645 OA
HETATM   22  O8  UNL     1      22.884  17.092  -0.484  1.00  0.00    -0.645 OA
ENDBRANCH   8  20
BRANCH   3  23
HETATM   23  O2  UNL     1      24.510  23.220  -1.915  1.00  0.00    -0.350 OA
HETATM   24  C12 UNL     1      24.824  24.244  -1.034  1.00  0.00     0.210 C
ENDBRANCH   3  23
BRANCH   7  25
HETATM   25  O4  UNL     1      27.230  19.436  -0.089  1.00  0.00    -0.326 OA
BRANCH  25  26
HETATM   26  C16 UNL     1      28.412  18.816  -0.564  1.00  0.00     0.159 C
HETATM   27  C17 UNL     1      28.080  17.345  -0.784  1.00  0.00     0.078 C
HETATM   28  C18 UNL     1      29.524  18.959   0.424  1.00  0.00     0.078 C
BRANCH  26  29
HETATM   29  O5  UNL     1      28.787  19.425  -1.759  1.00  0.00    -0.366 OA
ATOM     30  H5  UNL     1      28.678  18.801  -2.467  1.00  0.00     0.213 HD
ENDBRANCH  26  29
ENDBRANCH  25  26
ENDBRANCH   7  25
TORSDOF 10
ENDMDL