MODEL 3
REMARK VINA RESULT: -6.837084719      1.591      2.729
REMARK  4 active torsions:
REMARK  status: ('A' for Active; 'I' for Inactive)
REMARK    1  A    between atoms: C3_3  and  C4_4
REMARK    2  A    between atoms: C4_4  and  N1_5
REMARK    3  A    between atoms: N1_5  and  C5_8
REMARK    4  A    between atoms: C10_14  and  O2_16
ROOT
HETATM    1  C1  UNL     1      -4.690 -22.541  23.242  1.00  0.00     0.013 C
HETATM    2  C2  UNL     1      -4.848 -21.876  21.886  1.00  0.00     0.023 C
HETATM    3  C3  UNL     1      -6.225 -22.098  21.385  1.00  0.00     0.151 C
HETATM    4  O1  UNL     1      -6.320 -22.332  20.034  1.00  0.00    -0.381 OA
HETATM    5  C9  UNL     1      -5.481 -21.503  19.330  1.00  0.00     0.206 C
HETATM    6  C10 UNL     1      -4.067 -22.034  19.514  1.00  0.00     0.083 C
HETATM    7  C11 UNL     1      -3.111 -21.022  18.944  1.00  0.00     0.049 C
HETATM    8  C12 UNL     1      -3.766 -22.371  20.952  1.00  0.00    -0.009 C
HETATM    9  C13 UNL     1      -3.585 -23.862  21.145  1.00  0.00     0.018 C
HETATM   10  C14 UNL     1      -2.475 -21.698  21.401  1.00  0.00     0.018 C
ENDROOT
BRANCH   3  11
HETATM   11  C4  UNL     1      -7.134 -20.932  21.700  1.00  0.00     0.265 C
BRANCH  11  12
HETATM   12  N1  UNL     1      -8.454 -21.125  21.128  1.00  0.00    -0.065 N
ATOM     13  H12 UNL     1      -8.389 -21.280  20.123  1.00  0.00     0.278 HD
ATOM     14  H11 UNL     1      -8.841 -22.024  21.417  1.00  0.00     0.278 HD
BRANCH  12  15
HETATM   15  C5  UNL     1      -9.379 -20.066  21.415  1.00  0.00     0.115 C
HETATM   16  C6  UNL     1      -9.797 -19.408  20.123  1.00  0.00     0.045 C
HETATM   17  C7  UNL     1      -8.869 -19.051  22.410  1.00  0.00     0.045 C
HETATM   18  C8  UNL     1     -10.596 -20.743  22.065  1.00  0.00     0.045 C
ENDBRANCH  12  15
ENDBRANCH  11  12
ENDBRANCH   3  11
BRANCH   6  19
HETATM   19  O2  UNL     1      -3.978 -23.176  18.688  1.00  0.00    -0.387 OA
ATOM     20  H2  UNL     1      -3.079 -23.202  18.382  1.00  0.00     0.210 HD
ENDBRANCH   6  19
TORSDOF 4
ENDMDL