MODEL 3
REMARK VINA RESULT: -7.698479942      1.335      1.387
REMARK  3 active torsions:
REMARK  status: ('A' for Active; 'I' for Inactive)
REMARK    1  A    between atoms: C2_2  and  N1_3
REMARK    2  A    between atoms: C2_2  and  C3_7
REMARK       I    between atoms: C3_7  and  N2_9
REMARK    3  A    between atoms: N2_9  and  C4_11
ROOT
HETATM    1  C4  UNL     1      -7.095 -21.071  21.142  1.00  0.00     0.033 C
HETATM    2  C5  UNL     1      -7.169 -21.928  22.370  1.00  0.00     0.031 C
HETATM    3  C6  UNL     1      -8.129 -21.504  23.409  1.00  0.00     0.007 C
HETATM    4  C7  UNL     1      -9.323 -20.748  22.971  1.00  0.00    -0.014 C
HETATM    5  C8  UNL     1      -9.062 -19.244  22.876  1.00  0.00     0.009 C
HETATM    6  C9  UNL     1      -8.445 -18.961  21.532  1.00  0.00    -0.012 C
HETATM    7  C10 UNL     1      -9.353 -19.356  20.409  1.00  0.00     0.009 C
HETATM    8  C11 UNL     1      -9.507 -20.842  20.451  1.00  0.00    -0.012 C
HETATM    9  C12 UNL     1     -10.032 -21.275  21.774  1.00  0.00     0.009 C
HETATM   10  C13 UNL     1      -8.191 -21.539  20.206  1.00  0.00     0.035 C
HETATM   11  C14 UNL     1      -7.118 -19.613  21.413  1.00  0.00     0.035 C
ENDROOT
BRANCH   1  12
HETATM   12  N2  UNL     1      -5.844 -21.379  20.472  1.00  0.00    -0.350 N
HETATM   13  C3  UNL     1      -4.572 -21.285  21.038  1.00  0.00     0.248 C
HETATM   14  O1  UNL     1      -4.375 -20.915  22.214  1.00  0.00    -0.271 OA
ATOM     15  H2  UNL     1      -5.900 -21.691  19.502  1.00  0.00     0.163 HD
BRANCH  13  16
HETATM   16  C2  UNL     1      -3.378 -21.634  20.231  1.00  0.00     0.270 C
HETATM   17  C1  UNL     1      -3.491 -21.014  18.854  1.00  0.00     0.050 C
BRANCH  16  18
HETATM   18  N1  UNL     1      -2.146 -21.217  20.858  1.00  0.00    -0.067 N
ATOM     19  H13 UNL     1      -2.300 -20.846  21.796  1.00  0.00     0.275 HD
ATOM     20  H12 UNL     1      -1.555 -22.010  21.107  1.00  0.00     0.275 HD
ATOM     21  H11 UNL     1      -1.659 -20.551  20.258  1.00  0.00     0.275 HD
ENDBRANCH  16  18
ENDBRANCH  13  16
ENDBRANCH   1  12
TORSDOF 3
ENDMDL