MODEL 1
REMARK VINA RESULT: -7.893867405      0.000      0.000
REMARK  4 active torsions:
REMARK  status: ('A' for Active; 'I' for Inactive)
REMARK    1  A    between atoms: C7_7  and  C8_8
REMARK    2  A    between atoms: C8_8  and  C11_11
REMARK    3  A    between atoms: C11_11  and  O1_12
REMARK    4  A    between atoms: C14_16  and  O2_18
ROOT
HETATM    1  C1  UNL     1      -7.119 -22.553  23.741  1.00  0.00     0.015 C
HETATM    2  C2  UNL     1      -6.300 -22.116  22.511  1.00  0.00    -0.044 C
HETATM    3  C3  UNL     1      -4.875 -22.003  23.022  1.00  0.00     0.015 C
HETATM    4  C4  UNL     1      -6.452 -23.120  21.427  1.00  0.00     0.010 C
HETATM    5  C5  UNL     1      -6.570 -22.642  20.034  1.00  0.00     0.009 C
HETATM    6  C6  UNL     1      -7.244 -21.271  19.899  1.00  0.00     0.025 C
HETATM    7  C7  UNL     1      -8.012 -21.090  21.180  1.00  0.00     0.007 C
HETATM    8  C12 UNL     1      -6.885 -20.776  22.109  1.00  0.00     0.001 C
HETATM    9  C13 UNL     1      -5.823 -20.064  21.301  1.00  0.00     0.043 C
HETATM   10  C14 UNL     1      -6.142 -20.264  19.842  1.00  0.00     0.059 C
HETATM   11  C15 UNL     1      -4.928 -20.733  19.061  1.00  0.00     0.046 C
ENDROOT
BRANCH   7  12
HETATM   12  C8  UNL     1      -9.169 -20.199  21.181  1.00  0.00    -0.022 C
HETATM   13  C9  UNL     1      -9.565 -19.838  19.746  1.00  0.00     0.017 C
HETATM   14  C10 UNL     1      -9.196 -19.034  22.093  1.00  0.00     0.017 C
BRANCH  12  15
HETATM   15  C11 UNL     1     -10.383 -21.057  21.621  1.00  0.00     0.173 C
BRANCH  15  16
HETATM   16  O1  UNL     1     -10.457 -21.026  23.027  1.00  0.00    -0.400 OA
ATOM     17  H1  UNL     1     -10.647 -20.133  23.293  1.00  0.00     0.209 HD
ENDBRANCH  15  16
ENDBRANCH  12  15
ENDBRANCH   7  12
BRANCH  10  18
HETATM   18  O2  UNL     1      -6.497 -19.073  19.216  1.00  0.00    -0.390 OA
ATOM     19  H2  UNL     1      -5.780 -18.457  19.124  1.00  0.00     0.210 HD
ENDBRANCH  10  18
TORSDOF 4
ENDMDL