MODEL 4
REMARK VINA RESULT: -7.129705523      1.374      3.950
REMARK  3 active torsions:
REMARK  status: ('A' for Active; 'I' for Inactive)
REMARK    1  A    between atoms: C2_2  and  C3_3
REMARK    2  A    between atoms: C9_10  and  O2_11
REMARK    3  A    between atoms: C9_10  and  C10_13
ROOT
HETATM    1  C3  UNL     1      -6.456 -23.081  22.029  1.00  0.00     0.125 C
HETATM    2  O1  UNL     1      -6.623 -21.785  21.531  1.00  0.00    -0.376 OA
HETATM    3  C4  UNL     1      -7.984 -21.620  21.166  1.00  0.00     0.171 C
HETATM    4  C5  UNL     1      -8.836 -21.832  22.363  1.00  0.00     0.019 C
HETATM    5  C6  UNL     1      -9.917 -20.836  22.592  1.00  0.00     0.007 C
HETATM    6  C7  UNL     1     -10.511 -20.528  21.216  1.00  0.00     0.004 C
HETATM    7  C8  UNL     1      -9.487 -19.705  20.487  1.00  0.00     0.052 C
HETATM    8  C9  UNL     1      -8.116 -20.314  20.459  1.00  0.00     0.172 C
HETATM    9  C11 UNL     1      -7.960 -22.028  23.609  1.00  0.00     0.014 C
HETATM   10  C12 UNL     1      -7.200 -23.325  23.298  1.00  0.00     0.011 C
HETATM   11  C13 UNL     1      -6.314 -23.720  24.447  1.00  0.00     0.012 C
ENDROOT
BRANCH   8  12
HETATM   12  O2  UNL     1      -7.817 -20.541  19.106  1.00  0.00    -0.376 OA
ATOM     13  H2  UNL     1      -7.177 -21.243  19.073  1.00  0.00     0.211 HD
ENDBRANCH   8  12
BRANCH   8  14
HETATM   14  C10 UNL     1      -7.152 -19.289  20.919  1.00  0.00     0.211 C
HETATM   15  O3  UNL     1      -7.367 -18.623  21.965  1.00  0.00    -0.646 OA
HETATM   16  O4  UNL     1      -5.972 -18.990  20.255  1.00  0.00    -0.646 OA
ENDBRANCH   8  14
BRANCH   1  17
HETATM   17  C2  UNL     1      -4.972 -23.329  22.154  1.00  0.00     0.028 C
HETATM   18  C1  UNL     1      -4.229 -22.042  21.876  1.00  0.00     0.007 C
ENDBRANCH   1  17
TORSDOF 3
ENDMDL