MODEL 5
REMARK VINA RESULT: -6.764669742      1.627      2.313
REMARK  4 active torsions:
REMARK  status: ('A' for Active; 'I' for Inactive)
REMARK    1  A    between atoms: C2_2  and  C3_3
REMARK    2  A    between atoms: N1_10  and  N2_12
REMARK    3  A    between atoms: N2_12  and  C10_14
REMARK    4  A    between atoms: C10_14  and  N3_16
ROOT
HETATM    1  N3  UNL     1      -4.283 -24.483  21.253  1.00  0.00    -0.269 N
ATOM      2  H3  UNL     1      -3.900 -25.073  20.514  1.00  0.00     0.180 HD
HETATM    3  C11 UNL     1      -4.465 -25.020  22.527  1.00  0.00     0.184 C
HETATM    4  N4  UNL     1      -4.635 -25.462  23.596  1.00  0.00    -0.172 NA
ENDROOT
BRANCH   1   5
HETATM    5  C10 UNL     1      -4.622 -23.122  20.956  1.00  0.00     0.199 C
HETATM    6  S1  UNL     1      -3.418 -22.022  20.898  1.00  0.00    -0.038 SA
BRANCH   5   7
HETATM    7  N2  UNL     1      -5.967 -22.765  20.723  1.00  0.00    -0.276 N
ATOM      8  H2  UNL     1      -6.301 -22.740  19.760  1.00  0.00     0.189 HD
BRANCH   7   9
HETATM    9  N1  UNL     1      -6.852 -22.449  21.731  1.00  0.00    -0.306 N
HETATM   10  C9  UNL     1      -7.657 -21.449  21.761  1.00  0.00     0.011 C
HETATM   11  C3  UNL     1      -7.691 -20.495  20.627  1.00  0.00     0.054 C
HETATM   12  C8  UNL     1      -8.491 -21.388  22.990  1.00  0.00     0.054 C
HETATM   13  C4  UNL     1      -8.849 -19.532  20.750  1.00  0.00     0.014 C
HETATM   14  C5  UNL     1     -10.179 -20.260  20.741  1.00  0.00     0.001 C
HETATM   15  C6  UNL     1     -10.661 -20.516  22.154  1.00  0.00     0.000 C
HETATM   16  C7  UNL     1      -9.943 -21.727  22.672  1.00  0.00     0.006 C
ATOM     17  H1  UNL     1      -6.869 -23.074  22.537  1.00  0.00     0.186 HD
BRANCH  11  18
HETATM   18  C2  UNL     1      -6.420 -19.724  20.623  1.00  0.00    -0.026 C
HETATM   19  C1  UNL     1      -5.781 -19.394  19.518  1.00  0.00     0.007 C
ENDBRANCH  11  18
ENDBRANCH   7   9
ENDBRANCH   5   7
ENDBRANCH   1   5
TORSDOF 4
ENDMDL