MODEL 1
REMARK VINA RESULT: -7.424785360      0.000      0.000
REMARK  4 active torsions:
REMARK  status: ('A' for Active; 'I' for Inactive)
REMARK       I    between atoms: C1_2  and  N1_3
REMARK    1  A    between atoms: C1_2  and  O2_12
REMARK    2  A    between atoms: N1_3  and  C2_5
REMARK    3  A    between atoms: O2_12  and  N2_13
REMARK       I    between atoms: N2_13  and  C9_15
REMARK    4  A    between atoms: C9_15  and  C10_17
ROOT
HETATM    1  O1  UNL     1      -5.916 -21.705  18.865  1.00  0.00    -0.236 OA
HETATM    2  C1  UNL     1      -5.556 -20.597  19.369  1.00  0.00     0.383 C
HETATM    3  N1  UNL     1      -6.396 -19.859  20.235  1.00  0.00    -0.331 N
ATOM      4  H1  UNL     1      -6.074 -18.972  20.623  1.00  0.00     0.165 HD
ENDROOT
BRANCH   2   5
HETATM    5  O2  UNL     1      -4.285 -20.152  19.017  1.00  0.00    -0.178 OA
BRANCH   5   6
HETATM    6  N2  UNL     1      -3.576 -20.622  17.955  1.00  0.00    -0.224 N
HETATM    7  C9  UNL     1      -2.171 -20.809  18.017  1.00  0.00     0.245 C
HETATM    8  O3  UNL     1      -1.554 -20.544  19.053  1.00  0.00    -0.271 OA
ATOM      9  H2  UNL     1      -4.069 -20.846  17.090  1.00  0.00     0.198 HD
BRANCH   7  10
HETATM   10  C10 UNL     1      -1.462 -21.323  16.820  1.00  0.00     0.080 A
HETATM   11  C11 UNL     1      -1.696 -20.662  15.503  1.00  0.00     0.015 A
HETATM   12  C12 UNL     1      -0.441 -20.377  16.269  1.00  0.00     0.015 A
ENDBRANCH   7  10
ENDBRANCH   5   6
ENDBRANCH   2   5
BRANCH   3  13
HETATM   13  C2  UNL     1      -7.709 -20.359  20.574  1.00  0.00     0.086 C
HETATM   14  C3  UNL     1      -8.711 -19.732  19.668  1.00  0.00     0.025 C
HETATM   15  C4  UNL     1     -10.086 -19.609  20.237  1.00  0.00     0.002 C
HETATM   16  C5  UNL     1     -10.537 -20.774  21.043  1.00  0.00     0.000 C
HETATM   17  C6  UNL     1     -10.231 -20.627  22.533  1.00  0.00     0.000 C
HETATM   18  C7  UNL     1      -8.766 -20.992  22.691  1.00  0.00     0.002 C
HETATM   19  C8  UNL     1      -7.959 -19.904  22.019  1.00  0.00     0.025 C
ENDBRANCH   3  13
TORSDOF 4
ENDMDL