MODEL 2
REMARK VINA RESULT: -6.908332318      1.444      3.480
REMARK  3 active torsions:
REMARK  status: ('A' for Active; 'I' for Inactive)
REMARK    1  A    between atoms: C2_2  and  N1_3
REMARK    2  A    between atoms: N1_3  and  C3_5
REMARK    3  A    between atoms: C8_10  and  O1_11
ROOT
HETATM    1  C3  UNL     1      -7.827 -21.522  22.147  1.00  0.00     0.099 C
HETATM    2  C4  UNL     1      -8.434 -20.193  21.762  1.00  0.00    -0.019 C
HETATM    3  C5  UNL     1      -9.605 -19.959  22.714  1.00  0.00     0.018 C
HETATM    4  C6  UNL     1      -7.410 -19.123  22.074  1.00  0.00     0.014 C
HETATM    5  C7  UNL     1      -6.270 -19.229  21.087  1.00  0.00     0.039 C
HETATM    6  C8  UNL     1      -6.014 -20.641  20.652  1.00  0.00     0.067 C
HETATM    7  C9  UNL     1      -6.686 -20.936  19.355  1.00  0.00     0.039 C
HETATM    8  C10 UNL     1      -8.175 -21.088  19.423  1.00  0.00     0.008 C
HETATM    9  C11 UNL     1      -8.820 -20.094  20.336  1.00  0.00    -0.008 C
HETATM   10  C12 UNL     1     -10.335 -20.212  20.128  1.00  0.00     0.011 C
HETATM   11  C13 UNL     1      -6.366 -21.606  21.770  1.00  0.00     0.004 C
HETATM   12  C14 UNL     1      -6.078 -23.015  21.318  1.00  0.00     0.020 C
HETATM   13  C15 UNL     1      -5.430 -21.285  22.909  1.00  0.00     0.020 C
ENDROOT
BRANCH   1  14
HETATM   14  N1  UNL     1      -7.965 -21.711  23.527  1.00  0.00    -0.396 N
ATOM     15  H1  UNL     1      -7.890 -20.918  24.164  1.00  0.00     0.159 HD
BRANCH  14  16
HETATM   16  C2  UNL     1      -8.205 -22.996  24.025  1.00  0.00     0.051 C
HETATM   17  C1  UNL     1      -9.576 -23.146  24.667  1.00  0.00     0.054 C
ENDBRANCH  14  16
ENDBRANCH   1  14
BRANCH   6  18
HETATM   18  O1  UNL     1      -4.628 -20.789  20.443  1.00  0.00    -0.389 OA
ATOM     19  H1  UNL     1      -4.499 -21.167  19.581  1.00  0.00     0.210 HD
ENDBRANCH   6  18
TORSDOF 3
ENDMDL