MODEL 4
REMARK VINA RESULT: -7.426292421      1.226      2.197
REMARK  4 active torsions:
REMARK  status: ('A' for Active; 'I' for Inactive)
REMARK    1  A    between atoms: N1_1  and  C1_5
REMARK    2  A    between atoms: C1_5  and  C2_6
REMARK    3  A    between atoms: C4_10  and  O1_11
REMARK    4  A    between atoms: C4_10  and  C5_13
ROOT
HETATM    1  C2  UNL     1      -5.693 -22.685  20.868  1.00  0.00     0.105 A
HETATM    2  C3  UNL     1      -4.805 -21.685  20.169  1.00  0.00     0.069 A
HETATM    3  N2  UNL     1      -5.056 -20.710  20.962  1.00  0.00    -0.370 N
ATOM      4  H2  UNL     1      -4.748 -19.739  21.015  1.00  0.00     0.161 HD
HETATM    5  C4  UNL     1      -5.951 -21.529  21.755  1.00  0.00     0.148 A
ENDROOT
BRANCH   5   6
HETATM    6  O1  UNL     1      -5.519 -21.736  23.060  1.00  0.00    -0.369 OA
ATOM      7  H1  UNL     1      -5.551 -20.949  23.591  1.00  0.00     0.212 HD
ENDBRANCH   5   6
BRANCH   5   8
HETATM    8  C5  UNL     1      -7.332 -20.913  21.672  1.00  0.00     0.011 C
HETATM    9  C6  UNL     1      -7.247 -19.409  21.524  1.00  0.00     0.019 C
HETATM   10  C7  UNL     1      -8.633 -18.822  21.618  1.00  0.00    -0.013 C
HETATM   11  C8  UNL     1      -9.502 -19.360  20.508  1.00  0.00     0.009 C
HETATM   12  C12 UNL     1      -9.309 -19.153  22.925  1.00  0.00     0.009 C
HETATM   13  C9  UNL     1      -9.537 -20.876  20.634  1.00  0.00    -0.013 C
HETATM   14  C10 UNL     1     -10.176 -21.287  21.938  1.00  0.00     0.009 C
HETATM   15  C14 UNL     1      -8.139 -21.446  20.528  1.00  0.00     0.019 C
HETATM   16  C11 UNL     1      -9.401 -20.651  23.055  1.00  0.00    -0.013 C
HETATM   17  C13 UNL     1      -7.992 -21.200  23.010  1.00  0.00     0.019 C
ENDBRANCH   5   8
BRANCH   1  18
HETATM   18  C1  UNL     1      -4.825 -23.793  21.413  1.00  0.00     0.244 C
BRANCH  18  19
HETATM   19  N1  UNL     1      -3.619 -24.019  20.675  1.00  0.00    -0.079 N
ATOM     20  H13 UNL     1      -3.810 -24.024  19.672  1.00  0.00     0.274 HD
ATOM     21  H12 UNL     1      -3.009 -23.204  20.732  1.00  0.00     0.274 HD
ATOM     22  H11 UNL     1      -3.111 -24.862  20.943  1.00  0.00     0.274 HD
ENDBRANCH  18  19
ENDBRANCH   1  18
TORSDOF 4
ENDMDL