MODEL 5
REMARK VINA RESULT: -6.342016204      1.950      2.682
REMARK  5 active torsions:
REMARK  status: ('A' for Active; 'I' for Inactive)
REMARK    1  A    between atoms: N1_5  and  C5_6
REMARK    2  A    between atoms: C5_6  and  C6_10
REMARK    3  A    between atoms: C6_10  and  S1_11
REMARK    4  A    between atoms: S1_11  and  C7_12
REMARK    5  A    between atoms: C12_17  and  N3_18
ROOT
HETATM    1  C1  UNL     1      -5.628 -24.647  25.081  1.00  0.00     0.012 C
HETATM    2  C2  UNL     1      -5.391 -23.582  24.031  1.00  0.00     0.015 C
HETATM    3  C3  UNL     1      -6.675 -23.300  23.326  1.00  0.00     0.026 C
HETATM    4  C4  UNL     1      -6.507 -22.969  21.867  1.00  0.00     0.124 C
HETATM    5  N1  UNL     1      -5.202 -22.435  21.555  1.00  0.00    -0.368 N
HETATM    6  C11 UNL     1      -4.047 -23.206  21.942  1.00  0.00     0.157 C
HETATM    7  C12 UNL     1      -4.287 -24.075  23.141  1.00  0.00     0.205 C
ENDROOT
BRANCH   5   8
HETATM    8  C5  UNL     1      -5.053 -21.192  20.891  1.00  0.00     0.082 C
HETATM    9  N2  UNL     1      -4.011 -21.032  20.159  1.00  0.00    -0.388 N
ATOM     10  H22 UNL     1      -3.336 -21.793  20.080  1.00  0.00     0.157 HD
ATOM     11  H21 UNL     1      -3.904 -20.138  19.680  1.00  0.00     0.157 HD
BRANCH   8  12
HETATM   12  C6  UNL     1      -6.032 -20.089  21.005  1.00  0.00     0.150 C
BRANCH  12  13
HETATM   13  S1  UNL     1      -7.405 -20.182  19.872  1.00  0.00    -0.153 SA
BRANCH  13  14
HETATM   14  C7  UNL     1      -9.006 -19.907  20.618  1.00  0.00    -0.003 C
HETATM   15  C8  UNL     1      -9.934 -19.306  19.584  1.00  0.00     0.026 C
HETATM   16  C9  UNL     1      -8.951 -18.953  21.794  1.00  0.00     0.026 C
HETATM   17  C10 UNL     1      -9.656 -21.186  21.095  1.00  0.00     0.026 C
ENDBRANCH  13  14
ENDBRANCH  12  13
ENDBRANCH   8  12
ENDBRANCH   5   8
BRANCH   7  18
HETATM   18  N3  UNL     1      -4.534 -25.457  22.776  1.00  0.00    -0.073 N
ATOM     19  H33 UNL     1      -4.485 -26.081  23.582  1.00  0.00     0.274 HD
ATOM     20  H32 UNL     1      -5.508 -25.619  22.524  1.00  0.00     0.274 HD
ATOM     21  H31 UNL     1      -3.892 -25.736  22.034  1.00  0.00     0.274 HD
ENDBRANCH   7  18
TORSDOF 5
ENDMDL