MODEL 1
REMARK VINA RESULT: -7.244087180      0.000      0.000
REMARK  4 active torsions:
REMARK  status: ('A' for Active; 'I' for Inactive)
REMARK    1  A    between atoms: C2_2  and  C5_5
REMARK       I    between atoms: C5_5  and  N1_7
REMARK    2  A    between atoms: N1_7  and  C6_9
REMARK    3  A    between atoms: C6_9  and  C7_10
REMARK    4  A    between atoms: C7_10  and  O2_11
ROOT
HETATM    1  C7  UNL     1      -5.565 -23.102  21.201  1.00  0.00     0.081 C
HETATM    2  C8  UNL     1      -6.390 -23.160  22.457  1.00  0.00     0.040 C
HETATM    3  C9  UNL     1      -5.648 -22.885  23.709  1.00  0.00     0.003 C
HETATM    4  C10 UNL     1      -4.688 -21.738  23.647  1.00  0.00     0.001 C
HETATM    5  C11 UNL     1      -4.871 -21.034  22.302  1.00  0.00     0.012 C
HETATM    6  C12 UNL     1      -4.482 -22.057  21.259  1.00  0.00    -0.015 C
HETATM    7  C13 UNL     1      -4.271 -21.342  19.959  1.00  0.00     0.018 C
HETATM    8  C14 UNL     1      -3.149 -22.698  21.640  1.00  0.00     0.018 C
ENDROOT
BRANCH   1   9
HETATM    9  C6  UNL     1      -6.488 -22.716  20.085  1.00  0.00     0.161 C
BRANCH   9  10
HETATM   10  N1  UNL     1      -7.668 -22.006  20.415  1.00  0.00    -0.358 N
HETATM   11  C5  UNL     1      -8.029 -20.681  20.176  1.00  0.00     0.225 C
HETATM   12  O1  UNL     1      -7.279 -19.870  19.586  1.00  0.00    -0.273 OA
ATOM     13  H1  UNL     1      -8.370 -22.555  20.911  1.00  0.00     0.162 HD
BRANCH  11  14
HETATM   14  C2  UNL     1      -9.343 -20.105  20.598  1.00  0.00     0.030 C
HETATM   15  C1  UNL     1     -10.279 -21.119  21.159  1.00  0.00     0.024 C
HETATM   16  C3  UNL     1     -10.033 -19.361  19.487  1.00  0.00     0.024 C
HETATM   17  C4  UNL     1      -9.022 -19.109  21.708  1.00  0.00     0.024 C
ENDBRANCH  11  14
ENDBRANCH   9  10
ENDBRANCH   1   9
BRANCH   1  18
HETATM   18  O2  UNL     1      -4.948 -24.308  20.950  1.00  0.00    -0.387 OA
ATOM     19  H2  UNL     1      -4.671 -24.731  21.754  1.00  0.00     0.210 HD
ENDBRANCH   1  18
TORSDOF 4
ENDMDL