MODEL 1
REMARK VINA RESULT: -8.984612679      0.000      0.000
REMARK  4 active torsions:
REMARK  status: ('A' for Active; 'I' for Inactive)
REMARK       I    between atoms: C2_3  and  N2_5
REMARK    1  A    between atoms: C6_9  and  C7_10
REMARK    2  A    between atoms: C7_10  and  N3_11
REMARK    3  A    between atoms: N3_11  and  C8_13
REMARK    4  A    between atoms: C9_18  and  C10_19
ROOT
HETATM    1  N1  UNL     1       1.840 -22.728  21.695  1.00  0.00    -0.186 NA
HETATM    2  C1  UNL     1       1.124 -22.033  21.080  1.00  0.00     0.162 C
HETATM    3  C2  UNL     1       0.256 -21.174  20.291  1.00  0.00     0.325 C
HETATM    4  O1  UNL     1      -0.587 -20.415  20.820  1.00  0.00    -0.256 OA
HETATM    5  N2  UNL     1       0.381 -21.213  18.891  1.00  0.00    -0.330 N
HETATM    6  C3  UNL     1       1.294 -22.061  18.099  1.00  0.00     0.127 C
HETATM    7  C4  UNL     1       1.582 -21.302  16.823  1.00  0.00     0.022 C
HETATM    8  C5  UNL     1       0.871 -19.997  17.036  1.00  0.00     0.032 C
HETATM    9  C6  UNL     1      -0.301 -20.438  17.854  1.00  0.00     0.126 C
ENDROOT
BRANCH   9  10
HETATM   10  C7  UNL     1      -1.274 -21.322  17.169  1.00  0.00     0.088 C
BRANCH  10  11
HETATM   11  N3  UNL     1      -2.271 -21.926  17.962  1.00  0.00    -0.347 N
ATOM     12  H3  UNL     1      -2.284 -22.945  18.018  1.00  0.00     0.167 HD
BRANCH  11  13
HETATM   13  C8  UNL     1      -3.252 -21.214  18.682  1.00  0.00     0.164 A
HETATM   14  N4  UNL     1      -3.172 -20.196  19.522  1.00  0.00    -0.279 N
HETATM   15  N5  UNL     1      -4.208 -19.689  20.035  1.00  0.00    -0.295 N
ATOM     16  H4  UNL     1      -2.257 -19.813  19.760  1.00  0.00     0.189 HD
HETATM   17  C9  UNL     1      -5.409 -20.179  19.735  1.00  0.00     0.078 A
ATOM     18  H5  UNL     1      -4.125 -18.904  20.679  1.00  0.00     0.187 HD
HETATM   19  S1  UNL     1      -4.970 -21.438  18.650  1.00  0.00    -0.037 SA
BRANCH  17  20
HETATM   20  C10 UNL     1      -6.761 -19.778  20.219  1.00  0.00     0.015 C
HETATM   21  C11 UNL     1      -7.331 -20.653  21.283  1.00  0.00     0.021 C
HETATM   22  C12 UNL     1      -8.680 -20.079  21.687  1.00  0.00    -0.009 C
HETATM   23  C13 UNL     1      -9.642 -19.994  20.520  1.00  0.00     0.037 C
HETATM   24  C17 UNL     1      -8.564 -18.674  22.233  1.00  0.00     0.037 C
HETATM   25  C14 UNL     1      -9.011 -19.072  19.481  1.00  0.00     0.123 C
HETATM   26  C15 UNL     1      -7.741 -19.719  19.056  1.00  0.00     0.048 C
HETATM   27  O2  UNL     1      -8.818 -17.822  20.034  1.00  0.00    -0.381 OA
HETATM   28  C16 UNL     1      -7.968 -17.830  21.124  1.00  0.00     0.123 C
HETATM   29  C18 UNL     1      -6.597 -18.385  20.821  1.00  0.00     0.048 C
ENDBRANCH  17  20
ENDBRANCH  11  13
ENDBRANCH  10  11
ENDBRANCH   9  10
TORSDOF 4
ENDMDL