MODEL 4
REMARK VINA RESULT: -8.997290638      1.562      1.916
REMARK  5 active torsions:
REMARK  status: ('A' for Active; 'I' for Inactive)
REMARK    1  A    between atoms: O1_2  and  C2_3
REMARK    2  A    between atoms: C4_5  and  C5_6
REMARK    3  A    between atoms: N4_13  and  C6_14
REMARK    4  A    between atoms: C14_25  and  O2_26
REMARK    5  A    between atoms: O2_26  and  C15_27
ROOT
HETATM    1  C5  UNL     1      -2.233 -22.662  21.392  1.00  0.00     0.150 A
HETATM    2  N1  UNL     1      -2.328 -23.481  22.494  1.00  0.00    -0.268 N
ATOM      3  H1  UNL     1      -3.058 -23.430  23.205  1.00  0.00     0.190 HD
HETATM    4  N2  UNL     1      -1.348 -24.327  22.488  1.00  0.00    -0.226 N
ATOM      5  H2  UNL     1      -1.172 -25.050  23.185  1.00  0.00     0.210 HD
HETATM    6  N3  UNL     1      -0.622 -24.084  21.421  1.00  0.00    -0.224 N
ATOM      7  H3  UNL     1       0.219 -24.597  21.156  1.00  0.00     0.210 HD
HETATM    8  N4  UNL     1      -1.154 -23.056  20.729  1.00  0.00    -0.252 N
ENDROOT
BRANCH   1   9
HETATM    9  C4  UNL     1      -3.205 -21.619  21.092  1.00  0.00     0.014 A
HETATM   10  C3  UNL     1      -3.907 -21.707  19.884  1.00  0.00     0.055 A
HETATM   11  C2  UNL     1      -4.858 -20.805  19.517  1.00  0.00     0.102 A
HETATM   12  C14 UNL     1      -5.181 -19.739  20.335  1.00  0.00     0.102 A
HETATM   13  C13 UNL     1      -4.510 -19.631  21.522  1.00  0.00     0.040 A
HETATM   14  C12 UNL     1      -3.528 -20.576  21.883  1.00  0.00     0.018 A
BRANCH  11  15
HETATM   15  O1  UNL     1      -5.549 -20.916  18.297  1.00  0.00    -0.353 OA
HETATM   16  C1  UNL     1      -6.454 -21.987  18.167  1.00  0.00     0.210 C
ENDBRANCH  11  15
BRANCH  12  17
HETATM   17  O2  UNL     1      -6.141 -18.845  19.945  1.00  0.00    -0.343 OA
BRANCH  17  18
HETATM   18  C15 UNL     1      -7.448 -18.711  20.414  1.00  0.00     0.129 C
HETATM   19  C16 UNL     1      -8.375 -19.020  19.254  1.00  0.00     0.032 C
HETATM   20  C17 UNL     1      -9.803 -19.164  19.659  1.00  0.00     0.002 C
HETATM   21  C18 UNL     1     -10.022 -19.915  20.928  1.00  0.00     0.000 C
HETATM   22  C19 UNL     1      -9.067 -19.530  22.033  1.00  0.00     0.002 C
HETATM   23  C20 UNL     1      -7.659 -19.788  21.485  1.00  0.00     0.032 C
ENDBRANCH  17  18
ENDBRANCH  12  17
ENDBRANCH   1   9
BRANCH   8  24
HETATM   24  C6  UNL     1      -0.569 -22.596  19.500  1.00  0.00     0.144 C
HETATM   25  C7  UNL     1       0.885 -23.160  19.476  1.00  0.00     0.062 C
HETATM   26  C8  UNL     1       1.739 -22.047  19.967  1.00  0.00     0.188 C
HETATM   27  C9  UNL     1       2.030 -21.132  18.794  1.00  0.00     0.035 C
HETATM   28  N5  UNL     1       0.777 -21.209  20.693  1.00  0.00    -0.065 N
HETATM   29  C10 UNL     1       0.588 -20.733  18.441  1.00  0.00     0.037 C
HETATM   30  C11 UNL     1      -0.228 -21.133  19.618  1.00  0.00     0.211 C
ATOM     31  H52 UNL     1       0.463 -21.543  21.603  1.00  0.00     0.278 HD
ATOM     32  H51 UNL     1       1.122 -20.327  21.072  1.00  0.00     0.278 HD
ENDBRANCH   8  24
TORSDOF 5
ENDMDL