MODEL 4
REMARK VINA RESULT: -8.815739015      2.175      3.710
REMARK  7 active torsions:
REMARK  status: ('A' for Active; 'I' for Inactive)
REMARK    1  A    between atoms: C2_2  and  C3_4
REMARK    2  A    between atoms: C3_4  and  O2_5
REMARK    3  A    between atoms: O2_5  and  N1_6
REMARK    4  A    between atoms: C4_8  and  C6_10
REMARK    5  A    between atoms: C6_10  and  O4_12
REMARK    6  A    between atoms: O4_12  and  C7_13
REMARK    7  A    between atoms: C16_23  and  O6_24
ROOT
HETATM    1  C7  UNL     1      -5.071 -21.685  19.403  1.00  0.00     0.137 C
HETATM    2  C8  UNL     1      -6.265 -21.096  18.635  1.00  0.00     0.033 C
HETATM    3  C9  UNL     1      -7.195 -20.349  19.532  1.00  0.00     0.007 C
HETATM    4  C10 UNL     1      -6.529 -19.851  20.792  1.00  0.00    -0.010 C
HETATM    5  C11 UNL     1      -7.562 -19.066  21.571  1.00  0.00     0.011 C
HETATM    6  C12 UNL     1      -5.982 -20.967  21.633  1.00  0.00    -0.029 C
HETATM    7  C13 UNL     1      -4.831 -20.441  22.447  1.00  0.00     0.016 C
HETATM    8  C14 UNL     1      -7.037 -21.483  22.621  1.00  0.00     0.075 C
HETATM    9  C15 UNL     1      -6.483 -22.731  23.253  1.00  0.00     0.063 A
HETATM   10  O5  UNL     1      -6.867 -23.361  24.339  1.00  0.00    -0.292 OA
HETATM   11  C16 UNL     1      -6.154 -24.410  24.585  1.00  0.00     0.183 A
HETATM   12  C17 UNL     1      -5.210 -24.495  23.582  1.00  0.00     0.073 A
HETATM   13  C18 UNL     1      -5.431 -23.425  22.746  1.00  0.00    -0.023 A
HETATM   14  C19 UNL     1      -4.699 -23.028  21.494  1.00  0.00     0.049 C
HETATM   15  C20 UNL     1      -5.622 -22.106  20.740  1.00  0.00     0.028 C
ENDROOT
BRANCH   1  16
HETATM   16  O4  UNL     1      -4.034 -20.757  19.486  1.00  0.00    -0.311 OA
BRANCH  16  17
HETATM   17  C6  UNL     1      -3.042 -20.698  18.547  1.00  0.00     0.307 C
HETATM   18  O3  UNL     1      -3.151 -19.775  17.668  1.00  0.00    -0.258 OA
BRANCH  17  19
HETATM   19  C4  UNL     1      -1.904 -21.599  18.497  1.00  0.00     0.103 C
HETATM   20  N1  UNL     1      -1.590 -22.380  19.465  1.00  0.00    -0.265 N
ATOM     21  H1  UNL     1      -2.178 -22.352  20.298  1.00  0.00     0.194 HD
HETATM   22  C5  UNL     1      -1.075 -21.610  17.271  1.00  0.00     0.077 C
BRANCH  20  23
HETATM   23  O2  UNL     1      -0.546 -23.236  19.472  1.00  0.00    -0.273 OA
BRANCH  23  24
HETATM   24  C3  UNL     1       0.688 -22.975  20.113  1.00  0.00     0.278 C
BRANCH  24  25
HETATM   25  C2  UNL     1       0.509 -22.155  21.336  1.00  0.00     0.148 C
HETATM   26  C1  UNL     1       0.520 -22.801  22.661  1.00  0.00     0.093 C
HETATM   27  O1  UNL     1       0.355 -20.957  21.204  1.00  0.00    -0.296 OA
ENDBRANCH  24  25
ENDBRANCH  23  24
ENDBRANCH  20  23
ENDBRANCH  17  19
ENDBRANCH  16  17
ENDBRANCH   1  16
BRANCH  11  28
HETATM   28  O6  UNL     1      -6.271 -25.313  25.642  1.00  0.00    -0.341 OA
ATOM     29  H6  UNL     1      -5.891 -26.180  25.725  1.00  0.00     0.220 HD
ENDBRANCH  11  28
TORSDOF 7
ENDMDL