MODEL 2
REMARK VINA RESULT: -8.740042144      2.349      5.086
REMARK  7 active torsions:
REMARK  status: ('A' for Active; 'I' for Inactive)
REMARK    1  A    between atoms: O1_2  and  C2_3
REMARK    2  A    between atoms: C2_3  and  C3_5
REMARK    3  A    between atoms: C6_8  and  S1_9
REMARK    4  A    between atoms: S1_9  and  C7_10
REMARK    5  A    between atoms: C7_10  and  C8_14
REMARK    6  A    between atoms: C11_19  and  C12_20
REMARK    7  A    between atoms: C12_20  and  N4_21
ROOT
HETATM    1  C8  UNL     1      -3.988 -25.112  25.687  1.00  0.00     0.255 C
HETATM    2  C9  UNL     1      -3.685 -25.597  27.024  1.00  0.00     0.085 C
HETATM    3  N2  UNL     1      -3.427 -25.966  28.087  1.00  0.00    -0.195 NA
HETATM    4  C10 UNL     1      -3.419 -26.014  24.656  1.00  0.00     0.085 C
HETATM    5  N3  UNL     1      -2.953 -26.707  23.840  1.00  0.00    -0.195 NA
ENDROOT
BRANCH   1   6
HETATM    6  C7  UNL     1      -5.413 -24.863  25.425  1.00  0.00     0.077 C
HETATM    7  N1  UNL     1      -6.227 -24.679  26.440  1.00  0.00    -0.395 N
ATOM      8  H12 UNL     1      -7.216 -24.506  26.258  1.00  0.00     0.156 HD
ATOM      9  H11 UNL     1      -5.768 -24.731  27.349  1.00  0.00     0.156 HD
BRANCH   6  10
HETATM   10  S1  UNL     1      -6.206 -24.773  23.854  1.00  0.00    -0.075 SA
BRANCH  10  11
HETATM   11  C6  UNL     1      -6.610 -23.184  23.256  1.00  0.00     0.014 A
HETATM   12  C5  UNL     1      -7.712 -22.519  23.720  1.00  0.00     0.020 A
HETATM   13  C4  UNL     1      -8.093 -21.271  23.271  1.00  0.00     0.019 A
HETATM   14  C3  UNL     1      -7.317 -20.669  22.305  1.00  0.00     0.040 A
HETATM   15  C19 UNL     1      -6.211 -21.310  21.822  1.00  0.00     0.027 A
HETATM   16  C11 UNL     1      -5.839 -22.549  22.272  1.00  0.00    -0.027 A
BRANCH  14  17
HETATM   17  C2  UNL     1      -7.679 -19.346  21.796  1.00  0.00     0.292 C
HETATM   18  O2  UNL     1      -8.654 -18.738  22.305  1.00  0.00    -0.259 OA
BRANCH  17  19
HETATM   19  O1  UNL     1      -7.003 -18.722  20.776  1.00  0.00    -0.323 OA
HETATM   20  C1  UNL     1      -7.514 -18.721  19.453  1.00  0.00     0.213 C
ENDBRANCH  17  19
ENDBRANCH  14  17
BRANCH  16  21
HETATM   21  C12 UNL     1      -4.653 -23.308  21.824  1.00  0.00     0.135 C
BRANCH  21  22
HETATM   22  N4  UNL     1      -3.438 -22.538  21.701  1.00  0.00    -0.279 NA
HETATM   23  C13 UNL     1      -2.337 -23.478  22.165  1.00  0.00     0.174 C
HETATM   24  C14 UNL     1      -1.248 -23.309  21.314  1.00  0.00    -0.168 C
HETATM   25  C15 UNL     1      -0.213 -23.077  20.381  1.00  0.00     0.085 C
HETATM   26  C16 UNL     1      -0.863 -22.218  19.237  1.00  0.00     0.039 C
HETATM   27  C17 UNL     1      -2.149 -21.551  19.732  1.00  0.00    -0.014 C
HETATM   28  C18 UNL     1      -3.259 -22.295  20.262  1.00  0.00     0.057 C
ENDBRANCH  21  22
ENDBRANCH  16  21
ENDBRANCH  10  11
ENDBRANCH   6  10
ENDBRANCH   1   6
TORSDOF 7
ENDMDL