MODEL 4
REMARK VINA RESULT: -7.736123180      1.519      2.402
REMARK  6 active torsions:
REMARK  status: ('A' for Active; 'I' for Inactive)
REMARK    1  A    between atoms: C2_2  and  S2_4
REMARK    2  A    between atoms: S2_4  and  C3_5
REMARK    3  A    between atoms: C3_5  and  C4_6
REMARK    4  A    between atoms: N1_8  and  N2_10
REMARK       I    between atoms: N2_10  and  C6_12
REMARK    5  A    between atoms: C6_12  and  C7_14
REMARK    6  A    between atoms: C7_14  and  C8_15
ROOT
HETATM    1  N2  UNL     1      -4.151 -19.617  20.869  1.00  0.00    -0.270 N
ATOM      2  H2  UNL     1      -4.012 -18.906  21.587  1.00  0.00     0.190 HD
HETATM    3  C6  UNL     1      -5.214 -19.446  19.949  1.00  0.00     0.240 C
HETATM    4  O1  UNL     1      -5.392 -20.324  19.058  1.00  0.00    -0.272 OA
ENDROOT
BRANCH   3   5
HETATM    5  C7  UNL     1      -6.107 -18.269  20.015  1.00  0.00     0.144 C
BRANCH   5   6
HETATM    6  C8  UNL     1      -7.551 -18.758  19.986  1.00  0.00    -0.031 A
HETATM    7  C9  UNL     1      -8.336 -18.371  18.937  1.00  0.00     0.058 A
HETATM    8  S3  UNL     1      -9.834 -19.102  19.279  1.00  0.00    -0.101 SA
HETATM    9  C10 UNL     1      -9.434 -19.880  20.740  1.00  0.00     0.018 A
HETATM   10  C11 UNL     1     -10.162 -20.678  21.609  1.00  0.00     0.059 A
HETATM   11  C15 UNL     1      -8.127 -19.547  20.927  1.00  0.00    -0.009 A
HETATM   12  C12 UNL     1      -9.559 -21.195  22.761  1.00  0.00     0.106 A
HETATM   13  C13 UNL     1      -8.258 -20.862  22.946  1.00  0.00     0.105 A
HETATM   14  O3  UNL     1     -10.019 -22.000  23.789  1.00  0.00    -0.323 OA
HETATM   15  C14 UNL     1      -7.512 -20.064  22.085  1.00  0.00     0.053 A
HETATM   16  O2  UNL     1      -7.858 -21.483  24.150  1.00  0.00    -0.323 OA
HETATM   17  C16 UNL     1      -8.852 -22.429  24.491  1.00  0.00     0.352 C
ENDBRANCH   5   6
ENDBRANCH   3   5
BRANCH   1  18
HETATM   18  N1  UNL     1      -3.288 -20.704  20.840  1.00  0.00    -0.306 N
HETATM   19  C4  UNL     1      -3.258 -21.631  21.775  1.00  0.00     0.009 C
HETATM   20  C5  UNL     1      -4.219 -21.448  22.881  1.00  0.00     0.066 C
ATOM     21  H1  UNL     1      -2.645 -20.789  20.053  1.00  0.00     0.186 HD
BRANCH  19  22
HETATM   22  C3  UNL     1      -2.303 -22.746  21.647  1.00  0.00     0.133 C
BRANCH  22  23
HETATM   23  S2  UNL     1      -1.597 -23.031  20.057  1.00  0.00    -0.117 SA
BRANCH  23  24
HETATM   24  C2  UNL     1      -0.166 -22.145  19.604  1.00  0.00     0.041 C
HETATM   25  C1  UNL     1       0.408 -21.922  18.270  1.00  0.00     0.069 C
HETATM   26  S1  UNL     1       0.592 -21.526  20.703  1.00  0.00    -0.078 SA
ENDBRANCH  23  24
ENDBRANCH  22  23
ENDBRANCH  19  22
ENDBRANCH   1  18
TORSDOF 6
ENDMDL