MODEL 3
REMARK VINA RESULT: -8.396896172      2.572      6.263
REMARK  6 active torsions:
REMARK  status: ('A' for Active; 'I' for Inactive)
REMARK    1  A    between atoms: C2_2  and  O1_3
REMARK    2  A    between atoms: O1_3  and  C3_4
REMARK       I    between atoms: C3_4  and  N1_6
REMARK    3  A    between atoms: C7_10  and  N2_11
REMARK    4  A    between atoms: N2_11  and  C8_13
REMARK    5  A    between atoms: C9_14  and  N3_15
REMARK    6  A    between atoms: N5_22  and  C12_23
ROOT
HETATM    1  C8  UNL     1      -4.046 -21.543  21.883  1.00  0.00     0.158 A
HETATM    2  C9  UNL     1      -3.028 -21.806  21.024  1.00  0.00     0.171 A
HETATM    3  C10 UNL     1      -2.458 -23.025  21.427  1.00  0.00     0.059 A
HETATM    4  C11 UNL     1      -1.300 -23.708  20.770  1.00  0.00     0.072 C
HETATM    5  N4  UNL     1      -3.142 -23.409  22.470  1.00  0.00    -0.298 N
ATOM      6  H4  UNL     1      -2.951 -24.271  22.981  1.00  0.00     0.187 HD
HETATM    7  N5  UNL     1      -4.098 -22.577  22.794  1.00  0.00    -0.269 N
ENDROOT
BRANCH   1   8
HETATM    8  N2  UNL     1      -4.936 -20.465  21.906  1.00  0.00    -0.345 N
ATOM      9  H2  UNL     1      -4.947 -20.009  22.818  1.00  0.00     0.167 HD
BRANCH   8  10
HETATM   10  C7  UNL     1      -5.819 -19.843  21.012  1.00  0.00     0.006 C
HETATM   11  C6  UNL     1      -5.298 -18.901  19.984  1.00  0.00     0.056 C
HETATM   12  C5  UNL     1      -6.266 -18.991  18.795  1.00  0.00     0.026 C
HETATM   13  C4  UNL     1      -7.689 -19.041  19.144  1.00  0.00     0.129 C
HETATM   14  N1  UNL     1      -8.083 -19.321  20.477  1.00  0.00    -0.323 N
HETATM   15  C3  UNL     1      -9.420 -19.615  20.803  1.00  0.00     0.363 C
HETATM   16  C17 UNL     1      -7.116 -19.301  21.557  1.00  0.00     0.180 C
HETATM   17  O2  UNL     1     -10.293 -19.631  19.906  1.00  0.00    -0.238 OA
BRANCH  15  18
HETATM   18  O1  UNL     1      -9.786 -19.886  22.096  1.00  0.00    -0.304 OA
BRANCH  18  19
HETATM   19  C2  UNL     1     -10.603 -21.002  22.388  1.00  0.00     0.176 C
HETATM   20  C1  UNL     1      -9.952 -21.827  23.464  1.00  0.00     0.034 C
ENDBRANCH  18  19
ENDBRANCH  15  18
ENDBRANCH   8  10
ENDBRANCH   1   8
BRANCH   2  21
HETATM   21  N3  UNL     1      -2.497 -21.123  19.887  1.00  0.00    -0.110 N
HETATM   22  O3  UNL     1      -1.519 -20.400  19.853  1.00  0.00    -0.532 OA
HETATM   23  O4  UNL     1      -3.172 -21.369  18.692  1.00  0.00    -0.532 OA
ENDBRANCH   2  21
BRANCH   7  24
HETATM   24  C12 UNL     1      -5.026 -22.746  23.906  1.00  0.00     0.110 C
HETATM   25  C13 UNL     1      -4.726 -23.895  24.793  1.00  0.00     0.027 C
HETATM   26  C14 UNL     1      -5.821 -24.914  24.639  1.00  0.00     0.002 C
HETATM   27  C15 UNL     1      -6.440 -24.567  23.322  1.00  0.00     0.002 C
HETATM   28  C16 UNL     1      -6.381 -23.068  23.314  1.00  0.00     0.027 C
ENDBRANCH   7  24
TORSDOF 6
ENDMDL