MODEL 3
REMARK VINA RESULT: -7.997507340      4.807      8.773
REMARK  6 active torsions:
REMARK  status: ('A' for Active; 'I' for Inactive)
REMARK    1  A    between atoms: O1_2  and  C2_3
REMARK    2  A    between atoms: C4_5  and  C5_6
REMARK    3  A    between atoms: C7_9  and  N1_10
REMARK    4  A    between atoms: N1_10  and  N2_12
REMARK    5  A    between atoms: C15_24  and  O2_25
REMARK    6  A    between atoms: C17_27  and  O3_28
ROOT
HETATM    1  N2  UNL     1      -1.709 -25.250  24.262  1.00  0.00    -0.307 N
ATOM      2  H2  UNL     1      -0.718 -25.016  24.191  1.00  0.00     0.186 HD
HETATM    3  C8  UNL     1      -2.186 -25.631  25.384  1.00  0.00     0.005 C
HETATM    4  C9  UNL     1      -3.589 -25.998  25.642  1.00  0.00     0.055 C
HETATM    5  C10 UNL     1      -3.807 -25.571  27.062  1.00  0.00     0.025 C
HETATM    6  C11 UNL     1      -2.473 -25.291  27.669  1.00  0.00     0.098 C
HETATM    7  C12 UNL     1      -2.326 -25.996  28.941  1.00  0.00     0.064 C
HETATM    8  N3  UNL     1      -2.221 -26.544  29.954  1.00  0.00    -0.197 NA
HETATM    9  C13 UNL     1      -1.452 -25.783  26.647  1.00  0.00     0.073 C
ENDROOT
BRANCH   1  10
HETATM   10  N1  UNL     1      -2.520 -25.147  23.134  1.00  0.00    -0.280 N
ATOM     11  H1  UNL     1      -2.956 -25.986  22.752  1.00  0.00     0.189 HD
BRANCH  10  12
HETATM   12  C7  UNL     1      -2.733 -23.983  22.553  1.00  0.00     0.163 A
HETATM   13  S1  UNL     1      -1.631 -22.949  21.776  1.00  0.00    -0.062 SA
HETATM   14  C6  UNL     1      -2.713 -21.686  21.383  1.00  0.00     0.083 A
HETATM   15  C5  UNL     1      -3.898 -22.151  21.892  1.00  0.00     0.051 A
HETATM   16  N4  UNL     1      -3.886 -23.316  22.479  1.00  0.00    -0.334 N
ATOM     17  H4  UNL     1      -4.741 -23.710  22.874  1.00  0.00     0.168 HD
BRANCH  15  18
HETATM   18  C4  UNL     1      -5.131 -21.316  21.800  1.00  0.00    -0.003 A
HETATM   19  C3  UNL     1      -6.240 -21.602  22.559  1.00  0.00     0.053 A
HETATM   20  C2  UNL     1      -7.407 -20.872  22.464  1.00  0.00     0.105 A
HETATM   21  C17 UNL     1      -7.523 -19.820  21.606  1.00  0.00     0.135 A
HETATM   22  C15 UNL     1      -6.401 -19.518  20.830  1.00  0.00     0.105 A
HETATM   23  C14 UNL     1      -5.231 -20.252  20.927  1.00  0.00     0.053 A
BRANCH  20  24
HETATM   24  O1  UNL     1      -8.480 -21.228  23.265  1.00  0.00    -0.353 OA
HETATM   25  C1  UNL     1      -8.439 -22.383  24.076  1.00  0.00     0.210 C
ENDBRANCH  20  24
BRANCH  21  26
HETATM   26  O3  UNL     1      -8.671 -19.056  21.473  1.00  0.00    -0.351 OA
HETATM   27  C18 UNL     1      -9.673 -19.437  20.540  1.00  0.00     0.210 C
ENDBRANCH  21  26
BRANCH  22  28
HETATM   28  O2  UNL     1      -6.446 -18.462  19.939  1.00  0.00    -0.353 OA
HETATM   29  C16 UNL     1      -5.338 -18.215  19.105  1.00  0.00     0.210 C
ENDBRANCH  22  28
ENDBRANCH  15  18
ENDBRANCH  10  12
ENDBRANCH   1  10
TORSDOF 6
ENDMDL