MODEL 4
REMARK VINA RESULT: -8.149171758      1.894      4.940
REMARK  6 active torsions:
REMARK  status: ('A' for Active; 'I' for Inactive)
REMARK    1  A    between atoms: C2_2  and  C4_4
REMARK    2  A    between atoms: C5_5  and  O1_6
REMARK    3  A    between atoms: C7_8  and  O2_9
REMARK    4  A    between atoms: C12_16  and  O4_17
REMARK    5  A    between atoms: C15_20  and  O5_21
REMARK    6  A    between atoms: C17_23  and  O6_24
ROOT
HETATM    1  C4  UNL     1      -7.524 -19.580  21.154  1.00  0.00     0.040 A
HETATM    2  C5  UNL     1      -7.239 -18.711  20.109  1.00  0.00     0.114 A
HETATM    3  C7  UNL     1      -6.064 -18.711  19.411  1.00  0.00     0.101 A
HETATM    4  C8  UNL     1      -5.106 -19.625  19.766  1.00  0.00     0.057 A
HETATM    5  C9  UNL     1      -5.310 -20.507  20.778  1.00  0.00     0.053 A
HETATM    6  C10 UNL     1      -4.345 -21.424  21.128  1.00  0.00     0.201 A
HETATM    7  O3  UNL     1      -3.241 -21.472  20.523  1.00  0.00    -0.286 OA
HETATM    8  C11 UNL     1      -4.639 -22.280  22.163  1.00  0.00     0.085 A
HETATM    9  C12 UNL     1      -3.686 -23.205  22.527  1.00  0.00     0.088 A
HETATM   10  C14 UNL     1      -3.980 -24.064  23.565  1.00  0.00     0.077 A
HETATM   11  C15 UNL     1      -5.201 -23.993  24.217  1.00  0.00     0.107 A
HETATM   12  C17 UNL     1      -6.143 -23.083  23.862  1.00  0.00     0.136 A
HETATM   13  C19 UNL     1      -5.860 -22.200  22.806  1.00  0.00     0.129 A
HETATM   14  O7  UNL     1      -6.753 -21.320  22.450  1.00  0.00    -0.305 OA
HETATM   15  C20 UNL     1      -6.511 -20.493  21.475  1.00  0.00     0.104 A
ENDROOT
BRANCH   1  16
HETATM   16  C2  UNL     1      -8.805 -19.545  21.817  1.00  0.00    -0.055 C
HETATM   17  C1  UNL     1      -9.022 -18.751  22.843  1.00  0.00     0.019 C
HETATM   18  C3  UNL     1      -9.944 -20.425  21.421  1.00  0.00     0.048 C
ENDBRANCH   1  16
BRANCH   2  19
HETATM   19  O1  UNL     1      -8.231 -17.776  19.756  1.00  0.00    -0.352 OA
HETATM   20  C6  UNL     1      -9.115 -18.223  18.715  1.00  0.00     0.210 C
ENDBRANCH   2  19
BRANCH   3  21
HETATM   21  O2  UNL     1      -5.813 -17.828  18.368  1.00  0.00    -0.358 OA
ATOM     22  H2  UNL     1      -6.447 -17.651  17.683  1.00  0.00     0.217 HD
ENDBRANCH   3  21
BRANCH  12  23
HETATM   23  O6  UNL     1      -7.390 -22.973  24.489  1.00  0.00    -0.351 OA
HETATM   24  C18 UNL     1      -8.593 -23.110  23.745  1.00  0.00     0.210 C
ENDBRANCH  12  23
BRANCH   9  25
HETATM   25  O4  UNL     1      -2.495 -23.213  21.830  1.00  0.00    -0.355 OA
HETATM   26  C13 UNL     1      -1.270 -23.668  22.326  1.00  0.00     0.210 C
ENDBRANCH   9  25
BRANCH  11  27
HETATM   27  O5  UNL     1      -5.442 -24.878  25.249  1.00  0.00    -0.353 OA
HETATM   28  C16 UNL     1      -4.452 -25.294  26.167  1.00  0.00     0.210 C
ENDBRANCH  11  27
TORSDOF 6
ENDMDL