MODEL 2
REMARK VINA RESULT: -9.425492166      1.257      1.606
REMARK  5 active torsions:
REMARK  status: ('A' for Active; 'I' for Inactive)
REMARK    1  A    between atoms: C4_7  and  C5_8
REMARK    2  A    between atoms: C10_16  and  C11_17
REMARK    3  A    between atoms: C13_20  and  C14_21
REMARK    4  A    between atoms: C14_21  and  N4_22
REMARK    5  A    between atoms: N4_22  and  C15_24
ROOT
HETATM    1  C1  UNL     1      -2.195 -20.081  17.377  1.00  0.00     0.070 C
HETATM    2  C2  UNL     1      -2.570 -20.777  18.662  1.00  0.00     0.035 A
HETATM    3  N1  UNL     1      -1.852 -21.620  19.381  1.00  0.00    -0.337 N
ATOM      4  H1  UNL     1      -0.915 -21.954  19.154  1.00  0.00     0.168 HD
HETATM    5  C3  UNL     1      -2.575 -21.964  20.469  1.00  0.00     0.172 A
HETATM    6  S1  UNL     1      -2.672 -22.930  21.889  1.00  0.00    -0.037 SA
HETATM    7  C4  UNL     1      -4.265 -22.470  22.384  1.00  0.00     0.074 A
HETATM    8  N2  UNL     1      -4.570 -21.619  21.430  1.00  0.00    -0.289 N
ATOM      9  H2  UNL     1      -5.480 -21.159  21.453  1.00  0.00     0.188 HD
HETATM   10  N3  UNL     1      -3.772 -21.349  20.482  1.00  0.00    -0.233 N
HETATM   11  C10 UNL     1      -3.784 -20.589  19.342  1.00  0.00     0.090 A
ENDROOT
BRANCH  11  12
HETATM   12  C11 UNL     1      -4.893 -19.822  18.739  1.00  0.00     0.202 C
HETATM   13  C12 UNL     1      -5.062 -18.449  19.426  1.00  0.00     0.209 C
HETATM   14  O1  UNL     1      -6.262 -18.138  18.696  1.00  0.00    -0.357 OA
HETATM   15  C13 UNL     1      -7.033 -19.309  19.071  1.00  0.00     0.277 C
HETATM   16  O2  UNL     1      -6.170 -20.329  19.229  1.00  0.00    -0.346 OA
BRANCH  15  17
HETATM   17  C14 UNL     1      -7.665 -18.739  20.371  1.00  0.00     0.174 C
BRANCH  17  18
HETATM   18  N4  UNL     1      -7.642 -19.911  21.236  1.00  0.00    -0.412 N
ATOM     19  H4  UNL     1      -7.015 -20.692  21.045  1.00  0.00     0.153 HD
BRANCH  18  20
HETATM   20  C15 UNL     1      -8.521 -19.933  22.354  1.00  0.00     0.076 C
HETATM   21  C16 UNL     1      -8.241 -20.941  23.400  1.00  0.00     0.024 C
HETATM   22  C17 UNL     1      -9.406 -21.929  23.381  1.00  0.00     0.002 C
HETATM   23  C18 UNL     1     -10.570 -21.214  22.758  1.00  0.00     0.002 C
HETATM   24  C19 UNL     1      -9.956 -20.215  21.846  1.00  0.00     0.024 C
ENDBRANCH  18  20
ENDBRANCH  17  18
ENDBRANCH  15  17
ENDBRANCH  11  12
BRANCH   7  25
HETATM   25  C5  UNL     1      -5.046 -22.980  23.550  1.00  0.00     0.044 C
HETATM   26  C6  UNL     1      -4.306 -23.951  24.424  1.00  0.00     0.011 C
HETATM   27  C7  UNL     1      -5.411 -24.839  24.976  1.00  0.00     0.001 C
HETATM   28  C8  UNL     1      -6.555 -24.777  23.985  1.00  0.00     0.001 C
HETATM   29  C9  UNL     1      -6.196 -23.771  22.928  1.00  0.00     0.011 C
ENDBRANCH   7  25
TORSDOF 5
ENDMDL