MODEL 2
REMARK VINA RESULT: -8.756838182      3.099      6.902
REMARK  5 active torsions:
REMARK  status: ('A' for Active; 'I' for Inactive)
REMARK    1  A    between atoms: N3_6  and  C3_7
REMARK    2  A    between atoms: N5_14  and  C6_15
REMARK    3  A    between atoms: C6_15  and  C7_16
REMARK    4  A    between atoms: C7_16  and  C8_18
REMARK    5  A    between atoms: C14_25  and  C15_26
ROOT
HETATM    1  N1  UNL     1      -2.816 -27.061  23.901  1.00  0.00    -0.190 NA
HETATM    2  C1  UNL     1      -3.198 -25.993  23.694  1.00  0.00     0.119 C
HETATM    3  C2  UNL     1      -3.654 -24.661  23.440  1.00  0.00     0.136 A
HETATM    4  N2  UNL     1      -3.101 -23.694  22.687  1.00  0.00    -0.288 N
ATOM      5  H2  UNL     1      -2.230 -23.784  22.163  1.00  0.00     0.188 HD
HETATM    6  N3  UNL     1      -3.859 -22.601  22.729  1.00  0.00    -0.295 N
HETATM    7  C13 UNL     1      -4.912 -22.870  23.519  1.00  0.00     0.121 A
HETATM    8  C14 UNL     1      -4.825 -24.164  23.992  1.00  0.00     0.002 A
ENDROOT
BRANCH   8   9
HETATM    9  C15 UNL     1      -5.790 -24.806  24.884  1.00  0.00     0.023 A
HETATM   10  C16 UNL     1      -5.397 -24.871  26.359  1.00  0.00     0.010 A
HETATM   11  C17 UNL     1      -6.609 -24.106  25.876  1.00  0.00     0.010 A
ENDBRANCH   8   9
BRANCH   6  12
HETATM   12  C3  UNL     1      -3.599 -21.321  22.046  1.00  0.00     0.135 C
HETATM   13  C4  UNL     1      -2.390 -21.492  21.200  1.00  0.00     0.111 C
HETATM   14  S1  UNL     1      -2.797 -21.732  19.443  1.00  0.00    -0.092 SA
HETATM   15  C5  UNL     1      -4.039 -20.452  19.107  1.00  0.00     0.136 C
HETATM   16  N4  UNL     1      -4.202 -20.001  17.939  1.00  0.00    -0.380 N
HETATM   17  N5  UNL     1      -4.762 -20.033  20.264  1.00  0.00    -0.353 N
ATOM     18  H42 UNL     1      -3.685 -20.301  17.113  1.00  0.00     0.158 HD
ATOM     19  H41 UNL     1      -4.900 -19.282  17.751  1.00  0.00     0.158 HD
HETATM   20  C12 UNL     1      -4.862 -20.971  21.349  1.00  0.00     0.153 C
BRANCH  17  21
HETATM   21  C6  UNL     1      -5.358 -18.721  20.278  1.00  0.00     0.209 C
BRANCH  21  22
HETATM   22  C7  UNL     1      -6.633 -18.600  19.581  1.00  0.00     0.184 C
HETATM   23  O1  UNL     1      -6.727 -18.115  18.431  1.00  0.00    -0.290 OA
BRANCH  22  24
HETATM   24  C8  UNL     1      -7.852 -19.073  20.281  1.00  0.00     0.052 A
HETATM   25  C9  UNL     1      -9.095 -19.307  19.760  1.00  0.00     0.023 A
HETATM   26  C10 UNL     1     -10.044 -19.730  20.600  1.00  0.00     0.009 A
HETATM   27  C11 UNL     1      -9.700 -19.896  21.913  1.00  0.00     0.050 A
HETATM   28  S2  UNL     1      -8.054 -19.453  21.935  1.00  0.00    -0.098 SA
ENDBRANCH  22  24
ENDBRANCH  21  22
ENDBRANCH  17  21
ENDBRANCH   6  12
TORSDOF 5
ENDMDL