MODEL 3
REMARK VINA RESULT: -8.456220277      3.261      6.984
REMARK  6 active torsions:
REMARK  status: ('A' for Active; 'I' for Inactive)
REMARK    1  A    between atoms: C2_2  and  C3_3
REMARK    2  A    between atoms: C3_3  and  O1_4
REMARK    3  A    between atoms: O1_4  and  C4_5
REMARK       I    between atoms: C4_5  and  N1_7
REMARK    4  A    between atoms: N1_7  and  C5_9
REMARK    5  A    between atoms: C7_11  and  C8_12
REMARK    6  A    between atoms: C14_20  and  N3_21
ROOT
HETATM    1  C5  UNL     1       2.557 -10.102 -25.801  1.00  0.00     0.155 A
HETATM    2  C6  UNL     1       1.977  -8.959 -26.285  1.00  0.00     0.071 A
HETATM    3  C7  UNL     1       2.326  -8.378 -27.517  1.00  0.00     0.010 A
HETATM    4  C12 UNL     1       3.282  -8.999 -28.244  1.00  0.00     0.107 A
HETATM    5  C13 UNL     1       3.706  -8.588 -29.547  1.00  0.00     0.104 C
HETATM    6  N2  UNL     1       4.039  -8.290 -30.610  1.00  0.00    -0.191 NA
HETATM    7  C14 UNL     1       3.846 -10.166 -27.704  1.00  0.00     0.170 A
HETATM    8  O4  UNL     1       3.476 -10.654 -26.547  1.00  0.00    -0.275 OA
ENDROOT
BRANCH   3   9
HETATM    9  C8  UNL     1       1.604  -7.181 -27.952  1.00  0.00     0.016 A
HETATM   10  C9  UNL     1       1.893  -6.116 -28.724  1.00  0.00     0.020 A
HETATM   11  C10 UNL     1       0.974  -5.140 -28.858  1.00  0.00     0.008 A
HETATM   12  C11 UNL     1      -0.205  -5.287 -28.198  1.00  0.00     0.050 A
HETATM   13  S1  UNL     1      -0.011  -6.771 -27.408  1.00  0.00    -0.101 SA
ENDBRANCH   3   9
BRANCH   7  14
HETATM   14  N3  UNL     1       4.864 -10.813 -28.485  1.00  0.00    -0.356 N
HETATM   15  C15 UNL     1       6.248 -10.464 -28.423  1.00  0.00     0.151 C
HETATM   16  C16 UNL     1       6.912 -10.532 -29.766  1.00  0.00     0.187 C
HETATM   17  O3  UNL     1       6.429 -11.524 -30.586  1.00  0.00    -0.388 OA
HETATM   18  C17 UNL     1       5.700 -12.498 -29.944  1.00  0.00     0.187 C
HETATM   19  C18 UNL     1       4.446 -11.871 -29.376  1.00  0.00     0.151 C
ENDBRANCH   7  14
BRANCH   1  20
HETATM   20  N1  UNL     1       2.225 -10.628 -24.660  1.00  0.00    -0.282 N
HETATM   21  C4  UNL     1       1.414 -11.770 -24.547  1.00  0.00     0.366 C
HETATM   22  O2  UNL     1       1.869 -12.878 -24.199  1.00  0.00    -0.238 OA
ATOM     23  H1  UNL     1       2.570 -10.191 -23.805  1.00  0.00     0.173 HD
BRANCH  21  24
HETATM   24  O1  UNL     1       0.065 -11.672 -24.831  1.00  0.00    -0.304 OA
BRANCH  24  25
HETATM   25  C3  UNL     1      -0.885 -10.963 -24.101  1.00  0.00     0.180 C
BRANCH  25  26
HETATM   26  C2  UNL     1      -1.355  -9.687 -24.731  1.00  0.00     0.022 C
HETATM   27  C1  UNL     1      -0.937  -8.475 -23.932  1.00  0.00     0.007 C
ENDBRANCH  25  26
ENDBRANCH  24  25
ENDBRANCH  21  24
ENDBRANCH   1  20
TORSDOF 6
ENDMDL