MODEL 5
REMARK VINA RESULT: -6.919843182      1.113      1.974
REMARK  10 active torsions:
REMARK  status: ('A' for Active; 'I' for Inactive)
REMARK    1  A    between atoms: C2_2  and  C3_3
REMARK    2  A    between atoms: C3_3  and  C4_4
REMARK    3  A    between atoms: C5_5  and  C6_6
REMARK    4  A    between atoms: C6_6  and  N1_7
REMARK    5  A    between atoms: C7_8  and  S1_9
REMARK    6  A    between atoms: S1_9  and  C8_10
REMARK    7  A    between atoms: C8_10  and  C11_13
REMARK    8  A    between atoms: C11_13  and  O2_15
REMARK    9  A    between atoms: C14_18  and  N2_19
REMARK       I    between atoms: N2_19  and  C15_21
REMARK   10  A    between atoms: C15_21  and  O4_23
ROOT
HETATM    1  N1  UNL     1       0.660  -8.716 -27.076  1.00  0.00    -0.320 N
HETATM    2  C7  UNL     1       0.571  -9.502 -25.988  1.00  0.00     0.077 A
HETATM    3  C13 UNL     1       1.854  -9.945 -25.670  1.00  0.00     0.069 A
HETATM    4  C14 UNL     1       2.715  -9.406 -26.592  1.00  0.00     0.077 A
HETATM    5  C17 UNL     1       1.941  -8.631 -27.473  1.00  0.00     0.145 A
HETATM    6  C18 UNL     1       2.435  -7.879 -28.605  1.00  0.00     0.120 C
HETATM    7  N3  UNL     1       2.838  -7.260 -29.510  1.00  0.00    -0.190 NA
ENDROOT
BRANCH   1   8
HETATM    8  C6  UNL     1      -0.442  -8.053 -27.738  1.00  0.00     0.224 C
BRANCH   8   9
HETATM    9  C5  UNL     1      -0.407  -6.640 -27.359  1.00  0.00    -0.086 C
HETATM   10  C4  UNL     1      -0.397  -5.456 -27.053  1.00  0.00    -0.105 C
BRANCH  10  11
HETATM   11  C3  UNL     1      -0.408  -4.034 -26.702  1.00  0.00     0.093 C
BRANCH  11  12
HETATM   12  C2  UNL     1      -1.846  -3.499 -26.699  1.00  0.00     0.007 C
HETATM   13  C1  UNL     1      -2.254  -3.035 -25.340  1.00  0.00     0.006 C
ENDBRANCH  11  12
ENDBRANCH  10  11
ENDBRANCH   8   9
ENDBRANCH   1   8
BRANCH   4  14
HETATM   14  N2  UNL     1       4.104  -9.569 -26.676  1.00  0.00    -0.300 N
HETATM   15  C15 UNL     1       4.793 -10.460 -27.537  1.00  0.00     0.364 C
HETATM   16  O3  UNL     1       4.264 -11.238 -28.355  1.00  0.00    -0.238 OA
ATOM     17  H2  UNL     1       4.674  -8.991 -26.059  1.00  0.00     0.171 HD
BRANCH  15  18
HETATM   18  O4  UNL     1       6.200 -10.500 -27.495  1.00  0.00    -0.309 OA
HETATM   19  C16 UNL     1       6.957 -10.679 -28.685  1.00  0.00     0.215 C
ENDBRANCH  15  18
ENDBRANCH   4  14
BRANCH   2  20
HETATM   20  S1  UNL     1      -0.950  -9.882 -25.133  1.00  0.00    -0.092 SA
BRANCH  20  21
HETATM   21  C8  UNL     1      -1.402  -8.629 -23.935  1.00  0.00     0.095 C
HETATM   22  C9  UNL     1      -0.402  -7.501 -23.864  1.00  0.00     0.038 C
HETATM   23  C10 UNL     1      -1.579  -9.280 -22.565  1.00  0.00     0.038 C
BRANCH  21  24
HETATM   24  C11 UNL     1      -2.726  -8.078 -24.326  1.00  0.00     0.277 C
HETATM   25  O1  UNL     1      -3.785  -8.752 -24.244  1.00  0.00    -0.263 OA
BRANCH  24  26
HETATM   26  O2  UNL     1      -2.800  -6.784 -24.796  1.00  0.00    -0.325 OA
HETATM   27  C12 UNL     1      -3.747  -6.311 -25.712  1.00  0.00     0.213 C
ENDBRANCH  24  26
ENDBRANCH  21  24
ENDBRANCH  20  21
ENDBRANCH   2  20
TORSDOF 10
ENDMDL