MODEL 4
REMARK VINA RESULT: -8.513773575      3.431      7.055
REMARK  6 active torsions:
REMARK  status: ('A' for Active; 'I' for Inactive)
REMARK    1  A    between atoms: C2_2  and  O1_3
REMARK    2  A    between atoms: O1_3  and  C3_4
REMARK    3  A    between atoms: C3_4  and  C4_6
REMARK    4  A    between atoms: N1_9  and  C7_10
REMARK    5  A    between atoms: C11_19  and  N5_20
REMARK    6  A    between atoms: N5_20  and  C12_22
ROOT
HETATM    1  C7  UNL     1       0.571  -9.570 -25.589  1.00  0.00     0.134 A
HETATM    2  N2  UNL     1      -0.658 -10.062 -25.300  1.00  0.00    -0.337 N
ATOM      3  H2  UNL     1      -1.448  -9.421 -25.374  1.00  0.00     0.168 HD
HETATM    4  C8  UNL     1      -0.919 -11.309 -24.928  1.00  0.00     0.183 A
HETATM    5  N3  UNL     1       0.124 -12.137 -24.833  1.00  0.00    -0.342 N
ATOM      6  H3  UNL     1      -0.036 -13.102 -24.548  1.00  0.00     0.167 HD
HETATM    7  C9  UNL     1       1.404 -11.727 -25.106  1.00  0.00     0.145 A
HETATM    8  C10 UNL     1       2.412 -12.738 -24.881  1.00  0.00     0.120 C
HETATM    9  N4  UNL     1       3.200 -13.530 -24.675  1.00  0.00    -0.190 NA
HETATM   10  C11 UNL     1       1.656 -10.443 -25.492  1.00  0.00     0.111 A
ENDROOT
BRANCH  10  11
HETATM   11  N5  UNL     1       2.937 -10.000 -25.828  1.00  0.00    -0.380 N
ATOM     12  H5  UNL     1       3.519  -9.718 -25.039  1.00  0.00     0.160 HD
BRANCH  11  13
HETATM   13  C12 UNL     1       3.559  -9.882 -27.120  1.00  0.00     0.082 C
HETATM   14  C13 UNL     1       4.090  -8.525 -27.382  1.00  0.00     0.025 C
HETATM   15  C14 UNL     1       4.433  -8.225 -28.814  1.00  0.00     0.002 C
HETATM   16  C15 UNL     1       4.020  -9.256 -29.804  1.00  0.00     0.000 C
HETATM   17  C16 UNL     1       4.904 -10.481 -29.778  1.00  0.00     0.000 C
HETATM   18  C17 UNL     1       5.589 -10.581 -28.458  1.00  0.00     0.002 C
HETATM   19  C18 UNL     1       4.629 -10.938 -27.364  1.00  0.00     0.025 C
ENDBRANCH  11  13
ENDBRANCH  10  11
BRANCH   1  20
HETATM   20  N1  UNL     1       0.672  -8.186 -25.874  1.00  0.00    -0.365 N
HETATM   21  C6  UNL     1       0.972  -7.681 -27.203  1.00  0.00     0.125 C
HETATM   22  C5  UNL     1      -0.130  -6.886 -27.800  1.00  0.00     0.034 C
HETATM   23  C4  UNL     1      -1.021  -6.370 -26.716  1.00  0.00     0.088 C
HETATM   24  C20 UNL     1      -0.250  -5.991 -25.469  1.00  0.00     0.034 C
HETATM   25  C19 UNL     1       0.415  -7.210 -24.845  1.00  0.00     0.125 C
BRANCH  23  26
HETATM   26  C3  UNL     1      -1.788  -5.172 -27.134  1.00  0.00     0.263 C
HETATM   27  O2  UNL     1      -1.165  -4.166 -27.542  1.00  0.00    -0.265 OA
BRANCH  26  28
HETATM   28  O1  UNL     1      -3.151  -5.145 -27.085  1.00  0.00    -0.322 OA
BRANCH  28  29
HETATM   29  C2  UNL     1      -3.908  -5.896 -26.121  1.00  0.00     0.174 C
HETATM   30  C1  UNL     1      -3.871  -5.081 -24.845  1.00  0.00     0.034 C
ENDBRANCH  28  29
ENDBRANCH  26  28
ENDBRANCH  23  26
ENDBRANCH   1  20
TORSDOF 6
ENDMDL