MODEL 3
REMARK VINA RESULT: -8.407947434      2.903      5.035
REMARK  7 active torsions:
REMARK  status: ('A' for Active; 'I' for Inactive)
REMARK    1  A    between atoms: C1_2  and  C2_3
REMARK    2  A    between atoms: C1_2  and  O6_19
REMARK    3  A    between atoms: C2_3  and  N1_4
REMARK    4  A    between atoms: C5_9  and  C6_10
REMARK    5  A    between atoms: C9_13  and  O3_14
REMARK    6  A    between atoms: O6_19  and  C11_20
REMARK    7  A    between atoms: C11_20  and  C12_21
ROOT
HETATM    1  N1  UNL     1       1.300  -9.338 -25.550  1.00  0.00    -0.265 N
HETATM    2  C3  UNL     1       2.213 -10.390 -25.712  1.00  0.00     0.294 C
HETATM    3  O2  UNL     1       3.267 -10.402 -26.357  1.00  0.00    -0.259 OA
HETATM    4  S1  UNL     1       1.562 -11.763 -24.791  1.00  0.00    -0.023 SA
HETATM    5  C4  UNL     1      -0.029 -11.008 -24.429  1.00  0.00     0.081 C
HETATM    6  C5  UNL     1      -1.074 -11.594 -23.877  1.00  0.00     0.062 C
HETATM    7  C10 UNL     1       0.119  -9.633 -24.884  1.00  0.00     0.268 C
HETATM    8  O5  UNL     1      -0.836  -8.804 -24.639  1.00  0.00    -0.266 OA
ENDROOT
BRANCH   1   9
HETATM    9  C2  UNL     1       1.596  -7.988 -26.070  1.00  0.00     0.247 C
BRANCH   9  10
HETATM   10  C1  UNL     1       1.175  -7.861 -27.475  1.00  0.00     0.277 C
HETATM   11  O1  UNL     1       1.984  -8.065 -28.396  1.00  0.00    -0.263 OA
BRANCH  10  12
HETATM   12  O6  UNL     1      -0.119  -7.511 -27.768  1.00  0.00    -0.320 OA
BRANCH  12  13
HETATM   13  C11 UNL     1      -0.639  -6.224 -27.863  1.00  0.00     0.183 C
BRANCH  13  14
HETATM   14  C12 UNL     1      -1.431  -5.819 -26.645  1.00  0.00     0.010 C
HETATM   15  C13 UNL     1      -1.007  -4.415 -26.291  1.00  0.00     0.007 C
HETATM   16  C14 UNL     1      -2.184  -3.519 -26.024  1.00  0.00     0.000 C
HETATM   17  C15 UNL     1      -3.087  -4.213 -25.029  1.00  0.00     0.000 C
HETATM   18  C16 UNL     1      -3.642  -5.445 -25.672  1.00  0.00     0.000 C
HETATM   19  C17 UNL     1      -2.917  -5.787 -26.953  1.00  0.00     0.007 C
ENDBRANCH  13  14
ENDBRANCH  12  13
ENDBRANCH  10  12
ENDBRANCH   9  10
ENDBRANCH   1   9
BRANCH   6  20
HETATM   20  C6  UNL     1      -1.001 -12.993 -23.496  1.00  0.00     0.080 A
HETATM   21  C7  UNL     1      -0.773 -13.544 -22.257  1.00  0.00     0.042 A
HETATM   22  C8  UNL     1      -0.791 -14.916 -22.375  1.00  0.00     0.067 A
HETATM   23  C9  UNL     1      -1.033 -15.165 -23.704  1.00  0.00     0.183 A
HETATM   24  O4  UNL     1      -1.148 -14.023 -24.318  1.00  0.00    -0.288 OA
BRANCH  23  25
HETATM   25  O3  UNL     1      -1.142 -16.422 -24.321  1.00  0.00    -0.341 OA
ATOM     26  H3  UNL     1      -0.780 -17.244 -24.013  1.00  0.00     0.220 HD
ENDBRANCH  23  25
ENDBRANCH   6  20
TORSDOF 7
ENDMDL