MODEL 5
REMARK VINA RESULT: -9.034839406      1.559      2.367
REMARK  5 active torsions:
REMARK  status: ('A' for Active; 'I' for Inactive)
REMARK    1  A    between atoms: C2_2  and  C3_3
REMARK    2  A    between atoms: C3_3  and  C4_4
REMARK    3  A    between atoms: C4_4  and  C5_5
REMARK    4  A    between atoms: C10_13  and  C11_14
REMARK    5  A    between atoms: C13_16  and  N1_17
ROOT
HETATM    1  C11 UNL     1       0.054 -11.967 -24.157  1.00  0.00     0.039 A
HETATM    2  C12 UNL     1       0.130 -13.322 -24.406  1.00  0.00     0.072 A
HETATM    3  C13 UNL     1      -0.431 -13.993 -23.363  1.00  0.00     0.175 A
HETATM    4  N2  UNL     1      -0.845 -13.060 -22.484  1.00  0.00    -0.328 N
ATOM      5  H2  UNL     1      -1.307 -13.261 -21.597  1.00  0.00     0.168 HD
HETATM    6  C14 UNL     1      -0.564 -11.828 -22.941  1.00  0.00     0.128 A
HETATM    7  C15 UNL     1      -0.870 -10.592 -22.254  1.00  0.00     0.118 C
HETATM    8  N3  UNL     1      -1.126  -9.591 -21.715  1.00  0.00    -0.190 NA
ENDROOT
BRANCH   1   9
HETATM    9  C10 UNL     1       0.513 -10.857 -24.968  1.00  0.00     0.094 A
HETATM   10  O3  UNL     1       1.749 -10.760 -25.383  1.00  0.00    -0.274 OA
HETATM   11  C9  UNL     1       2.216  -9.780 -26.116  1.00  0.00     0.304 A
HETATM   12  C8  UNL     1       1.400  -8.716 -26.530  1.00  0.00     0.107 A
HETATM   13  O2  UNL     1       3.425  -9.795 -26.457  1.00  0.00    -0.259 OA
HETATM   14  C7  UNL     1       1.911  -7.697 -27.299  1.00  0.00     0.190 A
HETATM   15  C17 UNL     1       0.090  -8.790 -26.107  1.00  0.00     0.028 A
HETATM   16  C6  UNL     1       1.233  -6.608 -27.768  1.00  0.00     0.070 A
HETATM   17  O1  UNL     1       3.153  -7.813 -27.587  1.00  0.00    -0.287 OA
HETATM   18  C5  UNL     1      -0.101  -6.335 -27.549  1.00  0.00    -0.013 A
HETATM   19  S1  UNL     1      -0.922  -7.488 -26.608  1.00  0.00    -0.094 SA
HETATM   20  C16 UNL     1      -0.344  -9.844 -25.337  1.00  0.00     0.058 A
BRANCH  18  21
HETATM   21  C4  UNL     1      -0.781  -5.125 -28.091  1.00  0.00     0.046 C
BRANCH  21  22
HETATM   22  C3  UNL     1      -2.075  -4.930 -27.313  1.00  0.00     0.005 C
BRANCH  22  23
HETATM   23  C2  UNL     1      -1.890  -3.788 -26.364  1.00  0.00    -0.004 C
HETATM   24  C1  UNL     1      -2.877  -3.988 -25.215  1.00  0.00     0.005 C
ENDBRANCH  22  23
ENDBRANCH  21  22
ENDBRANCH  18  21
ENDBRANCH   1   9
BRANCH   3  25
HETATM   25  N1  UNL     1      -0.553 -15.409 -23.231  1.00  0.00    -0.098 N
HETATM   26  O4  UNL     1      -1.500 -15.994 -23.788  1.00  0.00    -0.531 OA
HETATM   27  O5  UNL     1       0.368 -16.105 -22.495  1.00  0.00    -0.531 OA
ENDBRANCH   3  25
TORSDOF 5
ENDMDL