MODEL 4
REMARK VINA RESULT: -8.175992266      1.055      1.390
REMARK  6 active torsions:
REMARK  status: ('A' for Active; 'I' for Inactive)
REMARK    1  A    between atoms: C2_2  and  O1_3
REMARK    2  A    between atoms: O1_3  and  C3_4
REMARK    3  A    between atoms: C3_4  and  C4_6
REMARK    4  A    between atoms: C5_7  and  C6_8
REMARK    5  A    between atoms: C6_8  and  N1_9
REMARK    6  A    between atoms: N2_12  and  C9_13
ROOT
HETATM    1  N1  UNL     1      -0.369  -9.149 -24.354  1.00  0.00     0.096 N
HETATM    2  C7  UNL     1      -0.632  -7.875 -23.679  1.00  0.00     0.303 C
HETATM    3  C8  UNL     1      -1.719  -7.142 -24.359  1.00  0.00     0.303 C
HETATM    4  N2  UNL     1      -1.474  -6.963 -25.799  1.00  0.00     0.100 N
HETATM    5  C15 UNL     1      -1.522  -8.268 -26.364  1.00  0.00     0.247 C
HETATM    6  C16 UNL     1      -0.325  -8.418 -27.302  1.00  0.00     0.045 C
HETATM    7  C17 UNL     1      -1.434  -9.371 -25.343  1.00  0.00     0.308 C
ENDROOT
BRANCH   1   8
HETATM    8  C6  UNL     1      -0.572 -10.234 -23.379  1.00  0.00     0.312 C
BRANCH   8   9
HETATM    9  C5  UNL     1       0.007 -11.539 -23.885  1.00  0.00    -0.005 A
HETATM   10  C4  UNL     1      -0.225 -12.729 -23.271  1.00  0.00     0.079 A
HETATM   11  C19 UNL     1       0.399 -13.819 -23.807  1.00  0.00     0.103 A
HETATM   12  S1  UNL     1       1.281 -13.193 -25.125  1.00  0.00    -0.086 SA
HETATM   13  N3  UNL     1       0.311 -15.185 -23.339  1.00  0.00    -0.093 NA
HETATM   14  C18 UNL     1       0.836 -11.556 -24.966  1.00  0.00     0.061 A
BRANCH  10  15
HETATM   15  C3  UNL     1      -1.104 -12.889 -22.066  1.00  0.00     0.296 C
HETATM   16  O2  UNL     1      -0.723 -12.574 -20.915  1.00  0.00    -0.259 OA
BRANCH  15  17
HETATM   17  O1  UNL     1      -2.380 -13.396 -22.165  1.00  0.00    -0.318 OA
BRANCH  17  18
HETATM   18  C2  UNL     1      -2.949 -14.072 -21.066  1.00  0.00     0.174 C
HETATM   19  C1  UNL     1      -2.475 -15.508 -21.135  1.00  0.00     0.034 C
ENDBRANCH  17  18
ENDBRANCH  15  17
ENDBRANCH  10  15
ENDBRANCH   8   9
ENDBRANCH   1   8
BRANCH   4  20
HETATM   20  C9  UNL     1      -2.411  -6.006 -26.292  1.00  0.00     0.223 C
HETATM   21  C10 UNL     1      -2.753  -5.062 -25.160  1.00  0.00     0.036 C
HETATM   22  C11 UNL     1      -2.626  -3.612 -25.578  1.00  0.00     0.002 C
HETATM   23  C12 UNL     1      -1.196  -3.477 -26.117  1.00  0.00     0.000 C
HETATM   24  C13 UNL     1      -1.210  -4.130 -27.472  1.00  0.00     0.002 C
HETATM   25  C14 UNL     1      -2.101  -5.327 -27.560  1.00  0.00     0.036 C
ENDBRANCH   4  20
TORSDOF 6
ENDMDL