MODEL 5
REMARK VINA RESULT: -7.703245783      2.228      3.321
REMARK  7 active torsions:
REMARK  status: ('A' for Active; 'I' for Inactive)
REMARK    1  A    between atoms: C3_4  and  C4_5
REMARK    2  A    between atoms: C4_5  and  C5_7
REMARK    3  A    between atoms: C5_7  and  S2_8
REMARK    4  A    between atoms: S2_8  and  C6_9
REMARK    5  A    between atoms: C6_9  and  N1_11
REMARK    6  A    between atoms: C13_19  and  C14_20
REMARK    7  A    between atoms: C14_20  and  C15_21
ROOT
HETATM    1  C15 UNL     1      -1.692 -13.629 -21.763  1.00  0.00     0.232 C
HETATM    2  O2  UNL     1      -1.801 -14.579 -22.569  1.00  0.00    -0.281 OA
HETATM    3  C16 UNL     1      -2.707 -13.445 -20.776  1.00  0.00     0.138 C
HETATM    4  N3  UNL     1      -3.535 -13.287 -19.980  1.00  0.00    -0.188 NA
ENDROOT
BRANCH   1   5
HETATM    5  C14 UNL     1      -0.539 -12.732 -21.845  1.00  0.00     0.136 C
BRANCH   5   6
HETATM    6  C13 UNL     1      -0.694 -11.748 -22.996  1.00  0.00    -0.012 A
HETATM    7  C2  UNL     1      -0.152 -12.069 -24.215  1.00  0.00    -0.012 A
HETATM    8  C1  UNL     1       0.611 -13.277 -24.646  1.00  0.00     0.057 C
HETATM    9  S1  UNL     1      -0.552 -10.728 -25.180  1.00  0.00    -0.089 SA
HETATM   10  C3  UNL     1      -1.397  -9.794 -24.020  1.00  0.00     0.076 A
HETATM   11  C12 UNL     1      -1.334 -10.577 -22.900  1.00  0.00     0.074 A
HETATM   12  N2  UNL     1      -1.955 -10.116 -21.664  1.00  0.00    -0.100 NA
BRANCH  10  13
HETATM   13  C4  UNL     1      -2.036  -8.471 -24.183  1.00  0.00     0.177 C
HETATM   14  O1  UNL     1      -3.227  -8.436 -24.540  1.00  0.00    -0.291 OA
BRANCH  13  15
HETATM   15  C5  UNL     1      -1.297  -7.222 -23.937  1.00  0.00     0.166 C
BRANCH  15  16
HETATM   16  S2  UNL     1       0.324  -7.351 -24.713  1.00  0.00    -0.093 SA
BRANCH  16  17
HETATM   17  C6  UNL     1       0.286  -6.990 -26.435  1.00  0.00     0.137 C
HETATM   18  S3  UNL     1      -0.960  -6.160 -27.088  1.00  0.00    -0.053 SA
BRANCH  17  19
HETATM   19  N1  UNL     1       1.333  -7.413 -27.282  1.00  0.00    -0.367 N
HETATM   20  C7  UNL     1       1.835  -6.564 -28.350  1.00  0.00     0.124 C
HETATM   21  C8  UNL     1       3.004  -7.262 -29.001  1.00  0.00     0.020 C
HETATM   22  C9  UNL     1       4.039  -7.677 -27.976  1.00  0.00     0.003 C
HETATM   23  C10 UNL     1       3.431  -8.694 -27.063  1.00  0.00     0.020 C
HETATM   24  C11 UNL     1       1.919  -8.710 -27.088  1.00  0.00     0.124 C
ENDBRANCH  17  19
ENDBRANCH  16  17
ENDBRANCH  15  16
ENDBRANCH  13  15
ENDBRANCH  10  13
ENDBRANCH   5   6
ENDBRANCH   1   5
TORSDOF 7
ENDMDL