MODEL 1
REMARK VINA RESULT: -8.693202133      0.000      0.000
REMARK  6 active torsions:
REMARK  status: ('A' for Active; 'I' for Inactive)
REMARK    1  A    between atoms: C2_2  and  S1_3
REMARK    2  A    between atoms: C2_2  and  C6_10
REMARK    3  A    between atoms: S1_3  and  C3_4
REMARK    4  A    between atoms: C6_10  and  O2_12
REMARK    5  A    between atoms: O2_12  and  C7_13
REMARK    6  A    between atoms: C12_19  and  C13_20
ROOT
HETATM    1  C7  UNL     1      -0.804  -9.375 -24.036  1.00  0.00     0.158 C
HETATM    2  C8  UNL     1      -0.954  -8.107 -23.235  1.00  0.00     0.201 C
HETATM    3  O3  UNL     1      -0.899  -7.142 -24.266  1.00  0.00    -0.378 OA
HETATM    4  C9  UNL     1      -1.767  -7.592 -25.243  1.00  0.00     0.063 C
HETATM    5  C10 UNL     1      -3.127  -7.060 -24.983  1.00  0.00     0.039 C
HETATM    6  C11 UNL     1      -3.627  -5.978 -25.845  1.00  0.00     0.018 C
HETATM    7  C12 UNL     1      -2.627  -5.081 -26.492  1.00  0.00     0.087 C
HETATM    8  C14 UNL     1      -1.265  -5.697 -26.664  1.00  0.00     0.018 C
HETATM    9  C15 UNL     1      -1.304  -7.193 -26.637  1.00  0.00     0.039 C
HETATM   10  C16 UNL     1      -1.715  -9.116 -25.207  1.00  0.00     0.073 C
ENDROOT
BRANCH   1  11
HETATM   11  O2  UNL     1      -1.093 -10.531 -23.335  1.00  0.00    -0.313 OA
BRANCH  11  12
HETATM   12  C6  UNL     1      -0.844 -11.782 -23.877  1.00  0.00     0.273 C
HETATM   13  O1  UNL     1      -1.608 -12.164 -24.796  1.00  0.00    -0.264 OA
BRANCH  12  14
HETATM   14  C2  UNL     1       0.288 -12.599 -23.357  1.00  0.00     0.150 C
HETATM   15  C1  UNL     1       1.537 -12.432 -24.180  1.00  0.00     0.032 C
BRANCH  14  16
HETATM   16  S1  UNL     1      -0.281 -14.321 -23.313  1.00  0.00    -0.090 SA
BRANCH  16  17
HETATM   17  C3  UNL     1      -1.134 -14.601 -21.740  1.00  0.00     0.112 A
HETATM   18  N1  UNL     1      -0.782 -15.424 -20.762  1.00  0.00    -0.354 N
HETATM   19  C4  UNL     1      -1.510 -15.502 -19.697  1.00  0.00     0.096 A
ATOM     20  H1  UNL     1       0.059 -15.993 -20.850  1.00  0.00     0.166 HD
HETATM   21  C5  UNL     1      -2.632 -14.716 -19.628  1.00  0.00     0.069 A
HETATM   22  S2  UNL     1      -2.564 -13.897 -21.132  1.00  0.00    -0.076 SA
ENDBRANCH  16  17
ENDBRANCH  14  16
ENDBRANCH  12  14
ENDBRANCH  11  12
ENDBRANCH   1  11
BRANCH   7  23
HETATM   23  C13 UNL     1      -2.439  -3.801 -25.771  1.00  0.00     0.177 C
HETATM   24  O4  UNL     1      -1.608  -2.975 -26.220  1.00  0.00    -0.648 OA
HETATM   25  O5  UNL     1      -3.165  -3.513 -24.620  1.00  0.00    -0.648 OA
ENDBRANCH   7  23
TORSDOF 6
ENDMDL