MODEL 5
REMARK VINA RESULT: -8.946751121      1.112      1.482
REMARK  6 active torsions:
REMARK  status: ('A' for Active; 'I' for Inactive)
REMARK    1  A    between atoms: C8_8  and  O1_9
REMARK    2  A    between atoms: C13_15  and  O2_16
REMARK    3  A    between atoms: O2_16  and  C14_17
REMARK    4  A    between atoms: C14_17  and  C15_18
REMARK    5  A    between atoms: C14_17  and  C17_21
REMARK    6  A    between atoms: C18_26  and  C19_27
ROOT
HETATM    1  C15 UNL     1       0.333 -12.948 -24.239  1.00  0.00     0.164 C
HETATM    2  C16 UNL     1      -0.756 -13.053 -23.305  1.00  0.00     0.062 C
HETATM    3  N1  UNL     1      -1.658 -13.150 -22.556  1.00  0.00    -0.197 NA
ENDROOT
BRANCH   1   4
HETATM    4  C14 UNL     1       0.852 -11.501 -24.308  1.00  0.00     0.211 C
BRANCH   4   5
HETATM    5  O2  UNL     1      -0.210 -10.753 -24.748  1.00  0.00    -0.366 OA
BRANCH   5   6
HETATM    6  C13 UNL     1      -0.360  -9.520 -24.185  1.00  0.00     0.159 C
HETATM    7  C2  UNL     1      -1.445  -9.471 -23.157  1.00  0.00    -0.060 C
HETATM    8  C1  UNL     1      -1.228  -9.560 -21.857  1.00  0.00     0.017 C
HETATM    9  C3  UNL     1      -2.829  -9.308 -23.668  1.00  0.00     0.036 C
HETATM   10  C4  UNL     1      -2.916  -8.111 -24.623  1.00  0.00     0.010 C
HETATM   11  C5  UNL     1      -1.550  -7.458 -24.705  1.00  0.00     0.003 C
HETATM   12  C6  UNL     1      -1.554  -6.136 -25.344  1.00  0.00     0.015 C
HETATM   13  C11 UNL     1      -0.612  -8.496 -25.266  1.00  0.00    -0.010 C
HETATM   14  C7  UNL     1      -2.964  -5.892 -25.909  1.00  0.00     0.013 C
HETATM   15  C8  UNL     1      -0.585  -5.839 -26.402  1.00  0.00     0.122 C
HETATM   16  C9  UNL     1       0.489  -6.853 -26.638  1.00  0.00     0.033 C
HETATM   17  C10 UNL     1       0.707  -7.788 -25.500  1.00  0.00     0.015 C
HETATM   18  C12 UNL     1      -1.126  -9.146 -26.505  1.00  0.00     0.018 C
BRANCH  15  19
HETATM   19  O1  UNL     1      -1.216  -5.623 -27.654  1.00  0.00    -0.395 OA
ATOM     20  H1  UNL     1      -0.612  -5.732 -28.379  1.00  0.00     0.210 HD
ENDBRANCH  15  19
ENDBRANCH   5   6
ENDBRANCH   4   5
BRANCH   4  21
HETATM   21  C17 UNL     1       2.026 -11.518 -25.211  1.00  0.00     0.170 A
HETATM   22  N2  UNL     1       2.961 -12.476 -25.383  1.00  0.00    -0.279 N
HETATM   23  N3  UNL     1       3.839 -12.101 -26.283  1.00  0.00    -0.281 N
ATOM     24  H2  UNL     1       2.981 -13.365 -24.884  1.00  0.00     0.189 HD
HETATM   25  C18 UNL     1       3.468 -10.874 -26.706  1.00  0.00     0.143 A
ATOM     26  H3  UNL     1       4.647 -12.635 -26.601  1.00  0.00     0.189 HD
HETATM   27  O3  UNL     1       2.390 -10.563 -26.049  1.00  0.00    -0.279 OA
BRANCH  25  28
HETATM   28  C19 UNL     1       4.112 -10.010 -27.708  1.00  0.00     0.054 C
HETATM   29  C20 UNL     1       3.965  -8.534 -27.353  1.00  0.00     0.018 C
HETATM   30  C21 UNL     1       5.597 -10.292 -27.841  1.00  0.00     0.018 C
ENDBRANCH  25  28
ENDBRANCH   4  21
ENDBRANCH   1   4
TORSDOF 6
ENDMDL