MODEL 4
REMARK VINA RESULT: -8.086575980      2.192      5.307
REMARK  6 active torsions:
REMARK  status: ('A' for Active; 'I' for Inactive)
REMARK    1  A    between atoms: O1_2  and  C2_3
REMARK    2  A    between atoms: C6_7  and  O2_8
REMARK    3  A    between atoms: C7_10  and  O3_11
REMARK    4  A    between atoms: C12_16  and  O4_17
REMARK    5  A    between atoms: C14_19  and  O5_20
REMARK    6  A    between atoms: C16_22  and  O6_23
ROOT
HETATM    1  C2  UNL     1      -0.561  -5.354 -27.621  1.00  0.00     0.104 A
HETATM    2  C3  UNL     1      -0.738  -6.509 -26.903  1.00  0.00     0.050 A
HETATM    3  C4  UNL     1       0.176  -7.521 -26.969  1.00  0.00    -0.007 A
HETATM    4  C5  UNL     1       1.327  -7.405 -27.781  1.00  0.00     0.025 A
HETATM    5  C6  UNL     1       1.523  -6.259 -28.498  1.00  0.00     0.113 A
HETATM    6  C7  UNL     1       0.548  -5.243 -28.398  1.00  0.00     0.135 A
HETATM    7  C9  UNL     1       2.416  -8.359 -27.632  1.00  0.00     0.047 A
HETATM    8  C10 UNL     1       2.262  -9.316 -26.616  1.00  0.00     0.087 A
HETATM    9  C11 UNL     1       3.233 -10.271 -26.463  1.00  0.00     0.077 A
HETATM   10  C12 UNL     1       4.334 -10.296 -27.280  1.00  0.00     0.107 A
HETATM   11  C14 UNL     1       4.460  -9.356 -28.272  1.00  0.00     0.136 A
HETATM   12  C16 UNL     1       3.472  -8.363 -28.461  1.00  0.00     0.118 A
HETATM   13  O7  UNL     1       1.148  -9.322 -25.757  1.00  0.00    -0.335 OA
HETATM   14  C18 UNL     1      -0.079  -8.789 -26.192  1.00  0.00     0.088 C
HETATM   15  C19 UNL     1      -0.834  -8.366 -24.944  1.00  0.00     0.051 C
HETATM   16  C20 UNL     1      -0.923  -9.751 -26.966  1.00  0.00     0.051 C
ENDROOT
BRANCH   1  17
HETATM   17  O1  UNL     1      -1.465  -4.302 -27.588  1.00  0.00    -0.353 OA
HETATM   18  C1  UNL     1      -1.752  -3.808 -26.293  1.00  0.00     0.210 C
ENDBRANCH   1  17
BRANCH   6  19
HETATM   19  O3  UNL     1       0.725  -4.072 -29.126  1.00  0.00    -0.351 OA
HETATM   20  C8  UNL     1       1.126  -2.851 -28.581  1.00  0.00     0.210 C
ENDBRANCH   6  19
BRANCH   5  21
HETATM   21  O2  UNL     1       2.569  -5.979 -29.281  1.00  0.00    -0.357 OA
ATOM     22  H2  UNL     1       3.330  -5.460 -29.046  1.00  0.00     0.217 HD
ENDBRANCH   5  21
BRANCH  12  23
HETATM   23  O6  UNL     1       3.715  -7.540 -29.532  1.00  0.00    -0.352 OA
HETATM   24  C17 UNL     1       3.819  -8.253 -30.849  1.00  0.00     0.210 C
ENDBRANCH  12  23
BRANCH  11  25
HETATM   25  O5  UNL     1       5.555  -9.386 -29.080  1.00  0.00    -0.351 OA
HETATM   26  C15 UNL     1       6.028 -10.515 -29.776  1.00  0.00     0.210 C
ENDBRANCH  11  25
BRANCH  10  27
HETATM   27  O4  UNL     1       5.298 -11.274 -27.084  1.00  0.00    -0.353 OA
HETATM   28  C13 UNL     1       4.872 -12.619 -27.017  1.00  0.00     0.210 C
ENDBRANCH  10  27
TORSDOF 6
ENDMDL