MODEL 5
REMARK VINA RESULT: -7.127520440      1.924      2.310
REMARK  6 active torsions:
REMARK  status: ('A' for Active; 'I' for Inactive)
REMARK    1  A    between atoms: N1_2  and  C2_3
REMARK    2  A    between atoms: N1_2  and  C5_8
REMARK    3  A    between atoms: C2_3  and  C3_4
REMARK    4  A    between atoms: C3_4  and  C4_5
REMARK    5  A    between atoms: C4_5  and  O1_6
REMARK    6  A    between atoms: C5_8  and  C6_9
ROOT
HETATM    1  C6  UNL     1       9.735   9.458  -9.842  1.00  0.00     0.036 A
HETATM    2  C7  UNL     1       9.829  10.394 -10.897  1.00  0.00     0.128 A
HETATM    3  F1  UNL     1       8.765  11.216 -11.095  1.00  0.00    -0.205 F
HETATM    4  C8  UNL     1      10.933  10.395 -11.694  1.00  0.00     0.066 A
HETATM    5  C9  UNL     1      11.985   9.481 -11.505  1.00  0.00     0.062 A
HETATM    6  C10 UNL     1      13.040   9.625 -12.428  1.00  0.00     0.100 C
HETATM    7  N2  UNL     1      13.907   9.745 -13.232  1.00  0.00    -0.191 NA
HETATM    8  C11 UNL     1      11.863   8.603 -10.491  1.00  0.00     0.046 A
HETATM    9  C12 UNL     1      10.719   8.588  -9.628  1.00  0.00     0.059 A
HETATM   10  N3  UNL     1      10.675   7.911  -8.344  1.00  0.00    -0.347 N
ATOM     11  H3  UNL     1       9.774   7.766  -7.889  1.00  0.00     0.166 HD
HETATM   12  C13 UNL     1      11.879   7.436  -7.697  1.00  0.00     0.105 C
HETATM   13  S1  UNL     1      11.600   7.160  -6.081  1.00  0.00    -0.063 SA
HETATM   14  C14 UNL     1      13.235   7.130  -8.107  1.00  0.00     0.076 C
HETATM   15  C15 UNL     1      14.279   8.050  -7.551  1.00  0.00     0.046 C
HETATM   16  C16 UNL     1      13.564   5.752  -7.488  1.00  0.00     0.046 C
HETATM   17  N4  UNL     1      13.402   6.941  -9.529  1.00  0.00    -0.368 N
ATOM     18  H4  UNL     1      14.068   6.213  -9.789  1.00  0.00     0.161 HD
HETATM   19  C17 UNL     1      12.843   7.549 -10.528  1.00  0.00     0.091 C
HETATM   20  S2  UNL     1      13.274   6.985 -12.153  1.00  0.00    -0.032 SA
ENDROOT
BRANCH   1  21
HETATM   21  C5  UNL     1       8.403   9.457  -9.156  1.00  0.00     0.316 C
BRANCH  21  22
HETATM   22  N1  UNL     1       8.528  10.301  -7.992  1.00  0.00     0.088 N
HETATM   23  C1  UNL     1       8.161   9.590  -6.746  1.00  0.00     0.310 C
BRANCH  22  24
HETATM   24  C2  UNL     1       7.781  11.521  -8.024  1.00  0.00     0.274 C
BRANCH  24  25
HETATM   25  C3  UNL     1       6.300  11.269  -8.315  1.00  0.00     0.056 C
BRANCH  25  26
HETATM   26  C4  UNL     1       5.464  12.489  -8.067  1.00  0.00     0.165 C
BRANCH  26  27
HETATM   27  O1  UNL     1       4.210  12.344  -8.687  1.00  0.00    -0.401 OA
ATOM     28  H1  UNL     1       3.555  12.108  -8.040  1.00  0.00     0.209 HD
ENDBRANCH  26  27
ENDBRANCH  25  26
ENDBRANCH  24  25
ENDBRANCH  22  24
ENDBRANCH  21  22
ENDBRANCH   1  21
TORSDOF 6
ENDMDL