MODEL 4
REMARK VINA RESULT: -7.843287502      2.544      5.337
REMARK  7 active torsions:
REMARK  status: ('A' for Active; 'I' for Inactive)
REMARK    1  A    between atoms: C2_2  and  C4_4
REMARK    2  A    between atoms: C4_4  and  N1_5
REMARK    3  A    between atoms: C7_10  and  N3_11
REMARK    4  A    between atoms: C8_16  and  S1_17
REMARK    5  A    between atoms: S1_17  and  C9_18
REMARK    6  A    between atoms: C9_18  and  C11_20
REMARK       I    between atoms: C11_20  and  N5_22
REMARK    7  A    between atoms: N5_22  and  C12_24
ROOT
HETATM    1  N1  UNL     1      14.871   6.597 -11.312  1.00  0.00    -0.276 N
HETATM    2  N2  UNL     1      15.396   5.412 -11.533  1.00  0.00    -0.307 N
ATOM      3  H2  UNL     1      15.862   5.143 -12.399  1.00  0.00     0.186 HD
HETATM    4  C5  UNL     1      15.241   4.606 -10.479  1.00  0.00     0.126 A
HETATM    5  C6  UNL     1      14.573   5.317  -9.516  1.00  0.00     0.070 A
HETATM    6  C7  UNL     1      14.152   4.979  -8.226  1.00  0.00     0.116 A
HETATM    7  N4  UNL     1      13.516   5.931  -7.535  1.00  0.00    -0.322 N
ATOM      8  H4  UNL     1      13.195   5.717  -6.591  1.00  0.00     0.169 HD
HETATM    9  C8  UNL     1      13.281   7.163  -8.034  1.00  0.00     0.148 A
HETATM   10  N6  UNL     1      13.706   7.452  -9.290  1.00  0.00    -0.321 N
ATOM     11  H6  UNL     1      13.526   8.385  -9.663  1.00  0.00     0.169 HD
HETATM   12  C15 UNL     1      14.358   6.560 -10.070  1.00  0.00     0.139 A
ENDROOT
BRANCH   9  13
HETATM   13  S1  UNL     1      12.429   8.416  -7.088  1.00  0.00    -0.080 SA
BRANCH  13  14
HETATM   14  C9  UNL     1      10.700   8.489  -7.612  1.00  0.00     0.143 C
HETATM   15  C10 UNL     1       9.922   9.534  -6.840  1.00  0.00     0.031 C
BRANCH  14  16
HETATM   16  C11 UNL     1      10.579   8.795  -9.058  1.00  0.00     0.233 C
HETATM   17  O1  UNL     1      10.648   7.849  -9.903  1.00  0.00    -0.272 OA
HETATM   18  N5  UNL     1      10.388  10.140  -9.469  1.00  0.00    -0.338 N
ATOM     19  H5  UNL     1      10.338  10.863  -8.751  1.00  0.00     0.164 HD
BRANCH  18  20
HETATM   20  C12 UNL     1      10.260  10.534 -10.844  1.00  0.00     0.102 C
HETATM   21  C13 UNL     1       9.169   9.778 -11.571  1.00  0.00     0.056 C
HETATM   22  C14 UNL     1       9.914  12.003 -10.905  1.00  0.00     0.056 C
HETATM   23 CL1  UNL     1      11.829  10.322 -11.678  1.00  0.00    -0.096 Cl
ENDBRANCH  18  20
ENDBRANCH  14  16
ENDBRANCH  13  14
ENDBRANCH   9  13
BRANCH   6  24
HETATM   24  N3  UNL     1      14.378   3.799  -7.752  1.00  0.00    -0.385 N
ATOM     25  H32 UNL     1      14.909   3.090  -8.258  1.00  0.00     0.157 HD
ATOM     26  H31 UNL     1      14.023   3.535  -6.833  1.00  0.00     0.157 HD
ENDBRANCH   6  24
BRANCH   1  27
HETATM   27  C4  UNL     1      14.827   7.733 -12.216  1.00  0.00     0.154 C
BRANCH  27  28
HETATM   28  C2  UNL     1      15.747   7.608 -13.397  1.00  0.00    -0.003 C
HETATM   29  C1  UNL     1      16.898   8.561 -13.155  1.00  0.00     0.011 C
HETATM   30  C3  UNL     1      15.137   7.910 -14.720  1.00  0.00     0.011 C
ENDBRANCH  27  28
ENDBRANCH   1  27
TORSDOF 7
ENDMDL