MODEL 3
REMARK VINA RESULT: -8.148942693      4.125      8.046
REMARK  6 active torsions:
REMARK  status: ('A' for Active; 'I' for Inactive)
REMARK    1  A    between atoms: C2_2  and  N1_4
REMARK       I    between atoms: N1_4  and  C4_6
REMARK       I    between atoms: C4_6  and  N2_8
REMARK    2  A    between atoms: N2_8  and  C5_9
REMARK    3  A    between atoms: N2_8  and  C7_12
REMARK    4  A    between atoms: C7_12  and  C8_13
REMARK       I    between atoms: C8_13  and  N4_15
REMARK    5  A    between atoms: N5_17  and  C9_19
REMARK    6  A    between atoms: C10_20  and  O3_21
ROOT
HETATM    1  C5  UNL     1       7.977  10.051  -7.811  1.00  0.00     0.252 C
HETATM    2  C6  UNL     1       9.299   9.572  -7.393  1.00  0.00     0.079 C
HETATM    3  N3  UNL     1      10.340   9.177  -7.069  1.00  0.00    -0.196 NA
ENDROOT
BRANCH   1   4
HETATM    4  N2  UNL     1       8.153  11.005  -8.881  1.00  0.00    -0.313 N
HETATM    5  C4  UNL     1       8.049  12.390  -8.633  1.00  0.00     0.319 C
HETATM    6  N1  UNL     1       8.220  13.362  -9.685  1.00  0.00    -0.339 N
HETATM    7  O1  UNL     1       7.801  12.782  -7.466  1.00  0.00    -0.247 OA
ATOM      8  H1  UNL     1       8.420  13.041 -10.632  1.00  0.00     0.164 HD
BRANCH   6   9
HETATM    9  C2  UNL     1       8.112  14.777  -9.426  1.00  0.00     0.078 C
HETATM   10  C1  UNL     1       9.495  15.384  -9.542  1.00  0.00     0.032 C
HETATM   11  C3  UNL     1       7.160  15.385 -10.460  1.00  0.00     0.032 C
ENDBRANCH   6   9
BRANCH   4  12
HETATM   12  C7  UNL     1       8.442  10.469 -10.208  1.00  0.00     0.233 C
BRANCH  12  13
HETATM   13  C8  UNL     1       9.872  10.628 -10.537  1.00  0.00     0.254 C
HETATM   14  O2  UNL     1      10.275  11.736 -10.948  1.00  0.00    -0.270 OA
HETATM   15  N4  UNL     1      10.761   9.563 -10.394  1.00  0.00    -0.268 N
HETATM   16  N5  UNL     1      11.700   9.252 -11.157  1.00  0.00    -0.293 N
ATOM     17  H4  UNL     1      10.629   8.971  -9.574  1.00  0.00     0.190 HD
ATOM     18  H5  UNL     1      11.893   9.799 -11.996  1.00  0.00     0.187 HD
BRANCH  16  19
HETATM   19  C9  UNL     1      12.491   8.124 -10.830  1.00  0.00     0.112 A
HETATM   20  C10 UNL     1      12.093   7.173  -9.913  1.00  0.00     0.170 A
HETATM   21  N6  UNL     1      13.066   6.247  -9.839  1.00  0.00    -0.329 N
HETATM   22  C11 UNL     1      14.071   6.611 -10.702  1.00  0.00     0.090 A
ATOM     23  H6  UNL     1      13.059   5.418  -9.245  1.00  0.00     0.168 HD
HETATM   24  S1  UNL     1      15.599   6.219 -11.342  1.00  0.00    -0.059 SA
HETATM   25  C14 UNL     1      13.757   7.773 -11.341  1.00  0.00     0.032 A
HETATM   26  C12 UNL     1      15.809   7.534 -12.404  1.00  0.00     0.077 A
HETATM   27 CL1  UNL     1      17.168   7.902 -13.483  1.00  0.00    -0.076 Cl
HETATM   28  C13 UNL     1      14.662   8.258 -12.230  1.00  0.00     0.048 A
BRANCH  20  29
HETATM   29  O3  UNL     1      10.924   7.113  -9.167  1.00  0.00    -0.344 OA
ATOM     30  H3  UNL     1      10.803   7.235  -8.233  1.00  0.00     0.219 HD
ENDBRANCH  20  29
ENDBRANCH  16  19
ENDBRANCH  12  13
ENDBRANCH   4  12
ENDBRANCH   1   4
TORSDOF 6
ENDMDL