MODEL 2
REMARK VINA RESULT: -9.165972602      5.482      9.519
REMARK  5 active torsions:
REMARK  status: ('A' for Active; 'I' for Inactive)
REMARK    1  A    between atoms: C3_6  and  N2_7
REMARK    2  A    between atoms: N2_7  and  S1_9
REMARK    3  A    between atoms: S1_9  and  C4_12
REMARK    4  A    between atoms: C7_15  and  N3_16
REMARK    5  A    between atoms: N4_18  and  C8_20
ROOT
HETATM    1  C4  UNL     1       9.014   9.760  -8.951  1.00  0.00     0.080 A
HETATM    2  C5  UNL     1      10.021   9.211  -8.181  1.00  0.00     0.027 A
HETATM    3  C6  UNL     1      11.188   8.760  -8.753  1.00  0.00     0.032 A
HETATM    4  C7  UNL     1      11.415   8.831 -10.111  1.00  0.00     0.048 A
HETATM    5  C14 UNL     1      10.419   9.376 -10.891  1.00  0.00     0.032 A
HETATM    6  C15 UNL     1       9.248   9.828 -10.321  1.00  0.00     0.027 A
ENDROOT
BRANCH   1   7
HETATM    7  S1  UNL     1       7.571  10.349  -8.197  1.00  0.00     0.263 S
HETATM    8  O2  UNL     1       6.437   9.367  -8.408  1.00  0.00    -0.200 OA
HETATM    9  O3  UNL     1       7.871  10.385  -6.697  1.00  0.00    -0.200 OA
BRANCH   7  10
HETATM   10  N2  UNL     1       7.146  11.904  -8.744  1.00  0.00    -0.274 N
ATOM     11  H2  UNL     1       6.263  11.992  -9.246  1.00  0.00     0.179 HD
BRANCH  10  12
HETATM   12  C3  UNL     1       7.893  13.068  -8.570  1.00  0.00     0.126 A
HETATM   13  C2  UNL     1       7.935  13.744  -7.383  1.00  0.00     0.128 A
HETATM   14  N1  UNL     1       8.706  14.869  -7.258  1.00  0.00    -0.316 N
HETATM   15  C1  UNL     1       9.431  15.321  -8.303  1.00  0.00     0.327 A
ATOM     16  H1  UNL     1       8.732  15.370  -6.369  1.00  0.00     0.170 HD
HETATM   17  O1  UNL     1      10.143  16.370  -8.171  1.00  0.00    -0.247 OA
HETATM   18  N5  UNL     1       9.411  14.674  -9.486  1.00  0.00    -0.274 N
HETATM   19  C16 UNL     1       8.649  13.557  -9.622  1.00  0.00     0.278 A
ATOM     20  H5  UNL     1       9.962  15.020 -10.272  1.00  0.00     0.173 HD
HETATM   21  O4  UNL     1       8.666  12.990 -10.747  1.00  0.00    -0.265 OA
ENDBRANCH  10  12
ENDBRANCH   7  10
ENDBRANCH   1   7
BRANCH   4  22
HETATM   22  N3  UNL     1      12.628   8.362 -10.694  1.00  0.00    -0.300 N
HETATM   23  N4  UNL     1      13.150   8.926 -11.679  1.00  0.00    -0.300 N
ATOM     24  H4  UNL     1      12.710   9.748 -12.092  1.00  0.00     0.187 HD
ATOM     25  H3  UNL     1      13.083   7.541 -10.295  1.00  0.00     0.187 HD
BRANCH  23  26
HETATM   26  C8  UNL     1      14.361   8.415 -12.222  1.00  0.00     0.048 A
HETATM   27  C9  UNL     1      14.938   8.998 -13.322  1.00  0.00     0.034 A
HETATM   28  C10 UNL     1      16.120   8.524 -13.876  1.00  0.00     0.044 A
HETATM   29  C11 UNL     1      16.715   7.426 -13.278  1.00  0.00     0.116 A
HETATM   30  F1  UNL     1      17.882   6.942 -13.806  1.00  0.00    -0.206 F
HETATM   31  C12 UNL     1      16.137   6.837 -12.168  1.00  0.00     0.044 A
HETATM   32  C13 UNL     1      14.949   7.322 -11.621  1.00  0.00     0.034 A
ENDBRANCH  23  26
ENDBRANCH   4  22
TORSDOF 5
ENDMDL