MODEL 5
REMARK VINA RESULT: -8.264343027      1.718      2.345
REMARK  8 active torsions:
REMARK  status: ('A' for Active; 'I' for Inactive)
REMARK    1  A    between atoms: C2_2  and  C3_3
REMARK    2  A    between atoms: C4_4  and  N1_5
REMARK    3  A    between atoms: N1_5  and  C5_7
REMARK    4  A    between atoms: C5_7  and  C6_12
REMARK    5  A    between atoms: N2_8  and  O1_10
REMARK    6  A    between atoms: C8_15  and  C9_16
REMARK    7  A    between atoms: C13_22  and  O2_23
REMARK    8  A    between atoms: O2_23  and  C14_24
REMARK       I    between atoms: C14_24  and  N4_26
ROOT
HETATM    1  N1  UNL     1      13.284   7.377  -8.473  1.00  0.00    -0.365 N
ATOM      2  H1  UNL     1      14.155   7.769  -8.115  1.00  0.00     0.161 HD
ENDROOT
BRANCH   1   3
HETATM    3  C4  UNL     1      13.304   6.738  -9.756  1.00  0.00     0.123 C
HETATM    4  C3  UNL     1      14.117   7.570 -10.796  1.00  0.00     0.053 C
HETATM    5  C16 UNL     1      14.238   6.218 -11.501  1.00  0.00     0.134 C
HETATM    6  C13 UNL     1      14.360   5.702 -10.018  1.00  0.00     0.196 C
HETATM    7  C17 UNL     1      15.501   5.974 -12.249  1.00  0.00     0.055 C
HETATM    8  F1  UNL     1      13.085   5.693 -11.992  1.00  0.00    -0.240 F
BRANCH   4   9
HETATM    9  C2  UNL     1      13.384   8.613 -11.512  1.00  0.00     0.006 C
HETATM   10  C1  UNL     1      13.955   9.126 -12.786  1.00  0.00     0.006 C
ENDBRANCH   4   9
BRANCH   6  11
HETATM   11  O2  UNL     1      14.033   4.347  -9.940  1.00  0.00    -0.293 OA
BRANCH  11  12
HETATM   12  C14 UNL     1      14.557   3.560  -8.893  1.00  0.00     0.360 C
HETATM   13  O3  UNL     1      15.166   2.517  -9.224  1.00  0.00    -0.239 OA
HETATM   14  N4  UNL     1      14.433   3.870  -7.530  1.00  0.00    -0.341 N
HETATM   15  C15 UNL     1      14.990   2.999  -6.518  1.00  0.00     0.151 C
ATOM     16  H4  UNL     1      13.944   4.720  -7.249  1.00  0.00     0.164 HD
ENDBRANCH  11  12
ENDBRANCH   6  11
ENDBRANCH   1   3
BRANCH   1  17
HETATM   17  C5  UNL     1      12.141   7.492  -7.691  1.00  0.00     0.149 C
HETATM   18  N2  UNL     1      11.944   6.802  -6.616  1.00  0.00    -0.251 N
ATOM     19  H2  UNL     1      11.085   6.932  -6.084  1.00  0.00     0.196 HD
BRANCH  18  20
HETATM   20  O1  UNL     1      12.880   5.898  -6.184  1.00  0.00    -0.288 OA
ATOM     21  H1  UNL     1      12.671   4.973  -6.130  1.00  0.00     0.244 HD
ENDBRANCH  18  20
BRANCH  17  22
HETATM   22  C6  UNL     1      11.037   8.460  -7.959  1.00  0.00     0.085 A
HETATM   23  C7  UNL     1      10.051   8.682  -7.041  1.00  0.00     0.085 A
HETATM   24  S1  UNL     1       9.057   9.805  -7.888  1.00  0.00    -0.085 SA
HETATM   25  C8  UNL     1       9.965   9.903  -9.335  1.00  0.00     0.059 A
HETATM   26  N3  UNL     1      10.967   9.085  -9.097  1.00  0.00    -0.350 N
ATOM     27  H3  UNL     1      11.688   8.942  -9.803  1.00  0.00     0.166 HD
BRANCH  25  28
HETATM   28  C9  UNL     1       9.696  10.699 -10.588  1.00  0.00    -0.002 C
HETATM   29  C10 UNL     1      10.988  11.222 -11.170  1.00  0.00     0.021 C
HETATM   30  C11 UNL     1       8.819  11.851 -10.224  1.00  0.00     0.021 C
HETATM   31  C12 UNL     1       9.061   9.746 -11.576  1.00  0.00     0.021 C
ENDBRANCH  25  28
ENDBRANCH  17  22
ENDBRANCH   1  17
TORSDOF 8
ENDMDL