MODEL 1
REMARK VINA RESULT: -7.625631206      0.000      0.000
REMARK  8 active torsions:
REMARK  status: ('A' for Active; 'I' for Inactive)
REMARK    1  A    between atoms: C2_2  and  O1_3
REMARK    2  A    between atoms: O1_3  and  C3_4
REMARK    3  A    between atoms: C3_4  and  C4_6
REMARK    4  A    between atoms: C5_7  and  N1_8
REMARK    5  A    between atoms: N1_8  and  C6_10
REMARK    6  A    between atoms: C6_10  and  C7_14
REMARK    7  A    between atoms: C7_14  and  C8_15
REMARK    8  A    between atoms: C8_15  and  O4_17
ROOT
HETATM    1  C4  UNL     1      13.094   8.769  -9.456  1.00  0.00     0.080 A
HETATM    2  C5  UNL     1      13.858   7.782 -10.041  1.00  0.00     0.092 A
HETATM    3  S1  UNL     1      13.421   7.906 -11.711  1.00  0.00    -0.072 SA
HETATM    4  C10 UNL     1      12.313   9.176 -11.611  1.00  0.00     0.029 A
HETATM    5  C11 UNL     1      12.295   9.487 -10.279  1.00  0.00    -0.020 A
HETATM    6  C12 UNL     1      11.336  10.611  -9.950  1.00  0.00     0.070 C
HETATM    7  C13 UNL     1      10.027  10.427 -10.674  1.00  0.00     0.024 C
HETATM    8  C14 UNL     1       9.142   9.446  -9.930  1.00  0.00     0.038 C
HETATM    9  C15 UNL     1       9.318  11.766 -10.635  1.00  0.00     0.038 C
HETATM   10  N3  UNL     1      10.127  10.009 -12.020  1.00  0.00    -0.393 N
ATOM     11  H3  UNL     1       9.307   9.758 -12.571  1.00  0.00     0.155 HD
HETATM   12  C16 UNL     1      11.445   9.961 -12.559  1.00  0.00     0.216 C
HETATM   13 CL1  UNL     1      12.099  11.557 -12.890  1.00  0.00    -0.097 Cl
ENDROOT
BRANCH   2  14
HETATM   14  N1  UNL     1      14.789   6.861  -9.471  1.00  0.00    -0.339 N
ATOM     15  H1  UNL     1      15.760   7.133  -9.323  1.00  0.00     0.167 HD
BRANCH  14  16
HETATM   16  C6  UNL     1      14.343   5.560  -9.113  1.00  0.00     0.085 C
HETATM   17  N2  UNL     1      13.300   5.484  -8.311  1.00  0.00    -0.388 N
ATOM     18  H22 UNL     1      12.891   6.364  -7.995  1.00  0.00     0.157 HD
ATOM     19  H21 UNL     1      12.980   4.551  -8.054  1.00  0.00     0.157 HD
BRANCH  16  20
HETATM   20  C7  UNL     1      14.928   4.299  -9.565  1.00  0.00     0.187 C
BRANCH  20  21
HETATM   21  C8  UNL     1      14.685   3.170  -8.641  1.00  0.00     0.265 C
HETATM   22  O3  UNL     1      13.774   2.365  -8.814  1.00  0.00    -0.265 OA
BRANCH  21  23
HETATM   23  O4  UNL     1      15.503   2.993  -7.528  1.00  0.00    -0.326 OA
HETATM   24  C9  UNL     1      14.951   2.976  -6.210  1.00  0.00     0.213 C
ENDBRANCH  21  23
ENDBRANCH  20  21
ENDBRANCH  16  20
ENDBRANCH  14  16
ENDBRANCH   2  14
BRANCH   1  25
HETATM   25  C3  UNL     1      13.211   8.983  -7.977  1.00  0.00     0.296 C
HETATM   26  O2  UNL     1      13.919   9.884  -7.479  1.00  0.00    -0.259 OA
BRANCH  25  27
HETATM   27  O1  UNL     1      12.541   8.201  -7.052  1.00  0.00    -0.318 OA
BRANCH  27  28
HETATM   28  C2  UNL     1      11.142   8.111  -7.007  1.00  0.00     0.174 C
HETATM   29  C1  UNL     1      10.465   9.295  -6.406  1.00  0.00     0.034 C
ENDBRANCH  27  28
ENDBRANCH  25  27
ENDBRANCH   1  25
TORSDOF 8
ENDMDL