MODEL 5
REMARK VINA RESULT: -9.308434839      4.313      6.856
REMARK  5 active torsions:
REMARK  status: ('A' for Active; 'I' for Inactive)
REMARK    1  A    between atoms: C1_2  and  C2_4
REMARK    2  A    between atoms: C3_5  and  C4_6
REMARK    3  A    between atoms: C12_21  and  C13_22
REMARK    4  A    between atoms: C16_25  and  C17_26
REMARK    5  A    between atoms: N4_27  and  O4_29
ROOT
HETATM    1  C2  UNL     1      12.585   8.236  -9.430  1.00  0.00     0.079 A
HETATM    2  C3  UNL     1      12.619   8.399 -10.773  1.00  0.00     0.104 A
HETATM    3  O2  UNL     1      11.420   8.827 -11.142  1.00  0.00    -0.290 OA
HETATM    4  C10 UNL     1      10.603   8.960 -10.164  1.00  0.00     0.175 A
HETATM    5  N2  UNL     1       9.316   9.360 -10.132  1.00  0.00    -0.276 N
ATOM      6  H2  UNL     1       8.841   9.623 -10.995  1.00  0.00     0.189 HD
HETATM    7  N3  UNL     1       8.675   9.410  -8.985  1.00  0.00    -0.264 N
ATOM      8  H3  UNL     1       7.702   9.715  -8.971  1.00  0.00     0.190 HD
HETATM    9  C11 UNL     1       9.265   9.074  -7.846  1.00  0.00     0.272 A
HETATM   10  O3  UNL     1       8.657   9.114  -6.726  1.00  0.00    -0.266 OA
HETATM   11  C12 UNL     1      10.609   8.652  -7.844  1.00  0.00     0.059 A
HETATM   12  C20 UNL     1      11.296   8.591  -9.005  1.00  0.00     0.051 A
ENDROOT
BRANCH  11  13
HETATM   13  C13 UNL     1      11.193   8.260  -6.574  1.00  0.00    -0.019 A
HETATM   14  C14 UNL     1      11.159   6.974  -6.129  1.00  0.00     0.013 A
HETATM   15  C15 UNL     1      11.661   6.674  -4.885  1.00  0.00     0.014 A
HETATM   16  C16 UNL     1      12.205   7.636  -4.058  1.00  0.00    -0.019 A
HETATM   17  C18 UNL     1      12.241   8.934  -4.501  1.00  0.00     0.014 A
HETATM   18  C19 UNL     1      11.732   9.250  -5.770  1.00  0.00     0.013 A
BRANCH  16  19
HETATM   19  C17 UNL     1      12.738   7.253  -2.735  1.00  0.00     0.125 C
HETATM   20  N4  UNL     1      13.686   6.402  -2.655  1.00  0.00    -0.280 N
ATOM     21  H4  UNL     1      14.057   6.003  -3.516  1.00  0.00     0.193 HD
BRANCH  20  22
HETATM   22  O4  UNL     1      14.219   6.008  -1.478  1.00  0.00    -0.290 OA
ATOM     23  H4  UNL     1      15.154   6.001  -1.313  1.00  0.00     0.244 HD
ENDBRANCH  20  22
ENDBRANCH  16  19
ENDBRANCH  11  13
BRANCH   1  24
HETATM   24  C1  UNL     1      13.628   7.709  -8.578  1.00  0.00     0.268 C
HETATM   25  N1  UNL     1      13.903   6.336  -8.351  1.00  0.00    -0.057 NA
HETATM   26  O1  UNL     1      14.408   8.517  -7.927  1.00  0.00    -0.271 OA
ENDBRANCH   1  24
BRANCH   2  27
HETATM   27  C4  UNL     1      13.676   8.182 -11.734  1.00  0.00    -0.001 A
HETATM   28  C5  UNL     1      14.261   6.893 -11.810  1.00  0.00     0.017 A
HETATM   29  C6  UNL     1      15.237   6.533 -12.678  1.00  0.00     0.043 A
HETATM   30  C7  UNL     1      15.688   7.506 -13.551  1.00  0.00     0.116 A
HETATM   31  F1  UNL     1      16.664   7.152 -14.421  1.00  0.00    -0.206 F
HETATM   32  C8  UNL     1      15.148   8.760 -13.509  1.00  0.00     0.043 A
HETATM   33  C9  UNL     1      14.145   9.113 -12.611  1.00  0.00     0.017 A
ENDBRANCH   2  27
TORSDOF 5
ENDMDL