MODEL 2
REMARK VINA RESULT: -8.292659936      4.782      7.665
REMARK  6 active torsions:
REMARK  status: ('A' for Active; 'I' for Inactive)
REMARK    1  A    between atoms: O1_2  and  C2_3
REMARK    2  A    between atoms: C4_5  and  C5_6
REMARK    3  A    between atoms: C5_6  and  N1_7
REMARK    4  A    between atoms: C11_16  and  N3_17
REMARK    5  A    between atoms: C14_25  and  O2_26
REMARK    6  A    between atoms: C16_28  and  O3_29
ROOT
HETATM    1  N1  UNL     1       8.957  10.940 -10.420  1.00  0.00    -0.337 N
HETATM    2  C6  UNL     1       9.026  12.262 -10.569  1.00  0.00     0.100 A
HETATM    3  C7  UNL     1       8.581  12.912  -9.436  1.00  0.00    -0.029 A
HETATM    4  C8  UNL     1       8.485  14.368  -9.167  1.00  0.00     0.050 C
HETATM    5  C9  UNL     1       8.220  11.927  -8.550  1.00  0.00     0.054 A
HETATM    6  C10 UNL     1       7.712  11.989  -7.272  1.00  0.00     0.131 A
HETATM    7  S1  UNL     1       7.442  13.432  -6.563  1.00  0.00    -0.059 SA
HETATM    8  N2  UNL     1       7.437  10.858  -6.604  1.00  0.00    -0.181 N
ATOM      9  H2  UNL     1       7.060  10.889  -5.657  1.00  0.00     0.185 HD
HETATM   10  C11 UNL     1       7.673   9.666  -7.220  1.00  0.00     0.678 A
HETATM   11  N4  UNL     1       8.170   9.608  -8.468  1.00  0.00    -0.176 N
ATOM     12  H4  UNL     1       8.330   8.694  -8.889  1.00  0.00     0.186 HD
HETATM   13  C12 UNL     1       8.465  10.723  -9.189  1.00  0.00     0.137 A
ENDROOT
BRANCH   1  14
HETATM   14  C5  UNL     1       9.312   9.940 -11.360  1.00  0.00     0.172 C
BRANCH  14  15
HETATM   15  C4  UNL     1      10.660   9.388 -11.276  1.00  0.00     0.004 A
HETATM   16  C3  UNL     1      10.896   8.396 -10.325  1.00  0.00     0.051 A
HETATM   17  C2  UNL     1      12.139   7.820 -10.165  1.00  0.00     0.105 A
HETATM   18  C16 UNL     1      13.202   8.215 -10.952  1.00  0.00     0.138 A
HETATM   19  C14 UNL     1      12.955   9.194 -11.885  1.00  0.00     0.143 A
HETATM   20  C13 UNL     1      11.707   9.779 -12.054  1.00  0.00     0.160 A
HETATM   21  F1  UNL     1      11.485  10.736 -12.982  1.00  0.00    -0.202 F
BRANCH  17  22
HETATM   22  O1  UNL     1      12.359   6.822  -9.202  1.00  0.00    -0.353 OA
HETATM   23  C1  UNL     1      12.194   7.044  -7.829  1.00  0.00     0.210 C
ENDBRANCH  17  22
BRANCH  18  24
HETATM   24  O3  UNL     1      14.428   7.610 -10.755  1.00  0.00    -0.351 OA
HETATM   25  C17 UNL     1      14.887   6.470 -11.407  1.00  0.00     0.210 C
ENDBRANCH  18  24
BRANCH  19  26
HETATM   26  O2  UNL     1      13.971   9.622 -12.689  1.00  0.00    -0.350 OA
HETATM   27  C15 UNL     1      14.300   9.089 -13.952  1.00  0.00     0.210 C
ENDBRANCH  19  26
ENDBRANCH  14  15
ENDBRANCH   1  14
BRANCH  10  28
HETATM   28  N3  UNL     1       7.406   8.577  -6.571  1.00  0.00    -0.234 N
ATOM     29  H32 UNL     1       6.698   8.575  -5.837  1.00  0.00     0.174 HD
ATOM     30  H31 UNL     1       7.921   7.731  -6.814  1.00  0.00     0.174 HD
ENDBRANCH  10  28
TORSDOF 6
ENDMDL