MODEL 3
REMARK VINA RESULT: -8.754818311      3.371      4.001
REMARK  5 active torsions:
REMARK  status: ('A' for Active; 'I' for Inactive)
REMARK    1  A    between atoms: C2_3  and  C3_4
REMARK    2  A    between atoms: C3_4  and  C4_6
REMARK    3  A    between atoms: C11_14  and  O2_15
REMARK    4  A    between atoms: C16_21  and  C17_22
REMARK    5  A    between atoms: C20_27  and  N2_28
ROOT
HETATM    1  N1  UNL     1      10.264   9.306  -7.262  1.00  0.00    -0.099 NA
HETATM    2  C1  UNL     1      10.249   9.448  -8.683  1.00  0.00     0.094 A
HETATM    3  C2  UNL     1       9.118   9.978  -9.334  1.00  0.00     0.044 A
HETATM    4  C10 UNL     1       9.210  10.059 -10.700  1.00  0.00     0.055 A
HETATM    5  C11 UNL     1      10.328   9.658 -11.442  1.00  0.00     0.080 A
HETATM    6  C12 UNL     1      11.396   9.152 -10.759  1.00  0.00     0.042 A
HETATM    7  C13 UNL     1      12.591   8.694 -11.418  1.00  0.00    -0.021 A
HETATM    8  C14 UNL     1      13.587   9.552 -11.787  1.00  0.00     0.013 A
HETATM    9  C15 UNL     1      14.739   9.069 -12.401  1.00  0.00     0.019 A
HETATM   10  C16 UNL     1      14.889   7.711 -12.647  1.00  0.00     0.040 A
HETATM   11  C18 UNL     1      13.856   6.884 -12.259  1.00  0.00     0.019 A
HETATM   12  C19 UNL     1      12.699   7.315 -11.648  1.00  0.00     0.013 A
HETATM   13  C20 UNL     1      11.365   9.041  -9.366  1.00  0.00     0.141 A
ENDROOT
BRANCH   3  14
HETATM   14  C3  UNL     1       7.978  10.335  -8.538  1.00  0.00     0.194 C
HETATM   15  O1  UNL     1       7.107   9.391  -8.355  1.00  0.00    -0.287 OA
BRANCH  14  16
HETATM   16  C4  UNL     1       7.623  11.569  -7.897  1.00  0.00     0.015 A
HETATM   17  C5  UNL     1       7.273  11.626  -6.577  1.00  0.00     0.018 A
HETATM   18  C6  UNL     1       6.965  12.834  -5.936  1.00  0.00     0.043 A
HETATM   19  C7  UNL     1       7.022  13.992  -6.674  1.00  0.00     0.116 A
HETATM   20  F1  UNL     1       6.737  15.195  -6.116  1.00  0.00    -0.206 F
HETATM   21  C8  UNL     1       7.380  13.927  -8.025  1.00  0.00     0.043 A
HETATM   22  C9  UNL     1       7.679  12.753  -8.650  1.00  0.00     0.018 A
ENDBRANCH  14  16
ENDBRANCH   3  14
BRANCH  13  23
HETATM   23  N2  UNL     1      12.489   8.529  -8.647  1.00  0.00    -0.113 N
HETATM   24  O5  UNL     1      13.384   9.309  -8.324  1.00  0.00    -0.532 OA
HETATM   25  O6  UNL     1      12.599   7.208  -8.307  1.00  0.00    -0.532 OA
ENDBRANCH  13  23
BRANCH   5  26
HETATM   26  O2  UNL     1      10.332   9.778 -12.844  1.00  0.00    -0.360 OA
ATOM     27  H2  UNL     1      11.006   9.353 -13.361  1.00  0.00     0.217 HD
ENDBRANCH   5  26
BRANCH  10  28
HETATM   28  C17 UNL     1      16.097   7.163 -13.287  1.00  0.00     0.209 C
HETATM   29  O3  UNL     1      17.016   6.779 -12.516  1.00  0.00    -0.644 OA
HETATM   30  O4  UNL     1      16.235   7.067 -14.643  1.00  0.00    -0.644 OA
ENDBRANCH  10  28
TORSDOF 5
ENDMDL