MODEL 5
REMARK VINA RESULT: -8.103253895      7.756     10.158
REMARK  7 active torsions:
REMARK  status: ('A' for Active; 'I' for Inactive)
REMARK    1  A    between atoms: C2_2  and  C5_5
REMARK    2  A    between atoms: C5_5  and  S1_6
REMARK    3  A    between atoms: C5_5  and  C15_25
REMARK    4  A    between atoms: S1_6  and  C6_7
REMARK       I    between atoms: N3_13  and  C8_15
REMARK    5  A    between atoms: C8_15  and  C9_17
REMARK    6  A    between atoms: C15_25  and  O2_26
REMARK    7  A    between atoms: N4_28  and  O3_30
ROOT
HETATM    1  C6  UNL     1       9.802  10.938 -10.603  1.00  0.00     0.130 A
HETATM    2  N1  UNL     1      10.116  11.843 -11.517  1.00  0.00    -0.286 N
ATOM      3  H1  UNL     1       9.487  12.629 -11.689  1.00  0.00     0.188 HD
HETATM    4  N2  UNL     1      11.193  11.739 -12.181  1.00  0.00    -0.278 N
ATOM      5  H2  UNL     1      11.441  12.433 -12.885  1.00  0.00     0.189 HD
HETATM    6  C7  UNL     1      11.996  10.697 -11.934  1.00  0.00     0.168 A
HETATM    7  N3  UNL     1      13.143  10.414 -12.511  1.00  0.00    -0.302 N
ATOM      8  H3  UNL     1      13.522  11.020 -13.239  1.00  0.00     0.171 HD
HETATM    9  C8  UNL     1      13.837   9.260 -12.103  1.00  0.00     0.257 C
HETATM   10  O1  UNL     1      13.872   8.896 -10.905  1.00  0.00    -0.267 OA
HETATM   11  S2  UNL     1      11.137   9.876 -10.709  1.00  0.00    -0.026 SA
ENDROOT
BRANCH   1  12
HETATM   12  S1  UNL     1       8.331  10.891  -9.550  1.00  0.00    -0.089 SA
BRANCH  12  13
HETATM   13  C5  UNL     1       8.326  12.308  -8.418  1.00  0.00     0.138 C
BRANCH  13  14
HETATM   14  C2  UNL     1       7.007  12.289  -7.676  1.00  0.00    -0.031 C
HETATM   15  C1  UNL     1       6.259  13.594  -7.832  1.00  0.00     0.016 C
HETATM   16  C3  UNL     1       6.172  11.127  -8.187  1.00  0.00     0.016 C
HETATM   17  C4  UNL     1       7.228  12.060  -6.187  1.00  0.00     0.016 C
ENDBRANCH  13  14
BRANCH  13  18
HETATM   18  C15 UNL     1       8.437  13.574  -9.160  1.00  0.00     0.150 C
HETATM   19  N4  UNL     1       9.048  14.586  -8.684  1.00  0.00    -0.250 N
ATOM     20  H4  UNL     1       9.467  14.497  -7.758  1.00  0.00     0.196 HD
BRANCH  18  21
HETATM   21  O2  UNL     1       7.854  13.655 -10.416  1.00  0.00    -0.347 OA
ATOM     22  H2  UNL     1       6.984  14.032 -10.487  1.00  0.00     0.219 HD
ENDBRANCH  18  21
BRANCH  19  23
HETATM   23  O3  UNL     1       9.180  15.783  -9.331  1.00  0.00    -0.288 OA
ATOM     24  H3  UNL     1       8.846  15.961 -10.203  1.00  0.00     0.244 HD
ENDBRANCH  19  23
ENDBRANCH  13  18
ENDBRANCH  12  13
ENDBRANCH   1  12
BRANCH   9  25
HETATM   25  C9  UNL     1      14.546   8.452 -13.102  1.00  0.00     0.032 A
HETATM   26  C10 UNL     1      15.442   7.508 -12.674  1.00  0.00     0.020 A
HETATM   27  C11 UNL     1      16.106   6.750 -13.611  1.00  0.00     0.043 A
HETATM   28  C12 UNL     1      15.899   6.913 -14.959  1.00  0.00     0.116 A
HETATM   29  F1  UNL     1      16.550   6.171 -15.866  1.00  0.00    -0.206 F
HETATM   30  C13 UNL     1      14.990   7.872 -15.357  1.00  0.00     0.043 A
HETATM   31  C14 UNL     1      14.309   8.646 -14.455  1.00  0.00     0.020 A
ENDBRANCH   9  25
TORSDOF 7
ENDMDL