MODEL 3
REMARK VINA RESULT: -6.930103322      1.058      1.431
REMARK  9 active torsions:
REMARK  status: ('A' for Active; 'I' for Inactive)
REMARK    1  A    between atoms: N1_1  and  C1_5
REMARK    2  A    between atoms: C1_5  and  C2_6
REMARK    3  A    between atoms: C2_6  and  C3_7
REMARK    4  A    between atoms: C3_7  and  C4_8
REMARK    5  A    between atoms: C4_8  and  N2_9
REMARK    6  A    between atoms: N2_9  and  C5_11
REMARK    7  A    between atoms: C7_13  and  C8_14
REMARK    8  A    between atoms: C14_23  and  N4_24
REMARK    9  A    between atoms: N4_24  and  C15_26
ROOT
HETATM    1  C8  UNL     1     -14.996 -50.057  13.818  1.00  0.00     0.029 C
HETATM    2  C9  UNL     1     -14.592 -51.266  14.118  1.00  0.00     0.045 A
HETATM    3  C10 UNL     1     -15.285 -52.537  14.059  1.00  0.00     0.257 A
HETATM    4  O1  UNL     1     -16.447 -52.793  13.670  1.00  0.00    -0.267 OA
HETATM    5  N3  UNL     1     -14.392 -53.549  14.540  1.00  0.00    -0.322 N
ATOM      6  H3  UNL     1     -14.611 -54.543  14.613  1.00  0.00     0.169 HD
HETATM    7  C11 UNL     1     -13.159 -52.953  14.899  1.00  0.00     0.047 A
HETATM    8  C12 UNL     1     -11.971 -53.477  15.418  1.00  0.00     0.046 A
HETATM    9  C13 UNL     1     -10.878 -52.686  15.701  1.00  0.00     0.019 A
HETATM   10  C14 UNL     1      -9.712 -53.213  16.213  1.00  0.00     0.046 A
HETATM   11  C21 UNL     1      -8.682 -52.343  16.462  1.00  0.00     0.047 A
HETATM   12  C22 UNL     1      -8.783 -50.980  16.216  1.00  0.00     0.090 A
HETATM   13  N5  UNL     1      -9.934 -50.519  15.719  1.00  0.00    -0.365 N
ATOM     14  H5  UNL     1     -10.027 -49.521  15.532  1.00  0.00     0.165 HD
HETATM   15  C23 UNL     1     -10.974 -51.328  15.457  1.00  0.00     0.045 A
HETATM   16  C24 UNL     1     -12.165 -50.826  14.941  1.00  0.00     0.045 A
HETATM   17  C25 UNL     1     -13.252 -51.621  14.661  1.00  0.00     0.009 A
ENDROOT
BRANCH   1  18
HETATM   18  C7  UNL     1     -16.297 -49.678  13.337  1.00  0.00    -0.030 A
HETATM   19  C6  UNL     1     -17.383 -49.599  14.144  1.00  0.00     0.059 A
HETATM   20  C5  UNL     1     -18.646 -49.254  13.674  1.00  0.00     0.101 A
HETATM   21  N6  UNL     1     -18.789 -48.989  12.377  1.00  0.00    -0.353 N
HETATM   22  C27 UNL     1     -17.723 -49.060  11.557  1.00  0.00     0.090 A
ATOM     23  H6  UNL     1     -19.703 -48.734  12.006  1.00  0.00     0.166 HD
HETATM   24  C26 UNL     1     -16.464 -49.398  11.985  1.00  0.00     0.028 A
BRANCH  20  25
HETATM   25  N2  UNL     1     -19.582 -49.215  14.551  1.00  0.00    -0.376 N
ATOM     26  H2  UNL     1     -19.496 -48.614  15.370  1.00  0.00     0.161 HD
BRANCH  25  27
HETATM   27  C4  UNL     1     -20.777 -50.044  14.362  1.00  0.00     0.121 C
BRANCH  27  28
HETATM   28  C3  UNL     1     -21.758 -49.276  13.547  1.00  0.00     0.021 C
BRANCH  28  29
HETATM   29  C2  UNL     1     -22.544 -50.077  12.577  1.00  0.00     0.029 C
BRANCH  29  30
HETATM   30  C1  UNL     1     -21.906 -50.473  11.306  1.00  0.00     0.229 C
BRANCH  30  31
HETATM   31  N1  UNL     1     -22.650 -50.278  10.111  1.00  0.00    -0.079 N
ATOM     32  H13 UNL     1     -23.467 -49.702  10.312  1.00  0.00     0.274 HD
ATOM     33  H12 UNL     1     -22.130 -49.661   9.487  1.00  0.00     0.274 HD
ATOM     34  H11 UNL     1     -22.941 -51.109   9.597  1.00  0.00     0.274 HD
ENDBRANCH  30  31
ENDBRANCH  29  30
ENDBRANCH  28  29
ENDBRANCH  27  28
ENDBRANCH  25  27
ENDBRANCH  20  25
ENDBRANCH   1  18
BRANCH  10  35
HETATM   35  N4  UNL     1      -9.649 -54.465  16.428  1.00  0.00    -0.355 N
ATOM     36  H4  UNL     1     -10.080 -54.785  17.296  1.00  0.00     0.166 HD
BRANCH  35  37
HETATM   37  C15 UNL     1      -9.071 -55.461  15.640  1.00  0.00     0.032 A
HETATM   38  C16 UNL     1      -8.869 -56.772  16.016  1.00  0.00     0.029 A
HETATM   39  C17 UNL     1      -8.280 -57.678  15.127  1.00  0.00     0.002 A
HETATM   40  C18 UNL     1      -7.891 -57.283  13.868  1.00  0.00     0.000 A
HETATM   41  C19 UNL     1      -8.085 -55.981  13.474  1.00  0.00     0.002 A
HETATM   42  C20 UNL     1      -8.670 -55.085  14.359  1.00  0.00     0.029 A
ENDBRANCH  35  37
ENDBRANCH  10  35
TORSDOF 9
ENDMDL