MODEL 5
REMARK VINA RESULT: -7.603648635      2.070      3.031
REMARK  10 active torsions:
REMARK  status: ('A' for Active; 'I' for Inactive)
REMARK    1  A    between atoms: N1_1  and  S1_4
REMARK    2  A    between atoms: S1_4  and  N2_5
REMARK    3  A    between atoms: S1_4  and  C1_9
REMARK    4  A    between atoms: C4_12  and  N3_13
REMARK    5  A    between atoms: N3_13  and  C5_15
REMARK    6  A    between atoms: C8_20  and  N5_21
REMARK    7  A    between atoms: N5_21  and  C9_23
REMARK    8  A    between atoms: C12_26  and  C13_27
REMARK    9  A    between atoms: C13_27  and  C14_28
REMARK   10  A    between atoms: C14_28  and  C15_29
ROOT
HETATM    1  C5  UNL     1     -16.333 -50.347  12.074  1.00  0.00     0.684 A
HETATM    2  N4  UNL     1     -17.395 -49.545  12.265  1.00  0.00    -0.202 N
ATOM      3  H4  UNL     1     -17.974 -49.310  11.459  1.00  0.00     0.183 HD
HETATM    4  C6  UNL     1     -17.736 -49.034  13.468  1.00  0.00     0.110 A
HETATM    5  C7  UNL     1     -16.974 -49.333  14.578  1.00  0.00     0.066 A
HETATM    6  C8  UNL     1     -15.887 -50.152  14.387  1.00  0.00     0.122 A
HETATM    7  N6  UNL     1     -15.585 -50.638  13.173  1.00  0.00    -0.176 N
ATOM      8  H6  UNL     1     -14.770 -51.243  13.071  1.00  0.00     0.186 HD
ENDROOT
BRANCH   1   9
HETATM    9  N3  UNL     1     -16.035 -50.809  10.921  1.00  0.00    -0.192 N
ATOM     10  H3  UNL     1     -16.813 -51.071  10.316  1.00  0.00     0.184 HD
BRANCH   9  11
HETATM   11  C4  UNL     1     -14.736 -50.993  10.400  1.00  0.00     0.049 A
HETATM   12  C3  UNL     1     -14.343 -52.079   9.649  1.00  0.00     0.031 A
HETATM   13  C2  UNL     1     -13.042 -52.202   9.171  1.00  0.00     0.026 A
HETATM   14  C1  UNL     1     -12.111 -51.217   9.448  1.00  0.00     0.058 A
HETATM   15  C24 UNL     1     -12.486 -50.139  10.188  1.00  0.00     0.026 A
HETATM   16  C23 UNL     1     -13.783 -50.029  10.658  1.00  0.00     0.031 A
BRANCH  14  17
HETATM   17  S1  UNL     1     -10.451 -51.309   8.889  1.00  0.00     0.130 S
HETATM   18  O1  UNL     1      -9.719 -50.036   9.095  1.00  0.00    -0.224 OA
BRANCH  17  19
HETATM   19  N1  UNL     1      -9.736 -52.401   9.746  1.00  0.00    -0.341 N
ATOM     20  H12 UNL     1      -9.638 -53.377   9.468  1.00  0.00     0.167 HD
ATOM     21  H11 UNL     1      -9.388 -51.986  10.610  1.00  0.00     0.167 HD
ENDBRANCH  17  19
BRANCH  17  22
HETATM   22  N2  UNL     1     -10.377 -51.739   7.221  1.00  0.00    -0.341 N
ATOM     23  H22 UNL     1     -10.685 -52.634   6.843  1.00  0.00     0.167 HD
ATOM     24  H21 UNL     1      -9.983 -50.967   6.685  1.00  0.00     0.167 HD
ENDBRANCH  17  22
ENDBRANCH  14  17
ENDBRANCH   9  11
ENDBRANCH   1   9
BRANCH   6  25
HETATM   25  N5  UNL     1     -15.147 -50.456  15.362  1.00  0.00    -0.342 N
ATOM     26  H5  UNL     1     -15.621 -50.632  16.248  1.00  0.00     0.167 HD
BRANCH  25  27
HETATM   27  C9  UNL     1     -13.737 -50.580  15.373  1.00  0.00     0.033 A
HETATM   28  C10 UNL     1     -13.118 -51.709  15.859  1.00  0.00     0.030 A
HETATM   29  C11 UNL     1     -11.725 -51.857  15.873  1.00  0.00     0.009 A
HETATM   30  C12 UNL     1     -10.924 -50.851  15.390  1.00  0.00    -0.058 A
HETATM   31  C21 UNL     1     -11.543 -49.711  14.900  1.00  0.00     0.009 A
HETATM   32  C22 UNL     1     -12.913 -49.566  14.885  1.00  0.00     0.030 A
BRANCH  30  33
HETATM   33  C13 UNL     1      -9.424 -50.940  15.371  1.00  0.00     0.043 C
BRANCH  33  34
HETATM   34  C14 UNL     1      -8.965 -51.990  16.385  1.00  0.00     0.043 C
BRANCH  34  35
HETATM   35  C15 UNL     1      -8.927 -53.312  15.767  1.00  0.00    -0.058 A
HETATM   36  C16 UNL     1      -8.564 -53.427  14.437  1.00  0.00     0.007 A
HETATM   37  C17 UNL     1      -8.538 -54.687  13.882  1.00  0.00     0.001 A
HETATM   38  C18 UNL     1      -8.862 -55.832  14.608  1.00  0.00     0.000 A
HETATM   39  C19 UNL     1      -9.218 -55.688  15.929  1.00  0.00     0.001 A
HETATM   40  C20 UNL     1      -9.249 -54.426  16.505  1.00  0.00     0.007 A
ENDBRANCH  34  35
ENDBRANCH  33  34
ENDBRANCH  30  33
ENDBRANCH  25  27
ENDBRANCH   6  25
TORSDOF 10
ENDMDL