MODEL 1
REMARK VINA RESULT: -7.740638046      0.000      0.000
REMARK  8 active torsions:
REMARK  status: ('A' for Active; 'I' for Inactive)
REMARK    1  A    between atoms: C2_2  and  C3_3
REMARK    2  A    between atoms: C3_3  and  N1_4
REMARK    3  A    between atoms: C3_3  and  C22_38
REMARK    4  A    between atoms: N1_4  and  C4_6
REMARK    5  A    between atoms: C9_13  and  C10_14
REMARK    6  A    between atoms: N4_26  and  C19_28
REMARK    7  A    between atoms: C19_28  and  C20_32
REMARK    8  A    between atoms: C20_32  and  N6_33
ROOT
HETATM    1  C4  UNL     1     -10.641 -51.156  13.034  1.00  0.00     0.046 A
HETATM    2  C5  UNL     1      -9.801 -50.433  12.216  1.00  0.00     0.047 A
HETATM    3  C6  UNL     1     -10.390 -49.496  11.373  1.00  0.00     0.090 A
HETATM    4  N2  UNL     1     -11.720 -49.302  11.355  1.00  0.00    -0.365 N
ATOM      5  H2  UNL     1     -12.108 -48.605  10.719  1.00  0.00     0.165 HD
HETATM    6  C7  UNL     1     -12.553 -49.998  12.146  1.00  0.00     0.050 A
HETATM    7  C8  UNL     1     -13.910 -49.767  12.099  1.00  0.00     0.063 A
HETATM    8  C9  UNL     1     -14.756 -50.484  12.916  1.00  0.00     0.070 A
HETATM    9  N3  UNL     1     -14.230 -51.385  13.732  1.00  0.00    -0.339 N
ATOM     10  H3  UNL     1     -14.859 -51.914  14.336  1.00  0.00     0.167 HD
HETATM   11  C18 UNL     1     -12.905 -51.641  13.808  1.00  0.00     0.122 A
HETATM   12  N4  UNL     1     -12.466 -52.523  14.621  1.00  0.00    -0.330 N
ATOM     13  H4  UNL     1     -11.463 -52.702  14.666  1.00  0.00     0.168 HD
HETATM   14  C21 UNL     1     -12.030 -50.942  13.006  1.00  0.00     0.061 A
ENDROOT
BRANCH   1  15
HETATM   15  N1  UNL     1     -10.180 -52.028  13.828  1.00  0.00    -0.380 N
ATOM     16  H1  UNL     1     -10.861 -52.634  14.288  1.00  0.00     0.160 HD
BRANCH  15  17
HETATM   17  C3  UNL     1      -8.816 -52.247  14.143  1.00  0.00     0.114 C
BRANCH  17  18
HETATM   18  C2  UNL     1      -8.516 -52.229  15.620  1.00  0.00     0.025 C
HETATM   19  C1  UNL     1      -8.521 -50.883  16.255  1.00  0.00     0.007 C
ENDBRANCH  17  18
BRANCH  17  20
HETATM   20  C22 UNL     1      -8.239 -53.508  13.614  1.00  0.00    -0.036 A
HETATM   21  C23 UNL     1      -8.622 -54.695  14.188  1.00  0.00     0.009 A
HETATM   22  C24 UNL     1      -8.112 -55.893  13.738  1.00  0.00     0.001 A
HETATM   23  C25 UNL     1      -7.204 -55.893  12.696  1.00  0.00     0.000 A
HETATM   24  C26 UNL     1      -6.820 -54.704  12.121  1.00  0.00     0.001 A
HETATM   25  C27 UNL     1      -7.339 -53.520  12.582  1.00  0.00     0.009 A
ENDBRANCH  17  20
ENDBRANCH  15  17
ENDBRANCH   1  15
BRANCH  12  26
HETATM   26  C19 UNL     1     -13.336 -53.256  15.460  1.00  0.00     0.102 C
HETATM   27  N5  UNL     1     -13.866 -52.636  16.461  1.00  0.00    -0.387 N
ATOM     28  H52 UNL     1     -13.671 -51.652  16.651  1.00  0.00     0.157 HD
ATOM     29  H51 UNL     1     -14.493 -53.164  17.067  1.00  0.00     0.157 HD
BRANCH  26  30
HETATM   30  C20 UNL     1     -13.619 -54.688  15.184  1.00  0.00     0.305 C
BRANCH  30  31
HETATM   31  N6  UNL     1     -14.783 -54.760  14.315  1.00  0.00    -0.073 N
ATOM     32  H63 UNL     1     -15.594 -54.280  14.703  1.00  0.00     0.274 HD
ATOM     33  H62 UNL     1     -14.680 -54.197  13.471  1.00  0.00     0.274 HD
ATOM     34  H61 UNL     1     -14.967 -55.743  14.112  1.00  0.00     0.274 HD
ENDBRANCH  30  31
ENDBRANCH  26  30
ENDBRANCH  12  26
BRANCH   8  35
HETATM   35  C10 UNL     1     -16.200 -50.215  12.842  1.00  0.00     0.103 A
HETATM   36  C11 UNL     1     -16.946 -50.073  11.682  1.00  0.00     0.054 A
HETATM   37  C12 UNL     1     -18.262 -49.829  12.016  1.00  0.00     0.001 A
HETATM   38  C13 UNL     1     -19.438 -49.608  11.325  1.00  0.00     0.014 A
HETATM   39  C17 UNL     1     -18.259 -49.833  13.412  1.00  0.00     0.086 A
HETATM   40  C14 UNL     1     -20.640 -49.386  11.974  1.00  0.00     0.001 A
HETATM   41  C15 UNL     1     -20.642 -49.389  13.354  1.00  0.00     0.003 A
HETATM   42  C16 UNL     1     -19.473 -49.608  14.046  1.00  0.00     0.038 A
HETATM   43  O1  UNL     1     -17.038 -50.061  13.833  1.00  0.00    -0.308 OA
ENDBRANCH   8  35
TORSDOF 8
ENDMDL