MODEL 1
REMARK VINA RESULT: -8.122297563      0.000      0.000
REMARK  9 active torsions:
REMARK  status: ('A' for Active; 'I' for Inactive)
REMARK    1  A    between atoms: C2_2  and  C3_3
REMARK    2  A    between atoms: C6_6  and  C7_7
REMARK    3  A    between atoms: C7_7  and  N1_8
REMARK    4  A    between atoms: N1_8  and  C8_10
REMARK    5  A    between atoms: C9_13  and  N3_14
REMARK    6  A    between atoms: N3_14  and  C10_16
REMARK    7  A    between atoms: C10_16  and  C11_17
REMARK    8  A    between atoms: C17_25  and  N5_26
REMARK    9  A    between atoms: N5_26  and  C18_28
ROOT
HETATM    1  C8  UNL     1     -13.495 -54.513  15.349  1.00  0.00     0.707 A
HETATM    2  N2  UNL     1     -12.163 -54.577  15.424  1.00  0.00    -0.022 N
ATOM      3  H2  UNL     1     -11.663 -53.739  15.724  1.00  0.00     0.203 HD
HETATM    4  C9  UNL     1     -11.432 -55.674  15.131  1.00  0.00     0.707 A
HETATM    5  N4  UNL     1     -12.101 -56.771  14.737  1.00  0.00    -0.021 N
ATOM      6  H4  UNL     1     -11.592 -57.623  14.504  1.00  0.00     0.203 HD
HETATM    7  C17 UNL     1     -13.463 -56.743  14.649  1.00  0.00     0.711 A
HETATM    8  N8  UNL     1     -14.154 -55.636  14.949  1.00  0.00    -0.021 N
ATOM      9  H8  UNL     1     -15.171 -55.634  14.878  1.00  0.00     0.203 HD
ENDROOT
BRANCH   7  10
HETATM   10  N5  UNL     1     -14.064 -57.815  14.267  1.00  0.00    -0.191 N
ATOM     11  H5  UNL     1     -13.876 -58.223  13.352  1.00  0.00     0.184 HD
BRANCH  10  12
HETATM   12  C18 UNL     1     -14.994 -58.416  15.154  1.00  0.00     0.050 A
HETATM   13  C19 UNL     1     -16.345 -58.415  14.829  1.00  0.00     0.032 A
HETATM   14  C20 UNL     1     -17.216 -59.004  15.711  1.00  0.00     0.034 A
HETATM   15  C21 UNL     1     -16.797 -59.584  16.886  1.00  0.00     0.059 A
HETATM   16  N6  UNL     1     -17.404 -60.215  17.906  1.00  0.00    -0.300 N
HETATM   17  C23 UNL     1     -15.441 -59.578  17.198  1.00  0.00     0.011 A
HETATM   18  N7  UNL     1     -16.543 -60.596  18.816  1.00  0.00    -0.311 N
ATOM     19  H6  UNL     1     -18.410 -60.377  17.964  1.00  0.00     0.187 HD
HETATM   20  C22 UNL     1     -15.297 -60.221  18.421  1.00  0.00     0.120 A
ATOM     21  H7  UNL     1     -16.770 -61.092  19.678  1.00  0.00     0.186 HD
HETATM   22  C24 UNL     1     -14.556 -58.990  16.323  1.00  0.00     0.045 A
ENDBRANCH  10  12
ENDBRANCH   7  10
BRANCH   4  23
HETATM   23  N3  UNL     1     -10.145 -55.678  15.221  1.00  0.00    -0.221 N
ATOM     24  H3  UNL     1      -9.592 -56.283  14.615  1.00  0.00     0.178 HD
BRANCH  23  25
HETATM   25  C10 UNL     1      -9.495 -54.829  16.178  1.00  0.00     0.176 C
BRANCH  25  26
HETATM   26  C11 UNL     1      -9.005 -53.575  15.550  1.00  0.00    -0.040 A
HETATM   27  C12 UNL     1      -8.699 -53.494  14.225  1.00  0.00     0.009 A
HETATM   28  C13 UNL     1      -8.247 -52.296  13.697  1.00  0.00     0.001 A
HETATM   29  C14 UNL     1      -8.090 -51.167  14.466  1.00  0.00     0.000 A
HETATM   30  C15 UNL     1      -8.404 -51.270  15.804  1.00  0.00     0.001 A
HETATM   31  C16 UNL     1      -8.857 -52.465  16.338  1.00  0.00     0.009 A
ENDBRANCH  25  26
ENDBRANCH  23  25
ENDBRANCH   4  23
BRANCH   1  32
HETATM   32  N1  UNL     1     -14.221 -53.510  15.615  1.00  0.00    -0.221 N
ATOM     33  H1  UNL     1     -15.224 -53.652  15.496  1.00  0.00     0.178 HD
BRANCH  32  34
HETATM   34  C7  UNL     1     -13.837 -52.213  16.055  1.00  0.00     0.176 C
BRANCH  34  35
HETATM   35  C6  UNL     1     -13.224 -51.466  14.910  1.00  0.00    -0.040 A
HETATM   36  C5  UNL     1     -11.962 -50.911  14.968  1.00  0.00     0.009 A
HETATM   37  C4  UNL     1     -11.411 -50.225  13.902  1.00  0.00     0.007 A
HETATM   38  C3  UNL     1     -12.116 -50.069  12.725  1.00  0.00    -0.059 A
HETATM   39  C26 UNL     1     -13.377 -50.622  12.663  1.00  0.00     0.007 A
HETATM   40  C25 UNL     1     -13.923 -51.306  13.732  1.00  0.00     0.009 A
BRANCH  38  41
HETATM   41  C2  UNL     1     -11.556 -49.335  11.551  1.00  0.00     0.034 C
HETATM   42  C1  UNL     1     -10.092 -49.683  11.430  1.00  0.00     0.010 C
ENDBRANCH  38  41
ENDBRANCH  34  35
ENDBRANCH  32  34
ENDBRANCH   1  32
TORSDOF 9
ENDMDL