MODEL 3
REMARK VINA RESULT: -7.797753118      1.652      2.504
REMARK  9 active torsions:
REMARK  status: ('A' for Active; 'I' for Inactive)
REMARK    1  A    between atoms: C7_7  and  N1_8
REMARK    2  A    between atoms: N1_8  and  C8_10
REMARK    3  A    between atoms: C9_13  and  N3_14
REMARK    4  A    between atoms: N3_14  and  C10_16
REMARK    5  A    between atoms: C10_16  and  C11_17
REMARK    6  A    between atoms: C11_17  and  C12_18
REMARK    7  A    between atoms: C20_30  and  N6_31
REMARK    8  A    between atoms: N7_34  and  C21_35
REMARK    9  A    between atoms: C21_35  and  C22_36
ROOT
HETATM    1  C8  UNL     1     -12.931 -52.059  14.048  1.00  0.00     0.152 A
HETATM    2  N2  UNL     1     -12.736 -52.211  12.738  1.00  0.00    -0.174 N
ATOM      3  H2  UNL     1     -12.108 -52.932  12.382  1.00  0.00     0.186 HD
HETATM    4  C9  UNL     1     -13.396 -51.380  11.888  1.00  0.00     0.681 A
HETATM    5  N4  UNL     1     -14.227 -50.423  12.337  1.00  0.00    -0.173 N
ATOM      6  H4  UNL     1     -14.697 -49.827  11.655  1.00  0.00     0.186 HD
HETATM    7  C18 UNL     1     -14.468 -50.215  13.645  1.00  0.00     0.170 A
HETATM    8  C19 UNL     1     -13.789 -51.071  14.511  1.00  0.00     0.139 A
HETATM    9  N5  UNL     1     -14.176 -50.686  15.738  1.00  0.00    -0.184 N
ATOM     10  H5  UNL     1     -13.855 -51.118  16.605  1.00  0.00     0.184 HD
HETATM   11  C20 UNL     1     -15.041 -49.659  15.677  1.00  0.00     0.680 A
HETATM   12  N7  UNL     1     -15.224 -49.365  14.382  1.00  0.00    -0.161 N
ENDROOT
BRANCH   4  13
HETATM   13  N3  UNL     1     -13.177 -51.565  10.631  1.00  0.00    -0.226 N
ATOM     14  H3  UNL     1     -13.512 -52.425  10.199  1.00  0.00     0.177 HD
BRANCH  13  15
HETATM   15  C10 UNL     1     -12.484 -50.614   9.817  1.00  0.00     0.142 C
BRANCH  15  16
HETATM   16  C11 UNL     1     -11.148 -51.154   9.324  1.00  0.00     0.058 C
BRANCH  16  17
HETATM   17  C12 UNL     1     -10.271 -51.511  10.472  1.00  0.00    -0.057 A
HETATM   18  C13 UNL     1      -9.829 -52.796  10.612  1.00  0.00     0.007 A
HETATM   19  C14 UNL     1      -9.015 -53.131  11.678  1.00  0.00     0.001 A
HETATM   20  C15 UNL     1      -8.632 -52.187  12.616  1.00  0.00     0.000 A
HETATM   21  C16 UNL     1      -9.093 -50.900  12.448  1.00  0.00     0.001 A
HETATM   22  C17 UNL     1      -9.909 -50.538  11.391  1.00  0.00     0.007 A
ENDBRANCH  16  17
ENDBRANCH  15  16
ENDBRANCH  13  15
ENDBRANCH   4  13
BRANCH   1  23
HETATM   23  N1  UNL     1     -12.353 -52.794  14.933  1.00  0.00    -0.340 N
ATOM     24  H1  UNL     1     -12.865 -53.596  15.301  1.00  0.00     0.167 HD
BRANCH  23  25
HETATM   25  C7  UNL     1     -11.050 -52.554  15.422  1.00  0.00     0.039 A
HETATM   26  C2  UNL     1     -10.194 -53.579  15.733  1.00  0.00    -0.035 A
HETATM   27  C1  UNL     1     -10.661 -54.994  15.547  1.00  0.00     0.050 C
HETATM   28  C3  UNL     1      -8.920 -53.323  16.212  1.00  0.00     0.009 A
HETATM   29  C4  UNL     1      -8.528 -52.007  16.370  1.00  0.00     0.001 A
HETATM   30  C5  UNL     1      -9.391 -50.984  16.055  1.00  0.00     0.002 A
HETATM   31  C6  UNL     1     -10.641 -51.255  15.585  1.00  0.00     0.030 A
ENDBRANCH  23  25
ENDBRANCH   1  23
BRANCH  12  32
HETATM   32  C21 UNL     1     -16.069 -48.330  13.833  1.00  0.00     0.188 C
BRANCH  32  33
HETATM   33  C22 UNL     1     -17.324 -48.809  13.249  1.00  0.00    -0.039 A
HETATM   34  C23 UNL     1     -17.512 -48.823  11.885  1.00  0.00     0.009 A
HETATM   35  C24 UNL     1     -18.704 -49.280  11.368  1.00  0.00     0.001 A
HETATM   36  C25 UNL     1     -19.733 -49.730  12.163  1.00  0.00     0.000 A
HETATM   37  C26 UNL     1     -19.560 -49.722  13.529  1.00  0.00     0.001 A
HETATM   38  C27 UNL     1     -18.361 -49.262  14.034  1.00  0.00     0.009 A
ENDBRANCH  32  33
ENDBRANCH  12  32
BRANCH  11  39
HETATM   39  N6  UNL     1     -15.615 -49.045  16.680  1.00  0.00    -0.234 N
ATOM     40  H62 UNL     1     -15.125 -48.568  17.436  1.00  0.00     0.174 HD
ATOM     41  H61 UNL     1     -16.614 -48.948  16.855  1.00  0.00     0.174 HD
ENDBRANCH  11  39
TORSDOF 9
ENDMDL