MODEL 2
REMARK VINA RESULT: -8.256954789      1.433      2.410
REMARK  7 active torsions:
REMARK  status: ('A' for Active; 'I' for Inactive)
REMARK    1  A    between atoms: C1_4  and  N2_5
REMARK    2  A    between atoms: N2_5  and  C2_6
REMARK    3  A    between atoms: C2_6  and  C3_7
REMARK    4  A    between atoms: C2_6  and  C9_13
REMARK    5  A    between atoms: C12_16  and  C13_17
REMARK       I    between atoms: C13_17  and  N3_19
REMARK    6  A    between atoms: N3_19  and  C14_21
REMARK    7  A    between atoms: C24_31  and  C25_32
ROOT
HETATM    1  C9  UNL     1     -17.167 -49.997  13.029  1.00  0.00     0.074 A
HETATM    2  C10 UNL     1     -16.881 -49.817  14.394  1.00  0.00     0.034 A
HETATM    3  C11 UNL     1     -15.588 -49.814  14.853  1.00  0.00     0.022 A
HETATM    4  C12 UNL     1     -14.528 -49.987  13.984  1.00  0.00     0.059 A
HETATM    5  C20 UNL     1     -14.827 -50.158  12.669  1.00  0.00     0.059 A
HETATM    6  C21 UNL     1     -13.793 -50.379  11.689  1.00  0.00    -0.008 A
HETATM    7  C22 UNL     1     -13.856 -51.442  10.779  1.00  0.00     0.014 A
HETATM    8  C23 UNL     1     -12.861 -51.629   9.847  1.00  0.00     0.016 A
HETATM    9  C24 UNL     1     -11.770 -50.784   9.769  1.00  0.00     0.004 A
HETATM   10  C26 UNL     1     -11.720 -49.753  10.659  1.00  0.00     0.016 A
HETATM   11  C27 UNL     1     -12.716 -49.539  11.618  1.00  0.00     0.014 A
HETATM   12  N6  UNL     1     -16.118 -50.158  12.240  1.00  0.00    -0.352 N
ATOM     13  H6  UNL     1     -16.288 -50.291  11.244  1.00  0.00     0.166 HD
ENDROOT
BRANCH   1  14
HETATM   14  C2  UNL     1     -18.594 -49.990  12.645  1.00  0.00     0.145 C
BRANCH  14  15
HETATM   15  N2  UNL     1     -18.928 -49.245  11.713  1.00  0.00    -0.398 NA
BRANCH  15  16
HETATM   16  C1  UNL     1     -19.430 -48.806  10.606  1.00  0.00     0.268 C
HETATM   17  N1  UNL     1     -20.084 -49.563   9.748  1.00  0.00    -0.385 N
ATOM     18  H12 UNL     1     -20.191 -50.549   9.986  1.00  0.00     0.157 HD
ATOM     19  H11 UNL     1     -20.480 -49.216   8.874  1.00  0.00     0.157 HD
ENDBRANCH  15  16
ENDBRANCH  14  15
BRANCH  14  20
HETATM   20  C3  UNL     1     -19.603 -50.811  13.310  1.00  0.00     0.007 A
HETATM   21  C4  UNL     1     -20.541 -50.361  14.192  1.00  0.00     0.015 A
HETATM   22  C5  UNL     1     -21.499 -51.207  14.798  1.00  0.00     0.001 A
HETATM   23  C6  UNL     1     -21.519 -52.531  14.514  1.00  0.00     0.000 A
HETATM   24  C7  UNL     1     -20.590 -53.009  13.633  1.00  0.00     0.001 A
HETATM   25  C8  UNL     1     -19.651 -52.184  13.039  1.00  0.00     0.015 A
ENDBRANCH  14  20
ENDBRANCH   1  14
BRANCH   4  26
HETATM   26  C13 UNL     1     -13.154 -49.967  14.539  1.00  0.00     0.258 C
HETATM   27  O1  UNL     1     -12.689 -48.898  15.004  1.00  0.00    -0.267 OA
HETATM   28  N3  UNL     1     -12.422 -51.160  14.520  1.00  0.00    -0.323 N
ATOM     29  H3  UNL     1     -12.908 -51.960  14.116  1.00  0.00     0.169 HD
BRANCH  28  30
HETATM   30  C14 UNL     1     -11.114 -51.420  14.975  1.00  0.00     0.035 A
HETATM   31  C15 UNL     1     -10.018 -51.053  14.195  1.00  0.00     0.029 A
HETATM   32  C16 UNL     1      -8.721 -51.265  14.552  1.00  0.00     0.002 A
HETATM   33  C17 UNL     1      -8.431 -51.873  15.743  1.00  0.00     0.000 A
HETATM   34  C18 UNL     1      -9.466 -52.261  16.559  1.00  0.00     0.002 A
HETATM   35  C19 UNL     1     -10.796 -52.029  16.165  1.00  0.00     0.029 A
ENDBRANCH  28  30
ENDBRANCH   4  26
BRANCH   9  36
HETATM   36  C25 UNL     1     -10.737 -51.026   8.780  1.00  0.00     0.120 C
HETATM   37  N4  UNL     1      -9.827 -51.914   8.927  1.00  0.00    -0.387 N
ATOM     38  H42 UNL     1      -9.848 -52.462   9.786  1.00  0.00     0.157 HD
ATOM     39  H41 UNL     1      -9.101 -52.084   8.231  1.00  0.00     0.157 HD
HETATM   40  N5  UNL     1     -10.709 -50.258   7.578  1.00  0.00    -0.082 NA
ENDBRANCH   9  36
TORSDOF 7
ENDMDL