MODEL 4
REMARK VINA RESULT: -7.233399862      2.182      5.117
REMARK  9 active torsions:
REMARK  status: ('A' for Active; 'I' for Inactive)
REMARK    1  A    between atoms: N1_1  and  C1_4
REMARK    2  A    between atoms: C5_10  and  C6_11
REMARK    3  A    between atoms: C6_11  and  N3_12
REMARK    4  A    between atoms: N3_12  and  C7_14
REMARK    5  A    between atoms: C10_21  and  C11_22
REMARK    6  A    between atoms: C19_30  and  N6_31
REMARK    7  A    between atoms: N6_31  and  C20_33
REMARK    8  A    between atoms: C20_33  and  C21_34
REMARK    9  A    between atoms: C21_34  and  C22_35
ROOT
HETATM    1  C7  UNL     1     -14.562 -54.446  14.421  1.00  0.00     0.116 A
HETATM    2  N4  UNL     1     -14.488 -55.832  14.377  1.00  0.00    -0.338 N
ATOM      3  H4  UNL     1     -15.292 -56.384  14.080  1.00  0.00     0.168 HD
HETATM    4  C8  UNL     1     -13.323 -56.442  14.739  1.00  0.00     0.181 A
HETATM    5  N5  UNL     1     -12.290 -55.723  15.115  1.00  0.00    -0.361 N
ATOM      6  H5  UNL     1     -11.423 -56.191  15.382  1.00  0.00     0.166 HD
HETATM    7  C9  UNL     1     -12.356 -54.379  15.153  1.00  0.00     0.106 A
HETATM    8  C10 UNL     1     -13.492 -53.676  14.811  1.00  0.00     0.050 A
ENDROOT
BRANCH   8   9
HETATM    9  C11 UNL     1     -13.476 -52.206  14.814  1.00  0.00     0.050 A
HETATM   10  C12 UNL     1     -14.301 -51.365  15.491  1.00  0.00     0.043 A
HETATM   11  C13 UNL     1     -14.169 -50.005  15.375  1.00  0.00    -0.020 A
HETATM   12  C14 UNL     1     -15.011 -49.171  16.073  1.00  0.00     0.012 A
HETATM   13  C18 UNL     1     -13.170 -49.474  14.547  1.00  0.00     0.018 A
HETATM   14  C15 UNL     1     -14.858 -47.804  15.951  1.00  0.00     0.001 A
HETATM   15  C16 UNL     1     -13.855 -47.284  15.122  1.00  0.00     0.001 A
HETATM   16  C17 UNL     1     -13.023 -48.134  14.433  1.00  0.00     0.016 A
HETATM   17  C19 UNL     1     -12.344 -50.323  13.866  1.00  0.00     0.112 A
HETATM   18  N7  UNL     1     -12.508 -51.640  14.008  1.00  0.00    -0.341 N
ATOM     19  H7  UNL     1     -11.885 -52.262  13.493  1.00  0.00     0.167 HD
BRANCH  17  20
HETATM   20  N6  UNL     1     -11.424 -49.866  13.120  1.00  0.00    -0.375 N
ATOM     21  H6  UNL     1     -11.340 -48.852  13.035  1.00  0.00     0.161 HD
BRANCH  20  22
HETATM   22  C20 UNL     1     -10.492 -50.678  12.388  1.00  0.00     0.126 C
BRANCH  22  23
HETATM   23  C21 UNL     1      -9.054 -50.664  12.870  1.00  0.00     0.058 C
BRANCH  23  24
HETATM   24  C22 UNL     1      -8.961 -51.545  14.075  1.00  0.00    -0.057 A
HETATM   25  C23 UNL     1      -8.940 -51.041  15.348  1.00  0.00     0.007 A
HETATM   26  C24 UNL     1      -8.891 -51.863  16.448  1.00  0.00     0.001 A
HETATM   27  C25 UNL     1      -8.863 -53.245  16.258  1.00  0.00     0.000 A
HETATM   28  C26 UNL     1      -8.882 -53.765  15.007  1.00  0.00     0.001 A
HETATM   29  C27 UNL     1      -8.931 -52.906  13.911  1.00  0.00     0.007 A
ENDBRANCH  23  24
ENDBRANCH  22  23
ENDBRANCH  20  22
ENDBRANCH  17  20
ENDBRANCH   8   9
BRANCH   1  30
HETATM   30  N3  UNL     1     -15.614 -53.871  13.910  1.00  0.00    -0.371 N
ATOM     31  H3  UNL     1     -16.453 -53.835  14.490  1.00  0.00     0.161 HD
BRANCH  30  32
HETATM   32  C6  UNL     1     -15.698 -53.287  12.611  1.00  0.00     0.163 C
BRANCH  32  33
HETATM   33  C5  UNL     1     -15.998 -51.857  12.471  1.00  0.00     0.003 A
HETATM   34  C1  UNL     1     -15.080 -51.153  11.655  1.00  0.00     0.106 A
HETATM   35  N2  UNL     1     -15.090 -49.850  11.474  1.00  0.00    -0.352 N
HETATM   36  C2  UNL     1     -16.041 -49.099  12.103  1.00  0.00     0.089 A
ATOM     37  H2  UNL     1     -14.397 -49.406  10.872  1.00  0.00     0.166 HD
HETATM   38  C3  UNL     1     -16.971 -49.707  12.914  1.00  0.00     0.018 A
HETATM   39  C4  UNL     1     -16.943 -51.093  13.092  1.00  0.00     0.014 A
BRANCH  34  40
HETATM   40  N1  UNL     1     -14.190 -51.875  10.959  1.00  0.00    -0.385 N
ATOM     41  H12 UNL     1     -14.520 -52.341  10.114  1.00  0.00     0.157 HD
ATOM     42  H11 UNL     1     -13.221 -51.873  11.278  1.00  0.00     0.157 HD
ENDBRANCH  34  40
ENDBRANCH  32  33
ENDBRANCH  30  32
ENDBRANCH   1  30
TORSDOF 9
ENDMDL