MODEL 4
REMARK VINA RESULT: -7.900087959      0.466      4.651
REMARK  8 active torsions:
REMARK  status: ('A' for Active; 'I' for Inactive)
REMARK    1  A    between atoms: C4_4  and  C5_5
REMARK    2  A    between atoms: C7_7  and  N1_8
REMARK    3  A    between atoms: N1_8  and  C8_10
REMARK    4  A    between atoms: C10_12  and  N2_13
REMARK    5  A    between atoms: C11_15  and  C12_16
REMARK    6  A    between atoms: C12_16  and  N3_17
REMARK    7  A    between atoms: N3_17  and  C13_19
REMARK    8  A    between atoms: C18_32  and  C19_33
ROOT
HETATM    1  C8  UNL     1     -13.091 -48.642  13.652  1.00  0.00     0.107 A
HETATM    2  C9  UNL     1     -13.456 -49.917  13.936  1.00  0.00     0.078 A
HETATM    3  C10 UNL     1     -14.267 -50.183  15.091  1.00  0.00     0.036 A
HETATM    4  C15 UNL     1     -14.613 -49.080  15.834  1.00  0.00     0.046 A
HETATM    5  C16 UNL     1     -14.223 -47.776  15.518  1.00  0.00     0.092 A
HETATM    6  N7  UNL     1     -13.466 -47.601  14.424  1.00  0.00    -0.352 N
ATOM      7  H7  UNL     1     -13.168 -46.659  14.170  1.00  0.00     0.166 HD
ENDROOT
BRANCH   1   8
HETATM    8  N1  UNL     1     -12.287 -48.403  12.500  1.00  0.00    -0.342 N
ATOM      9  H1  UNL     1     -11.950 -47.458  12.317  1.00  0.00     0.167 HD
BRANCH   8  10
HETATM   10  C7  UNL     1     -11.973 -49.355  11.680  1.00  0.00     0.037 A
HETATM   11  C6  UNL     1     -10.948 -50.232  11.961  1.00  0.00     0.059 A
HETATM   12  C5  UNL     1     -10.600 -51.251  11.100  1.00  0.00     0.045 A
HETATM   13  N8  UNL     1     -11.312 -51.347   9.969  1.00  0.00    -0.355 N
HETATM   14  C18 UNL     1     -12.325 -50.514   9.647  1.00  0.00     0.045 A
ATOM     15  H8  UNL     1     -11.076 -52.092   9.313  1.00  0.00     0.166 HD
HETATM   16  C17 UNL     1     -12.683 -49.488  10.503  1.00  0.00     0.059 A
BRANCH  12  17
HETATM   17  C4  UNL     1      -9.509 -52.171  11.417  1.00  0.00    -0.009 A
HETATM   18  C3  UNL     1      -8.980 -53.052  10.500  1.00  0.00     0.013 A
HETATM   19  C2  UNL     1      -7.931 -53.932  10.818  1.00  0.00     0.001 A
HETATM   20  C1  UNL     1      -7.402 -53.927  12.084  1.00  0.00     0.000 A
HETATM   21  C26 UNL     1      -7.906 -53.063  13.019  1.00  0.00     0.001 A
HETATM   22  C25 UNL     1      -8.952 -52.195  12.679  1.00  0.00     0.013 A
ENDBRANCH  12  17
BRANCH  14  23
HETATM   23  C19 UNL     1     -13.025 -50.718   8.391  1.00  0.00    -0.009 A
HETATM   24  C20 UNL     1     -14.215 -51.377   8.289  1.00  0.00     0.013 A
HETATM   25  C21 UNL     1     -14.871 -51.562   7.065  1.00  0.00     0.001 A
HETATM   26  C22 UNL     1     -14.313 -51.073   5.918  1.00  0.00     0.000 A
HETATM   27  C23 UNL     1     -13.116 -50.406   5.984  1.00  0.00     0.001 A
HETATM   28  C24 UNL     1     -12.479 -50.234   7.227  1.00  0.00     0.013 A
ENDBRANCH  14  23
ENDBRANCH   8  10
ENDBRANCH   1   8
BRANCH   3  29
HETATM   29  N2  UNL     1     -14.582 -51.351  15.323  1.00  0.00    -0.368 N
HETATM   30  C11 UNL     1     -14.100 -52.622  15.341  1.00  0.00     0.080 C
ATOM     31  H2  UNL     1     -15.562 -51.372  15.605  1.00  0.00     0.165 HD
BRANCH  30  32
HETATM   32  C12 UNL     1     -12.656 -52.907  14.992  1.00  0.00     0.165 C
BRANCH  32  33
HETATM   33  N3  UNL     1     -11.916 -52.857  16.270  1.00  0.00    -0.369 N
ATOM     34  H3  UNL     1     -12.283 -53.282  17.121  1.00  0.00     0.161 HD
BRANCH  33  35
HETATM   35  C13 UNL     1     -10.782 -52.246  16.249  1.00  0.00     0.134 A
HETATM   36  C14 UNL     1     -10.591 -50.963  15.733  1.00  0.00     0.158 A
HETATM   37  N4  UNL     1      -9.297 -50.690  15.890  1.00  0.00    -0.294 N
HETATM   38  N5  UNL     1      -8.664 -51.693  16.461  1.00  0.00    -0.241 N
ATOM     39  H4  UNL     1      -8.854 -49.816  15.604  1.00  0.00     0.187 HD
HETATM   40  N6  UNL     1      -9.571 -52.633  16.675  1.00  0.00    -0.270 N
ATOM     41  H5  UNL     1      -7.672 -51.737  16.693  1.00  0.00     0.208 HD
ATOM     42  H6  UNL     1      -9.374 -53.535  17.108  1.00  0.00     0.190 HD
ENDBRANCH  33  35
ENDBRANCH  32  33
ENDBRANCH  30  32
ENDBRANCH   3  29
TORSDOF 8
ENDMDL