MODEL 3
REMARK VINA RESULT: -7.726826521      3.904      6.746
REMARK  7 active torsions:
REMARK  status: ('A' for Active; 'I' for Inactive)
REMARK    1  A    between atoms: C2_2  and  C3_3
REMARK    2  A    between atoms: C5_5  and  O1_6
REMARK    3  A    between atoms: O1_6  and  C6_7
REMARK    4  A    between atoms: C6_7  and  C7_8
REMARK    5  A    between atoms: C15_16  and  C16_17
REMARK    6  A    between atoms: C17_20  and  N2_21
REMARK    7  A    between atoms: N2_21  and  C18_23
REMARK       I    between atoms: N4_33  and  C26_35
ROOT
HETATM    1  C16 UNL     1     -11.786 -51.356  13.606  1.00  0.00     0.147 A
HETATM    2  N1  UNL     1     -13.054 -51.159  13.999  1.00  0.00    -0.175 N
ATOM      3  H1  UNL     1     -13.713 -50.814  13.301  1.00  0.00     0.186 HD
HETATM    4  C17 UNL     1     -13.524 -51.379  15.235  1.00  0.00     0.698 A
HETATM    5  N3  UNL     1     -12.684 -51.835  16.188  1.00  0.00    -0.022 N
ATOM      6  H3  UNL     1     -13.008 -52.013  17.138  1.00  0.00     0.203 HD
HETATM    7  C25 UNL     1     -11.405 -52.046  15.839  1.00  0.00     0.700 A
HETATM    8  N4  UNL     1     -10.592 -52.482  16.744  1.00  0.00    -0.163 N
ATOM      9  H4  UNL     1     -10.917 -52.660  17.694  1.00  0.00     0.187 HD
HETATM   10  C26 UNL     1      -9.240 -52.708  16.390  1.00  0.00     0.200 C
HETATM   11  N5  UNL     1      -8.394 -51.747  16.516  1.00  0.00    -0.373 N
ATOM     12  H51 UNL     1      -7.420 -51.910  16.261  1.00  0.00     0.158 HD
ATOM     13  H52 UNL     1      -8.723 -50.848  16.868  1.00  0.00     0.158 HD
HETATM   14  N6  UNL     1      -8.779 -53.968  15.897  1.00  0.00    -0.063 NA
HETATM   15  N7  UNL     1     -10.955 -51.810  14.562  1.00  0.00    -0.174 N
ATOM     16  H7  UNL     1      -9.975 -51.981  14.335  1.00  0.00     0.186 HD
ENDROOT
BRANCH   1  17
HETATM   17  C15 UNL     1     -11.302 -51.153  12.244  1.00  0.00     0.019 A
HETATM   18  C3  UNL     1     -11.791 -50.110  11.483  1.00  0.00    -0.020 A
HETATM   19  C4  UNL     1     -11.375 -49.956  10.159  1.00  0.00     0.049 A
HETATM   20  C5  UNL     1     -10.483 -50.822   9.583  1.00  0.00     0.070 A
HETATM   21  C13 UNL     1     -10.010 -51.849  10.361  1.00  0.00     0.038 A
HETATM   22  C14 UNL     1     -10.401 -52.030  11.671  1.00  0.00     0.019 A
BRANCH  18  23
HETATM   23  C2  UNL     1     -12.738 -49.108  11.959  1.00  0.00     0.002 C
HETATM   24  C1  UNL     1     -13.900 -49.001  11.350  1.00  0.00     0.012 C
ENDBRANCH  18  23
BRANCH  20  25
HETATM   25  O1  UNL     1     -10.038 -50.718   8.282  1.00  0.00    -0.347 OA
BRANCH  25  26
HETATM   26  C6  UNL     1     -10.429 -51.617   7.260  1.00  0.00     0.214 C
BRANCH  26  27
HETATM   27  C7  UNL     1     -11.903 -51.597   7.191  1.00  0.00    -0.034 A
HETATM   28  C8  UNL     1     -12.607 -52.666   7.694  1.00  0.00     0.009 A
HETATM   29  C9  UNL     1     -14.003 -52.684   7.645  1.00  0.00     0.001 A
HETATM   30  C10 UNL     1     -14.659 -51.624   7.090  1.00  0.00     0.000 A
HETATM   31  C11 UNL     1     -13.967 -50.530   6.574  1.00  0.00     0.001 A
HETATM   32  C12 UNL     1     -12.570 -50.540   6.637  1.00  0.00     0.009 A
ENDBRANCH  26  27
ENDBRANCH  25  26
ENDBRANCH  20  25
ENDBRANCH   1  17
BRANCH   4  33
HETATM   33  N2  UNL     1     -14.771 -51.147  15.475  1.00  0.00    -0.191 N
ATOM     34  H2  UNL     1     -15.146 -51.398  16.390  1.00  0.00     0.184 HD
BRANCH  33  35
HETATM   35  C18 UNL     1     -15.642 -50.558  14.528  1.00  0.00     0.049 A
HETATM   36  C19 UNL     1     -16.026 -49.235  14.600  1.00  0.00     0.030 A
HETATM   37  C20 UNL     1     -16.880 -48.709  13.649  1.00  0.00     0.009 A
HETATM   38  C21 UNL     1     -17.347 -49.510  12.628  1.00  0.00    -0.062 A
HETATM   39  C22 UNL     1     -18.267 -49.028  11.564  1.00  0.00     0.048 C
HETATM   40  C23 UNL     1     -16.952 -50.830  12.572  1.00  0.00     0.009 A
HETATM   41  C24 UNL     1     -16.112 -51.355  13.505  1.00  0.00     0.030 A
ENDBRANCH  33  35
ENDBRANCH   4  33
TORSDOF 7
ENDMDL