MODEL 5
REMARK VINA RESULT: -7.378929410      1.911      3.818
REMARK  9 active torsions:
REMARK  status: ('A' for Active; 'I' for Inactive)
REMARK    1  A    between atoms: C2_2  and  C3_3
REMARK    2  A    between atoms: C8_8  and  N1_9
REMARK    3  A    between atoms: N1_9  and  C9_10
REMARK    4  A    between atoms: C10_13  and  N3_14
REMARK    5  A    between atoms: N3_14  and  C11_16
REMARK    6  A    between atoms: C11_16  and  C12_17
REMARK    7  A    between atoms: C12_17  and  C13_18
REMARK    8  A    between atoms: C19_26  and  N5_27
REMARK    9  A    between atoms: N5_27  and  C20_29
ROOT
HETATM    1  C9  UNL     1     -17.968 -49.312  12.486  1.00  0.00     0.288 A
HETATM    2  N2  UNL     1     -17.365 -48.558  13.476  1.00  0.00    -0.148 N
ATOM      3  H2  UNL     1     -17.968 -48.060  14.132  1.00  0.00     0.188 HD
HETATM    4  C10 UNL     1     -16.053 -48.441  13.626  1.00  0.00     0.696 A
HETATM    5  N4  UNL     1     -15.289 -49.115  12.734  1.00  0.00    -0.022 N
ATOM      6  H4  UNL     1     -14.275 -49.051  12.813  1.00  0.00     0.203 HD
HETATM    7  C19 UNL     1     -15.807 -49.859  11.757  1.00  0.00     0.702 A
HETATM    8  N8  UNL     1     -17.119 -49.968  11.618  1.00  0.00    -0.148 N
ATOM      9  H8  UNL     1     -17.504 -50.540  10.866  1.00  0.00     0.188 HD
ENDROOT
BRANCH   7  10
HETATM   10  N5  UNL     1     -15.030 -50.474  10.945  1.00  0.00    -0.174 N
ATOM     11  H5  UNL     1     -15.183 -50.348   9.945  1.00  0.00     0.186 HD
BRANCH  10  12
HETATM   12  C20 UNL     1     -13.984 -51.308  11.352  1.00  0.00     0.148 A
HETATM   13  N6  UNL     1     -13.947 -52.596  11.721  1.00  0.00    -0.284 N
HETATM   14  N7  UNL     1     -12.722 -52.964  12.027  1.00  0.00    -0.298 N
ATOM     15  H6  UNL     1     -14.761 -53.210  11.759  1.00  0.00     0.188 HD
HETATM   16  C21 UNL     1     -11.876 -51.923  11.874  1.00  0.00     0.062 A
ATOM     17  H7  UNL     1     -12.450 -53.899  12.333  1.00  0.00     0.187 HD
HETATM   18  C22 UNL     1     -10.516 -51.786  12.060  1.00  0.00     0.032 A
HETATM   19  C26 UNL     1     -12.662 -50.859  11.444  1.00  0.00     0.038 A
HETATM   20  C23 UNL     1      -9.953 -50.554  11.806  1.00  0.00     0.002 A
HETATM   21  C24 UNL     1     -10.714 -49.491  11.381  1.00  0.00     0.001 A
HETATM   22  C25 UNL     1     -12.078 -49.652  11.201  1.00  0.00     0.017 A
ENDBRANCH  10  12
ENDBRANCH   7  10
BRANCH   4  23
HETATM   23  N3  UNL     1     -15.432 -47.768  14.509  1.00  0.00    -0.225 N
ATOM     24  H3  UNL     1     -15.671 -46.783  14.623  1.00  0.00     0.177 HD
BRANCH  23  25
HETATM   25  C11 UNL     1     -14.424 -48.315  15.341  1.00  0.00     0.142 C
BRANCH  25  26
HETATM   26  C12 UNL     1     -13.062 -48.382  14.633  1.00  0.00     0.058 C
BRANCH  26  27
HETATM   27  C13 UNL     1     -12.476 -49.692  15.000  1.00  0.00    -0.057 A
HETATM   28  C14 UNL     1     -11.116 -49.787  15.164  1.00  0.00     0.007 A
HETATM   29  C15 UNL     1     -10.567 -50.993  15.504  1.00  0.00     0.001 A
HETATM   30  C16 UNL     1     -11.382 -52.094  15.677  1.00  0.00     0.000 A
HETATM   31  C17 UNL     1     -12.739 -51.985  15.511  1.00  0.00     0.001 A
HETATM   32  C18 UNL     1     -13.313 -50.781  15.168  1.00  0.00     0.007 A
ENDBRANCH  26  27
ENDBRANCH  25  26
ENDBRANCH  23  25
ENDBRANCH   4  23
BRANCH   1  33
HETATM   33  N1  UNL     1     -19.143 -49.421  12.348  1.00  0.00    -0.370 NA
BRANCH  33  34
HETATM   34  C8  UNL     1     -20.430 -49.568  12.256  1.00  0.00     0.117 A
HETATM   35  C3  UNL     1     -21.041 -50.116  11.098  1.00  0.00    -0.018 A
HETATM   36  C4  UNL     1     -22.396 -50.241  11.062  1.00  0.00     0.010 A
HETATM   37  C5  UNL     1     -23.190 -49.855  12.112  1.00  0.00     0.001 A
HETATM   38  C6  UNL     1     -22.643 -49.319  13.258  1.00  0.00     0.003 A
HETATM   39  C7  UNL     1     -21.285 -49.183  13.313  1.00  0.00     0.045 A
BRANCH  35  40
HETATM   40  C2  UNL     1     -20.146 -50.522   9.985  1.00  0.00     0.037 C
HETATM   41  C1  UNL     1     -20.487 -49.867   8.678  1.00  0.00     0.010 C
ENDBRANCH  35  40
ENDBRANCH  33  34
ENDBRANCH   1  33
TORSDOF 9
ENDMDL