MODEL 1
REMARK VINA RESULT: -7.534691242      0.000      0.000
REMARK  8 active torsions:
REMARK  status: ('A' for Active; 'I' for Inactive)
REMARK    1  A    between atoms: O1_2  and  C2_3
REMARK    2  A    between atoms: C5_6  and  N1_7
REMARK    3  A    between atoms: C7_12  and  N3_13
REMARK    4  A    between atoms: N3_13  and  C8_15
REMARK    5  A    between atoms: C8_15  and  C9_16
REMARK    6  A    between atoms: C9_16  and  C10_17
REMARK    7  A    between atoms: C18_29  and  N6_30
REMARK    8  A    between atoms: N6_30  and  C19_31
ROOT
HETATM    1  N1  UNL     1      55.168  -0.177 -10.155  1.00  0.00    -0.191 N
ATOM      2  H1  UNL     1      54.788  -1.043 -10.537  1.00  0.00     0.184 HD
HETATM    3  C6  UNL     1      56.271  -0.065 -10.692  1.00  0.00     0.700 A
HETATM    4  N2  UNL     1      56.640  -1.056 -11.580  1.00  0.00    -0.022 N
ATOM      5  H2  UNL     1      55.985  -1.820 -11.746  1.00  0.00     0.203 HD
HETATM    6  C7  UNL     1      57.808  -1.072 -12.236  1.00  0.00     0.696 A
HETATM    7  N5  UNL     1      58.666  -0.071 -12.021  1.00  0.00    -0.148 N
ATOM      8  H5  UNL     1      59.557  -0.076 -12.517  1.00  0.00     0.188 HD
HETATM    9  C18 UNL     1      58.394   0.967 -11.155  1.00  0.00     0.288 A
HETATM   10  N7  UNL     1      57.173   0.890 -10.532  1.00  0.00    -0.148 N
ATOM     11  H7  UNL     1      56.938   1.641  -9.884  1.00  0.00     0.188 HD
ENDROOT
BRANCH   6  12
HETATM   12  N3  UNL     1      58.091  -2.026 -13.050  1.00  0.00    -0.225 N
ATOM     13  H3  UNL     1      57.598  -2.075 -13.942  1.00  0.00     0.177 HD
BRANCH  12  14
HETATM   14  C8  UNL     1      59.070  -3.019 -12.750  1.00  0.00     0.142 C
BRANCH  14  15
HETATM   15  C9  UNL     1      58.451  -4.110 -11.898  1.00  0.00     0.061 C
BRANCH  15  16
HETATM   16  C10 UNL     1      58.746  -3.959 -10.465  1.00  0.00    -0.029 A
HETATM   17  C11 UNL     1      59.987  -3.994  -9.901  1.00  0.00     0.096 A
HETATM   18  N4  UNL     1      59.846  -3.819  -8.570  1.00  0.00    -0.365 N
HETATM   19  C12 UNL     1      58.533  -3.671  -8.269  1.00  0.00     0.042 A
ATOM     20  H4  UNL     1      60.610  -3.802  -7.894  1.00  0.00     0.165 HD
HETATM   21  C13 UNL     1      57.852  -3.469  -7.094  1.00  0.00     0.030 A
HETATM   22  C17 UNL     1      57.820  -3.758  -9.466  1.00  0.00    -0.002 A
HETATM   23  C14 UNL     1      56.493  -3.348  -7.039  1.00  0.00     0.002 A
HETATM   24  C15 UNL     1      55.785  -3.432  -8.216  1.00  0.00     0.001 A
HETATM   25  C16 UNL     1      56.441  -3.636  -9.419  1.00  0.00     0.014 A
ENDBRANCH  15  16
ENDBRANCH  14  15
ENDBRANCH  12  14
ENDBRANCH   6  12
BRANCH   9  26
HETATM   26  N6  UNL     1      59.187   1.863 -10.978  1.00  0.00    -0.370 NA
BRANCH  26  27
HETATM   27  C19 UNL     1      60.044   2.846 -10.948  1.00  0.00     0.111 A
HETATM   28  C20 UNL     1      59.710   4.105 -11.489  1.00  0.00     0.045 A
HETATM   29  C21 UNL     1      60.596   5.122 -11.456  1.00  0.00     0.003 A
HETATM   30  C22 UNL     1      61.838   4.952 -10.892  1.00  0.00     0.000 A
HETATM   31  C23 UNL     1      62.194   3.735 -10.354  1.00  0.00     0.003 A
HETATM   32  C24 UNL     1      61.333   2.698 -10.372  1.00  0.00     0.045 A
ENDBRANCH  26  27
ENDBRANCH   9  26
BRANCH   1  33
HETATM   33  C5  UNL     1      54.222   0.263  -9.326  1.00  0.00     0.049 A
HETATM   34  C4  UNL     1      53.803  -0.388  -8.196  1.00  0.00     0.033 A
HETATM   35  C3  UNL     1      52.812   0.149  -7.391  1.00  0.00     0.039 A
HETATM   36  C2  UNL     1      52.221   1.336  -7.689  1.00  0.00     0.068 A
HETATM   37  C26 UNL     1      52.620   2.023  -8.825  1.00  0.00     0.039 A
HETATM   38  C25 UNL     1      53.581   1.509  -9.611  1.00  0.00     0.033 A
BRANCH  36  39
HETATM   39  O1  UNL     1      51.235   1.856  -6.876  1.00  0.00    -0.356 OA
HETATM   40  C1  UNL     1      51.319   1.663  -5.478  1.00  0.00     0.210 C
ENDBRANCH  36  39
ENDBRANCH   1  33
TORSDOF 8
ENDMDL