MODEL 5
REMARK VINA RESULT: -6.432691773      3.311      5.432
REMARK  10 active torsions:
REMARK  status: ('A' for Active; 'I' for Inactive)
REMARK    1  A    between atoms: N1_3  and  C4_5
REMARK    2  A    between atoms: C7_8  and  N2_9
REMARK    3  A    between atoms: N2_9  and  C8_11
REMARK    4  A    between atoms: C9_14  and  N4_15
REMARK    5  A    between atoms: N4_15  and  C10_17
REMARK    6  A    between atoms: C10_17  and  C11_18
REMARK    7  A    between atoms: C17_26  and  N6_27
REMARK    8  A    between atoms: N6_27  and  C18_29
REMARK    9  A    between atoms: C21_32  and  C22_33
REMARK   10  A    between atoms: C22_33  and  N7_34
ROOT
HETATM    1  C1  UNL     1      54.098  -1.172  -3.667  1.00  0.00     0.037 C
HETATM    2  C2  UNL     1      53.410  -0.778  -4.576  1.00  0.00     0.002 C
HETATM    3  N1  UNL     1      52.622  -0.339  -5.637  1.00  0.00    -0.312 N
HETATM    4  C3  UNL     1      51.242   0.005  -5.391  1.00  0.00     0.167 C
ENDROOT
BRANCH   3   5
HETATM    5  C4  UNL     1      53.142  -0.223  -6.951  1.00  0.00     0.042 A
HETATM    6  C5  UNL     1      52.886   0.878  -7.735  1.00  0.00     0.032 A
HETATM    7  C6  UNL     1      53.417   0.931  -8.995  1.00  0.00     0.032 A
HETATM    8  C7  UNL     1      54.194  -0.085  -9.491  1.00  0.00     0.049 A
HETATM    9  C25 UNL     1      54.454  -1.189  -8.712  1.00  0.00     0.032 A
HETATM   10  C26 UNL     1      53.932  -1.269  -7.438  1.00  0.00     0.032 A
BRANCH   8  11
HETATM   11  N2  UNL     1      54.739  -0.010 -10.811  1.00  0.00    -0.191 N
ATOM     12  H2  UNL     1      54.122   0.088 -11.616  1.00  0.00     0.184 HD
BRANCH  11  13
HETATM   13  C8  UNL     1      55.998  -0.066 -10.975  1.00  0.00     0.711 A
HETATM   14  N3  UNL     1      56.542  -0.865 -11.912  1.00  0.00    -0.021 N
HETATM   15  C9  UNL     1      57.868  -0.940 -12.103  1.00  0.00     0.707 A
ATOM     16  H3  UNL     1      55.926  -1.431 -12.496  1.00  0.00     0.203 HD
HETATM   17  N5  UNL     1      58.640  -0.175 -11.310  1.00  0.00    -0.021 N
HETATM   18  C17 UNL     1      58.120   0.640 -10.359  1.00  0.00     0.711 A
ATOM     19  H5  UNL     1      59.653  -0.209 -11.429  1.00  0.00     0.203 HD
HETATM   20  N8  UNL     1      56.788   0.682 -10.205  1.00  0.00    -0.021 N
ATOM     21  H8  UNL     1      56.378   1.289  -9.495  1.00  0.00     0.203 HD
BRANCH  15  22
HETATM   22  N4  UNL     1      58.413  -1.684 -12.976  1.00  0.00    -0.221 N
ATOM     23  H4  UNL     1      58.798  -1.235 -13.807  1.00  0.00     0.178 HD
BRANCH  22  24
HETATM   24  C10 UNL     1      58.525  -3.113 -12.876  1.00  0.00     0.176 C
BRANCH  24  25
HETATM   25  C11 UNL     1      59.166  -3.532 -11.629  1.00  0.00    -0.040 A
HETATM   26  C12 UNL     1      60.456  -3.161 -11.344  1.00  0.00     0.009 A
HETATM   27  C13 UNL     1      61.052  -3.567 -10.156  1.00  0.00     0.001 A
HETATM   28  C14 UNL     1      60.359  -4.336  -9.266  1.00  0.00     0.000 A
HETATM   29  C15 UNL     1      59.045  -4.711  -9.562  1.00  0.00     0.001 A
HETATM   30  C16 UNL     1      58.448  -4.312 -10.739  1.00  0.00     0.009 A
ENDBRANCH  24  25
ENDBRANCH  22  24
ENDBRANCH  15  22
BRANCH  18  31
HETATM   31  N6  UNL     1      58.849   1.370  -9.602  1.00  0.00    -0.191 N
ATOM     32  H6  UNL     1      59.178   0.998  -8.711  1.00  0.00     0.184 HD
BRANCH  31  33
HETATM   33  C18 UNL     1      59.204   2.682  -9.980  1.00  0.00     0.049 A
HETATM   34  C19 UNL     1      59.672   2.980 -11.243  1.00  0.00     0.030 A
HETATM   35  C20 UNL     1      60.016   4.266 -11.603  1.00  0.00     0.011 A
HETATM   36  C21 UNL     1      59.909   5.317 -10.718  1.00  0.00    -0.033 A
HETATM   37  C23 UNL     1      59.443   5.036  -9.451  1.00  0.00     0.011 A
HETATM   38  C24 UNL     1      59.098   3.751  -9.089  1.00  0.00     0.030 A
BRANCH  36  39
HETATM   39  C22 UNL     1      60.286   6.707 -11.124  1.00  0.00     0.268 C
BRANCH  39  40
HETATM   40  N7  UNL     1      59.676   7.036 -12.379  1.00  0.00    -0.075 N
ATOM     41  H73 UNL     1      59.317   6.210 -12.857  1.00  0.00     0.274 HD
ATOM     42  H72 UNL     1      58.793   7.532 -12.255  1.00  0.00     0.274 HD
ATOM     43  H71 UNL     1      60.330   7.560 -12.960  1.00  0.00     0.274 HD
ENDBRANCH  39  40
ENDBRANCH  36  39
ENDBRANCH  31  33
ENDBRANCH  18  31
ENDBRANCH  11  13
ENDBRANCH   8  11
ENDBRANCH   3   5
TORSDOF 10
ENDMDL