MODEL 2
REMARK VINA RESULT: -7.677942049      3.245      4.352
REMARK  8 active torsions:
REMARK  status: ('A' for Active; 'I' for Inactive)
REMARK    1  A    between atoms: O1_2  and  C2_3
REMARK    2  A    between atoms: C7_10  and  C8_11
REMARK    3  A    between atoms: C10_13  and  N2_14
REMARK    4  A    between atoms: N2_14  and  C11_16
REMARK    5  A    between atoms: C11_16  and  C12_17
REMARK    6  A    between atoms: C12_17  and  N3_18
REMARK    7  A    between atoms: N3_18  and  C13_20
REMARK    8  A    between atoms: N6_30  and  C19_32
ROOT
HETATM    1  C8  UNL     1      54.824   1.163  -8.993  1.00  0.00     0.065 A
HETATM    2  C9  UNL     1      55.834   1.197  -8.019  1.00  0.00     0.079 A
HETATM    3  C10 UNL     1      57.021   0.552  -8.228  1.00  0.00     0.119 A
HETATM    4  N5  UNL     1      57.211  -0.125  -9.392  1.00  0.00    -0.177 N
ATOM      5  H5  UNL     1      58.097  -0.606  -9.547  1.00  0.00     0.186 HD
HETATM    6  C18 UNL     1      56.271  -0.176 -10.337  1.00  0.00     0.684 A
HETATM    7  N6  UNL     1      56.383  -0.787 -11.445  1.00  0.00    -0.192 N
ATOM      8  H6  UNL     1      55.577  -0.737 -12.069  1.00  0.00     0.184 HD
HETATM    9  N7  UNL     1      55.096   0.483 -10.089  1.00  0.00    -0.191 N
ATOM     10  H7  UNL     1      54.375   0.445 -10.809  1.00  0.00     0.184 HD
ENDROOT
BRANCH   3  11
HETATM   11  N2  UNL     1      57.949   0.573  -7.350  1.00  0.00    -0.374 N
ATOM     12  H2  UNL     1      58.862   0.952  -7.597  1.00  0.00     0.161 HD
BRANCH  11  13
HETATM   13  C11 UNL     1      57.728   0.075  -6.029  1.00  0.00     0.141 C
BRANCH  13  14
HETATM   14  C12 UNL     1      58.109  -1.384  -5.861  1.00  0.00     0.141 C
BRANCH  14  15
HETATM   15  N3  UNL     1      56.924  -2.162  -5.753  1.00  0.00    -0.375 N
ATOM     16  H3  UNL     1      56.678  -2.537  -4.836  1.00  0.00     0.161 HD
BRANCH  15  17
HETATM   17  C13 UNL     1      56.146  -2.419  -6.736  1.00  0.00     0.100 A
HETATM   18  C14 UNL     1      56.513  -3.191  -7.808  1.00  0.00     0.048 A
HETATM   19  C15 UNL     1      55.626  -3.441  -8.857  1.00  0.00     0.005 A
HETATM   20  C16 UNL     1      54.364  -2.901  -8.810  1.00  0.00     0.017 A
HETATM   21  C17 UNL     1      54.027  -2.131  -7.720  1.00  0.00     0.089 A
HETATM   22  N4  UNL     1      54.894  -1.911  -6.737  1.00  0.00    -0.353 N
ATOM     23  H4  UNL     1      54.601  -1.333  -5.949  1.00  0.00     0.166 HD
ENDBRANCH  15  17
ENDBRANCH  14  15
ENDBRANCH  13  14
ENDBRANCH  11  13
ENDBRANCH   3  11
BRANCH   1  24
HETATM   24  C7  UNL     1      53.620   1.942  -8.704  1.00  0.00     0.019 A
HETATM   25  C6  UNL     1      52.325   1.416  -8.831  1.00  0.00     0.103 A
HETATM   26  N1  UNL     1      51.458   2.348  -8.463  1.00  0.00    -0.364 N
HETATM   27  C5  UNL     1      52.111   3.462  -8.099  1.00  0.00     0.043 A
ATOM     28  H1  UNL     1      50.444   2.236  -8.458  1.00  0.00     0.165 HD
HETATM   29  C4  UNL     1      51.678   4.694  -7.630  1.00  0.00     0.033 A
HETATM   30  C25 UNL     1      53.462   3.230  -8.240  1.00  0.00     0.007 A
HETATM   31  C3  UNL     1      52.595   5.661  -7.313  1.00  0.00     0.039 A
HETATM   32  C2  UNL     1      53.949   5.454  -7.443  1.00  0.00     0.069 A
HETATM   33  C26 UNL     1      54.391   4.214  -7.916  1.00  0.00     0.051 A
BRANCH  32  34
HETATM   34  O1  UNL     1      54.865   6.423  -7.125  1.00  0.00    -0.356 OA
HETATM   35  C1  UNL     1      56.108   6.139  -6.547  1.00  0.00     0.210 C
ENDBRANCH  32  34
ENDBRANCH   1  24
BRANCH   7  36
HETATM   36  C19 UNL     1      57.468  -1.513 -11.905  1.00  0.00     0.049 A
HETATM   37  C20 UNL     1      58.677  -0.917 -12.157  1.00  0.00     0.030 A
HETATM   38  C21 UNL     1      59.755  -1.655 -12.618  1.00  0.00     0.002 A
HETATM   39  C22 UNL     1      59.602  -3.008 -12.824  1.00  0.00     0.000 A
HETATM   40  C23 UNL     1      58.410  -3.628 -12.582  1.00  0.00     0.002 A
HETATM   41  C24 UNL     1      57.347  -2.865 -12.121  1.00  0.00     0.030 A
ENDBRANCH   7  36
TORSDOF 8
ENDMDL