MODEL 2
REMARK VINA RESULT: -6.771349384      2.327      7.916
REMARK  9 active torsions:
REMARK  status: ('A' for Active; 'I' for Inactive)
REMARK    1  A    between atoms: C7_7  and  N1_8
REMARK    2  A    between atoms: C10_11  and  N2_12
REMARK    3  A    between atoms: N2_12  and  C11_14
REMARK    4  A    between atoms: C11_14  and  C12_15
REMARK    5  A    between atoms: C12_15  and  N3_16
REMARK    6  A    between atoms: N3_16  and  C13_18
REMARK    7  A    between atoms: C20_29  and  C21_30
REMARK    8  A    between atoms: C21_30  and  C22_31
REMARK    9  A    between atoms: C28_37  and  O1_38
ROOT
HETATM    1  N1  UNL     1      56.460  -1.395 -10.869  1.00  0.00    -0.302 N
HETATM    2  C8  UNL     1      55.846  -0.350 -11.417  1.00  0.00     0.102 A
HETATM    3  C9  UNL     1      54.756   0.302 -10.841  1.00  0.00     0.047 A
HETATM    4  C10 UNL     1      54.293  -0.168  -9.635  1.00  0.00     0.040 A
HETATM    5  C20 UNL     1      54.929  -1.269  -9.042  1.00  0.00     0.024 A
HETATM    6  C28 UNL     1      56.004  -1.849  -9.691  1.00  0.00     0.155 A
ENDROOT
BRANCH   4   7
HETATM    7  N2  UNL     1      53.294   0.387  -9.090  1.00  0.00    -0.388 N
ATOM      8  H2  UNL     1      52.453  -0.179  -8.977  1.00  0.00     0.159 HD
BRANCH   7   9
HETATM    9  C11 UNL     1      53.237   1.733  -8.620  1.00  0.00     0.140 C
BRANCH   9  10
HETATM   10  C12 UNL     1      51.804   2.241  -8.523  1.00  0.00     0.157 C
BRANCH  10  11
HETATM   11  N3  UNL     1      51.358   2.415  -7.168  1.00  0.00    -0.224 N
ATOM     12  H3  UNL     1      50.650   3.124  -6.976  1.00  0.00     0.177 HD
BRANCH  11  13
HETATM   13  C13 UNL     1      51.812   1.715  -6.183  1.00  0.00     0.679 A
HETATM   14  N4  UNL     1      51.693   0.402  -5.963  1.00  0.00    -0.190 N
HETATM   15  C14 UNL     1      52.295   0.029  -4.812  1.00  0.00     0.076 A
ATOM     16  H4  UNL     1      51.207  -0.240  -6.589  1.00  0.00     0.184 HD
HETATM   17  C15 UNL     1      52.461  -1.170  -4.137  1.00  0.00     0.032 A
HETATM   18  C19 UNL     1      52.820   1.191  -4.289  1.00  0.00     0.076 A
HETATM   19  C16 UNL     1      53.136  -1.235  -2.953  1.00  0.00     0.002 A
HETATM   20  C17 UNL     1      53.675  -0.090  -2.402  1.00  0.00     0.002 A
HETATM   21  C18 UNL     1      53.505   1.097  -3.081  1.00  0.00     0.032 A
HETATM   22  N5  UNL     1      52.523   2.195  -5.122  1.00  0.00    -0.190 N
ATOM     23  H5  UNL     1      52.789   3.171  -4.984  1.00  0.00     0.184 HD
ENDBRANCH  11  13
ENDBRANCH  10  11
ENDBRANCH   9  10
ENDBRANCH   7   9
ENDBRANCH   4   7
BRANCH   5  24
HETATM   24  C21 UNL     1      54.487  -1.803  -7.758  1.00  0.00     0.084 C
BRANCH  24  25
HETATM   25  C22 UNL     1      55.284  -1.380  -6.583  1.00  0.00    -0.054 A
HETATM   26  C23 UNL     1      55.711  -2.323  -5.641  1.00  0.00     0.007 A
HETATM   27  C24 UNL     1      56.443  -1.985  -4.523  1.00  0.00     0.001 A
HETATM   28  C25 UNL     1      56.793  -0.677  -4.284  1.00  0.00     0.000 A
HETATM   29  C26 UNL     1      56.390   0.276  -5.188  1.00  0.00     0.001 A
HETATM   30  C27 UNL     1      55.648  -0.079  -6.318  1.00  0.00     0.007 A
ENDBRANCH  24  25
ENDBRANCH   5  24
BRANCH   6  31
HETATM   31  O1  UNL     1      56.701  -2.952  -9.179  1.00  0.00    -0.345 OA
ATOM     32  H1  UNL     1      56.246  -3.424  -8.492  1.00  0.00     0.219 HD
ENDBRANCH   6  31
BRANCH   1  33
HETATM   33  C7  UNL     1      57.560  -1.980 -11.546  1.00  0.00     0.046 A
HETATM   34  C2  UNL     1      58.787  -1.360 -11.398  1.00  0.00    -0.035 A
HETATM   35  C1  UNL     1      59.007  -0.142 -10.584  1.00  0.00     0.050 C
HETATM   36  C3  UNL     1      59.865  -1.913 -12.048  1.00  0.00     0.009 A
HETATM   37  C4  UNL     1      59.732  -3.050 -12.823  1.00  0.00     0.001 A
HETATM   38  C5  UNL     1      58.515  -3.650 -12.959  1.00  0.00     0.002 A
HETATM   39  C6  UNL     1      57.440  -3.112 -12.321  1.00  0.00     0.030 A
ENDBRANCH   1  33
TORSDOF 9
ENDMDL