MODEL 4
REMARK VINA RESULT: -7.724768887      4.638      8.012
REMARK  6 active torsions:
REMARK  status: ('A' for Active; 'I' for Inactive)
REMARK    1  A    between atoms: C4_8  and  C5_9
REMARK    2  A    between atoms: C8_12  and  N2_13
REMARK    3  A    between atoms: N2_13  and  S1_15
REMARK    4  A    between atoms: S1_15  and  C9_18
REMARK    5  A    between atoms: C12_21  and  N3_22
REMARK       I    between atoms: N3_22  and  C13_24
REMARK    6  A    between atoms: C13_24  and  C14_26
ROOT
HETATM    1  S1  UNL     1      52.106  -0.654  -5.056  1.00  0.00     0.263 S
HETATM    2  O3  UNL     1      52.235  -1.748  -4.038  1.00  0.00    -0.200 OA
HETATM    3  O4  UNL     1      50.742  -0.808  -5.673  1.00  0.00    -0.200 OA
ENDROOT
BRANCH   1   4
HETATM    4  N2  UNL     1      52.288   0.853  -4.269  1.00  0.00    -0.281 N
ATOM      5  H2  UNL     1      53.223   1.219  -4.091  1.00  0.00     0.179 HD
BRANCH   4   6
HETATM    6  C8  UNL     1      51.162   1.594  -3.867  1.00  0.00     0.042 A
HETATM    7  C7  UNL     1      50.554   2.559  -4.633  1.00  0.00     0.031 A
HETATM    8  C6  UNL     1      49.455   3.270  -4.218  1.00  0.00     0.014 A
HETATM    9  C5  UNL     1      48.882   3.046  -2.959  1.00  0.00    -0.034 A
HETATM   10  C23 UNL     1      49.489   2.077  -2.182  1.00  0.00     0.014 A
HETATM   11  C22 UNL     1      50.593   1.371  -2.617  1.00  0.00     0.031 A
BRANCH   9  12
HETATM   12  C4  UNL     1      47.743   3.837  -2.540  1.00  0.00     0.046 C
HETATM   13  C3  UNL     1      46.525   3.332  -2.539  1.00  0.00     0.105 A
HETATM   14  C2  UNL     1      45.332   4.085  -2.122  1.00  0.00     0.276 A
HETATM   15  N4  UNL     1      46.067   2.055  -2.933  1.00  0.00    -0.304 N
HETATM   16  N1  UNL     1      44.221   3.218  -2.287  1.00  0.00    -0.274 N
HETATM   17  O2  UNL     1      45.354   5.278  -1.701  1.00  0.00    -0.266 OA
HETATM   18  C1  UNL     1      44.654   1.972  -2.782  1.00  0.00     0.327 A
ATOM     19  H1  UNL     1      43.252   3.461  -2.079  1.00  0.00     0.173 HD
HETATM   20  O1  UNL     1      43.948   0.988  -3.041  1.00  0.00    -0.247 OA
ATOM     21  H4  UNL     1      46.662   1.301  -3.276  1.00  0.00     0.171 HD
ENDBRANCH   9  12
ENDBRANCH   4   6
ENDBRANCH   1   4
BRANCH   1  22
HETATM   22  C9  UNL     1      53.363  -0.902  -6.251  1.00  0.00     0.080 A
HETATM   23  C10 UNL     1      54.322  -1.876  -6.071  1.00  0.00     0.027 A
HETATM   24  C11 UNL     1      55.275  -2.037  -7.018  1.00  0.00     0.031 A
HETATM   25  C12 UNL     1      55.358  -1.272  -8.186  1.00  0.00     0.035 A
HETATM   26  C20 UNL     1      54.402  -0.306  -8.358  1.00  0.00     0.031 A
HETATM   27  C21 UNL     1      53.407  -0.131  -7.380  1.00  0.00     0.027 A
BRANCH  25  28
HETATM   28  N3  UNL     1      56.411  -1.516  -9.106  1.00  0.00    -0.323 N
HETATM   29  C13 UNL     1      56.336  -2.192 -10.316  1.00  0.00     0.256 C
HETATM   30  O5  UNL     1      55.281  -2.691 -10.745  1.00  0.00    -0.267 OA
ATOM     31  H3  UNL     1      57.329  -1.152  -8.848  1.00  0.00     0.169 HD
BRANCH  29  32
HETATM   32  C14 UNL     1      57.520  -2.365 -11.181  1.00  0.00     0.032 A
HETATM   33  C15 UNL     1      57.594  -3.429 -12.082  1.00  0.00     0.017 A
HETATM   34  C16 UNL     1      58.688  -3.596 -12.890  1.00  0.00     0.001 A
HETATM   35  C17 UNL     1      59.754  -2.730 -12.850  1.00  0.00     0.000 A
HETATM   36  C18 UNL     1      59.712  -1.673 -11.973  1.00  0.00     0.001 A
HETATM   37  C19 UNL     1      58.590  -1.512 -11.152  1.00  0.00     0.017 A
ENDBRANCH  29  32
ENDBRANCH  25  28
ENDBRANCH   1  22
TORSDOF 6
ENDMDL