MODEL 2
REMARK VINA RESULT: -7.456205919      1.803      6.834
REMARK  8 active torsions:
REMARK  status: ('A' for Active; 'I' for Inactive)
REMARK    1  A    between atoms: N1_2  and  C2_4
REMARK    2  A    between atoms: C5_11  and  C6_12
REMARK    3  A    between atoms: C9_15  and  C10_16
REMARK    4  A    between atoms: N5_22  and  C14_24
REMARK    5  A    between atoms: C14_24  and  C15_25
REMARK    6  A    between atoms: C15_25  and  N6_26
REMARK    7  A    between atoms: C15_25  and  C16_30
REMARK    8  A    between atoms: C16_30  and  C17_31
ROOT
HETATM    1  C10 UNL     1      57.156  -0.615 -10.720  1.00  0.00    -0.021 A
HETATM    2  C11 UNL     1      57.183  -0.883 -12.071  1.00  0.00     0.029 A
HETATM    3  C12 UNL     1      58.192  -1.626 -12.647  1.00  0.00     0.090 A
HETATM    4  N4  UNL     1      59.180  -2.103 -11.873  1.00  0.00    -0.353 N
ATOM      5  H4  UNL     1      59.927  -2.653 -12.298  1.00  0.00     0.166 HD
HETATM    6  C13 UNL     1      59.208  -1.871 -10.537  1.00  0.00     0.101 A
HETATM    7  N5  UNL     1      60.193  -2.367  -9.901  1.00  0.00    -0.374 N
ATOM      8  H5  UNL     1      60.868  -2.891 -10.458  1.00  0.00     0.161 HD
HETATM    9  C25 UNL     1      58.194  -1.129  -9.973  1.00  0.00     0.060 A
ENDROOT
BRANCH   7  10
HETATM   10  C14 UNL     1      60.468  -2.280  -8.510  1.00  0.00     0.154 C
BRANCH  10  11
HETATM   11  C15 UNL     1      60.412  -3.658  -7.867  1.00  0.00     0.205 C
BRANCH  11  12
HETATM   12  N6  UNL     1      61.456  -4.492  -8.390  1.00  0.00    -0.073 N
ATOM     13  H63 UNL     1      61.960  -4.038  -9.152  1.00  0.00     0.274 HD
ATOM     14  H62 UNL     1      62.231  -4.589  -7.735  1.00  0.00     0.274 HD
ATOM     15  H61 UNL     1      61.077  -5.397  -8.670  1.00  0.00     0.274 HD
ENDBRANCH  11  12
BRANCH  11  16
HETATM   16  C16 UNL     1      59.049  -4.247  -7.911  1.00  0.00     0.075 C
BRANCH  16  17
HETATM   17  C17 UNL     1      58.005  -3.454  -7.235  1.00  0.00    -0.028 A
HETATM   18  C18 UNL     1      58.152  -2.872  -5.979  1.00  0.00     0.096 A
HETATM   19  N7  UNL     1      57.015  -2.255  -5.636  1.00  0.00    -0.365 N
HETATM   20  C19 UNL     1      56.104  -2.403  -6.620  1.00  0.00     0.042 A
ATOM     21  H7  UNL     1      56.861  -1.751  -4.763  1.00  0.00     0.165 HD
HETATM   22  C20 UNL     1      54.807  -1.954  -6.749  1.00  0.00     0.030 A
HETATM   23  C24 UNL     1      56.718  -3.152  -7.626  1.00  0.00    -0.002 A
HETATM   24  C21 UNL     1      54.098  -2.257  -7.908  1.00  0.00     0.002 A
HETATM   25  C22 UNL     1      54.700  -2.996  -8.904  1.00  0.00     0.001 A
HETATM   26  C23 UNL     1      56.001  -3.432  -8.747  1.00  0.00     0.014 A
ENDBRANCH  16  17
ENDBRANCH  11  16
ENDBRANCH  10  11
ENDBRANCH   7  10
BRANCH   1  27
HETATM   27  C9  UNL     1      56.100   0.168 -10.092  1.00  0.00    -0.026 A
HETATM   28  C8  UNL     1      56.276   0.826  -8.894  1.00  0.00     0.013 A
HETATM   29  C7  UNL     1      55.252   1.562  -8.319  1.00  0.00     0.014 A
HETATM   30  C6  UNL     1      54.005   1.685  -8.897  1.00  0.00    -0.006 A
HETATM   31  C27 UNL     1      53.822   1.015 -10.118  1.00  0.00     0.014 A
HETATM   32  C26 UNL     1      54.847   0.296 -10.665  1.00  0.00     0.013 A
BRANCH  30  33
HETATM   33  C5  UNL     1      52.929   2.444  -8.337  1.00  0.00     0.086 A
HETATM   34  C2  UNL     1      52.104   1.926  -7.383  1.00  0.00     0.128 A
HETATM   35  N2  UNL     1      51.088   2.661  -6.848  1.00  0.00    -0.349 N
HETATM   36  C3  UNL     1      50.884   3.928  -7.262  1.00  0.00     0.106 A
ATOM     37  H2  UNL     1      50.482   2.253  -6.136  1.00  0.00     0.167 HD
HETATM   38  C4  UNL     1      51.710   4.460  -8.222  1.00  0.00     0.105 A
HETATM   39  N3  UNL     1      52.711   3.708  -8.737  1.00  0.00    -0.361 N
ATOM     40  H3  UNL     1      53.318   4.113  -9.449  1.00  0.00     0.165 HD
BRANCH  34  41
HETATM   41  N1  UNL     1      52.317   0.724  -6.991  1.00  0.00    -0.379 N
HETATM   42  C1  UNL     1      51.483   0.178  -5.938  1.00  0.00     0.147 C
ATOM     43  H1  UNL     1      53.058   0.163  -7.411  1.00  0.00     0.160 HD
ENDBRANCH  34  41
ENDBRANCH  30  33
ENDBRANCH   1  27
TORSDOF 8
ENDMDL