MODEL 5
REMARK VINA RESULT: -6.566980194      4.684      9.276
REMARK  10 active torsions:
REMARK  status: ('A' for Active; 'I' for Inactive)
REMARK    1  A    between atoms: C4_7  and  N3_8
REMARK    2  A    between atoms: N3_8  and  C5_10
REMARK    3  A    between atoms: C5_10  and  C6_11
REMARK    4  A    between atoms: C12_19  and  N5_20
REMARK    5  A    between atoms: N5_20  and  C13_21
REMARK    6  A    between atoms: C13_21  and  N6_22
REMARK    7  A    between atoms: C13_21  and  C14_26
REMARK    8  A    between atoms: C14_26  and  C15_27
REMARK    9  A    between atoms: C18_30  and  C19_31
REMARK   10  A    between atoms: C28_40  and  O1_41
ROOT
HETATM    1  C1  UNL     1      49.005  -0.194  -0.618  1.00  0.00     0.158 C
HETATM    2  N1  UNL     1      50.039  -0.235  -1.629  1.00  0.00    -0.339 N
HETATM    3  C2  UNL     1      51.053  -1.118  -1.662  1.00  0.00     0.123 A
HETATM    4  C3  UNL     1      51.850  -0.855  -2.778  1.00  0.00     0.084 A
HETATM    5  N2  UNL     1      52.962  -1.420  -3.270  1.00  0.00    -0.189 N
ATOM      6  H2  UNL     1      53.380  -2.218  -2.790  1.00  0.00     0.184 HD
HETATM    7  C4  UNL     1      53.530  -0.943  -4.393  1.00  0.00     0.681 A
HETATM    8  N4  UNL     1      52.972   0.089  -4.998  1.00  0.00    -0.164 N
ATOM      9  H4  UNL     1      53.417   0.437  -5.848  1.00  0.00     0.187 HD
HETATM   10  C12 UNL     1      51.830   0.731  -4.563  1.00  0.00     0.206 A
HETATM   11  C27 UNL     1      51.257   0.220  -3.395  1.00  0.00     0.102 A
HETATM   12  C28 UNL     1      50.139   0.608  -2.692  1.00  0.00     0.159 A
ENDROOT
BRANCH  10  13
HETATM   13  N5  UNL     1      51.351   1.660  -5.127  1.00  0.00    -0.395 NA
BRANCH  13  14
HETATM   14  C13 UNL     1      50.730   2.546  -5.893  1.00  0.00     0.364 C
BRANCH  14  15
HETATM   15  N6  UNL     1      49.856   3.508  -5.160  1.00  0.00    -0.046 N
ATOM     16  H63 UNL     1      48.935   3.551  -5.598  1.00  0.00     0.278 HD
ATOM     17  H62 UNL     1      49.601   3.129  -4.248  1.00  0.00     0.278 HD
ATOM     18  H61 UNL     1      50.241   4.446  -5.056  1.00  0.00     0.278 HD
ENDBRANCH  14  15
BRANCH  14  19
HETATM   19  C14 UNL     1      51.641   3.499  -6.707  1.00  0.00     0.107 C
BRANCH  19  20
HETATM   20  C15 UNL     1      52.625   2.769  -7.515  1.00  0.00    -0.053 A
HETATM   21  C16 UNL     1      52.206   1.904  -8.489  1.00  0.00     0.008 A
HETATM   22  C17 UNL     1      53.126   1.200  -9.276  1.00  0.00     0.013 A
HETATM   23  C18 UNL     1      54.480   1.363  -9.082  1.00  0.00    -0.026 A
HETATM   24  C25 UNL     1      54.914   2.233  -8.101  1.00  0.00     0.013 A
HETATM   25  C26 UNL     1      53.987   2.915  -7.341  1.00  0.00     0.008 A
BRANCH  23  26
HETATM   26  C19 UNL     1      55.485   0.657  -9.868  1.00  0.00    -0.026 A
HETATM   27  C20 UNL     1      55.113  -0.032 -11.004  1.00  0.00     0.012 A
HETATM   28  C21 UNL     1      56.074  -0.702 -11.748  1.00  0.00     0.001 A
HETATM   29  C22 UNL     1      57.405  -0.705 -11.389  1.00  0.00     0.000 A
HETATM   30  C23 UNL     1      57.761  -0.017 -10.261  1.00  0.00     0.001 A
HETATM   31  C24 UNL     1      56.827   0.663  -9.495  1.00  0.00     0.012 A
ENDBRANCH  23  26
ENDBRANCH  19  20
ENDBRANCH  14  19
ENDBRANCH  13  14
ENDBRANCH  10  13
BRANCH   7  32
HETATM   32  N3  UNL     1      54.626  -1.507  -4.866  1.00  0.00    -0.222 N
ATOM     33  H3  UNL     1      54.923  -2.423  -4.530  1.00  0.00     0.178 HD
BRANCH  32  34
HETATM   34  C5  UNL     1      55.406  -0.802  -5.877  1.00  0.00     0.176 C
BRANCH  34  35
HETATM   35  C6  UNL     1      55.509  -1.719  -7.051  1.00  0.00    -0.040 A
HETATM   36  C7  UNL     1      56.697  -2.303  -7.444  1.00  0.00     0.009 A
HETATM   37  C8  UNL     1      56.786  -3.156  -8.539  1.00  0.00     0.001 A
HETATM   38  C9  UNL     1      55.643  -3.444  -9.275  1.00  0.00     0.000 A
HETATM   39  C10 UNL     1      54.450  -2.868  -8.894  1.00  0.00     0.001 A
HETATM   40  C11 UNL     1      54.391  -2.024  -7.802  1.00  0.00     0.009 A
ENDBRANCH  34  35
ENDBRANCH  32  34
ENDBRANCH   7  32
BRANCH  12  41
HETATM   41  O1  UNL     1      49.224   1.619  -2.905  1.00  0.00    -0.345 OA
ATOM     42  H1  UNL     1      48.921   2.177  -2.198  1.00  0.00     0.219 HD
ENDBRANCH  12  41
TORSDOF 10
ENDMDL