MODEL 4
REMARK VINA RESULT: -6.847547028      2.664      4.110
REMARK  7 active torsions:
REMARK  status: ('A' for Active; 'I' for Inactive)
REMARK    1  A    between atoms: C2_2  and  N1_3
REMARK    2  A    between atoms: N1_3  and  C3_4
REMARK    3  A    between atoms: N1_3  and  C8_14
REMARK    4  A    between atoms: C3_4  and  C4_5
REMARK    5  A    between atoms: C11_17  and  C12_18
REMARK    6  A    between atoms: C13_20  and  N4_21
REMARK       I    between atoms: N4_21  and  C14_23
REMARK    7  A    between atoms: C15_30  and  C16_31
ROOT
HETATM    1  C8  UNL     1      56.421  -1.872 -10.344  1.00  0.00     0.034 A
HETATM    2  C9  UNL     1      55.143  -2.292 -10.187  1.00  0.00     0.030 A
HETATM    3  C10 UNL     1      54.470  -2.001  -8.985  1.00  0.00     0.015 A
HETATM    4  C11 UNL     1      55.100  -1.309  -7.999  1.00  0.00    -0.017 A
HETATM    5  C22 UNL     1      56.409  -0.881  -8.176  1.00  0.00     0.015 A
HETATM    6  C23 UNL     1      57.083  -1.153  -9.339  1.00  0.00     0.030 A
ENDROOT
BRANCH   4   7
HETATM    7  C12 UNL     1      54.506  -0.973  -6.687  1.00  0.00     0.046 A
HETATM    8  S1  UNL     1      54.602  -1.892  -5.259  1.00  0.00    -0.051 SA
HETATM    9  C13 UNL     1      53.633  -0.906  -4.263  1.00  0.00     0.152 A
HETATM   10  N7  UNL     1      53.273   0.089  -5.070  1.00  0.00    -0.335 N
HETATM   11  C15 UNL     1      53.716   0.066  -6.317  1.00  0.00     0.062 A
ATOM     12  H7  UNL     1      52.674   0.846  -4.737  1.00  0.00     0.168 HD
BRANCH   9  13
HETATM   13  N4  UNL     1      53.298  -1.061  -2.997  1.00  0.00    -0.311 N
HETATM   14  C14 UNL     1      51.887  -1.171  -2.745  1.00  0.00     0.187 C
HETATM   15  N5  UNL     1      51.462  -2.276  -2.171  1.00  0.00    -0.373 N
HETATM   16  N6  UNL     1      50.928  -0.207  -3.066  1.00  0.00    -0.064 NA
ATOM     17  H52 UNL     1      52.162  -2.980  -1.936  1.00  0.00     0.158 HD
ATOM     18  H51 UNL     1      50.461  -2.354  -1.992  1.00  0.00     0.158 HD
ATOM     19  H4  UNL     1      53.991  -1.100  -2.249  1.00  0.00     0.170 HD
ENDBRANCH   9  13
BRANCH  11  20
HETATM   20  C16 UNL     1      53.367   1.183  -7.246  1.00  0.00    -0.008 A
HETATM   21  C17 UNL     1      54.170   2.283  -7.240  1.00  0.00     0.014 A
HETATM   22  C18 UNL     1      53.899   3.371  -8.033  1.00  0.00     0.001 A
HETATM   23  C19 UNL     1      52.791   3.338  -8.854  1.00  0.00     0.000 A
HETATM   24  C20 UNL     1      51.978   2.227  -8.864  1.00  0.00     0.001 A
HETATM   25  C21 UNL     1      52.253   1.128  -8.062  1.00  0.00     0.014 A
ENDBRANCH  11  20
ENDBRANCH   4   7
BRANCH   1  26
HETATM   26  N1  UNL     1      57.250  -2.105 -11.521  1.00  0.00    -0.355 N
BRANCH  26  27
HETATM   27  C2  UNL     1      57.467  -3.414 -11.955  1.00  0.00     0.060 C
HETATM   28  C1  UNL     1      58.281  -4.242 -10.976  1.00  0.00     0.055 C
ENDBRANCH  26  27
BRANCH  26  29
HETATM   29  C3  UNL     1      57.809  -0.893 -12.024  1.00  0.00     0.191 C
BRANCH  29  30
HETATM   30  C4  UNL     1      59.285  -0.896 -12.270  1.00  0.00     0.096 A
HETATM   31  N2  UNL     1      59.913  -1.759 -13.066  1.00  0.00    -0.362 N
HETATM   32  C5  UNL     1      61.248  -1.805 -13.067  1.00  0.00     0.105 A
ATOM     33  H2  UNL     1      59.378  -2.381 -13.670  1.00  0.00     0.165 HD
HETATM   34  C6  UNL     1      61.998  -0.964 -12.250  1.00  0.00     0.108 A
HETATM   35  N3  UNL     1      61.327  -0.097 -11.450  1.00  0.00    -0.331 N
HETATM   36  C7  UNL     1      60.012  -0.048 -11.445  1.00  0.00     0.269 A
ATOM     37  H3  UNL     1      61.853   0.529 -10.840  1.00  0.00     0.168 HD
HETATM   38  O1  UNL     1      59.384   0.772 -10.695  1.00  0.00    -0.266 OA
ENDBRANCH  29  30
ENDBRANCH  26  29
ENDBRANCH   1  26
TORSDOF 7
ENDMDL