MODEL 2
REMARK VINA RESULT: -7.326947771      1.466      1.884
REMARK  8 active torsions:
REMARK  status: ('A' for Active; 'I' for Inactive)
REMARK    1  A    between atoms: N1_2  and  C2_4
REMARK    2  A    between atoms: C2_4  and  C3_8
REMARK    3  A    between atoms: C6_11  and  S1_12
REMARK    4  A    between atoms: S1_12  and  N3_15
REMARK    5  A    between atoms: N3_15  and  C7_17
REMARK    6  A    between atoms: C10_20  and  N4_21
REMARK    7  A    between atoms: N4_21  and  C11_22
REMARK    8  A    between atoms: C12_23  and  C13_24
ROOT
HETATM    1  C7  UNL     1      55.291  -1.858 -10.646  1.00  0.00     0.042 A
HETATM    2  C8  UNL     1      54.841  -2.512  -9.466  1.00  0.00     0.033 A
HETATM    3  C9  UNL     1      54.118  -1.826  -8.539  1.00  0.00     0.047 A
HETATM    4  C10 UNL     1      53.778  -0.497  -8.679  1.00  0.00     0.107 A
HETATM    5  C21 UNL     1      54.214   0.142  -9.820  1.00  0.00     0.047 A
HETATM    6  C22 UNL     1      54.955  -0.549 -10.770  1.00  0.00     0.033 A
ENDROOT
BRANCH   1   7
HETATM    7  N3  UNL     1      56.034  -2.652 -11.543  1.00  0.00    -0.281 N
ATOM      8  H3  UNL     1      55.514  -3.124 -12.282  1.00  0.00     0.179 HD
BRANCH   7   9
HETATM    9  S1  UNL     1      57.685  -2.892 -11.506  1.00  0.00     0.263 S
HETATM   10  O1  UNL     1      58.025  -3.875 -12.665  1.00  0.00    -0.200 OA
HETATM   11  O2  UNL     1      58.369  -1.590 -11.908  1.00  0.00    -0.200 OA
BRANCH   9  12
HETATM   12  C6  UNL     1      58.457  -3.456 -10.096  1.00  0.00     0.079 A
HETATM   13  C5  UNL     1      58.401  -2.964  -8.820  1.00  0.00     0.026 A
HETATM   14  C4  UNL     1      59.123  -3.524  -7.795  1.00  0.00     0.017 A
HETATM   15  C3  UNL     1      59.948  -4.615  -7.970  1.00  0.00     0.007 A
HETATM   16  C24 UNL     1      60.021  -5.132  -9.251  1.00  0.00     0.017 A
HETATM   17  C23 UNL     1      59.300  -4.567 -10.268  1.00  0.00     0.026 A
BRANCH  15  18
HETATM   18  C2  UNL     1      60.689  -5.257  -6.913  1.00  0.00     0.104 C
HETATM   19  N2  UNL     1      61.830  -4.900  -6.472  1.00  0.00    -0.385 N
ATOM     20  H22 UNL     1      62.354  -5.354  -5.724  1.00  0.00     0.157 HD
ATOM     21  H21 UNL     1      62.197  -4.064  -6.928  1.00  0.00     0.157 HD
BRANCH  18  22
HETATM   22  N1  UNL     1      60.164  -6.454  -6.260  1.00  0.00    -0.380 N
HETATM   23  C1  UNL     1      60.860  -7.672  -6.622  1.00  0.00     0.147 C
ATOM     24  H1  UNL     1      59.378  -6.434  -5.610  1.00  0.00     0.160 HD
ENDBRANCH  18  22
ENDBRANCH  15  18
ENDBRANCH   9  12
ENDBRANCH   7   9
ENDBRANCH   1   7
BRANCH   4  25
HETATM   25  N4  UNL     1      53.052   0.108  -7.758  1.00  0.00    -0.404 NA
BRANCH  25  26
HETATM   26  C11 UNL     1      52.387   0.658  -6.979  1.00  0.00     0.134 A
HETATM   27  C12 UNL     1      52.116   0.044  -5.736  1.00  0.00     0.059 A
HETATM   28  C14 UNL     1      51.370   0.632  -4.765  1.00  0.00     0.106 A
HETATM   29  N5  UNL     1      50.875   1.832  -4.991  1.00  0.00    -0.364 N
HETATM   30  C15 UNL     1      51.065   2.491  -6.113  1.00  0.00     0.045 A
ATOM     31  H5  UNL     1      50.316   2.272  -4.260  1.00  0.00     0.165 HD
HETATM   32  C16 UNL     1      50.487   3.761  -6.277  1.00  0.00     0.030 A
HETATM   33  C20 UNL     1      51.817   1.907  -7.105  1.00  0.00     0.032 A
HETATM   34  C17 UNL     1      50.655   4.476  -7.437  1.00  0.00     0.002 A
HETATM   35  C18 UNL     1      51.427   3.870  -8.440  1.00  0.00     0.001 A
HETATM   36  C19 UNL     1      51.989   2.624  -8.268  1.00  0.00     0.017 A
BRANCH  27  37
HETATM   37  C13 UNL     1      52.646  -1.283  -5.539  1.00  0.00     0.274 C
HETATM   38  O3  UNL     1      53.184  -1.649  -4.451  1.00  0.00    -0.301 OA
ENDBRANCH  27  37
ENDBRANCH  25  26
ENDBRANCH   4  25
TORSDOF 8
ENDMDL