MODEL 2
REMARK VINA RESULT: -7.625053082      0.605      1.462
REMARK  9 active torsions:
REMARK  status: ('A' for Active; 'I' for Inactive)
REMARK    1  A    between atoms: C2_2  and  C3_3
REMARK    2  A    between atoms: C3_3  and  N1_4
REMARK    3  A    between atoms: C3_3  and  N2_8
REMARK       I    between atoms: N2_8  and  C4_10
REMARK    4  A    between atoms: C4_10  and  C5_12
REMARK    5  A    between atoms: C7_14  and  N3_15
REMARK    6  A    between atoms: N3_15  and  C8_17
REMARK    7  A    between atoms: C12_21  and  N4_22
REMARK    8  A    between atoms: N4_22  and  C13_24
REMARK    9  A    between atoms: C20_33  and  C21_34
ROOT
HETATM    1  C5  UNL     1      59.534  -3.853  -5.936  1.00  0.00     0.103 A
HETATM    2  C6  UNL     1      59.577  -3.063  -7.052  1.00  0.00     0.064 A
HETATM    3  C7  UNL     1      60.049  -3.560  -8.237  1.00  0.00     0.037 A
HETATM    4  C19 UNL     1      60.482  -4.868  -8.290  1.00  0.00     0.059 A
HETATM    5  C20 UNL     1      60.426  -5.639  -7.143  1.00  0.00     0.045 A
HETATM    6  N6  UNL     1      59.961  -5.146  -5.987  1.00  0.00    -0.351 N
ATOM      7  H6  UNL     1      59.927  -5.733  -5.154  1.00  0.00     0.166 HD
ENDROOT
BRANCH   3   8
HETATM    8  N3  UNL     1      60.091  -2.805  -9.294  1.00  0.00    -0.356 N
ATOM      9  H3  UNL     1      60.787  -2.060  -9.319  1.00  0.00     0.166 HD
BRANCH   8  10
HETATM   10  C8  UNL     1      59.239  -2.945 -10.407  1.00  0.00     0.034 A
HETATM   11  C9  UNL     1      59.755  -3.262 -11.658  1.00  0.00     0.029 A
HETATM   12  C10 UNL     1      58.925  -3.403 -12.749  1.00  0.00     0.004 A
HETATM   13  C11 UNL     1      57.558  -3.240 -12.667  1.00  0.00     0.029 A
HETATM   14  C12 UNL     1      57.041  -2.926 -11.429  1.00  0.00     0.035 A
HETATM   15  C18 UNL     1      57.865  -2.784 -10.334  1.00  0.00     0.059 A
BRANCH  14  16
HETATM   16  N4  UNL     1      55.629  -2.760 -11.351  1.00  0.00    -0.342 N
ATOM     17  H4  UNL     1      55.007  -3.390 -11.856  1.00  0.00     0.167 HD
BRANCH  16  18
HETATM   18  C13 UNL     1      55.150  -1.803 -10.635  1.00  0.00     0.105 A
HETATM   19  C14 UNL     1      55.145  -0.522 -11.086  1.00  0.00     0.048 A
HETATM   20  C15 UNL     1      54.638   0.517 -10.336  1.00  0.00     0.005 A
HETATM   21  C16 UNL     1      54.122   0.204  -9.080  1.00  0.00     0.017 A
HETATM   22  C17 UNL     1      54.126  -1.084  -8.623  1.00  0.00     0.089 A
HETATM   23  N5  UNL     1      54.637  -2.048  -9.408  1.00  0.00    -0.352 N
ATOM     24  H5  UNL     1      54.638  -3.008  -9.063  1.00  0.00     0.166 HD
ENDBRANCH  16  18
ENDBRANCH  14  16
ENDBRANCH   8  10
ENDBRANCH   3   8
BRANCH   1  25
HETATM   25  C4  UNL     1      59.035  -3.348  -4.667  1.00  0.00     0.270 C
HETATM   26  N2  UNL     1      59.003  -4.162  -3.523  1.00  0.00    -0.325 N
ATOM     27  H2  UNL     1      59.332  -5.126  -3.569  1.00  0.00     0.165 HD
HETATM   28  O1  UNL     1      58.628  -2.164  -4.603  1.00  0.00    -0.266 OA
BRANCH  26  29
HETATM   29  C3  UNL     1      58.494  -3.619  -2.263  1.00  0.00     0.307 C
BRANCH  29  30
HETATM   30  C2  UNL     1      58.794  -4.587  -1.196  1.00  0.00     0.016 C
HETATM   31  C1  UNL     1      59.912  -5.300  -1.176  1.00  0.00     0.010 C
ENDBRANCH  29  30
BRANCH  29  32
HETATM   32  N1  UNL     1      57.075  -3.354  -2.395  1.00  0.00    -0.055 N
ATOM     33  H13 UNL     1      56.533  -3.932  -1.753  1.00  0.00     0.277 HD
ATOM     34  H12 UNL     1      56.839  -2.433  -2.026  1.00  0.00     0.277 HD
ATOM     35  H11 UNL     1      56.742  -3.460  -3.353  1.00  0.00     0.277 HD
ENDBRANCH  29  32
ENDBRANCH  26  29
ENDBRANCH   1  25
BRANCH   5  36
HETATM   36  C21 UNL     1      60.897  -7.045  -7.219  1.00  0.00    -0.009 A
HETATM   37  C22 UNL     1      61.598  -7.475  -8.332  1.00  0.00     0.014 A
HETATM   38  C23 UNL     1      62.044  -8.801  -8.407  1.00  0.00     0.001 A
HETATM   39  C24 UNL     1      61.795  -9.687  -7.387  1.00  0.00     0.007 A
HETATM   40  C25 UNL     1      61.106  -9.273  -6.287  1.00  0.00    -0.061 A
HETATM   41  C26 UNL     1      60.806 -10.191  -5.147  1.00  0.00     0.048 C
HETATM   42  C27 UNL     1      60.661  -7.940  -6.218  1.00  0.00     0.020 A
ENDBRANCH   5  36
TORSDOF 9
ENDMDL