MODEL 1
REMARK VINA RESULT: -8.024991402      0.000      0.000
REMARK  5 active torsions:
REMARK  status: ('A' for Active; 'I' for Inactive)
REMARK    1  A    between atoms: N1_2  and  C2_3
REMARK    2  A    between atoms: N1_2  and  S1_27
REMARK    3  A    between atoms: C2_3  and  C3_4
REMARK    4  A    between atoms: C3_4  and  N2_5
REMARK    5  A    between atoms: N2_5  and  C4_7
ROOT
HETATM    1  C4  UNL     1      -4.671  12.564  10.377  1.00  0.00     0.681 C
HETATM    2  N3  UNL     1      -3.321  12.522  10.292  1.00  0.00    -0.155 N
ATOM      3  H3  UNL     1      -2.824  12.568  11.181  1.00  0.00     0.187 HD
HETATM    4  C5  UNL     1      -2.546  12.428   9.201  1.00  0.00     0.272 C
HETATM    5  O1  UNL     1      -1.379  12.031   9.357  1.00  0.00    -0.267 OA
HETATM    6  C6  UNL     1      -2.930  12.738   7.897  1.00  0.00     0.063 A
HETATM    7  C7  UNL     1      -2.067  12.739   6.818  1.00  0.00     0.106 A
HETATM    8  N4  UNL     1      -2.802  13.085   5.744  1.00  0.00    -0.363 N
ATOM      9  H4  UNL     1      -2.440  13.170   4.794  1.00  0.00     0.165 HD
HETATM   10  C8  UNL     1      -4.081  13.301   6.100  1.00  0.00     0.064 A
HETATM   11  C9  UNL     1      -5.229  13.668   5.417  1.00  0.00     0.057 A
HETATM   12 BR1  UNL     1      -5.145  13.978   3.529  1.00  0.00    -0.047 Br
HETATM   13  C10 UNL     1      -6.438  13.813   6.098  1.00  0.00     0.050 A
HETATM   14 BR2  UNL     1      -7.995  14.320   5.120  1.00  0.00    -0.048 Br
HETATM   15  C11 UNL     1      -6.497  13.587   7.471  1.00  0.00     0.058 A
HETATM   16 BR3  UNL     1      -8.146  13.780   8.417  1.00  0.00    -0.047 Br
HETATM   17  C12 UNL     1      -5.369  13.223   8.154  1.00  0.00     0.081 A
HETATM   18  N5  UNL     1      -5.557  13.034   9.472  1.00  0.00    -0.190 N
ATOM     19  H5  UNL     1      -6.480  13.276   9.832  1.00  0.00     0.184 HD
HETATM   20  C13 UNL     1      -4.185  13.089   7.445  1.00  0.00     0.038 A
ENDROOT
BRANCH   1  21
HETATM   21  N2  UNL     1      -5.164  12.089  11.469  1.00  0.00    -0.225 N
ATOM     22  H2  UNL     1      -4.616  11.424  12.014  1.00  0.00     0.177 HD
BRANCH  21  23
HETATM   23  C3  UNL     1      -6.458  12.471  11.937  1.00  0.00     0.153 C
BRANCH  23  24
HETATM   24  C2  UNL     1      -6.438  13.697  12.815  1.00  0.00     0.127 C
BRANCH  24  25
HETATM   25  N1  UNL     1      -6.695  14.911  12.090  1.00  0.00    -0.214 NA
HETATM   26  C1  UNL     1      -7.723  15.641  12.816  1.00  0.00     0.129 C
BRANCH  25  27
HETATM   27  S1  UNL     1      -5.254  15.865  12.142  1.00  0.00     0.207 S
HETATM   28  C14 UNL     1      -5.448  17.376  11.229  1.00  0.00     0.180 C
HETATM   29  O2  UNL     1      -4.070  15.135  11.602  1.00  0.00    -0.212 OA
HETATM   30  O3  UNL     1      -5.044  16.242  13.594  1.00  0.00    -0.212 OA
ENDBRANCH  25  27
ENDBRANCH  24  25
ENDBRANCH  23  24
ENDBRANCH  21  23
ENDBRANCH   1  21
TORSDOF 5
ENDMDL