MODEL 1
REMARK VINA RESULT: -7.979771289      0.000      0.000
REMARK  5 active torsions:
REMARK  status: ('A' for Active; 'I' for Inactive)
REMARK    1  A    between atoms: C9_11  and  C10_12
REMARK    2  A    between atoms: C11_16  and  C12_17
REMARK    3  A    between atoms: C11_16  and  C13_19
REMARK    4  A    between atoms: C13_19  and  C14_20
REMARK    5  A    between atoms: C14_20  and  C15_21
ROOT
HETATM    1  O1  UNL     1      -1.606  12.909   9.777  1.00  0.00    -0.274 OA
HETATM    2  C1  UNL     1      -2.834  13.113  10.115  1.00  0.00     0.218 C
HETATM    3  C2  UNL     1      -3.749  14.039   9.423  1.00  0.00     0.114 C
HETATM    4  C3  UNL     1      -5.136  13.602   9.867  1.00  0.00    -0.009 C
HETATM    5  C4  UNL     1      -5.604  12.583   8.795  1.00  0.00     0.013 C
HETATM    6  C5  UNL     1      -7.033  12.185   9.049  1.00  0.00     0.017 C
HETATM    7  C6  UNL     1      -7.888  13.460   8.769  1.00  0.00     0.065 C
HETATM    8 BR1  UNL     1      -7.315  13.927   6.994  1.00  0.00    -0.091 Br
HETATM    9  C7  UNL     1      -7.531  14.344   9.862  1.00  0.00     0.043 C
HETATM   10  C8  UNL     1      -6.067  14.722   9.816  1.00  0.00     0.044 C
HETATM   11  C9  UNL     1      -6.008  15.894  10.672  1.00  0.00     0.228 C
HETATM   12  O4  UNL     1      -7.343  16.316  10.947  1.00  0.00    -0.362 OA
HETATM   13  C11 UNL     1      -8.214  15.579  10.161  1.00  0.00     0.076 C
HETATM   14  C19 UNL     1      -4.923  12.813  11.084  1.00  0.00     0.133 C
HETATM   15  N2  UNL     1      -3.513  12.501  11.188  1.00  0.00    -0.360 N
ATOM     16  H2  UNL     1      -3.082  11.933  11.917  1.00  0.00     0.162 HD
ENDROOT
BRANCH  13  17
HETATM   17  C12 UNL     1      -8.745  16.501   9.151  1.00  0.00     0.123 C
HETATM   18 BR2  UNL     1     -10.528  16.050   8.485  1.00  0.00    -0.093 Br
ENDBRANCH  13  17
BRANCH  13  19
HETATM   19  C13 UNL     1      -9.378  15.226  11.123  1.00  0.00     0.040 C
BRANCH  19  20
HETATM   20  C14 UNL     1      -9.580  16.305  12.120  1.00  0.00     0.019 C
BRANCH  20  21
HETATM   21  C15 UNL     1     -10.991  16.830  12.190  1.00  0.00     0.106 C
HETATM   22  C16 UNL     1     -11.923  16.027  12.992  1.00  0.00     0.230 C
HETATM   23  O5  UNL     1     -11.931  14.819  13.328  1.00  0.00    -0.273 OA
HETATM   24  N1  UNL     1     -12.953  16.978  13.376  1.00  0.00    -0.296 N
HETATM   25  C17 UNL     1     -12.432  18.296  13.270  1.00  0.00     0.243 C
ATOM     26  H1  UNL     1     -13.899  16.738  13.673  1.00  0.00     0.171 HD
HETATM   27  O6  UNL     1     -13.075  19.364  13.405  1.00  0.00    -0.271 OA
HETATM   28  C18 UNL     1     -10.976  18.133  12.967  1.00  0.00     0.187 C
HETATM   29 CL1  UNL     1     -10.155  17.885  14.523  1.00  0.00    -0.114 Cl
ENDBRANCH  20  21
ENDBRANCH  19  20
ENDBRANCH  13  19
BRANCH  11  30
HETATM   30  C10 UNL     1      -5.386  15.879  11.988  1.00  0.00     0.203 C
HETATM   31  O2  UNL     1      -4.222  16.225  12.210  1.00  0.00    -0.646 OA
HETATM   32  O3  UNL     1      -6.062  15.464  13.159  1.00  0.00    -0.646 OA
ENDBRANCH  11  30
TORSDOF 5
ENDMDL