MODEL 1
REMARK VINA RESULT: -10.335383598      0.000      0.000
REMARK  5 active torsions:
REMARK  status: ('A' for Active; 'I' for Inactive)
REMARK       I    between atoms: N2_10  and  C7_11
REMARK       I    between atoms: C7_11  and  N3_13
REMARK    1  A    between atoms: N3_13  and  C8_15
REMARK    2  A    between atoms: N4_19  and  C12_20
REMARK    3  A    between atoms: C12_20  and  C13_21
REMARK       I    between atoms: C13_21  and  N5_23
REMARK       I    between atoms: N5_23  and  C14_24
REMARK    4  A    between atoms: N5_23  and  C20_36
REMARK       I    between atoms: C14_24  and  N6_26
REMARK    5  A    between atoms: N6_26  and  C15_28
ROOT
HETATM    1  C12 UNL     1      -9.236  13.691  11.482  1.00  0.00     0.229 C
ENDROOT
BRANCH   1   2
HETATM    2  N4  UNL     1      -9.927  14.818  10.831  1.00  0.00    -0.342 N
HETATM    3  C11 UNL     1      -9.881  16.151  11.397  1.00  0.00     0.126 C
HETATM    4  C10 UNL     1     -11.168  16.898  11.331  1.00  0.00     0.022 C
HETATM    5  C9  UNL     1     -12.075  16.523  10.206  1.00  0.00     0.037 C
HETATM    6  C8  UNL     1     -11.271  15.928   9.093  1.00  0.00     0.178 C
HETATM    7  C26 UNL     1     -10.665  14.658   9.625  1.00  0.00     0.243 C
HETATM    8  O5  UNL     1     -10.776  13.550   9.088  1.00  0.00    -0.271 OA
BRANCH   6   9
HETATM    9  N3  UNL     1     -12.066  15.659   7.910  1.00  0.00    -0.330 N
HETATM   10  C7  UNL     1     -11.419  15.839   6.644  1.00  0.00     0.320 C
HETATM   11  N2  UNL     1     -12.021  15.632   5.391  1.00  0.00    -0.315 N
HETATM   12  O2  UNL     1     -10.191  16.221   6.619  1.00  0.00    -0.247 OA
HETATM   13  C2  UNL     1     -13.397  15.211   5.278  1.00  0.00     0.110 C
HETATM   14  C6  UNL     1     -11.245  15.846   4.187  1.00  0.00     0.148 C
HETATM   15  C1  UNL     1     -14.363  16.227   5.866  1.00  0.00     0.049 C
HETATM   16  C3  UNL     1     -13.655  13.855   5.894  1.00  0.00     0.049 C
HETATM   17  C4  UNL     1     -13.780  15.094   3.819  1.00  0.00     0.245 C
HETATM   18  O1  UNL     1     -14.524  14.171   3.404  1.00  0.00    -0.271 OA
HETATM   19  N1  UNL     1     -13.289  16.049   2.888  1.00  0.00    -0.357 N
HETATM   20  C5  UNL     1     -12.006  16.670   3.171  1.00  0.00     0.142 C
ATOM     21  H1  UNL     1     -13.819  16.290   2.051  1.00  0.00     0.162 HD
ATOM     22  H3  UNL     1     -13.038  15.357   7.975  1.00  0.00     0.165 HD
ENDBRANCH   6   9
ENDBRANCH   1   2
BRANCH   1  23
HETATM   23  C13 UNL     1      -8.051  13.302  10.681  1.00  0.00     0.246 C
HETATM   24  O3  UNL     1      -8.260  12.283   9.952  1.00  0.00    -0.271 OA
HETATM   25  N5  UNL     1      -6.790  13.944  10.667  1.00  0.00    -0.264 N
HETATM   26  C14 UNL     1      -5.727  13.544   9.818  1.00  0.00     0.325 C
HETATM   27  O4  UNL     1      -4.630  14.217   9.932  1.00  0.00    -0.247 OA
HETATM   28  N6  UNL     1      -5.785  12.502   8.894  1.00  0.00    -0.335 N
ATOM     29  H6  UNL     1      -6.638  11.953   8.782  1.00  0.00     0.164 HD
BRANCH  25  30
HETATM   30  C20 UNL     1      -6.473  15.071  11.528  1.00  0.00     0.097 C
HETATM   31  C21 UNL     1      -5.369  14.940  12.486  1.00  0.00     0.026 C
HETATM   32  C22 UNL     1      -5.567  16.084  13.512  1.00  0.00     0.002 C
HETATM   33  C23 UNL     1      -6.545  17.108  13.026  1.00  0.00     0.000 C
HETATM   34  C24 UNL     1      -6.461  17.513  11.606  1.00  0.00     0.002 C
HETATM   35  C25 UNL     1      -6.242  16.338  10.689  1.00  0.00     0.026 C
ENDBRANCH  25  30
BRANCH  28  36
HETATM   36  C15 UNL     1      -4.584  12.206   8.079  1.00  0.00     0.126 C
HETATM   37  C16 UNL     1      -3.384  11.977   8.972  1.00  0.00     0.107 C
HETATM   38  C17 UNL     1      -2.216  12.357   8.086  1.00  0.00     0.248 C
HETATM   39  F1  UNL     1      -1.244  12.934   8.863  1.00  0.00    -0.206 F
HETATM   40  F2  UNL     1      -1.683  11.239   7.451  1.00  0.00    -0.206 F
HETATM   41  C18 UNL     1      -2.758  13.352   7.094  1.00  0.00     0.118 C
HETATM   42  C19 UNL     1      -4.250  13.306   7.131  1.00  0.00     0.198 C
HETATM   43  F3  UNL     1      -4.694  12.987   5.846  1.00  0.00    -0.247 F
ENDBRANCH  28  36
ENDBRANCH   1  23
TORSDOF 5
ENDMDL