MODEL 2
REMARK VINA RESULT: -8.764275511      3.868      9.596
REMARK  8 active torsions:
REMARK  status: ('A' for Active; 'I' for Inactive)
REMARK       I    between atoms: C2_2  and  N1_4
REMARK    1  A    between atoms: N1_4  and  C3_6
REMARK    2  A    between atoms: N2_9  and  C6_10
REMARK    3  A    between atoms: C6_10  and  O2_11
REMARK    4  A    between atoms: C6_10  and  N3_13
REMARK    5  A    between atoms: C11_18  and  C12_19
REMARK       I    between atoms: C12_19  and  N4_21
REMARK    6  A    between atoms: N4_21  and  C13_23
REMARK       I    between atoms: N5_26  and  C16_27
REMARK    7  A    between atoms: C16_27  and  C17_29
REMARK    8  A    between atoms: C17_29  and  C18_30
ROOT
HETATM    1  C12 UNL     1     -10.519  15.259   7.457  1.00  0.00     0.241 C
HETATM    2  O3  UNL     1      -9.451  15.489   6.805  1.00  0.00    -0.271 OA
HETATM    3  N4  UNL     1     -10.391  14.689   8.724  1.00  0.00    -0.355 N
ATOM      4  H4  UNL     1     -11.240  14.500   9.257  1.00  0.00     0.162 HD
ENDROOT
BRANCH   1   5
HETATM    5  C11 UNL     1     -11.774  15.622   6.793  1.00  0.00     0.179 C
HETATM    6  N3  UNL     1     -12.925  14.905   7.351  1.00  0.00    -0.334 N
HETATM    7  C7  UNL     1     -13.207  13.630   6.775  1.00  0.00     0.127 C
HETATM    8  C8  UNL     1     -13.729  13.817   5.351  1.00  0.00     0.020 C
HETATM    9  C9  UNL     1     -13.020  14.977   4.686  1.00  0.00     0.004 C
HETATM   10  C10 UNL     1     -11.699  15.290   5.341  1.00  0.00     0.035 C
BRANCH   6  11
HETATM   11  C6  UNL     1     -13.656  15.528   8.368  1.00  0.00     0.218 C
BRANCH  11  12
HETATM   12  N2  UNL     1     -13.413  15.542   9.761  1.00  0.00    -0.345 N
HETATM   13  C5  UNL     1     -13.882  14.700  10.826  1.00  0.00     0.128 C
HETATM   14  C4  UNL     1     -13.626  15.417  12.115  1.00  0.00     0.046 C
HETATM   15  C3  UNL     1     -13.039  16.733  11.757  1.00  0.00     0.104 C
HETATM   16  C24 UNL     1     -12.515  16.552  10.376  1.00  0.00     0.151 C
BRANCH  15  17
HETATM   17  N1  UNL     1     -11.990  17.024  12.719  1.00  0.00    -0.355 N
HETATM   18  C2  UNL     1     -11.926  18.261  13.397  1.00  0.00     0.213 C
HETATM   19  C1  UNL     1     -10.841  18.539  14.377  1.00  0.00     0.117 C
HETATM   20  O1  UNL     1     -12.798  19.131  13.162  1.00  0.00    -0.274 OA
ATOM     21  H1  UNL     1     -11.280  16.316  12.909  1.00  0.00     0.162 HD
ENDBRANCH  15  17
ENDBRANCH  11  12
BRANCH  11  22
HETATM   22  O2  UNL     1     -14.714  16.191   8.006  1.00  0.00    -0.332 OA
ATOM     23  H2  UNL     1     -15.333  15.685   7.492  1.00  0.00     0.220 HD
ENDBRANCH  11  22
ENDBRANCH   6  11
ENDBRANCH   1   5
BRANCH   3  24
HETATM   24  C13 UNL     1      -9.124  14.354   9.319  1.00  0.00     0.087 C
HETATM   25  C14 UNL     1      -8.909  15.010  10.661  1.00  0.00     0.045 C
HETATM   26  C15 UNL     1      -7.506  14.612  11.116  1.00  0.00     0.127 C
HETATM   27  N5  UNL     1      -6.931  13.601  10.250  1.00  0.00    -0.352 N
HETATM   28  C16 UNL     1      -5.627  13.781   9.693  1.00  0.00     0.225 C
HETATM   29  C22 UNL     1      -7.701  12.429   9.973  1.00  0.00     0.127 C
HETATM   30  O4  UNL     1      -4.986  14.829   9.965  1.00  0.00    -0.273 OA
HETATM   31  C23 UNL     1      -9.055  12.856   9.452  1.00  0.00     0.045 C
BRANCH  28  32
HETATM   32  C17 UNL     1      -4.998  12.787   8.807  1.00  0.00     0.161 C
BRANCH  32  33
HETATM   33  C18 UNL     1      -5.220  13.135   7.386  1.00  0.00     0.043 A
HETATM   34  N6  UNL     1      -6.384  13.337   6.789  1.00  0.00    -0.347 N
HETATM   35  C19 UNL     1      -6.240  13.640   5.490  1.00  0.00     0.127 A
ATOM     36  H6  UNL     1      -7.285  13.270   7.262  1.00  0.00     0.167 HD
HETATM   37 CL1  UNL     1      -7.542  13.971   4.376  1.00  0.00    -0.063 Cl
HETATM   38  C20 UNL     1      -4.897  13.635   5.226  1.00  0.00     0.096 A
HETATM   39 CL2  UNL     1      -4.137  13.969   3.678  1.00  0.00    -0.079 Cl
HETATM   40  C21 UNL     1      -4.264  13.324   6.398  1.00  0.00     0.082 A
HETATM   41 CL3  UNL     1      -2.536  13.179   6.630  1.00  0.00    -0.080 Cl
ENDBRANCH  32  33
ENDBRANCH  28  32
ENDBRANCH   3  24
TORSDOF 8
ENDMDL