MODEL 1
REMARK VINA RESULT: -6.176338081      0.000      0.000
REMARK  7 active torsions:
REMARK  status: ('A' for Active; 'I' for Inactive)
REMARK    1  A    between atoms: O1_2  and  C2_3
REMARK    2  A    between atoms: C6_7  and  O2_8
REMARK    3  A    between atoms: C8_10  and  C9_11
REMARK    4  A    between atoms: C14_18  and  C15_19
REMARK    5  A    between atoms: C14_18  and  C16_22
REMARK    6  A    between atoms: C15_19  and  O3_20
REMARK    7  A    between atoms: C17_24  and  O4_25
ROOT
HETATM    1  C9  UNL     1      -5.740  14.191  10.097  1.00  0.00    -0.029 C
HETATM    2  C10 UNL     1      -5.212  15.534  10.406  1.00  0.00     0.067 C
HETATM    3  C11 UNL     1      -6.052  16.453  11.212  1.00  0.00     0.023 C
HETATM    4  C12 UNL     1      -5.103  17.698  11.332  1.00  0.00     0.038 C
HETATM    5  C13 UNL     1      -7.193  17.096  10.432  1.00  0.00     0.038 C
HETATM    6  N1  UNL     1      -6.318  16.119  12.550  1.00  0.00    -0.400 N
ATOM      7  H1  UNL     1      -6.180  16.836  13.261  1.00  0.00     0.155 HD
HETATM    8  C14 UNL     1      -6.756  14.867  12.960  1.00  0.00     0.085 C
HETATM    9  C17 UNL     1      -6.069  13.645  12.552  1.00  0.00     0.183 C
HETATM   10  C18 UNL     1      -6.132  13.243  11.112  1.00  0.00     0.128 C
HETATM   11 BR2  UNL     1      -5.021  11.631  10.996  1.00  0.00    -0.065 Br
HETATM   12 BR3  UNL     1      -7.930  12.515  10.715  1.00  0.00    -0.065 Br
ENDROOT
BRANCH   1  13
HETATM   13  C8  UNL     1      -5.227  13.638   8.789  1.00  0.00     0.035 A
HETATM   14  C2  UNL     1      -6.097  13.489   7.711  1.00  0.00     0.081 A
HETATM   15  C3  UNL     1      -5.687  13.158   6.443  1.00  0.00     0.038 A
HETATM   16  C4  UNL     1      -4.334  12.958   6.236  1.00  0.00     0.005 A
HETATM   17  C5  UNL     1      -3.449  13.090   7.266  1.00  0.00     0.038 A
HETATM   18  C6  UNL     1      -3.887  13.425   8.527  1.00  0.00     0.081 A
BRANCH  14  19
HETATM   19  O1  UNL     1      -7.445  13.677   7.955  1.00  0.00    -0.355 OA
HETATM   20  C1  UNL     1      -8.295  14.591   7.337  1.00  0.00     0.210 C
ENDBRANCH  14  19
BRANCH  18  21
HETATM   21  O2  UNL     1      -2.972  13.561   9.589  1.00  0.00    -0.355 OA
HETATM   22  C7  UNL     1      -1.753  12.879   9.612  1.00  0.00     0.210 C
ENDBRANCH  18  21
ENDBRANCH   1  13
BRANCH   9  23
HETATM   23  O4  UNL     1      -4.791  13.430  13.058  1.00  0.00    -0.390 OA
ATOM     24  H4  UNL     1      -4.303  12.692  12.713  1.00  0.00     0.210 HD
ENDBRANCH   9  23
BRANCH   8  25
HETATM   25  C15 UNL     1      -8.270  14.673  12.889  1.00  0.00     0.198 C
BRANCH  25  26
HETATM   26  O3  UNL     1      -8.938  15.851  13.188  1.00  0.00    -0.398 OA
ATOM     27  H3  UNL     1      -9.573  16.064  12.514  1.00  0.00     0.209 HD
ENDBRANCH  25  26
ENDBRANCH   8  25
BRANCH   8  28
HETATM   28  C16 UNL     1      -6.594  14.884  14.511  1.00  0.00     0.120 C
HETATM   29 BR1  UNL     1      -7.491  13.403  15.316  1.00  0.00    -0.094 Br
ENDBRANCH   8  28
TORSDOF 7
ENDMDL