MODEL 4
REMARK VINA RESULT: -9.891081002      1.434      1.876
REMARK  5 active torsions:
REMARK  status: ('A' for Active; 'I' for Inactive)
REMARK    1  A    between atoms: N4_15  and  C6_16
REMARK    2  A    between atoms: C9_19  and  C10_20
REMARK       I    between atoms: C10_20  and  N5_22
REMARK       I    between atoms: N6_25  and  C13_26
REMARK    3  A    between atoms: C13_26  and  C14_28
REMARK    4  A    between atoms: C14_28  and  C15_29
REMARK    5  A    between atoms: C18_32  and  C19_33
ROOT
HETATM    1  C6  UNL     1      -8.348  21.677  -2.115  1.00  0.00     0.230 C
HETATM    2  C7  UNL     1      -9.608  22.176  -2.723  1.00  0.00     0.037 C
HETATM    3  C8  UNL     1     -10.432  20.919  -3.084  1.00  0.00     0.016 C
HETATM    4  C9  UNL     1     -10.745  20.075  -1.901  1.00  0.00     0.078 C
HETATM    5  C24 UNL     1     -10.168  20.735  -0.663  1.00  0.00     0.016 C
HETATM    6  C25 UNL     1      -8.671  20.826  -0.891  1.00  0.00     0.037 C
ENDROOT
BRANCH   4   7
HETATM    7  C10 UNL     1     -12.162  19.725  -1.728  1.00  0.00     0.224 C
HETATM    8  O1  UNL     1     -12.991  20.669  -1.647  1.00  0.00    -0.273 OA
HETATM    9  N5  UNL     1     -12.625  18.392  -1.652  1.00  0.00    -0.349 N
HETATM   10  C11 UNL     1     -11.734  17.238  -1.732  1.00  0.00     0.145 C
HETATM   11  C23 UNL     1     -14.062  18.135  -1.482  1.00  0.00     0.145 C
HETATM   12  C12 UNL     1     -12.503  15.947  -1.575  1.00  0.00     0.145 C
HETATM   13  N6  UNL     1     -13.488  15.970  -0.541  1.00  0.00    -0.349 N
HETATM   14  C13 UNL     1     -13.798  14.809   0.209  1.00  0.00     0.220 C
HETATM   15  C22 UNL     1     -14.178  17.229  -0.271  1.00  0.00     0.145 C
HETATM   16  O2  UNL     1     -13.197  13.744  -0.041  1.00  0.00    -0.273 OA
BRANCH  14  17
HETATM   17  C14 UNL     1     -14.808  14.864   1.258  1.00  0.00     0.107 C
BRANCH  17  18
HETATM   18  C15 UNL     1     -14.312  14.764   2.659  1.00  0.00    -0.006 C
HETATM   19  C16 UNL     1     -13.273  15.768   3.029  1.00  0.00     0.006 C
HETATM   20  C17 UNL     1     -13.224  15.860   4.549  1.00  0.00     0.014 C
HETATM   21  C18 UNL     1     -13.662  14.563   5.187  1.00  0.00     0.075 C
HETATM   22  C20 UNL     1     -13.182  13.376   4.347  1.00  0.00     0.014 C
HETATM   23  C21 UNL     1     -13.889  13.350   2.999  1.00  0.00     0.006 C
BRANCH  21  24
HETATM   24  C19 UNL     1     -12.980  14.444   6.502  1.00  0.00     0.235 C
HETATM   25  N7  UNL     1     -11.944  15.362   6.849  1.00  0.00    -0.062 NA
HETATM   26  O3  UNL     1     -13.265  13.564   7.354  1.00  0.00    -0.277 OA
ENDBRANCH  21  24
ENDBRANCH  17  18
ENDBRANCH  14  17
ENDBRANCH   4   7
BRANCH   1  27
HETATM   27  N4  UNL     1      -7.258  22.551  -1.955  1.00  0.00     0.165 N
HETATM   28  C5  UNL     1      -6.313  22.716  -2.979  1.00  0.00     0.443 C
HETATM   29  C4  UNL     1      -4.961  23.174  -2.462  1.00  0.00     0.174 C
HETATM   30  F1  UNL     1      -6.661  23.624  -3.958  1.00  0.00    -0.172 F
HETATM   31  F2  UNL     1      -6.038  21.532  -3.625  1.00  0.00    -0.172 F
HETATM   32  C3  UNL     1      -4.964  24.556  -1.983  1.00  0.00     0.057 A
HETATM   33  C2  UNL     1      -5.829  25.122  -1.086  1.00  0.00     0.051 A
HETATM   34  N3  UNL     1      -4.099  25.506  -2.356  1.00  0.00    -0.194 N
HETATM   35  N2  UNL     1      -5.485  26.405  -0.923  1.00  0.00    -0.194 N
HETATM   36  C27 UNL     1      -6.974  24.444  -0.394  1.00  0.00     0.090 C
HETATM   37  C1  UNL     1      -4.423  26.631  -1.706  1.00  0.00     0.676 A
ATOM     38  H2  UNL     1      -5.945  27.083  -0.316  1.00  0.00     0.184 HD
HETATM   39  N1  UNL     1      -3.791  27.743  -1.835  1.00  0.00    -0.234 N
ATOM     40  H12 UNL     1      -4.038  28.600  -1.340  1.00  0.00     0.174 HD
ATOM     41  H11 UNL     1      -2.982  27.916  -2.431  1.00  0.00     0.174 HD
HETATM   42  C26 UNL     1      -7.808  23.802  -1.453  1.00  0.00     0.287 C
ATOM     43  H3  UNL     1      -3.330  25.393  -3.017  1.00  0.00     0.184 HD
ENDBRANCH   1  27
TORSDOF 5
ENDMDL