MODEL 3
REMARK VINA RESULT: -9.585264530      5.109      9.150
REMARK  7 active torsions:
REMARK  status: ('A' for Active; 'I' for Inactive)
REMARK       I    between atoms: C1_2  and  N1_3
REMARK    1  A    between atoms: C1_2  and  C7_12
REMARK    2  A    between atoms: N1_3  and  C2_5
REMARK    3  A    between atoms: C8_13  and  C9_14
REMARK       I    between atoms: C9_14  and  N3_16
REMARK    4  A    between atoms: N3_16  and  C10_18
REMARK    5  A    between atoms: C10_18  and  C11_19
REMARK    6  A    between atoms: C13_21  and  O3_22
REMARK       I    between atoms: N4_30  and  C17_31
REMARK    7  A    between atoms: C17_31  and  C18_33
ROOT
HETATM    1  C7  UNL     1      -9.658  16.900   4.524  1.00  0.00     0.212 A
HETATM    2  C8  UNL     1      -9.712  15.658   5.337  1.00  0.00     0.212 A
HETATM    3  N4  UNL     1      -8.670  15.855   4.308  1.00  0.00    -0.320 N
HETATM    4  C17 UNL     1      -7.530  15.351   3.626  1.00  0.00     0.226 C
HETATM    5  O4  UNL     1      -7.032  16.081   2.740  1.00  0.00    -0.273 OA
ENDROOT
BRANCH   2   6
HETATM    6  C9  UNL     1      -9.192  15.680   6.756  1.00  0.00     0.246 C
HETATM    7  O2  UNL     1      -9.474  16.710   7.411  1.00  0.00    -0.271 OA
HETATM    8  N3  UNL     1      -8.460  14.586   7.216  1.00  0.00    -0.339 N
ATOM      9  H3  UNL     1      -8.318  13.845   6.530  1.00  0.00     0.167 HD
BRANCH   8  10
HETATM   10  C10 UNL     1      -7.888  14.342   8.472  1.00  0.00     0.068 C
BRANCH  10  11
HETATM   11  C11 UNL     1      -6.492  13.846   8.604  1.00  0.00     0.028 C
HETATM   12  C12 UNL     1      -5.872  14.404   9.895  1.00  0.00     0.046 C
HETATM   13  C13 UNL     1      -5.523  13.295  10.841  1.00  0.00     0.171 C
HETATM   14  C14 UNL     1      -4.434  12.421  10.220  1.00  0.00     0.202 C
HETATM   15  F1  UNL     1      -4.403  11.249  10.916  1.00  0.00    -0.226 F
HETATM   16 BR1  UNL     1      -2.754  13.347  10.460  1.00  0.00    -0.044 Br
HETATM   17  C15 UNL     1      -4.721  12.191   8.754  1.00  0.00     0.136 C
HETATM   18 CL1  UNL     1      -3.842  13.413   7.820  1.00  0.00    -0.121 Cl
HETATM   19  C16 UNL     1      -6.229  12.393   8.468  1.00  0.00     0.034 C
BRANCH  13  20
HETATM   20  O3  UNL     1      -4.971  13.845  11.994  1.00  0.00    -0.391 OA
ATOM     21  H3  UNL     1      -4.031  13.920  11.878  1.00  0.00     0.210 HD
ENDBRANCH  13  20
ENDBRANCH  10  11
ENDBRANCH   8  10
ENDBRANCH   2   6
BRANCH   1  22
HETATM   22  C1  UNL     1     -10.646  17.000   3.378  1.00  0.00     0.248 C
HETATM   23  O1  UNL     1     -10.324  17.758   2.438  1.00  0.00    -0.271 OA
HETATM   24  N1  UNL     1     -11.809  16.282   3.419  1.00  0.00    -0.311 N
ATOM     25  H1  UNL     1     -11.839  15.589   4.166  1.00  0.00     0.170 HD
BRANCH  24  26
HETATM   26  C2  UNL     1     -12.831  16.309   2.725  1.00  0.00     0.107 A
HETATM   27  C3  UNL     1     -13.579  15.224   2.369  1.00  0.00     0.048 A
HETATM   28  C4  UNL     1     -14.736  15.352   1.580  1.00  0.00     0.005 A
HETATM   29  C5  UNL     1     -15.104  16.609   1.170  1.00  0.00     0.017 A
HETATM   30  C6  UNL     1     -14.338  17.696   1.539  1.00  0.00     0.089 A
HETATM   31  N2  UNL     1     -13.250  17.540   2.285  1.00  0.00    -0.352 N
ATOM     32  H2  UNL     1     -12.706  18.364   2.540  1.00  0.00     0.166 HD
ENDBRANCH  24  26
ENDBRANCH   1  22
BRANCH   4  33
HETATM   33  C18 UNL     1      -7.003  14.044   3.977  1.00  0.00     0.082 C
HETATM   34  C19 UNL     1      -6.458  13.278   2.765  1.00  0.00     0.019 C
HETATM   35  C20 UNL     1      -5.112  12.812   3.222  1.00  0.00    -0.013 C
HETATM   36  C21 UNL     1      -4.211  14.022   3.310  1.00  0.00     0.005 C
HETATM   37  C24 UNL     1      -5.387  12.570   4.718  1.00  0.00     0.010 C
HETATM   38  C22 UNL     1      -4.656  14.745   4.554  1.00  0.00     0.006 C
HETATM   39  C23 UNL     1      -5.898  14.010   4.977  1.00  0.00    -0.001 C
ENDBRANCH   4  33
TORSDOF 7
ENDMDL