MODEL 1
REMARK VINA RESULT: -8.270244818      0.000      0.000
REMARK  5 active torsions:
REMARK  status: ('A' for Active; 'I' for Inactive)
REMARK    1  A    between atoms: N1_2  and  C2_5
REMARK    2  A    between atoms: C5_9  and  C6_11
REMARK    3  A    between atoms: C6_11  and  N2_12
REMARK       I    between atoms: N3_21  and  C14_22
REMARK       I    between atoms: C14_22  and  N4_24
REMARK    4  A    between atoms: N4_24  and  C15_26
REMARK    5  A    between atoms: C18_29  and  C19_30
ROOT
HETATM    1  N2  UNL     1      -6.540  14.224  12.662  1.00  0.00    -0.347 N
HETATM    2  C7  UNL     1      -5.564  14.976  11.887  1.00  0.00     0.151 C
HETATM    3  C8  UNL     1      -4.698  14.144  11.000  1.00  0.00     0.108 C
HETATM    4  C9  UNL     1      -3.429  13.686  11.683  1.00  0.00     0.027 C
HETATM    5  C10 UNL     1      -3.367  12.219  11.934  1.00  0.00     0.004 C
HETATM    6  C11 UNL     1      -4.685  11.626  12.378  1.00  0.00     0.035 C
HETATM    7  C12 UNL     1      -5.834  12.048  11.540  1.00  0.00     0.181 C
HETATM    8  C13 UNL     1      -6.775  12.865  12.351  1.00  0.00     0.243 C
HETATM    9  O1  UNL     1      -7.835  12.265  12.762  1.00  0.00    -0.271 OA
HETATM   10  N3  UNL     1      -5.354  12.965  10.492  1.00  0.00    -0.314 N
HETATM   11  C14 UNL     1      -5.554  12.655   9.127  1.00  0.00     0.319 C
HETATM   12  O2  UNL     1      -6.153  11.568   8.843  1.00  0.00    -0.247 OA
HETATM   13  N4  UNL     1      -5.136  13.468   8.060  1.00  0.00    -0.338 N
ATOM     14  H4  UNL     1      -4.653  14.342   8.267  1.00  0.00     0.164 HD
ENDROOT
BRANCH   1  15
HETATM   15  C6  UNL     1      -7.239  14.933  13.683  1.00  0.00     0.148 C
BRANCH  15  16
HETATM   16  C5  UNL     1      -8.329  15.849  13.310  1.00  0.00     0.053 C
HETATM   17  C4  UNL     1      -9.512  15.764  14.236  1.00  0.00     0.105 C
HETATM   18  C3  UNL     1     -10.387  16.977  13.887  1.00  0.00     0.057 C
HETATM   19 CL1  UNL     1     -10.421  14.274  13.772  1.00  0.00    -0.123 Cl
HETATM   20  C2  UNL     1     -10.867  16.926  12.480  1.00  0.00     0.220 C
HETATM   21  C23 UNL     1      -9.797  16.575  11.515  1.00  0.00     0.202 C
HETATM   22  C22 UNL     1      -8.872  15.468  11.931  1.00  0.00     0.063 C
HETATM   23  F1  UNL     1     -10.416  16.164  10.335  1.00  0.00    -0.247 F
HETATM   24 BR1  UNL     1      -7.731  17.688  13.105  1.00  0.00    -0.082 Br
BRANCH  20  25
HETATM   25  N1  UNL     1     -11.975  16.004  12.304  1.00  0.00    -0.072 N
HETATM   26  C1  UNL     1     -13.206  16.509  12.857  1.00  0.00     0.267 C
ATOM     27  H12 UNL     1     -11.752  15.085  12.684  1.00  0.00     0.277 HD
ATOM     28  H11 UNL     1     -12.090  15.752  11.322  1.00  0.00     0.277 HD
ENDBRANCH  20  25
ENDBRANCH  15  16
ENDBRANCH   1  15
BRANCH  13  29
HETATM   29  C15 UNL     1      -5.370  13.101   6.656  1.00  0.00     0.086 C
HETATM   30  C16 UNL     1      -6.658  13.667   6.157  1.00  0.00     0.026 C
HETATM   31  C17 UNL     1      -6.824  13.764   4.690  1.00  0.00     0.015 C
HETATM   32  C18 UNL     1      -5.641  13.174   3.947  1.00  0.00     0.075 C
HETATM   33  C20 UNL     1      -4.420  13.932   4.471  1.00  0.00     0.015 C
HETATM   34  C21 UNL     1      -4.162  13.406   5.841  1.00  0.00     0.026 C
BRANCH  32  35
HETATM   35  C19 UNL     1      -5.787  13.329   2.495  1.00  0.00     0.235 C
HETATM   36  N5  UNL     1      -6.404  14.485   1.977  1.00  0.00    -0.062 NA
HETATM   37  O3  UNL     1      -5.367  12.442   1.728  1.00  0.00    -0.277 OA
ENDBRANCH  32  35
ENDBRANCH  13  29
TORSDOF 5
ENDMDL