MODEL 2
REMARK VINA RESULT: -7.740818506      1.777      2.584
REMARK  7 active torsions:
REMARK  status: ('A' for Active; 'I' for Inactive)
REMARK       I    between atoms: C2_2  and  N1_4
REMARK    1  A    between atoms: N1_4  and  C3_6
REMARK    2  A    between atoms: C3_6  and  C4_7
REMARK    3  A    between atoms: C3_6  and  C20_33
REMARK    4  A    between atoms: C4_7  and  C5_9
REMARK    5  A    between atoms: C5_9  and  N2_10
REMARK    6  A    between atoms: C5_9  and  N3_14
REMARK    7  A    between atoms: C8_17  and  C9_18
ROOT
HETATM    1  N3  UNL     1      -4.096  12.904   6.781  1.00  0.00     0.126 N
HETATM    2  C6  UNL     1      -3.308  13.135   7.953  1.00  0.00     0.276 C
HETATM    3  C7  UNL     1      -4.239  13.671   9.058  1.00  0.00     0.037 C
HETATM    4  C8  UNL     1      -5.205  12.557   9.395  1.00  0.00     0.018 C
HETATM    5  C18 UNL     1      -5.953  12.178   8.168  1.00  0.00     0.037 C
HETATM    6  C19 UNL     1      -5.507  13.000   6.950  1.00  0.00     0.276 C
ENDROOT
BRANCH   1   7
HETATM    7  C5  UNL     1      -3.578  13.566   5.647  1.00  0.00     0.487 C
BRANCH   7   8
HETATM    8  C4  UNL     1      -4.407  13.578   4.437  1.00  0.00     0.212 C
HETATM    9  O2  UNL     1      -4.609  12.584   3.794  1.00  0.00    -0.291 OA
BRANCH   8  10
HETATM   10  C3  UNL     1      -5.020  14.849   3.983  1.00  0.00     0.196 C
BRANCH  10  11
HETATM   11  N1  UNL     1      -4.197  15.480   2.949  1.00  0.00    -0.347 N
HETATM   12  C2  UNL     1      -3.720  16.792   3.141  1.00  0.00     0.214 C
HETATM   13  C1  UNL     1      -2.883  17.465   2.113  1.00  0.00     0.117 C
HETATM   14  O1  UNL     1      -3.990  17.440   4.194  1.00  0.00    -0.274 OA
ATOM     15  H1  UNL     1      -3.969  14.971   2.094  1.00  0.00     0.163 HD
ENDBRANCH  10  11
BRANCH  10  16
HETATM   16  C20 UNL     1      -6.412  14.657   3.400  1.00  0.00     0.137 C
HETATM   17  C21 UNL     1      -6.398  14.444   1.908  1.00  0.00     0.053 C
HETATM   18 CL1  UNL     1      -7.155  13.250   4.166  1.00  0.00    -0.099 Cl
HETATM   19 CL2  UNL     1      -7.330  16.141   3.798  1.00  0.00    -0.099 Cl
ENDBRANCH  10  16
ENDBRANCH   8  10
ENDBRANCH   7   8
BRANCH   7  20
HETATM   20  N2  UNL     1      -3.070  14.903   5.952  1.00  0.00    -0.040 N
ATOM     21  H23 UNL     1      -2.465  14.896   6.773  1.00  0.00     0.277 HD
ATOM     22  H22 UNL     1      -2.389  15.213   5.258  1.00  0.00     0.277 HD
ATOM     23  H21 UNL     1      -3.833  15.572   6.053  1.00  0.00     0.277 HD
ENDBRANCH   7  20
ENDBRANCH   1   7
BRANCH   4  24
HETATM   24  C9  UNL     1      -6.113  12.982  10.539  1.00  0.00     0.046 C
HETATM   25  C10 UNL     1      -5.779  12.206  11.803  1.00  0.00     0.040 C
HETATM   26  N4  UNL     1      -7.451  12.611  10.144  1.00  0.00    -0.350 N
HETATM   27  C11 UNL     1      -8.472  13.249   9.428  1.00  0.00     0.226 C
ATOM     28  H4  UNL     1      -7.711  11.675  10.456  1.00  0.00     0.163 HD
HETATM   29  O3  UNL     1      -9.535  12.541   9.312  1.00  0.00    -0.273 OA
HETATM   30  C12 UNL     1      -8.501  14.575   8.806  1.00  0.00     0.034 C
HETATM   31  C13 UNL     1      -8.103  14.541   7.322  1.00  0.00     0.025 C
HETATM   32  C14 UNL     1      -9.984  14.991   8.780  1.00  0.00     0.025 C
HETATM   33  C15 UNL     1      -7.767  15.643   9.539  1.00  0.00     0.020 C
HETATM   34  C16 UNL     1      -7.253  15.204  10.885  1.00  0.00     0.019 C
HETATM   35  C17 UNL     1      -5.942  14.461  10.780  1.00  0.00     0.086 C
HETATM   36 BR1  UNL     1      -5.035  14.670  12.484  1.00  0.00    -0.089 Br
ENDBRANCH   4  24
TORSDOF 7
ENDMDL