MODEL 4
REMARK VINA RESULT: -7.805997994      4.854      6.793
REMARK  5 active torsions:
REMARK  status: ('A' for Active; 'I' for Inactive)
REMARK    1  A    between atoms: C1_2  and  C2_4
REMARK    2  A    between atoms: C2_4  and  C3_5
REMARK    3  A    between atoms: C3_5  and  N2_6
REMARK    4  A    between atoms: C3_5  and  C13_21
REMARK       I    between atoms: N2_6  and  C4_8
REMARK    5  A    between atoms: C4_8  and  C5_10
REMARK       I    between atoms: C13_21  and  N4_23
ROOT
HETATM    1  C3  UNL     1     -11.376  15.174   6.027  1.00  0.00     0.185 C
ENDROOT
BRANCH   1   2
HETATM    2  C2  UNL     1     -12.849  15.312   5.693  1.00  0.00     0.134 C
BRANCH   2   3
HETATM    3  C1  UNL     1     -13.499  14.053   5.297  1.00  0.00     0.233 C
HETATM    4  N1  UNL     1     -13.783  13.889   3.915  1.00  0.00    -0.062 NA
HETATM    5  O1  UNL     1     -13.825  13.115   6.060  1.00  0.00    -0.277 OA
ENDBRANCH   2   3
ENDBRANCH   1   2
BRANCH   1   6
HETATM    6  N2  UNL     1     -11.222  15.783   7.350  1.00  0.00    -0.346 N
HETATM    7  C4  UNL     1     -11.226  14.896   8.461  1.00  0.00     0.240 C
HETATM    8  O2  UNL     1     -11.352  13.648   8.338  1.00  0.00    -0.271 OA
ATOM      9  H2  UNL     1     -11.117  16.791   7.468  1.00  0.00     0.163 HD
BRANCH   7  10
HETATM   10  C5  UNL     1     -11.074  15.468   9.837  1.00  0.00     0.170 C
HETATM   11  C6  UNL     1     -11.275  14.463  10.917  1.00  0.00     0.049 C
HETATM   12  C7  UNL     1     -10.475  14.702  12.180  1.00  0.00     0.049 C
HETATM   13  C8  UNL     1     -10.448  16.082  12.672  1.00  0.00     0.015 C
HETATM   14  S1  UNL     1      -8.865  13.927  11.925  1.00  0.00    -0.162 SA
HETATM   15  C9  UNL     1      -9.402  17.003  12.247  1.00  0.00     0.003 C
HETATM   16  C10 UNL     1      -8.239  16.461  11.483  1.00  0.00     0.025 C
HETATM   17  C11 UNL     1      -8.677  15.868  10.132  1.00  0.00     0.086 C
HETATM   18  C12 UNL     1      -8.405  14.417  10.222  1.00  0.00     0.099 C
HETATM   19  N3  UNL     1      -9.969  16.315   9.907  1.00  0.00    -0.404 N
ATOM     20  H3  UNL     1     -10.120  17.316   9.787  1.00  0.00     0.154 HD
ENDBRANCH   7  10
ENDBRANCH   1   6
BRANCH   1  21
HETATM   21  C13 UNL     1     -10.482  15.792   5.046  1.00  0.00     0.243 C
HETATM   22  O3  UNL     1     -11.053  16.453   4.106  1.00  0.00    -0.271 OA
HETATM   23  N4  UNL     1      -9.079  15.746   5.012  1.00  0.00    -0.350 N
HETATM   24  C14 UNL     1      -8.321  15.077   6.043  1.00  0.00     0.130 C
HETATM   25  C19 UNL     1      -8.337  16.364   3.934  1.00  0.00     0.130 C
HETATM   26  C15 UNL     1      -7.610  13.904   5.379  1.00  0.00     0.056 C
HETATM   27  C16 UNL     1      -6.847  14.469   4.239  1.00  0.00    -0.052 C
HETATM   28  C17 UNL     1      -6.126  13.671   3.444  1.00  0.00     0.059 C
HETATM   29  C18 UNL     1      -6.894  15.932   3.995  1.00  0.00     0.056 C
HETATM   30 BR1  UNL     1      -6.084  11.798   3.786  1.00  0.00    -0.043 Br
HETATM   31 BR2  UNL     1      -5.131  14.355   1.973  1.00  0.00    -0.043 Br
ENDBRANCH   1  21
TORSDOF 5
ENDMDL