MODEL 4
REMARK VINA RESULT: -7.487569108      0.034      1.001
REMARK  6 active torsions:
REMARK  status: ('A' for Active; 'I' for Inactive)
REMARK    1  A    between atoms: C1_2  and  C2_4
REMARK    2  A    between atoms: C2_4  and  O3_5
REMARK    3  A    between atoms: C2_4  and  C3_7
REMARK    4  A    between atoms: C6_10  and  N1_11
REMARK    5  A    between atoms: N1_11  and  S1_13
REMARK    6  A    between atoms: S1_13  and  C7_16
ROOT
HETATM    1  C3  UNL     1      -5.322 -21.862  -8.730  1.00  0.00     0.004 A
HETATM    2  C4  UNL     1      -6.182 -21.132  -7.894  1.00  0.00     0.017 A
HETATM    3  C5  UNL     1      -5.758 -20.658  -6.671  1.00  0.00     0.031 A
HETATM    4  C6  UNL     1      -4.483 -20.874  -6.215  1.00  0.00     0.042 A
HETATM    5  C13 UNL     1      -3.638 -21.584  -7.020  1.00  0.00     0.031 A
HETATM    6  C14 UNL     1      -4.055 -22.070  -8.263  1.00  0.00     0.017 A
ENDROOT
BRANCH   4   7
HETATM    7  N1  UNL     1      -4.041 -20.399  -4.976  1.00  0.00    -0.281 N
ATOM      8  H1  UNL     1      -4.558 -20.627  -4.126  1.00  0.00     0.179 HD
BRANCH   7   9
HETATM    9  S1  UNL     1      -2.629 -19.432  -4.888  1.00  0.00     0.263 S
HETATM   10  O4  UNL     1      -2.583 -18.696  -3.567  1.00  0.00    -0.200 OA
HETATM   11  O5  UNL     1      -1.390 -20.289  -4.945  1.00  0.00    -0.200 OA
BRANCH   9  12
HETATM   12  C7  UNL     1      -2.523 -18.233  -6.140  1.00  0.00     0.081 A
HETATM   13  C8  UNL     1      -1.283 -17.810  -6.563  1.00  0.00     0.025 A
HETATM   14  C9  UNL     1      -1.150 -16.844  -7.566  1.00  0.00     0.003 A
HETATM   15  C10 UNL     1      -2.293 -16.310  -8.139  1.00  0.00     0.024 A
HETATM   16  C11 UNL     1      -3.535 -16.724  -7.724  1.00  0.00     0.035 A
HETATM   17 CL1  UNL     1      -4.980 -16.047  -8.448  1.00  0.00    -0.084 Cl
HETATM   18  C12 UNL     1      -3.645 -17.692  -6.719  1.00  0.00     0.049 A
ENDBRANCH   9  12
ENDBRANCH   7   9
ENDBRANCH   4   7
BRANCH   1  19
HETATM   19  C2  UNL     1      -5.774 -22.348  -9.994  1.00  0.00     0.153 C
BRANCH  19  20
HETATM   20  C1  UNL     1      -6.557 -21.629 -10.939  1.00  0.00     0.234 C
HETATM   21  O1  UNL     1      -7.771 -21.464 -10.895  1.00  0.00    -0.642 OA
HETATM   22  O2  UNL     1      -5.901 -21.036 -12.048  1.00  0.00    -0.642 OA
ENDBRANCH  19  20
BRANCH  19  23
HETATM   23  O3  UNL     1      -5.415 -23.572 -10.275  1.00  0.00    -0.354 OA
ATOM     24  H3  UNL     1      -6.002 -24.284 -10.048  1.00  0.00     0.218 HD
ENDBRANCH  19  23
ENDBRANCH   1  19
TORSDOF 6
ENDMDL