MODEL 4
REMARK VINA RESULT: -6.247924646      4.168      5.432
REMARK  7 active torsions:
REMARK  status: ('A' for Active; 'I' for Inactive)
REMARK    1  A    between atoms: C2_2  and  N1_5
REMARK       I    between atoms: N1_5  and  C5_7
REMARK    2  A    between atoms: C5_7  and  C6_9
REMARK    3  A    between atoms: C6_9  and  S1_10
REMARK    4  A    between atoms: S1_10  and  C7_11
REMARK       I    between atoms: N4_17  and  C9_19
REMARK    5  A    between atoms: C9_19  and  C10_21
REMARK    6  A    between atoms: C10_21  and  C11_22
REMARK    7  A    between atoms: C11_22  and  C12_23
ROOT
HETATM    1  C7  UNL     1      -4.270 -23.358  -6.350  1.00  0.00     0.130 A
HETATM    2  N2  UNL     1      -3.138 -23.038  -5.719  1.00  0.00    -0.286 N
ATOM      3  H2  UNL     1      -2.467 -23.769  -5.480  1.00  0.00     0.188 HD
HETATM    4  N3  UNL     1      -2.890 -21.834  -5.414  1.00  0.00    -0.278 N
ATOM      5  H3  UNL     1      -2.025 -21.591  -4.932  1.00  0.00     0.189 HD
HETATM    6  C8  UNL     1      -3.777 -20.889  -5.730  1.00  0.00     0.168 A
HETATM    7  N4  UNL     1      -3.718 -19.603  -5.508  1.00  0.00    -0.306 N
ATOM      8  H4  UNL     1      -4.470 -18.980  -5.804  1.00  0.00     0.171 HD
HETATM    9  C9  UNL     1      -2.571 -19.109  -4.842  1.00  0.00     0.223 C
HETATM   10  O2  UNL     1      -2.561 -19.036  -3.587  1.00  0.00    -0.273 OA
HETATM   11  S2  UNL     1      -5.000 -21.812  -6.497  1.00  0.00    -0.026 SA
ENDROOT
BRANCH   1  12
HETATM   12  S1  UNL     1      -4.809 -24.988  -6.887  1.00  0.00    -0.094 SA
BRANCH  12  13
HETATM   13  C6  UNL     1      -6.409 -25.030  -7.636  1.00  0.00     0.184 C
BRANCH  13  14
HETATM   14  C5  UNL     1      -6.602 -24.310  -8.882  1.00  0.00     0.227 C
HETATM   15  N1  UNL     1      -7.280 -23.070  -8.961  1.00  0.00    -0.352 N
ATOM     16  H1  UNL     1      -7.644 -22.661  -8.101  1.00  0.00     0.163 HD
HETATM   17  O1  UNL     1      -6.156 -24.773  -9.994  1.00  0.00    -0.273 OA
BRANCH  15  18
HETATM   18  C2  UNL     1      -7.482 -22.352 -10.205  1.00  0.00     0.022 C
HETATM   19  C1  UNL     1      -8.167 -21.031  -9.849  1.00  0.00     0.037 C
HETATM   20  C3  UNL     1      -6.196 -22.023 -10.897  1.00  0.00     0.037 C
HETATM   21  C4  UNL     1      -8.396 -23.079 -11.144  1.00  0.00     0.037 C
ENDBRANCH  15  18
ENDBRANCH  13  14
ENDBRANCH  12  13
ENDBRANCH   1  12
BRANCH   9  22
HETATM   22  C10 UNL     1      -1.350 -18.661  -5.561  1.00  0.00     0.104 C
BRANCH  22  23
HETATM   23  C11 UNL     1      -1.701 -18.031  -6.897  1.00  0.00     0.024 C
BRANCH  23  24
HETATM   24  C12 UNL     1      -0.858 -16.808  -7.132  1.00  0.00     0.115 C
HETATM   25 CL1  UNL     1      -1.870 -15.562  -7.905  1.00  0.00    -0.130 Cl
ENDBRANCH  23  24
ENDBRANCH  22  23
ENDBRANCH   9  22
TORSDOF 7
ENDMDL