MODEL 1
REMARK VINA RESULT: -7.566577993      0.000      0.000
REMARK  7 active torsions:
REMARK  status: ('A' for Active; 'I' for Inactive)
REMARK    1  A    between atoms: C2_2  and  C3_3
REMARK    2  A    between atoms: C3_3  and  O1_4
REMARK    3  A    between atoms: O1_4  and  C4_5
REMARK       I    between atoms: C4_5  and  N1_7
REMARK    4  A    between atoms: N1_7  and  C5_9
REMARK    5  A    between atoms: N2_13  and  N3_15
REMARK       I    between atoms: N3_15  and  C8_17
REMARK    6  A    between atoms: C8_17  and  C9_19
REMARK    7  A    between atoms: C12_22  and  N4_23
ROOT
HETATM    1  C1  UNL     1      -7.823 -18.016 -10.657  1.00  0.00     0.067 C
HETATM    2  C2  UNL     1      -7.136 -16.871 -11.336  1.00  0.00     0.024 C
HETATM    3  N2  UNL     1      -5.994 -16.446 -10.947  1.00  0.00    -0.304 N
ATOM      4  H2  UNL     1      -5.568 -15.663 -11.445  1.00  0.00     0.186 HD
ENDROOT
BRANCH   3   5
HETATM    5  N3  UNL     1      -5.302 -17.012  -9.863  1.00  0.00    -0.266 N
HETATM    6  C8  UNL     1      -4.251 -16.291  -9.278  1.00  0.00     0.270 C
HETATM    7  O3  UNL     1      -3.960 -15.150  -9.747  1.00  0.00    -0.266 OA
ATOM      8  H3  UNL     1      -5.560 -17.933  -9.507  1.00  0.00     0.190 HD
BRANCH   6   9
HETATM    9  C9  UNL     1      -3.502 -16.841  -8.147  1.00  0.00     0.033 A
HETATM   10  C10 UNL     1      -2.174 -16.603  -7.924  1.00  0.00     0.019 A
HETATM   11  C11 UNL     1      -1.507 -17.158  -6.819  1.00  0.00     0.037 A
HETATM   12  C12 UNL     1      -2.154 -17.965  -5.911  1.00  0.00     0.102 A
HETATM   13  C13 UNL     1      -3.493 -18.204  -6.135  1.00  0.00     0.037 A
HETATM   14  C14 UNL     1      -4.154 -17.663  -7.216  1.00  0.00     0.019 A
BRANCH  12  15
HETATM   15  N4  UNL     1      -1.451 -18.510  -4.805  1.00  0.00    -0.116 N
HETATM   16  O4  UNL     1      -0.522 -19.314  -4.985  1.00  0.00    -0.532 OA
HETATM   17  O5  UNL     1      -1.769 -18.172  -3.516  1.00  0.00    -0.532 OA
ENDBRANCH  12  15
ENDBRANCH   6   9
ENDBRANCH   3   5
BRANCH   2  18
HETATM   18  C3  UNL     1      -7.795 -16.217 -12.485  1.00  0.00     0.234 C
BRANCH  18  19
HETATM   19  O1  UNL     1      -8.517 -15.107 -12.050  1.00  0.00    -0.298 OA
BRANCH  19  20
HETATM   20  C4  UNL     1      -9.171 -14.199 -12.839  1.00  0.00     0.362 C
HETATM   21  O2  UNL     1     -10.422 -14.102 -12.709  1.00  0.00    -0.238 OA
HETATM   22  N1  UNL     1      -8.430 -13.417 -13.755  1.00  0.00    -0.315 N
ATOM     23  H1  UNL     1      -7.420 -13.542 -13.814  1.00  0.00     0.166 HD
BRANCH  22  24
HETATM   24  C5  UNL     1      -9.074 -12.442 -14.612  1.00  0.00     0.105 C
HETATM   25  C6  UNL     1      -9.742 -11.350 -13.815  1.00  0.00     0.056 C
HETATM   26  C7  UNL     1      -8.005 -11.836 -15.495  1.00  0.00     0.056 C
HETATM   27 CL1  UNL     1     -10.294 -13.173 -15.670  1.00  0.00    -0.096 Cl
ENDBRANCH  22  24
ENDBRANCH  19  20
ENDBRANCH  18  19
ENDBRANCH   2  18
TORSDOF 7
ENDMDL