MODEL 3
REMARK VINA RESULT: -6.919827508      1.483      2.055
REMARK  6 active torsions:
REMARK  status: ('A' for Active; 'I' for Inactive)
REMARK    1  A    between atoms: C1_2  and  C2_3
REMARK       I    between atoms: C1_2  and  N2_13
REMARK    2  A    between atoms: C2_3  and  O2_4
REMARK    3  A    between atoms: O2_4  and  C3_5
REMARK    4  A    between atoms: C3_5  and  C4_7
REMARK    5  A    between atoms: N2_13  and  N3_15
REMARK    6  A    between atoms: C8_17  and  C9_18
ROOT
HETATM    1  O1  UNL     1      -0.416 -17.641  -6.027  1.00  0.00    -0.269 OA
HETATM    2  C1  UNL     1      -1.630 -17.642  -5.707  1.00  0.00     0.260 C
HETATM    3  N2  UNL     1      -2.545 -16.780  -6.398  1.00  0.00    -0.269 N
ATOM      4  H2  UNL     1      -3.527 -16.792  -6.125  1.00  0.00     0.190 HD
ENDROOT
BRANCH   2   5
HETATM    5  C2  UNL     1      -2.072 -18.538  -4.625  1.00  0.00     0.283 C
BRANCH   5   6
HETATM    6  O2  UNL     1      -1.874 -19.888  -4.991  1.00  0.00    -0.307 OA
BRANCH   6   7
HETATM    7  C3  UNL     1      -2.783 -20.876  -4.654  1.00  0.00     0.310 C
HETATM    8  O3  UNL     1      -3.097 -21.062  -3.452  1.00  0.00    -0.258 OA
BRANCH   7   9
HETATM    9  C4  UNL     1      -3.402 -21.730  -5.686  1.00  0.00     0.108 A
HETATM   10  C5  UNL     1      -4.224 -21.336  -6.718  1.00  0.00     0.037 A
HETATM   11  C6  UNL     1      -4.590 -22.435  -7.461  1.00  0.00     0.019 A
HETATM   12  C7  UNL     1      -3.973 -23.507  -6.862  1.00  0.00     0.088 A
HETATM   13  N1  UNL     1      -3.271 -23.058  -5.807  1.00  0.00    -0.361 N
ATOM     14  H1  UNL     1      -2.716 -23.646  -5.185  1.00  0.00     0.165 HD
ENDBRANCH   7   9
ENDBRANCH   6   7
ENDBRANCH   5   6
ENDBRANCH   2   5
BRANCH   3  15
HETATM   15  N3  UNL     1      -2.154 -15.937  -7.410  1.00  0.00    -0.307 N
HETATM   16  C8  UNL     1      -2.770 -15.770  -8.496  1.00  0.00     0.144 C
ATOM     17  H3  UNL     1      -1.296 -15.403  -7.271  1.00  0.00     0.186 HD
BRANCH  16  18
HETATM   18  C9  UNL     1      -3.984 -16.389  -8.942  1.00  0.00     0.093 A
HETATM   19  C10 UNL     1      -4.632 -16.334 -10.143  1.00  0.00     0.042 A
HETATM   20  C11 UNL     1      -5.792 -17.124 -10.070  1.00  0.00     0.048 A
HETATM   21  C12 UNL     1      -5.771 -17.621  -8.790  1.00  0.00     0.122 A
HETATM   22 BR1  UNL     1      -7.096 -18.787  -8.044  1.00  0.00    -0.023 Br
HETATM   23  O4  UNL     1      -4.716 -17.180  -8.160  1.00  0.00    -0.302 OA
ENDBRANCH  16  18
ENDBRANCH   3  15
TORSDOF 6
ENDMDL