MODEL 3
REMARK VINA RESULT: -6.800353371      1.767      2.052
REMARK  6 active torsions:
REMARK  status: ('A' for Active; 'I' for Inactive)
REMARK    1  A    between atoms: C2_2  and  N1_4
REMARK       I    between atoms: N1_4  and  C3_6
REMARK    2  A    between atoms: C3_6  and  O2_8
REMARK    3  A    between atoms: O2_8  and  C4_9
REMARK    4  A    between atoms: C4_9  and  C5_10
REMARK       I    between atoms: C5_10  and  N2_12
REMARK    5  A    between atoms: N2_12  and  C6_14
REMARK    6  A    between atoms: C10_18  and  N3_19
ROOT
HETATM    1  C5  UNL     1      -2.164 -19.081  -4.893  1.00  0.00     0.246 C
HETATM    2  O3  UNL     1      -2.471 -18.137  -4.092  1.00  0.00    -0.271 OA
HETATM    3  N2  UNL     1      -1.961 -18.866  -6.249  1.00  0.00    -0.325 N
ATOM      4  H2  UNL     1      -1.715 -19.697  -6.786  1.00  0.00     0.169 HD
ENDROOT
BRANCH   1   5
HETATM    5  C4  UNL     1      -2.050 -20.404  -4.213  1.00  0.00     0.283 C
BRANCH   5   6
HETATM    6  O2  UNL     1      -3.198 -21.179  -4.233  1.00  0.00    -0.295 OA
BRANCH   6   7
HETATM    7  C3  UNL     1      -3.855 -21.587  -5.370  1.00  0.00     0.361 C
HETATM    8  N1  UNL     1      -4.993 -20.973  -5.905  1.00  0.00    -0.323 N
ATOM      9  H1  UNL     1      -5.380 -20.158  -5.429  1.00  0.00     0.166 HD
HETATM   10  O1  UNL     1      -3.384 -22.604  -5.977  1.00  0.00    -0.238 OA
BRANCH   8  11
HETATM   11  C2  UNL     1      -5.640 -21.450  -7.107  1.00  0.00     0.155 C
HETATM   12  C1  UNL     1      -7.083 -20.957  -7.121  1.00  0.00     0.044 C
HETATM   13 BR1  UNL     1      -4.709 -20.780  -8.680  1.00  0.00    -0.069 Br
ENDBRANCH   8  11
ENDBRANCH   6   7
ENDBRANCH   5   6
ENDBRANCH   1   5
BRANCH   3  14
HETATM   14  C6  UNL     1      -2.042 -17.690  -6.986  1.00  0.00     0.037 A
HETATM   15  C7  UNL     1      -1.068 -16.743  -7.014  1.00  0.00     0.029 A
HETATM   16  C8  UNL     1      -1.191 -15.560  -7.763  1.00  0.00     0.005 A
HETATM   17  C9  UNL     1      -2.328 -15.348  -8.491  1.00  0.00     0.036 A
HETATM   18  C10 UNL     1      -3.339 -16.282  -8.491  1.00  0.00     0.105 A
HETATM   19  C11 UNL     1      -3.185 -17.429  -7.747  1.00  0.00     0.065 A
BRANCH  18  20
HETATM   20  N3  UNL     1      -4.519 -16.043  -9.259  1.00  0.00    -0.116 N
HETATM   21  O4  UNL     1      -4.656 -15.077 -10.007  1.00  0.00    -0.532 OA
HETATM   22  O5  UNL     1      -5.550 -16.943  -9.149  1.00  0.00    -0.532 OA
ENDBRANCH  18  20
ENDBRANCH   3  14
TORSDOF 6
ENDMDL