MODEL 5
REMARK VINA RESULT: -7.399531542      3.247      4.449
REMARK  7 active torsions:
REMARK  status: ('A' for Active; 'I' for Inactive)
REMARK    1  A    between atoms: C1_2  and  C2_3
REMARK       I    between atoms: C1_2  and  N1_15
REMARK    2  A    between atoms: C2_3  and  O2_4
REMARK    3  A    between atoms: O2_4  and  C3_5
REMARK    4  A    between atoms: C3_5  and  C4_7
REMARK    5  A    between atoms: C4_7  and  C5_8
REMARK    6  A    between atoms: N1_15  and  N2_17
REMARK       I    between atoms: N2_17  and  C11_19
REMARK    7  A    between atoms: C11_19  and  C12_21
ROOT
HETATM    1  O1  UNL     1      -6.652 -18.827  -7.691  1.00  0.00    -0.269 OA
HETATM    2  C1  UNL     1      -5.644 -18.527  -8.363  1.00  0.00     0.260 C
HETATM    3  N1  UNL     1      -4.517 -19.379  -8.277  1.00  0.00    -0.265 N
ATOM      4  H1  UNL     1      -3.688 -19.147  -8.824  1.00  0.00     0.190 HD
ENDROOT
BRANCH   2   5
HETATM    5  C2  UNL     1      -5.667 -17.313  -9.208  1.00  0.00     0.283 C
BRANCH   5   6
HETATM    6  O2  UNL     1      -4.359 -16.965  -9.601  1.00  0.00    -0.312 OA
BRANCH   6   7
HETATM    7  C3  UNL     1      -3.884 -15.669  -9.385  1.00  0.00     0.263 C
HETATM    8  O3  UNL     1      -4.536 -14.712  -9.843  1.00  0.00    -0.265 OA
BRANCH   7   9
HETATM    9  C4  UNL     1      -2.633 -15.497  -8.619  1.00  0.00     0.149 C
BRANCH   9  10
HETATM   10  C5  UNL     1      -2.507 -16.418  -7.485  1.00  0.00    -0.049 A
HETATM   11  C6  UNL     1      -3.347 -16.360  -6.401  1.00  0.00     0.009 A
HETATM   12  C7  UNL     1      -3.205 -17.238  -5.352  1.00  0.00     0.024 A
HETATM   13  C8  UNL     1      -2.219 -18.197  -5.360  1.00  0.00     0.034 A
HETATM   14 CL1  UNL     1      -2.045 -19.315  -4.026  1.00  0.00    -0.084 Cl
HETATM   15  C9  UNL     1      -1.379 -18.253  -6.449  1.00  0.00     0.024 A
HETATM   16  C10 UNL     1      -1.520 -17.378  -7.495  1.00  0.00     0.009 A
ENDBRANCH   9  10
ENDBRANCH   7   9
ENDBRANCH   6   7
ENDBRANCH   5   6
ENDBRANCH   2   5
BRANCH   3  17
HETATM   17  N2  UNL     1      -4.489 -20.523  -7.476  1.00  0.00    -0.263 N
HETATM   18  C11 UNL     1      -4.699 -21.785  -8.060  1.00  0.00     0.277 C
HETATM   19  O4  UNL     1      -4.913 -21.873  -9.304  1.00  0.00    -0.265 OA
ATOM     20  H2  UNL     1      -4.317 -20.443  -6.475  1.00  0.00     0.190 HD
BRANCH  18  21
HETATM   21  C12 UNL     1      -4.684 -23.028  -7.294  1.00  0.00     0.074 A
HETATM   22  C13 UNL     1      -4.070 -23.341  -6.111  1.00  0.00     0.025 A
HETATM   23  C14 UNL     1      -4.228 -24.580  -5.639  1.00  0.00     0.009 A
HETATM   24  C15 UNL     1      -4.992 -25.449  -6.369  1.00  0.00     0.050 A
HETATM   25  S1  UNL     1      -5.470 -24.499  -7.702  1.00  0.00    -0.097 SA
ENDBRANCH  18  21
ENDBRANCH   3  17
TORSDOF 7
ENDMDL