MODEL 1
REMARK VINA RESULT: -6.851202995      0.000      0.000
REMARK  7 active torsions:
REMARK  status: ('A' for Active; 'I' for Inactive)
REMARK    1  A    between atoms: C2_2  and  C3_3
REMARK    2  A    between atoms: C2_2  and  N2_13
REMARK    3  A    between atoms: C3_3  and  N1_4
REMARK       I    between atoms: N1_4  and  C4_6
REMARK    4  A    between atoms: C4_6  and  O2_8
REMARK    5  A    between atoms: O2_8  and  C5_9
REMARK    6  A    between atoms: N2_13  and  S1_15
REMARK    7  A    between atoms: S1_15  and  C9_18
ROOT
HETATM    1  C1  UNL     1      -1.240 -19.257  -4.239  1.00  0.00     0.034 C
HETATM    2  C2  UNL     1      -2.329 -19.721  -5.242  1.00  0.00     0.107 C
ENDROOT
BRANCH   2   3
HETATM    3  C3  UNL     1      -2.856 -20.992  -4.601  1.00  0.00     0.150 C
BRANCH   3   4
HETATM    4  N1  UNL     1      -3.288 -22.020  -5.469  1.00  0.00    -0.335 N
HETATM    5  C4  UNL     1      -4.628 -21.982  -5.945  1.00  0.00     0.361 C
HETATM    6  O1  UNL     1      -5.438 -21.072  -5.620  1.00  0.00    -0.238 OA
ATOM      7  H1  UNL     1      -2.655 -22.770  -5.748  1.00  0.00     0.164 HD
BRANCH   5   8
HETATM    8  O2  UNL     1      -5.122 -22.955  -6.799  1.00  0.00    -0.294 OA
BRANCH   8   9
HETATM    9  C5  UNL     1      -5.569 -22.623  -8.104  1.00  0.00     0.061 C
HETATM   10  C6  UNL     1      -6.925 -21.974  -8.095  1.00  0.00     0.046 C
HETATM   11  C7  UNL     1      -4.558 -21.779  -8.848  1.00  0.00     0.046 C
HETATM   12  C8  UNL     1      -5.706 -23.948  -8.851  1.00  0.00     0.046 C
ENDBRANCH   8   9
ENDBRANCH   5   8
ENDBRANCH   3   4
ENDBRANCH   2   3
BRANCH   2  13
HETATM   13  N2  UNL     1      -3.336 -18.748  -5.431  1.00  0.00    -0.309 N
ATOM     14  H2  UNL     1      -4.138 -18.724  -4.801  1.00  0.00     0.172 HD
BRANCH  13  15
HETATM   15  S1  UNL     1      -3.229 -17.647  -6.664  1.00  0.00     0.260 S
HETATM   16  O3  UNL     1      -3.110 -16.227  -6.086  1.00  0.00    -0.200 OA
HETATM   17  O4  UNL     1      -1.878 -17.781  -7.420  1.00  0.00    -0.200 OA
BRANCH  15  18
HETATM   18  C9  UNL     1      -4.455 -17.603  -7.890  1.00  0.00     0.101 A
HETATM   19  C10 UNL     1      -5.541 -18.419  -7.943  1.00  0.00     0.027 A
HETATM   20  C11 UNL     1      -6.444 -18.313  -8.990  1.00  0.00     0.002 A
HETATM   21  C12 UNL     1      -6.231 -17.379  -9.972  1.00  0.00     0.002 A
HETATM   22  C13 UNL     1      -5.142 -16.539  -9.947  1.00  0.00     0.025 A
HETATM   23  C14 UNL     1      -4.260 -16.653  -8.910  1.00  0.00     0.057 A
HETATM   24 CL1  UNL     1      -2.879 -15.575  -8.898  1.00  0.00    -0.083 Cl
ENDBRANCH  15  18
ENDBRANCH  13  15
ENDBRANCH   2  13
TORSDOF 7
ENDMDL