MODEL 5
REMARK VINA RESULT: -6.544006576      3.487      4.781
REMARK  8 active torsions:
REMARK  status: ('A' for Active; 'I' for Inactive)
REMARK    1  A    between atoms: C2_2  and  N1_3
REMARK    2  A    between atoms: C2_2  and  C8_12
REMARK    3  A    between atoms: N1_3  and  C3_5
REMARK    4  A    between atoms: C8_12  and  O1_14
REMARK    5  A    between atoms: C8_12  and  C10_16
REMARK    6  A    between atoms: C10_16  and  O2_17
REMARK    7  A    between atoms: O2_17  and  C11_18
REMARK    8  A    between atoms: C11_18  and  C12_20
ROOT
HETATM    1  C8  UNL     1      -4.702 -21.603  -7.077  1.00  0.00     0.096 C
HETATM    2  C9  UNL     1      -3.866 -21.022  -8.235  1.00  0.00     0.050 C
ENDROOT
BRANCH   1   3
HETATM    3  C2  UNL     1      -5.225 -22.964  -7.508  1.00  0.00     0.113 C
HETATM    4  C1  UNL     1      -4.600 -24.084  -6.733  1.00  0.00     0.035 C
BRANCH   3   5
HETATM    5  N1  UNL     1      -5.081 -23.156  -8.931  1.00  0.00    -0.383 N
ATOM      6  H1  UNL     1      -4.134 -23.169  -9.312  1.00  0.00     0.160 HD
BRANCH   5   7
HETATM    7  C3  UNL     1      -6.054 -23.311  -9.752  1.00  0.00     0.030 A
HETATM    8  C4  UNL     1      -6.315 -24.543 -10.301  1.00  0.00     0.046 A
HETATM    9  C5  UNL     1      -7.351 -24.765 -11.191  1.00  0.00     0.089 A
HETATM   10  N2  UNL     1      -8.127 -23.722 -11.525  1.00  0.00    -0.375 N
HETATM   11  C6  UNL     1      -7.912 -22.492 -11.015  1.00  0.00     0.089 A
ATOM     12  H2  UNL     1      -8.896 -23.862 -12.181  1.00  0.00     0.164 HD
HETATM   13  C7  UNL     1      -6.881 -22.263 -10.126  1.00  0.00     0.046 A
ENDBRANCH   5   7
ENDBRANCH   3   5
ENDBRANCH   1   3
BRANCH   1  14
HETATM   14  O1  UNL     1      -5.736 -20.713  -6.902  1.00  0.00    -0.386 OA
ATOM     15  H1  UNL     1      -5.800 -20.441  -5.994  1.00  0.00     0.210 HD
ENDBRANCH   1  14
BRANCH   1  16
HETATM   16  C10 UNL     1      -3.843 -21.684  -5.868  1.00  0.00     0.218 C
BRANCH  16  17
HETATM   17  O2  UNL     1      -3.818 -20.593  -5.054  1.00  0.00    -0.314 OA
BRANCH  17  18
HETATM   18  C11 UNL     1      -2.935 -19.607  -4.802  1.00  0.00     0.300 C
HETATM   19  O3  UNL     1      -2.375 -19.592  -3.685  1.00  0.00    -0.259 OA
BRANCH  18  20
HETATM   20  C12 UNL     1      -2.584 -18.549  -5.752  1.00  0.00     0.081 A
HETATM   21  C13 UNL     1      -1.339 -18.096  -6.065  1.00  0.00     0.027 A
HETATM   22  C14 UNL     1      -1.247 -17.112  -6.969  1.00  0.00     0.033 A
HETATM   23  C15 UNL     1      -2.421 -16.642  -7.505  1.00  0.00     0.075 A
HETATM   24 CL1  UNL     1      -2.616 -15.357  -8.711  1.00  0.00    -0.076 Cl
HETATM   25  S1  UNL     1      -3.603 -17.593  -6.725  1.00  0.00    -0.072 SA
ENDBRANCH  18  20
ENDBRANCH  17  18
ENDBRANCH  16  17
ENDBRANCH   1  16
TORSDOF 8
ENDMDL