MODEL 1
REMARK VINA RESULT: -8.071566053      0.000      0.000
REMARK  5 active torsions:
REMARK  status: ('A' for Active; 'I' for Inactive)
REMARK    1  A    between atoms: C1_2  and  C2_4
REMARK    2  A    between atoms: C2_4  and  C10_18
REMARK    3  A    between atoms: N2_5  and  N3_7
REMARK       I    between atoms: N3_7  and  C3_9
REMARK    4  A    between atoms: C3_9  and  C4_11
REMARK    5  A    between atoms: C14_22  and  N4_23
ROOT
HETATM    1  C2  UNL     1      -4.413 -18.519  -8.013  1.00  0.00     0.123 C
HETATM    2  N2  UNL     1      -5.073 -17.496  -8.410  1.00  0.00    -0.292 N
ATOM      3  H2  UNL     1      -4.636 -16.600  -8.192  1.00  0.00     0.187 HD
ENDROOT
BRANCH   1   4
HETATM    4  C1  UNL     1      -4.871 -19.868  -8.230  1.00  0.00     0.283 C
HETATM    5  N1  UNL     1      -6.138 -20.273  -7.663  1.00  0.00    -0.056 NA
HETATM    6  O1  UNL     1      -4.300 -20.769  -8.867  1.00  0.00    -0.269 OA
ENDBRANCH   1   4
BRANCH   1   7
HETATM    7  C10 UNL     1      -3.142 -18.278  -7.312  1.00  0.00    -0.001 A
HETATM    8  C11 UNL     1      -2.188 -17.402  -7.681  1.00  0.00     0.014 A
HETATM    9  C12 UNL     1      -0.995 -17.231  -6.951  1.00  0.00     0.003 A
HETATM   10  C13 UNL     1      -0.768 -17.968  -5.819  1.00  0.00     0.036 A
HETATM   11  C14 UNL     1      -1.728 -18.869  -5.422  1.00  0.00     0.103 A
HETATM   12  C15 UNL     1      -2.881 -19.017  -6.150  1.00  0.00     0.050 A
BRANCH  11  13
HETATM   13  N4  UNL     1      -1.507 -19.637  -4.256  1.00  0.00    -0.116 N
HETATM   14  O3  UNL     1      -0.502 -19.407  -3.563  1.00  0.00    -0.532 OA
HETATM   15  O4  UNL     1      -2.363 -20.619  -3.870  1.00  0.00    -0.532 OA
ENDBRANCH  11  13
ENDBRANCH   1   7
BRANCH   2  16
HETATM   16  N3  UNL     1      -6.241 -17.402  -9.065  1.00  0.00    -0.265 N
HETATM   17  C3  UNL     1      -6.314 -17.322 -10.511  1.00  0.00     0.271 C
HETATM   18  O2  UNL     1      -5.213 -17.349 -11.112  1.00  0.00    -0.266 OA
ATOM     19  H3  UNL     1      -7.107 -17.386  -8.526  1.00  0.00     0.190 HD
BRANCH  17  20
HETATM   20  C4  UNL     1      -7.515 -17.215 -11.271  1.00  0.00     0.055 A
HETATM   21  C5  UNL     1      -7.822 -15.987 -11.833  1.00  0.00     0.019 A
HETATM   22  C6  UNL     1      -8.970 -15.790 -12.568  1.00  0.00     0.001 A
HETATM   23  C7  UNL     1      -9.848 -16.836 -12.759  1.00  0.00     0.002 A
HETATM   24  C8  UNL     1      -9.562 -18.080 -12.206  1.00  0.00     0.025 A
HETATM   25  C9  UNL     1      -8.386 -18.250 -11.463  1.00  0.00     0.049 A
HETATM   26 CL1  UNL     1      -8.012 -19.811 -10.786  1.00  0.00    -0.083 Cl
ENDBRANCH  17  20
ENDBRANCH   2  16
TORSDOF 5
ENDMDL