MODEL 5
REMARK VINA RESULT: -8.022393338      4.297      8.009
REMARK  5 active torsions:
REMARK  status: ('A' for Active; 'I' for Inactive)
REMARK       I    between atoms: C1_2  and  N1_3
REMARK    1  A    between atoms: C1_2  and  C8_17
REMARK    2  A    between atoms: N1_3  and  N2_5
REMARK    3  A    between atoms: N2_5  and  S1_7
REMARK    4  A    between atoms: S1_7  and  C2_10
REMARK    5  A    between atoms: C11_20  and  N3_21
ROOT
HETATM    1  O1  UNL     1      -3.482 -23.449  -5.721  1.00  0.00    -0.266 OA
HETATM    2  C1  UNL     1      -3.878 -22.447  -6.404  1.00  0.00     0.270 C
HETATM    3  N1  UNL     1      -3.534 -21.132  -5.977  1.00  0.00    -0.256 N
ATOM      4  H1  UNL     1      -3.851 -20.336  -6.532  1.00  0.00     0.191 HD
ENDROOT
BRANCH   3   5
HETATM    5  N2  UNL     1      -2.785 -20.893  -4.841  1.00  0.00    -0.220 N
ATOM      6  H2  UNL     1      -2.705 -21.563  -4.077  1.00  0.00     0.200 HD
BRANCH   5   7
HETATM    7  S1  UNL     1      -2.009 -19.380  -4.833  1.00  0.00     0.276 S
HETATM    8  O2  UNL     1      -0.489 -19.503  -4.879  1.00  0.00    -0.199 OA
HETATM    9  O3  UNL     1      -2.397 -18.607  -3.567  1.00  0.00    -0.199 OA
BRANCH   7  10
HETATM   10  C2  UNL     1      -2.459 -18.340  -6.164  1.00  0.00     0.081 A
HETATM   11  C3  UNL     1      -3.819 -18.189  -6.411  1.00  0.00     0.027 A
HETATM   12  C4  UNL     1      -4.297 -17.382  -7.424  1.00  0.00     0.025 A
HETATM   13  C5  UNL     1      -3.359 -16.706  -8.212  1.00  0.00     0.034 A
HETATM   14 CL1  UNL     1      -3.966 -15.689  -9.483  1.00  0.00    -0.084 Cl
HETATM   15  C6  UNL     1      -2.001 -16.866  -7.954  1.00  0.00     0.025 A
HETATM   16  C7  UNL     1      -1.535 -17.674  -6.940  1.00  0.00     0.027 A
ENDBRANCH   7  10
ENDBRANCH   5   7
ENDBRANCH   3   5
BRANCH   2  17
HETATM   17  C8  UNL     1      -4.663 -22.718  -7.582  1.00  0.00     0.033 A
HETATM   18  C9  UNL     1      -4.676 -21.909  -8.698  1.00  0.00     0.019 A
HETATM   19  C10 UNL     1      -5.454 -22.211  -9.795  1.00  0.00     0.037 A
HETATM   20  C11 UNL     1      -6.256 -23.332  -9.842  1.00  0.00     0.102 A
HETATM   21  C12 UNL     1      -6.254 -24.151  -8.737  1.00  0.00     0.037 A
HETATM   22  C13 UNL     1      -5.480 -23.855  -7.634  1.00  0.00     0.019 A
BRANCH  20  23
HETATM   23  N3  UNL     1      -7.068 -23.632 -10.983  1.00  0.00    -0.116 N
HETATM   24  O4  UNL     1      -7.924 -22.856 -11.414  1.00  0.00    -0.532 OA
HETATM   25  O5  UNL     1      -6.902 -24.825 -11.637  1.00  0.00    -0.532 OA
ENDBRANCH  20  23
ENDBRANCH   2  17
TORSDOF 5
ENDMDL