MODEL 3
REMARK VINA RESULT: -8.236774921      4.916      6.657
REMARK  7 active torsions:
REMARK  status: ('A' for Active; 'I' for Inactive)
REMARK    1  A    between atoms: C1_2  and  C2_3
REMARK       I    between atoms: C1_2  and  N1_16
REMARK    2  A    between atoms: C2_3  and  O2_4
REMARK    3  A    between atoms: O2_4  and  C3_5
REMARK    4  A    between atoms: C3_5  and  C4_7
REMARK    5  A    between atoms: C5_8  and  C6_9
REMARK    6  A    between atoms: N1_16  and  N2_18
REMARK       I    between atoms: N2_18  and  C12_20
REMARK    7  A    between atoms: C12_20  and  C13_22
ROOT
HETATM    1  O1  UNL     1       2.249   2.752  -2.595  1.00  0.00    -0.269 OA
HETATM    2  C1  UNL     1       1.523   2.657  -1.569  1.00  0.00     0.260 C
HETATM    3  N1  UNL     1       2.117   2.231  -0.364  1.00  0.00    -0.265 N
ATOM      4  H1  UNL     1       1.543   2.156   0.475  1.00  0.00     0.190 HD
ENDROOT
BRANCH   2   5
HETATM    5  C2  UNL     1       0.099   2.994  -1.667  1.00  0.00     0.283 C
BRANCH   5   6
HETATM    6  O2  UNL     1      -0.690   2.028  -2.323  1.00  0.00    -0.309 OA
BRANCH   6   7
HETATM    7  C3  UNL     1      -1.625   2.398  -3.289  1.00  0.00     0.283 C
HETATM    8  O3  UNL     1      -2.798   1.978  -3.164  1.00  0.00    -0.260 OA
BRANCH   7   9
HETATM    9  C4  UNL     1      -1.255   3.252  -4.421  1.00  0.00     0.083 C
HETATM   10  C5  UNL     1      -1.647   4.512  -4.445  1.00  0.00     0.019 C
BRANCH  10  11
HETATM   11  C6  UNL     1      -1.318   5.411  -5.536  1.00  0.00    -0.014 A
HETATM   12  C7  UNL     1      -2.162   5.653  -6.586  1.00  0.00     0.013 A
HETATM   13  C8  UNL     1      -1.798   6.529  -7.609  1.00  0.00     0.001 A
HETATM   14  C9  UNL     1      -0.590   7.176  -7.606  1.00  0.00     0.002 A
HETATM   15  C10 UNL     1       0.265   6.936  -6.552  1.00  0.00     0.024 A
HETATM   16  C11 UNL     1      -0.098   6.073  -5.545  1.00  0.00     0.044 A
HETATM   17 CL1  UNL     1       0.995   5.775  -4.210  1.00  0.00    -0.083 Cl
ENDBRANCH  10  11
ENDBRANCH   7   9
ENDBRANCH   6   7
ENDBRANCH   5   6
ENDBRANCH   2   5
BRANCH   3  18
HETATM   18  N2  UNL     1       3.487   1.905  -0.291  1.00  0.00    -0.262 N
HETATM   19  C12 UNL     1       4.422   2.838   0.194  1.00  0.00     0.293 C
HETATM   20  O4  UNL     1       4.036   3.979   0.569  1.00  0.00    -0.264 OA
ATOM     21  H2  UNL     1       3.804   0.983  -0.594  1.00  0.00     0.190 HD
BRANCH  19  22
HETATM   22  C13 UNL     1       5.829   2.456   0.252  1.00  0.00     0.144 A
HETATM   23  C14 UNL     1       6.309   1.209   0.652  1.00  0.00     0.045 A
HETATM   24  C15 UNL     1       7.675   1.269   0.561  1.00  0.00     0.027 A
HETATM   25  C16 UNL     1       7.994   2.526   0.116  1.00  0.00     0.143 A
HETATM   26  O5  UNL     1       6.862   3.201  -0.056  1.00  0.00    -0.317 OA
ENDBRANCH  19  22
ENDBRANCH   3  18
TORSDOF 7
ENDMDL