MODEL 5
REMARK VINA RESULT: -7.280909047      4.778      7.491
REMARK  7 active torsions:
REMARK  status: ('A' for Active; 'I' for Inactive)
REMARK    1  A    between atoms: C1_2  and  C2_3
REMARK       I    between atoms: C1_2  and  N3_14
REMARK    2  A    between atoms: N1_4  and  C3_6
REMARK    3  A    between atoms: N3_14  and  O2_15
REMARK    4  A    between atoms: O2_15  and  C8_16
REMARK    5  A    between atoms: C8_16  and  C9_18
REMARK    6  A    between atoms: C9_18  and  C10_19
REMARK    7  A    between atoms: C10_19  and  C11_20
ROOT
HETATM    1  O1  UNL     1       2.458   5.253  -3.697  1.00  0.00    -0.248 OA
HETATM    2  C1  UNL     1       2.141   4.154  -3.192  1.00  0.00     0.359 C
HETATM    3  N3  UNL     1       0.797   3.782  -2.857  1.00  0.00    -0.227 NA
ENDROOT
BRANCH   2   4
HETATM    4  C2  UNL     1       3.165   3.144  -2.890  1.00  0.00     0.182 C
HETATM    5  N1  UNL     1       3.219   2.249  -1.875  1.00  0.00    -0.346 N
ATOM      6  H1  UNL     1       3.026   1.319  -2.246  1.00  0.00     0.167 HD
BRANCH   5   7
HETATM    7  C3  UNL     1       3.421   2.158  -0.657  1.00  0.00     0.104 A
HETATM    8  C4  UNL     1       2.723   2.937   0.262  1.00  0.00     0.050 A
HETATM    9  C5  UNL     1       2.837   2.786   1.604  1.00  0.00     0.029 A
HETATM   10  C6  UNL     1       3.666   1.842   2.101  1.00  0.00     0.049 A
HETATM   11 CL1  UNL     1       3.810   1.628   3.833  1.00  0.00    -0.083 Cl
HETATM   12  C7  UNL     1       4.377   1.064   1.186  1.00  0.00     0.113 A
HETATM   13  N2  UNL     1       4.232   1.254  -0.134  1.00  0.00    -0.351 N
ATOM     14  H2  UNL     1       4.777   0.670  -0.768  1.00  0.00     0.166 HD
ENDBRANCH   5   7
ENDBRANCH   2   4
BRANCH   3  15
HETATM   15  O2  UNL     1      -0.383   3.459  -2.566  1.00  0.00    -0.124 OA
BRANCH  15  16
HETATM   16  C8  UNL     1      -1.316   2.612  -3.257  1.00  0.00     0.296 C
HETATM   17  O3  UNL     1      -1.660   1.560  -2.723  1.00  0.00    -0.262 OA
BRANCH  16  18
HETATM   18  C9  UNL     1      -1.821   3.099  -4.559  1.00  0.00     0.119 C
BRANCH  18  19
HETATM   19  C10 UNL     1      -2.169   4.568  -4.357  1.00  0.00     0.049 C
BRANCH  19  20
HETATM   20  C11 UNL     1      -1.815   5.363  -5.610  1.00  0.00    -0.051 A
HETATM   21  C12 UNL     1      -2.659   5.414  -6.664  1.00  0.00     0.014 A
HETATM   22  C13 UNL     1      -2.186   6.187  -7.746  1.00  0.00     0.050 A
HETATM   23  S1  UNL     1      -0.680   6.733  -7.177  1.00  0.00    -0.113 SA
HETATM   24  C14 UNL     1      -0.634   6.005  -5.630  1.00  0.00     0.056 A
ENDBRANCH  19  20
ENDBRANCH  18  19
ENDBRANCH  16  18
ENDBRANCH  15  16
ENDBRANCH   3  15
TORSDOF 7
ENDMDL