MODEL 4
REMARK VINA RESULT: -6.117379942      3.402      7.021
REMARK  9 active torsions:
REMARK  status: ('A' for Active; 'I' for Inactive)
REMARK    1  A    between atoms: N1_6  and  C6_8
REMARK    2  A    between atoms: C6_8  and  C7_9
REMARK    3  A    between atoms: C6_8  and  C12_17
REMARK    4  A    between atoms: C7_9  and  C8_10
REMARK    5  A    between atoms: C8_10  and  S1_11
REMARK    6  A    between atoms: S1_11  and  C9_12
REMARK    7  A    between atoms: C9_12  and  N2_14
REMARK    8  A    between atoms: C12_17  and  O1_18
REMARK    9  A    between atoms: N3_20  and  O2_22
ROOT
HETATM    1  C1  UNL     1       2.529   1.479   3.967  1.00  0.00     0.013 C
HETATM    2  C2  UNL     1       3.331   1.863   3.148  1.00  0.00    -0.100 C
HETATM    3  C3  UNL     1       4.307   2.347   2.155  1.00  0.00     0.080 A
HETATM    4  C4  UNL     1       5.449   3.131   2.746  1.00  0.00     0.037 C
HETATM    5  C5  UNL     1       3.842   2.667   0.806  1.00  0.00     0.026 A
HETATM    6  N1  UNL     1       3.263   3.391  -0.061  1.00  0.00    -0.382 N
ATOM      7  H1  UNL     1       2.847   4.276   0.230  1.00  0.00     0.160 HD
HETATM    8  C13 UNL     1       4.592   1.371   1.027  1.00  0.00     0.155 A
HETATM    9 CL1  UNL     1       6.267   1.292   0.455  1.00  0.00    -0.117 Cl
ENDROOT
BRANCH   6  10
HETATM   10  C6  UNL     1       3.177   2.992  -1.456  1.00  0.00     0.158 C
BRANCH  10  11
HETATM   11  C7  UNL     1       1.862   3.432  -2.019  1.00  0.00     0.044 C
BRANCH  11  12
HETATM   12  C8  UNL     1       1.915   3.918  -3.457  1.00  0.00     0.084 C
BRANCH  12  13
HETATM   13  S1  UNL     1       1.357   5.586  -3.628  1.00  0.00    -0.101 SA
BRANCH  13  14
HETATM   14  C9  UNL     1       0.415   5.963  -5.052  1.00  0.00     0.135 C
HETATM   15  S2  UNL     1       1.183   6.866  -6.248  1.00  0.00    -0.053 SA
BRANCH  14  16
HETATM   16  N2  UNL     1      -0.915   5.619  -5.354  1.00  0.00    -0.375 N
HETATM   17  C10 UNL     1      -1.509   6.099  -6.618  1.00  0.00     0.150 C
HETATM   18  C11 UNL     1      -1.742   4.835  -4.486  1.00  0.00     0.150 C
ENDBRANCH  14  16
ENDBRANCH  13  14
ENDBRANCH  12  13
ENDBRANCH  11  12
ENDBRANCH  10  11
BRANCH  10  19
HETATM   19  C12 UNL     1       4.372   3.371  -2.196  1.00  0.00     0.158 C
HETATM   20  N3  UNL     1       4.928   4.546  -2.143  1.00  0.00    -0.249 N
ATOM     21  H3  UNL     1       5.765   4.711  -2.703  1.00  0.00     0.196 HD
BRANCH  19  22
HETATM   22  O1  UNL     1       5.038   2.467  -3.053  1.00  0.00    -0.347 OA
ATOM     23  H1  UNL     1       5.733   1.900  -2.742  1.00  0.00     0.219 HD
ENDBRANCH  19  22
BRANCH  20  24
HETATM   24  O2  UNL     1       4.448   5.569  -1.376  1.00  0.00    -0.288 OA
ATOM     25  H2  UNL     1       4.750   6.466  -1.454  1.00  0.00     0.244 HD
ENDBRANCH  20  24
ENDBRANCH  10  19
ENDBRANCH   6  10
TORSDOF 9
ENDMDL