MODEL 4
REMARK VINA RESULT: -7.530723565      3.689      9.049
REMARK  7 active torsions:
REMARK  status: ('A' for Active; 'I' for Inactive)
REMARK    1  A    between atoms: C2_2  and  N1_3
REMARK    2  A    between atoms: C2_2  and  C10_16
REMARK       I    between atoms: N1_3  and  C3_5
REMARK    3  A    between atoms: C3_5  and  C4_7
REMARK    4  A    between atoms: C7_10  and  N2_11
REMARK       I    between atoms: C10_16  and  N3_18
REMARK    5  A    between atoms: N3_18  and  N4_20
REMARK    6  A    between atoms: N4_20  and  C11_21
REMARK    7  A    between atoms: C11_21  and  C12_23
ROOT
HETATM    1  C1  UNL     1       4.642   4.486  -4.550  1.00  0.00     0.042 C
HETATM    2  C2  UNL     1       3.481   4.866  -3.654  1.00  0.00     0.175 C
ENDROOT
BRANCH   2   3
HETATM    3  N1  UNL     1       3.424   4.068  -2.436  1.00  0.00    -0.344 N
HETATM    4  C3  UNL     1       4.028   4.530  -1.235  1.00  0.00     0.252 C
HETATM    5  O1  UNL     1       4.622   5.635  -1.271  1.00  0.00    -0.268 OA
ATOM      6  H1  UNL     1       2.944   3.168  -2.445  1.00  0.00     0.163 HD
BRANCH   4   7
HETATM    7  C4  UNL     1       3.958   3.746  -0.003  1.00  0.00     0.032 A
HETATM    8  C5  UNL     1       4.683   4.162   1.090  1.00  0.00     0.019 A
HETATM    9  C6  UNL     1       4.618   3.490   2.304  1.00  0.00     0.037 A
HETATM   10  C7  UNL     1       3.821   2.378   2.454  1.00  0.00     0.102 A
HETATM   11  C8  UNL     1       3.097   1.963   1.358  1.00  0.00     0.037 A
HETATM   12  C9  UNL     1       3.156   2.635   0.124  1.00  0.00     0.019 A
BRANCH  10  13
HETATM   13  N2  UNL     1       3.721   1.688   3.696  1.00  0.00    -0.116 N
HETATM   14  O2  UNL     1       4.727   1.223   4.219  1.00  0.00    -0.532 OA
HETATM   15  O3  UNL     1       2.530   1.516   4.339  1.00  0.00    -0.532 OA
ENDBRANCH  10  13
ENDBRANCH   4   7
ENDBRANCH   2   3
BRANCH   2  16
HETATM   16  C10 UNL     1       2.249   4.733  -4.434  1.00  0.00     0.268 C
HETATM   17  O4  UNL     1       2.231   4.831  -5.715  1.00  0.00    -0.269 OA
HETATM   18  N3  UNL     1       0.956   4.474  -3.833  1.00  0.00    -0.200 N
ATOM     19  H3  UNL     1       0.932   4.382  -2.817  1.00  0.00     0.205 HD
BRANCH  18  20
HETATM   20  N4  UNL     1      -0.150   4.351  -4.445  1.00  0.00    -0.311 NA
BRANCH  20  21
HETATM   21  C11 UNL     1      -1.188   4.233  -5.014  1.00  0.00     0.216 C
HETATM   22 CL1  UNL     1      -2.098   2.711  -4.966  1.00  0.00    -0.048 Cl
BRANCH  21  23
HETATM   23  C12 UNL     1      -1.854   5.334  -5.789  1.00  0.00     0.164 C
HETATM   24  C13 UNL     1      -0.835   6.295  -6.294  1.00  0.00     0.060 C
HETATM   25  C14 UNL     1      -2.724   4.808  -6.875  1.00  0.00     0.060 C
HETATM   26  F1  UNL     1      -2.679   5.971  -4.861  1.00  0.00    -0.235 F
ENDBRANCH  21  23
ENDBRANCH  20  21
ENDBRANCH  18  20
ENDBRANCH   2  16
TORSDOF 7
ENDMDL