MODEL 4
REMARK VINA RESULT: -6.281255713      3.424      4.841
REMARK  5 active torsions:
REMARK  status: ('A' for Active; 'I' for Inactive)
REMARK    1  A    between atoms: C2_2  and  N1_3
REMARK    2  A    between atoms: C2_2  and  C11_19
REMARK       I    between atoms: N1_3  and  C3_5
REMARK    3  A    between atoms: C3_5  and  C4_7
REMARK    4  A    between atoms: C4_7  and  S1_10
REMARK    5  A    between atoms: S1_10  and  C7_13
ROOT
HETATM    1  C4  UNL     1       4.011   5.292  -4.359  1.00  0.00     0.142 C
HETATM    2  C5  UNL     1       4.091   4.855  -5.818  1.00  0.00     0.042 C
HETATM    3  C6  UNL     1       5.425   5.744  -3.998  1.00  0.00     0.042 C
ENDROOT
BRANCH   1   4
HETATM    4  C3  UNL     1       3.622   4.110  -3.578  1.00  0.00     0.241 C
HETATM    5  N1  UNL     1       2.454   4.072  -2.787  1.00  0.00    -0.345 N
ATOM      6  H1  UNL     1       1.865   4.904  -2.764  1.00  0.00     0.163 HD
HETATM    7  O1  UNL     1       4.337   3.082  -3.597  1.00  0.00    -0.272 OA
BRANCH   5   8
HETATM    8  C2  UNL     1       2.043   2.932  -2.011  1.00  0.00     0.181 C
HETATM    9  C1  UNL     1       2.688   2.960  -0.618  1.00  0.00     0.043 C
BRANCH   8  10
HETATM   10  C11 UNL     1       0.605   2.808  -1.849  1.00  0.00     0.196 C
HETATM   11  O4  UNL     1      -0.097   3.810  -1.595  1.00  0.00    -0.646 OA
HETATM   12  O5  UNL     1      -0.018   1.584  -1.972  1.00  0.00    -0.646 OA
ENDBRANCH   8  10
ENDBRANCH   5   8
ENDBRANCH   1   4
BRANCH   1  13
HETATM   13  S1  UNL     1       2.941   6.666  -4.239  1.00  0.00     0.198 S
HETATM   14  O2  UNL     1       3.648   7.845  -4.898  1.00  0.00    -0.221 OA
HETATM   15  O3  UNL     1       2.656   6.995  -2.808  1.00  0.00    -0.221 OA
BRANCH  13  16
HETATM   16  C7  UNL     1       1.404   6.441  -5.068  1.00  0.00     0.102 A
HETATM   17  C8  UNL     1       0.335   5.686  -4.660  1.00  0.00     0.033 A
HETATM   18  C9  UNL     1      -0.743   5.655  -5.450  1.00  0.00     0.033 A
HETATM   19  C10 UNL     1      -0.693   6.386  -6.610  1.00  0.00     0.075 A
HETATM   20 CL1  UNL     1      -1.954   6.540  -7.845  1.00  0.00    -0.076 Cl
HETATM   21  S2  UNL     1       0.860   7.085  -6.546  1.00  0.00    -0.066 SA
ENDBRANCH  13  16
ENDBRANCH   1  13
TORSDOF 5
ENDMDL