MODEL 5
REMARK VINA RESULT: -7.377581449      1.289      1.477
REMARK  5 active torsions:
REMARK  status: ('A' for Active; 'I' for Inactive)
REMARK    1  A    between atoms: C2_2  and  C3_3
REMARK    2  A    between atoms: N1_4  and  N2_6
REMARK       I    between atoms: N2_6  and  C4_8
REMARK       I    between atoms: C4_8  and  N3_10
REMARK    3  A    between atoms: N3_10  and  N4_12
REMARK    4  A    between atoms: N4_12  and  C6_14
REMARK    5  A    between atoms: C11_19  and  S1_20
ROOT
HETATM    1  N2  UNL     1       1.740   4.518  -3.302  1.00  0.00    -0.251 N
ATOM      2  H2  UNL     1       2.204   5.414  -3.448  1.00  0.00     0.191 HD
HETATM    3  C4  UNL     1       2.195   3.605  -2.321  1.00  0.00     0.355 C
HETATM    4  O1  UNL     1       1.636   2.501  -2.128  1.00  0.00    -0.244 OA
HETATM    5  N3  UNL     1       3.321   3.936  -1.528  1.00  0.00    -0.245 N
HETATM    6  C5  UNL     1       3.965   5.209  -1.713  1.00  0.00     0.183 C
ENDROOT
BRANCH   5   7
HETATM    7  N4  UNL     1       3.820   3.034  -0.605  1.00  0.00    -0.294 N
ATOM      8  H4  UNL     1       4.132   2.136  -0.974  1.00  0.00     0.187 HD
BRANCH   7   9
HETATM    9  C6  UNL     1       3.947   3.215   0.785  1.00  0.00     0.070 A
HETATM   10  C7  UNL     1       2.815   3.357   1.548  1.00  0.00     0.032 A
HETATM   11  C8  UNL     1       2.935   3.519   2.911  1.00  0.00     0.002 A
HETATM   12  C9  UNL     1       4.176   3.537   3.498  1.00  0.00     0.002 A
HETATM   13  C10 UNL     1       5.317   3.395   2.736  1.00  0.00     0.026 A
HETATM   14  C11 UNL     1       5.220   3.230   1.354  1.00  0.00     0.086 A
BRANCH  14  15
HETATM   15  S1  UNL     1       6.665   3.064   0.376  1.00  0.00     0.174 S
HETATM   16  C12 UNL     1       7.130   4.603  -0.384  1.00  0.00     0.167 C
HETATM   17  O2  UNL     1       7.803   2.641   1.260  1.00  0.00    -0.223 OA
HETATM   18  O3  UNL     1       6.409   1.980  -0.661  1.00  0.00    -0.223 OA
ENDBRANCH  14  15
ENDBRANCH   7   9
ENDBRANCH   5   7
BRANCH   1  19
HETATM   19  N1  UNL     1       0.625   4.139  -4.066  1.00  0.00    -0.307 N
HETATM   20  C3  UNL     1      -0.581   4.474  -3.755  1.00  0.00     0.114 C
ATOM     21  H1  UNL     1       0.776   3.575  -4.902  1.00  0.00     0.186 HD
BRANCH  20  22
HETATM   22  C2  UNL     1      -1.651   4.032  -4.614  1.00  0.00    -0.034 C
HETATM   23  C1  UNL     1      -2.099   4.887  -5.738  1.00  0.00     0.050 C
HETATM   24  C13 UNL     1      -2.232   2.885  -4.418  1.00  0.00     0.092 C
HETATM   25 CL1  UNL     1      -1.761   1.829  -3.117  1.00  0.00    -0.096 Cl
ENDBRANCH  20  22
ENDBRANCH   1  19
TORSDOF 5
ENDMDL