MODEL 4
REMARK VINA RESULT: -7.179362940      1.817      2.009
REMARK  7 active torsions:
REMARK  status: ('A' for Active; 'I' for Inactive)
REMARK    1  A    between atoms: C3_3  and  C4_4
REMARK    2  A    between atoms: C4_4  and  N1_5
REMARK       I    between atoms: C5_7  and  N2_8
REMARK       I    between atoms: C5_7  and  N4_19
REMARK    3  A    between atoms: C6_10  and  C7_11
REMARK    4  A    between atoms: C10_14  and  N3_15
REMARK    5  A    between atoms: N4_19  and  N5_21
REMARK    6  A    between atoms: N5_21  and  C11_23
REMARK    7  A    between atoms: C11_23  and  C12_25
ROOT
HETATM    1  C1  UNL     1      -2.025   3.387  -5.199  1.00  0.00     0.012 C
HETATM    2  C2  UNL     1      -1.872   2.668  -4.263  1.00  0.00    -0.116 C
HETATM    3  C3  UNL     1      -1.661   1.789  -3.126  1.00  0.00     0.113 C
ENDROOT
BRANCH   3   4
HETATM    4  C4  UNL     1      -0.915   2.536  -2.046  1.00  0.00     0.150 C
BRANCH   4   5
HETATM    5  N1  UNL     1       0.306   1.905  -1.665  1.00  0.00    -0.224 N
HETATM    6  C5  UNL     1       1.456   2.387  -1.989  1.00  0.00     0.692 C
HETATM    7  N2  UNL     1       1.490   3.584  -2.752  1.00  0.00    -0.198 N
HETATM    8  N4  UNL     1       2.671   1.774  -1.620  1.00  0.00    -0.131 N
HETATM    9  C6  UNL     1       2.415   3.870  -3.581  1.00  0.00     0.143 C
ATOM     10  H2  UNL     1       0.730   4.254  -2.630  1.00  0.00     0.183 HD
ATOM     11  H4  UNL     1       3.106   1.130  -2.281  1.00  0.00     0.205 HD
ATOM     12  H1  UNL     1       0.268   1.045  -1.118  1.00  0.00     0.177 HD
BRANCH   9  13
HETATM   13  C7  UNL     1       2.412   5.118  -4.349  1.00  0.00     0.094 A
HETATM   14  C8  UNL     1       2.393   6.407  -3.827  1.00  0.00     0.043 A
HETATM   15  C9  UNL     1       2.398   7.306  -4.870  1.00  0.00     0.065 A
HETATM   16  C10 UNL     1       2.420   6.510  -5.997  1.00  0.00     0.215 A
HETATM   17  O3  UNL     1       2.429   5.249  -5.653  1.00  0.00    -0.287 OA
BRANCH  16  18
HETATM   18  N3  UNL     1       2.434   7.020  -7.337  1.00  0.00    -0.090 N
HETATM   19  O1  UNL     1       1.365   7.387  -7.865  1.00  0.00    -0.530 OA
HETATM   20  O2  UNL     1       3.578   7.120  -8.054  1.00  0.00    -0.530 OA
ENDBRANCH  16  18
ENDBRANCH   9  13
BRANCH   8  21
HETATM   21  N5  UNL     1       3.313   1.997  -0.400  1.00  0.00    -0.279 N
ATOM     22  H5  UNL     1       2.767   1.931   0.459  1.00  0.00     0.188 HD
BRANCH  21  23
HETATM   23  C11 UNL     1       4.694   2.310  -0.304  1.00  0.00     0.106 C
HETATM   24  S1  UNL     1       5.670   1.379   0.608  1.00  0.00    -0.063 SA
BRANCH  23  25
HETATM   25  C12 UNL     1       5.294   3.466  -1.010  1.00  0.00     0.185 C
HETATM   26 CL1  UNL     1       4.370   4.933  -0.757  1.00  0.00    -0.123 Cl
ENDBRANCH  23  25
ENDBRANCH  21  23
ENDBRANCH   8  21
ENDBRANCH   4   5
ENDBRANCH   3   4
TORSDOF 7
ENDMDL