MODEL 3
REMARK VINA RESULT: -7.998401296      0.128      1.194
REMARK  5 active torsions:
REMARK  status: ('A' for Active; 'I' for Inactive)
REMARK       I    between atoms: C1_2  and  N1_3
REMARK    1  A    between atoms: C1_2  and  C8_20
REMARK    2  A    between atoms: N1_3  and  S1_5
REMARK    3  A    between atoms: S1_5  and  N2_8
REMARK    4  A    between atoms: N2_8  and  C2_10
REMARK    5  A    between atoms: C7_16  and  N3_17
ROOT
HETATM    1  S1  UNL     1       3.792   4.764  -2.183  1.00  0.00     0.326 S
HETATM    2  O2  UNL     1       5.239   4.472  -2.503  1.00  0.00    -0.182 OA
HETATM    3  O3  UNL     1       3.577   6.231  -2.447  1.00  0.00    -0.182 OA
ENDROOT
BRANCH   1   4
HETATM    4  N1  UNL     1       3.578   4.463  -0.512  1.00  0.00    -0.233 N
HETATM    5  C1  UNL     1       3.544   3.142  -0.039  1.00  0.00     0.266 C
HETATM    6  O1  UNL     1       3.670   2.153  -0.836  1.00  0.00    -0.267 OA
ATOM      7  H1  UNL     1       3.476   5.242   0.138  1.00  0.00     0.183 HD
BRANCH   5   8
HETATM    8  C8  UNL     1       3.359   2.898   1.385  1.00  0.00     0.033 A
HETATM    9  C9  UNL     1       3.034   1.602   1.759  1.00  0.00     0.017 A
HETATM   10  C10 UNL     1       2.839   1.246   3.051  1.00  0.00     0.001 A
HETATM   11  C11 UNL     1       2.966   2.209   4.051  1.00  0.00     0.000 A
HETATM   12  C12 UNL     1       3.290   3.493   3.672  1.00  0.00     0.001 A
HETATM   13  C13 UNL     1       3.489   3.853   2.358  1.00  0.00     0.017 A
ENDBRANCH   5   8
ENDBRANCH   1   4
BRANCH   1  14
HETATM   14  N2  UNL     1       2.739   3.857  -3.195  1.00  0.00    -0.263 N
ATOM     15  H2  UNL     1       3.033   2.925  -3.487  1.00  0.00     0.180 HD
BRANCH  14  16
HETATM   16  C2  UNL     1       1.475   4.340  -3.650  1.00  0.00     0.098 A
HETATM   17  C3  UNL     1       0.312   3.933  -2.973  1.00  0.00     0.064 A
HETATM   18 CL1  UNL     1       0.439   2.894  -1.556  1.00  0.00    -0.082 Cl
HETATM   19  C4  UNL     1      -0.935   4.332  -3.391  1.00  0.00     0.026 A
HETATM   20  C5  UNL     1      -1.008   5.144  -4.501  1.00  0.00     0.004 A
HETATM   21  C6  UNL     1       0.116   5.549  -5.170  1.00  0.00     0.038 A
HETATM   22  C7  UNL     1       1.376   5.150  -4.750  1.00  0.00     0.131 A
BRANCH  22  23
HETATM   23  N3  UNL     1       2.539   5.613  -5.474  1.00  0.00    -0.113 N
HETATM   24  O4  UNL     1       2.624   6.819  -5.755  1.00  0.00    -0.532 OA
HETATM   25  O5  UNL     1       3.513   4.743  -5.865  1.00  0.00    -0.532 OA
ENDBRANCH  22  23
ENDBRANCH  14  16
ENDBRANCH   1  14
TORSDOF 5
ENDMDL