MODEL 4
REMARK VINA RESULT: -7.108351940      2.550      7.208
REMARK  7 active torsions:
REMARK  status: ('A' for Active; 'I' for Inactive)
REMARK    1  A    between atoms: C2_2  and  C3_3
REMARK    2  A    between atoms: C3_3  and  C4_4
REMARK    3  A    between atoms: C4_4  and  O2_6
REMARK    4  A    between atoms: O2_6  and  C5_7
REMARK    5  A    between atoms: C5_7  and  C6_8
REMARK       I    between atoms: C6_8  and  N1_10
REMARK    6  A    between atoms: C10_14  and  C12_16
REMARK    7  A    between atoms: C13_19  and  C14_21
ROOT
HETATM    1  O2  UNL     1       2.126   3.061  -2.467  1.00  0.00    -0.308 OA
ENDROOT
BRANCH   1   2
HETATM    2  C4  UNL     1       1.167   4.059  -2.731  1.00  0.00     0.291 C
HETATM    3  O1  UNL     1       0.228   4.211  -1.939  1.00  0.00    -0.260 OA
BRANCH   2   4
HETATM    4  C3  UNL     1       1.280   4.908  -3.932  1.00  0.00     0.040 C
HETATM    5  C13 UNL     1       2.177   5.839  -4.007  1.00  0.00     0.068 C
HETATM    6 CL1  UNL     1       3.243   6.015  -2.572  1.00  0.00    -0.082 Cl
BRANCH   4   7
HETATM    7  C2  UNL     1       0.289   4.599  -5.016  1.00  0.00     0.042 C
HETATM    8  C1  UNL     1      -0.950   5.437  -4.905  1.00  0.00     0.010 C
ENDBRANCH   4   7
BRANCH   5   9
HETATM    9  C14 UNL     1       2.502   6.752  -5.082  1.00  0.00     0.021 C
HETATM   10  C15 UNL     1       3.265   6.140  -6.286  1.00  0.00     0.069 C
HETATM   11  N2  UNL     1       2.285   7.955  -5.229  1.00  0.00    -0.401 N
ATOM     12  H22 UNL     1       1.783   8.358  -4.437  1.00  0.00     0.156 HD
ATOM     13  H21 UNL     1       2.514   8.598  -5.987  1.00  0.00     0.156 HD
ENDBRANCH   5   9
ENDBRANCH   2   4
ENDBRANCH   1   2
BRANCH   1  14
HETATM   14  C5  UNL     1       2.245   2.609  -1.156  1.00  0.00     0.281 C
BRANCH  14  15
HETATM   15  C6  UNL     1       3.551   2.985  -0.563  1.00  0.00     0.245 C
HETATM   16  O3  UNL     1       4.531   3.098  -1.361  1.00  0.00    -0.271 OA
HETATM   17  N1  UNL     1       3.687   3.206   0.827  1.00  0.00    -0.331 N
HETATM   18  C7  UNL     1       2.612   3.096   1.778  1.00  0.00     0.127 C
HETATM   19  C10 UNL     1       4.890   3.570   1.505  1.00  0.00     0.120 C
HETATM   20  C8  UNL     1       3.075   3.805   3.028  1.00  0.00     0.023 C
HETATM   21  C9  UNL     1       4.575   3.693   2.972  1.00  0.00     0.044 C
HETATM   22  C11 UNL     1       5.406   4.931   1.050  1.00  0.00     0.050 C
BRANCH  19  23
HETATM   23  C12 UNL     1       5.959   2.537   1.359  1.00  0.00     0.202 C
HETATM   24  O4  UNL     1       5.738   1.326   1.564  1.00  0.00    -0.646 OA
HETATM   25  O5  UNL     1       7.232   2.916   0.985  1.00  0.00    -0.646 OA
ENDBRANCH  19  23
ENDBRANCH  14  15
ENDBRANCH   1  14
TORSDOF 7
ENDMDL