MODEL 4
REMARK VINA RESULT: -8.551717768      2.248      3.921
REMARK  7 active torsions:
REMARK  status: ('A' for Active; 'I' for Inactive)
REMARK    1  A    between atoms: C2_2  and  O2_4
REMARK    2  A    between atoms: O2_4  and  C3_5
REMARK    3  A    between atoms: C3_5  and  N1_6
REMARK    4  A    between atoms: C3_5  and  C4_10
REMARK    5  A    between atoms: C4_10  and  C5_12
REMARK    6  A    between atoms: N2_14  and  N3_16
REMARK       I    between atoms: N3_16  and  C6_18
REMARK    7  A    between atoms: C6_18  and  C7_20
ROOT
HETATM    1  C5  UNL     1       3.771   2.210  -0.287  1.00  0.00     0.169 C
HETATM    2 CL1  UNL     1       4.383   0.818   0.688  1.00  0.00    -0.059 Cl
HETATM    3  N2  UNL     1       3.133   1.897  -1.279  1.00  0.00    -0.284 N
ATOM      4  H2  UNL     1       3.062   0.884  -1.374  1.00  0.00     0.188 HD
ENDROOT
BRANCH   3   5
HETATM    5  N3  UNL     1       2.500   2.528  -2.275  1.00  0.00    -0.265 N
HETATM    6  C6  UNL     1       1.223   3.139  -2.023  1.00  0.00     0.270 C
HETATM    7  O4  UNL     1       0.702   3.078  -0.871  1.00  0.00    -0.266 OA
ATOM      8  H3  UNL     1       2.920   2.576  -3.204  1.00  0.00     0.190 HD
BRANCH   6   9
HETATM    9  C7  UNL     1       0.517   3.822  -3.066  1.00  0.00     0.034 A
HETATM   10  C8  UNL     1      -0.818   3.638  -3.334  1.00  0.00     0.018 A
HETATM   11  C9  UNL     1      -1.470   4.322  -4.349  1.00  0.00     0.013 A
HETATM   12  C10 UNL     1      -0.799   5.225  -5.135  1.00  0.00    -0.026 A
HETATM   13  C11 UNL     1      -1.428   5.926  -6.158  1.00  0.00     0.012 A
HETATM   14  C15 UNL     1       0.547   5.408  -4.862  1.00  0.00    -0.025 A
HETATM   15  C12 UNL     1      -0.736   6.828  -6.935  1.00  0.00     0.001 A
HETATM   16  C13 UNL     1       0.606   7.028  -6.682  1.00  0.00     0.001 A
HETATM   17  C14 UNL     1       1.210   6.329  -5.671  1.00  0.00     0.012 A
HETATM   18  C16 UNL     1       1.191   4.734  -3.862  1.00  0.00     0.029 A
ENDBRANCH   6   9
ENDBRANCH   3   5
BRANCH   1  19
HETATM   19  C4  UNL     1       4.110   3.494   0.223  1.00  0.00     0.245 C
HETATM   20  O3  UNL     1       3.698   3.819   1.407  1.00  0.00    -0.285 OA
BRANCH  19  21
HETATM   21  C3  UNL     1       4.901   4.524  -0.468  1.00  0.00     0.404 C
BRANCH  21  22
HETATM   22  O2  UNL     1       4.177   5.050  -1.588  1.00  0.00    -0.280 OA
BRANCH  22  23
HETATM   23  C2  UNL     1       4.731   4.902  -2.837  1.00  0.00     0.257 C
HETATM   24  C1  UNL     1       5.314   6.090  -3.552  1.00  0.00     0.126 C
HETATM   25  O1  UNL     1       4.771   3.783  -3.421  1.00  0.00    -0.266 OA
ENDBRANCH  22  23
ENDBRANCH  21  22
BRANCH  21  26
HETATM   26  N1  UNL     1       6.127   3.892  -0.962  1.00  0.00    -0.045 N
ATOM     27  H13 UNL     1       6.962   4.236  -0.488  1.00  0.00     0.277 HD
ATOM     28  H12 UNL     1       6.202   2.913  -0.684  1.00  0.00     0.277 HD
ATOM     29  H11 UNL     1       6.172   4.017  -1.973  1.00  0.00     0.277 HD
ENDBRANCH  21  26
ENDBRANCH  19  21
ENDBRANCH   1  19
TORSDOF 7
ENDMDL