MODEL 2
REMARK VINA RESULT: -5.456872077      0.486      1.163
REMARK  2 active torsions:
REMARK  status: ('A' for Active; 'I' for Inactive)
REMARK    1  A    between atoms: C2_2  and  C4_4
REMARK    2  A    between atoms: C5_5  and  C6_6
ROOT
HETATM    1  C6  UNL     1      -4.091   4.229  15.022  1.00  0.00     0.147 C
HETATM    2  C7  UNL     1      -4.853   5.474  14.687  1.00  0.00     0.063 C
HETATM    3  C8  UNL     1      -4.608   6.012  13.320  1.00  0.00     0.237 C
HETATM    4  N1  UNL     1      -4.400   5.001  12.315  1.00  0.00    -0.054 N
ATOM      5  H11 UNL     1      -3.490   5.111  11.868  1.00  0.00     0.279 HD
ATOM      6  H12 UNL     1      -5.000   5.160  11.505  1.00  0.00     0.279 HD
HETATM    7  C9  UNL     1      -4.567   3.661  12.831  1.00  0.00     0.400 C
HETATM    8  O1  UNL     1      -3.746   3.469  13.920  1.00  0.00    -0.355 OA
ENDROOT
BRANCH   1   9
HETATM    9  C5  UNL     1      -4.882   3.453  16.002  1.00  0.00     0.001 C
HETATM   10  C4  UNL     1      -6.113   3.801  16.299  1.00  0.00    -0.024 C
BRANCH  10  11
HETATM   11  C2  UNL     1      -6.975   3.079  17.269  1.00  0.00    -0.001 C
HETATM   12  C1  UNL     1      -6.398   3.007  18.644  1.00  0.00     0.013 C
HETATM   13  C3  UNL     1      -7.266   1.702  16.710  1.00  0.00     0.013 C
ENDBRANCH  10  11
ENDBRANCH   1   9
TORSDOF 2
ENDMDL