MODEL 1
REMARK VINA RESULT: -5.925330380      0.000      0.000
REMARK  3 active torsions:
REMARK  status: ('A' for Active; 'I' for Inactive)
REMARK    1  A    between atoms: O1_1  and  C1_3
REMARK    2  A    between atoms: C1_3  and  C2_4
REMARK    3  A    between atoms: C1_3  and  C6_8
ROOT
HETATM    1  C1  UNL     1      -4.907   1.804  16.015  1.00  0.00     0.151 C
ENDROOT
BRANCH   1   2
HETATM    2  O1  UNL     1      -3.734   1.090  16.226  1.00  0.00    -0.393 OA
ATOM      3  H1  UNL     1      -3.746   0.348  15.632  1.00  0.00     0.210 HD
ENDBRANCH   1   2
BRANCH   1   4
HETATM    4  C2  UNL     1      -5.818   1.541  17.210  1.00  0.00     0.017 C
HETATM    5  C3  UNL     1      -6.121   2.763  18.033  1.00  0.00     0.007 C
HETATM    6  C4  UNL     1      -7.434   2.878  17.316  1.00  0.00     0.001 C
HETATM    7  C5  UNL     1      -7.286   1.441  16.891  1.00  0.00     0.007 C
ENDBRANCH   1   4
BRANCH   1   8
HETATM    8  C6  UNL     1      -4.593   3.259  15.897  1.00  0.00     0.152 C
HETATM    9  C7  UNL     1      -5.068   3.934  14.645  1.00  0.00     0.061 C
HETATM   10  C8  UNL     1      -3.712   4.638  14.718  1.00  0.00     0.171 C
HETATM   11  O2  UNL     1      -3.291   3.563  15.526  1.00  0.00    -0.383 OA
ENDBRANCH   1   8
TORSDOF 3
ENDMDL