MODEL 4
REMARK VINA RESULT: -5.147563690      1.231      3.376
REMARK  3 active torsions:
REMARK  status: ('A' for Active; 'I' for Inactive)
REMARK    1  A    between atoms: C2_2  and  C3_3
REMARK    2  A    between atoms: C3_3  and  C5_5
REMARK    3  A    between atoms: C8_9  and  O2_10
ROOT
HETATM    1  C5  UNL     1      -6.324   2.361  16.181  1.00  0.00     0.050 C
HETATM    2  C6  UNL     1      -6.870   3.393  17.142  1.00  0.00     0.036 C
HETATM    3  C7  UNL     1      -6.244   2.952  18.437  1.00  0.00     0.171 C
HETATM    4  O1  UNL     1      -5.665   1.712  18.245  1.00  0.00    -0.361 OA
HETATM    5  C8  UNL     1      -6.199   1.188  17.078  1.00  0.00     0.261 C
ENDROOT
BRANCH   1   6
HETATM    6  C3  UNL     1      -5.073   2.824  15.530  1.00  0.00     0.012 C
HETATM    7  C4  UNL     1      -5.099   4.352  15.446  1.00  0.00     0.015 C
BRANCH   6   8
HETATM    8  C2  UNL     1      -4.782   2.307  14.208  1.00  0.00    -0.032 C
HETATM    9  C1  UNL     1      -4.800   3.097  13.150  1.00  0.00     0.007 C
ENDBRANCH   6   8
ENDBRANCH   1   6
BRANCH   5  10
HETATM   10  O2  UNL     1      -5.532   0.117  16.585  1.00  0.00    -0.371 OA
ATOM     11  H2  UNL     1      -4.756   0.301  16.069  1.00  0.00     0.212 HD
ENDBRANCH   5  10
TORSDOF 3
ENDMDL