MODEL 4
REMARK VINA RESULT: -5.611871900      1.270      1.641
REMARK  2 active torsions:
REMARK  status: ('A' for Active; 'I' for Inactive)
REMARK    1  A    between atoms: C2_2  and  C4_4
REMARK    2  A    between atoms: C4_4  and  C6_7
ROOT
HETATM    1  C4  UNL     1      -5.696   2.816  15.739  1.00  0.00     0.126 C
HETATM    2  C5  UNL     1      -4.681   1.744  15.941  1.00  0.00     0.066 C
HETATM    3  N1  UNL     1      -3.880   0.924  16.095  1.00  0.00    -0.197 NA
ENDROOT
BRANCH   1   4
HETATM    4  C2  UNL     1      -6.010   3.429  17.050  1.00  0.00    -0.003 C
HETATM    5  C1  UNL     1      -7.050   4.528  16.969  1.00  0.00     0.011 C
HETATM    6  C3  UNL     1      -6.380   2.514  18.164  1.00  0.00     0.011 C
ENDBRANCH   1   4
BRANCH   1   7
HETATM    7  C6  UNL     1      -5.238   3.721  14.652  1.00  0.00     0.203 C
HETATM    8  C7  UNL     1      -4.888   3.088  13.355  1.00  0.00     0.036 C
HETATM    9  C8  UNL     1      -3.735   3.906  12.805  1.00  0.00     0.029 C
HETATM   10  C9  UNL     1      -3.237   4.694  13.973  1.00  0.00     0.233 C
HETATM   11  N2  UNL     1      -4.064   4.433  15.118  1.00  0.00    -0.070 N
ATOM     12  H22 UNL     1      -4.292   5.277  15.645  1.00  0.00     0.277 HD
ATOM     13  H21 UNL     1      -3.570   3.941  15.862  1.00  0.00     0.277 HD
ENDBRANCH   1   7
TORSDOF 2
ENDMDL