MODEL 3
REMARK VINA RESULT: -4.817994782      2.722      3.040
REMARK  2 active torsions:
REMARK  status: ('A' for Active; 'I' for Inactive)
REMARK    1  A    between atoms: C3_3  and  C4_4
REMARK    2  A    between atoms: C5_5  and  C6_6
ROOT
HETATM    1  C6  UNL     1      -3.327   4.982  14.420  1.00  0.00     0.170 C
HETATM    2  C7  UNL     1      -4.042   6.064  13.666  1.00  0.00     0.268 C
HETATM    3  N1  UNL     1      -3.097   6.634  12.705  1.00  0.00    -0.070 N
ATOM      4  H11 UNL     1      -2.209   6.926  13.115  1.00  0.00     0.277 HD
ATOM      5  H12 UNL     1      -3.365   7.552  12.352  1.00  0.00     0.277 HD
HETATM    6  C8  UNL     1      -2.969   5.606  11.668  1.00  0.00     0.258 C
HETATM    7  C9  UNL     1      -3.099   4.229  12.306  1.00  0.00     0.196 C
HETATM    8  O1  UNL     1      -2.590   4.211  13.581  1.00  0.00    -0.379 OA
ENDROOT
BRANCH   1   9
HETATM    9  C5  UNL     1      -4.371   4.221  15.161  1.00  0.00     0.006 C
HETATM   10  C4  UNL     1      -5.555   4.703  15.463  1.00  0.00    -0.002 C
BRANCH  10  11
HETATM   11  C3  UNL     1      -6.526   3.919  16.181  1.00  0.00    -0.005 C
HETATM   12  C2  UNL     1      -6.483   2.603  16.278  1.00  0.00    -0.031 C
HETATM   13  C1  UNL     1      -7.498   1.831  17.024  1.00  0.00     0.036 C
ENDBRANCH  10  11
ENDBRANCH   1   9
TORSDOF 2
ENDMDL