MODEL 2
REMARK VINA RESULT: -5.747980022      1.194      1.209
REMARK  2 active torsions:
REMARK  status: ('A' for Active; 'I' for Inactive)
REMARK    1  A    between atoms: C2_2  and  N2_5
REMARK    2  A    between atoms: N2_5  and  C4_7
ROOT
HETATM    1  C1  UNL     1      -7.119   1.803  17.046  1.00  0.00     0.080 C
HETATM    2  C2  UNL     1      -6.142   2.290  16.009  1.00  0.00     0.083 C
HETATM    3  C3  UNL     1      -4.922   1.529  16.117  1.00  0.00     0.112 C
HETATM    4  N1  UNL     1      -3.934   0.890  16.184  1.00  0.00    -0.190 NA
ENDROOT
BRANCH   2   5
HETATM    5  N2  UNL     1      -6.032   3.645  15.813  1.00  0.00    -0.380 N
ATOM      6  H2  UNL     1      -5.892   4.217  16.646  1.00  0.00     0.160 HD
BRANCH   5   7
HETATM    7  C4  UNL     1      -6.091   4.319  14.603  1.00  0.00     0.082 C
HETATM    8  C5  UNL     1      -6.363   5.782  14.767  1.00  0.00     0.025 C
HETATM    9  C6  UNL     1      -5.245   6.505  15.478  1.00  0.00     0.002 C
HETATM   10  C7  UNL     1      -3.977   6.355  14.659  1.00  0.00     0.000 C
HETATM   11  C8  UNL     1      -3.661   4.945  14.290  1.00  0.00     0.002 C
HETATM   12  C9  UNL     1      -4.818   4.160  13.794  1.00  0.00     0.025 C
ENDBRANCH   5   7
ENDBRANCH   2   5
TORSDOF 2
ENDMDL