MODEL 2
REMARK VINA RESULT: -5.459020658      1.176      3.596
REMARK  3 active torsions:
REMARK  status: ('A' for Active; 'I' for Inactive)
REMARK    1  A    between atoms: C2_2  and  C4_4
REMARK    2  A    between atoms: C4_4  and  O1_5
REMARK    3  A    between atoms: C4_4  and  C5_7
ROOT
HETATM    1  C4  UNL     1      -5.659   2.847  16.061  1.00  0.00     0.134 C
ENDROOT
BRANCH   1   2
HETATM    2  C2  UNL     1      -6.780   2.973  17.051  1.00  0.00     0.007 C
HETATM    3  C1  UNL     1      -6.326   2.977  18.484  1.00  0.00     0.012 C
HETATM    4  C3  UNL     1      -7.653   1.724  16.885  1.00  0.00     0.012 C
ENDBRANCH   1   2
BRANCH   1   5
HETATM    5  O1  UNL     1      -4.536   2.307  16.680  1.00  0.00    -0.394 OA
ATOM      6  H1  UNL     1      -3.773   2.424  16.126  1.00  0.00     0.210 HD
ENDBRANCH   1   5
BRANCH   1   7
HETATM    7  C5  UNL     1      -5.387   4.064  15.257  1.00  0.00     0.025 C
HETATM    8  C6  UNL     1      -6.166   5.294  15.530  1.00  0.00     0.022 C
HETATM    9  C7  UNL     1      -3.873   4.299  15.173  1.00  0.00     0.181 C
HETATM   10  O2  UNL     1      -3.853   3.366  14.135  1.00  0.00    -0.389 OA
HETATM   11  C8  UNL     1      -5.137   3.836  13.788  1.00  0.00     0.181 C
ENDBRANCH   1   7
TORSDOF 3
ENDMDL