MODEL 4
REMARK VINA RESULT: -5.335163668      1.398      1.679
REMARK  2 active torsions:
REMARK  status: ('A' for Active; 'I' for Inactive)
REMARK    1  A    between atoms: C2_2  and  C3_3
REMARK    2  A    between atoms: C5_6  and  C6_7
ROOT
HETATM    1  C3  UNL     1      -4.941   3.518  14.216  1.00  0.00     0.234 C
HETATM    2  C4  UNL     1      -4.674   2.022  14.375  1.00  0.00     0.207 C
HETATM    3  O1  UNL     1      -5.470   1.724  15.476  1.00  0.00    -0.356 OA
HETATM    4  C5  UNL     1      -5.251   2.771  16.361  1.00  0.00     0.329 C
HETATM    5  N1  UNL     1      -4.957   3.943  15.601  1.00  0.00    -0.039 N
ATOM      6  H11 UNL     1      -5.594   4.719  15.783  1.00  0.00     0.281 HD
ATOM      7  H12 UNL     1      -4.102   4.417  15.893  1.00  0.00     0.281 HD
ENDROOT
BRANCH   4   8
HETATM    8  C6  UNL     1      -6.489   2.905  17.214  1.00  0.00     0.001 C
HETATM    9  C7  UNL     1      -7.063   4.291  16.981  1.00  0.00     0.019 C
HETATM   10  C8  UNL     1      -7.543   1.895  16.871  1.00  0.00     0.019 C
HETATM   11  C9  UNL     1      -6.182   2.786  18.679  1.00  0.00     0.019 C
ENDBRANCH   4   8
BRANCH   1  12
HETATM   12  C2  UNL     1      -3.889   4.170  13.416  1.00  0.00    -0.002 C
HETATM   13  C1  UNL     1      -2.962   4.957  13.914  1.00  0.00     0.009 C
ENDBRANCH   1  12
TORSDOF 2
ENDMDL