MODEL 2
REMARK VINA RESULT: -4.824866644      1.545      4.384
REMARK  2 active torsions:
REMARK  status: ('A' for Active; 'I' for Inactive)
REMARK    1  A    between atoms: C2_2  and  N1_3
REMARK    2  A    between atoms: N1_3  and  C4_5
ROOT
HETATM    1  C4  UNL     1      -5.799   4.116  14.860  1.00  0.00     0.117 C
HETATM    2  C5  UNL     1      -4.986   5.426  15.087  1.00  0.00     0.111 C
HETATM    3  C6  UNL     1      -3.853   5.351  14.246  1.00  0.00    -0.161 C
HETATM    4  C7  UNL     1      -2.807   5.124  13.341  1.00  0.00     0.199 C
HETATM    5  N2  UNL     1      -2.961   3.740  12.798  1.00  0.00    -0.390 N
ATOM      6  H2  UNL     1      -2.196   3.215  12.373  1.00  0.00     0.159 HD
HETATM    7  C8  UNL     1      -4.309   3.217  12.935  1.00  0.00     0.081 C
HETATM    8  C9  UNL     1      -4.943   3.033  14.207  1.00  0.00     0.016 C
ENDROOT
BRANCH   1   9
HETATM    9  N1  UNL     1      -6.391   3.649  16.055  1.00  0.00    -0.386 N
HETATM   10  C3  UNL     1      -6.984   4.566  16.990  1.00  0.00     0.149 C
BRANCH   9  11
HETATM   11  C2  UNL     1      -6.421   2.271  16.368  1.00  0.00     0.075 C
HETATM   12  C1  UNL     1      -7.433   1.678  16.969  1.00  0.00     0.029 C
ENDBRANCH   9  11
ENDBRANCH   1   9
TORSDOF 2
ENDMDL