MODEL 5
REMARK VINA RESULT: -5.198571380      1.662      1.931
REMARK  3 active torsions:
REMARK  status: ('A' for Active; 'I' for Inactive)
REMARK    1  A    between atoms: C2_2  and  C4_4
REMARK    2  A    between atoms: C4_4  and  O1_5
REMARK    3  A    between atoms: C4_4  and  C5_7
ROOT
HETATM    1  C4  UNL     1      -5.158   2.064  16.727  1.00  0.00     0.127 C
ENDROOT
BRANCH   1   2
HETATM    2  C2  UNL     1      -6.413   2.728  17.144  1.00  0.00     0.006 C
HETATM    3  C1  UNL     1      -7.522   1.663  16.971  1.00  0.00     0.012 C
HETATM    4  C3  UNL     1      -6.431   3.017  18.629  1.00  0.00     0.012 C
ENDBRANCH   1   2
BRANCH   1   5
HETATM    5  O1  UNL     1      -5.331   0.654  16.911  1.00  0.00    -0.395 OA
ATOM      6  H1  UNL     1      -4.514   0.230  16.673  1.00  0.00     0.210 HD
ENDBRANCH   1   5
BRANCH   1   7
HETATM    7  C5  UNL     1      -4.663   2.227  15.370  1.00  0.00     0.040 C
HETATM    8  C6  UNL     1      -5.354   3.120  14.410  1.00  0.00     0.035 C
HETATM    9  C7  UNL     1      -4.505   2.775  13.165  1.00  0.00     0.168 C
HETATM   10  O2  UNL     1      -4.156   1.456  13.309  1.00  0.00    -0.391 OA
HETATM   11  C8  UNL     1      -4.568   0.975  14.536  1.00  0.00     0.174 C
ENDBRANCH   1   7
TORSDOF 3
ENDMDL