MODEL 2
REMARK VINA RESULT: -7.954268449      3.717      6.057
REMARK  4 active torsions:
REMARK  status: ('A' for Active; 'I' for Inactive)
REMARK    1  A    between atoms: N1_4  and  C4_5
REMARK    2  A    between atoms: C4_5  and  O1_6
REMARK    3  A    between atoms: C5_8  and  N2_9
REMARK       I    between atoms: N2_9  and  C6_11
REMARK    4  A    between atoms: C6_11  and  C7_13
ROOT
HETATM    1  N2  UNL     1      -5.233   5.252  13.263  1.00  0.00    -0.332 N
ATOM      2  H2  UNL     1      -6.230   5.100  13.107  1.00  0.00     0.168 HD
HETATM    3  C6  UNL     1      -4.482   6.147  12.432  1.00  0.00     0.230 C
HETATM    4  O2  UNL     1      -3.264   6.298  12.664  1.00  0.00    -0.272 OA
ENDROOT
BRANCH   1   5
HETATM    5  C5  UNL     1      -4.553   4.593  14.296  1.00  0.00     0.146 C
HETATM    6  C4  UNL     1      -3.764   3.417  14.108  1.00  0.00     0.153 C
BRANCH   6   7
HETATM    7  N1  UNL     1      -3.424   2.566  13.075  1.00  0.00    -0.356 N
HETATM    8  C3  UNL     1      -4.088   1.374  12.655  1.00  0.00     0.156 C
HETATM    9  C2  UNL     1      -4.663   1.536  11.250  1.00  0.00     0.136 C
HETATM   10  C1  UNL     1      -4.791   0.197  10.560  1.00  0.00     0.041 C
HETATM   11  O3  UNL     1      -3.976   2.483  10.521  1.00  0.00    -0.373 OA
HETATM   12  C18 UNL     1      -2.645   2.632  10.756  1.00  0.00     0.070 C
HETATM   13  C17 UNL     1      -2.244   2.871  12.190  1.00  0.00     0.162 C
HETATM   14  C19 UNL     1      -2.222   3.889   9.974  1.00  0.00     0.047 C
HETATM   15  C20 UNL     1      -1.802   1.500  10.212  1.00  0.00     0.047 C
ENDBRANCH   6   7
BRANCH   6  16
HETATM   16  O1  UNL     1      -3.194   3.038  15.257  1.00  0.00    -0.345 OA
ATOM     17  H1  UNL     1      -3.835   2.976  15.956  1.00  0.00     0.219 HD
ENDBRANCH   6  16
ENDBRANCH   1   5
BRANCH   3  18
HETATM   18  C7  UNL     1      -5.076   6.896  11.319  1.00  0.00     0.042 C
HETATM   19  C8  UNL     1      -6.497   7.287  11.613  1.00  0.00     0.024 C
HETATM   20  C9  UNL     1      -7.027   8.219  10.546  1.00  0.00    -0.013 C
HETATM   21  C10 UNL     1      -6.148   9.434  10.463  1.00  0.00     0.009 C
HETATM   22  C14 UNL     1      -7.052   7.458   9.243  1.00  0.00     0.009 C
HETATM   23  C11 UNL     1      -4.775   9.026  10.020  1.00  0.00    -0.013 C
HETATM   24  C12 UNL     1      -4.804   8.240   8.729  1.00  0.00     0.009 C
HETATM   25  C16 UNL     1      -4.194   8.122  11.082  1.00  0.00     0.024 C
HETATM   26  C13 UNL     1      -5.635   7.001   8.941  1.00  0.00    -0.013 C
HETATM   27  C15 UNL     1      -5.078   6.118  10.023  1.00  0.00     0.024 C
ENDBRANCH   3  18
TORSDOF 4
ENDMDL