MODEL 2
REMARK VINA RESULT: -7.715470723      2.380      2.892
REMARK  5 active torsions:
REMARK  status: ('A' for Active; 'I' for Inactive)
REMARK    1  A    between atoms: C3_5  and  C4_6
REMARK    2  A    between atoms: C4_6  and  C5_7
REMARK    3  A    between atoms: C18_21  and  C19_22
REMARK    4  A    between atoms: C19_22  and  O3_24
REMARK    5  A    between atoms: O3_24  and  C20_25
ROOT
HETATM    1  C1  UNL     1      -4.042   0.006  12.536  1.00  0.00     0.044 C
HETATM    2  C2  UNL     1      -3.915   1.287  12.860  1.00  0.00     0.040 A
HETATM    3  N1  UNL     1      -3.643   2.294  11.958  1.00  0.00    -0.356 N
ATOM      4  H1  UNL     1      -3.515   2.146  10.956  1.00  0.00     0.166 HD
HETATM    5  C3  UNL     1      -3.569   3.481  12.552  1.00  0.00     0.040 A
HETATM    6  C16 UNL     1      -3.811   3.185  13.913  1.00  0.00    -0.017 A
HETATM    7  C17 UNL     1      -3.843   4.164  15.018  1.00  0.00     0.052 C
HETATM    8  C18 UNL     1      -4.022   1.849  14.096  1.00  0.00     0.073 A
ENDROOT
BRANCH   5   9
HETATM    9  C4  UNL     1      -3.341   4.704  12.151  1.00  0.00     0.042 C
BRANCH   9  10
HETATM   10  C5  UNL     1      -4.262   5.636  11.552  1.00  0.00    -0.018 A
HETATM   11  C6  UNL     1      -5.179   6.372  12.149  1.00  0.00     0.068 A
HETATM   12  C7  UNL     1      -5.872   7.160  11.151  1.00  0.00     0.183 A
HETATM   13  O1  UNL     1      -6.817   7.981  11.382  1.00  0.00    -0.288 OA
HETATM   14  C8  UNL     1      -5.307   6.853   9.863  1.00  0.00     0.026 A
HETATM   15  C9  UNL     1      -5.592   7.316   8.581  1.00  0.00     0.023 A
HETATM   16  C15 UNL     1      -4.317   5.921  10.081  1.00  0.00    -0.006 A
HETATM   17  C10 UNL     1      -4.907   6.872   7.482  1.00  0.00    -0.060 A
HETATM   18  C11 UNL     1      -5.182   7.342   6.104  1.00  0.00     0.048 C
HETATM   19  C12 UNL     1      -3.927   5.947   7.709  1.00  0.00     0.014 A
HETATM   20  C13 UNL     1      -3.632   5.472   8.997  1.00  0.00    -0.049 A
HETATM   21  C14 UNL     1      -2.547   4.478   9.097  1.00  0.00     0.049 C
ENDBRANCH   9  10
ENDBRANCH   5   9
BRANCH   8  22
HETATM   22  C19 UNL     1      -4.303   1.145  15.342  1.00  0.00     0.296 C
HETATM   23  O2  UNL     1      -3.359   0.972  16.187  1.00  0.00    -0.259 OA
BRANCH  22  24
HETATM   24  O3  UNL     1      -5.535   0.647  15.677  1.00  0.00    -0.318 OA
BRANCH  24  25
HETATM   25  C20 UNL     1      -6.134   0.989  16.913  1.00  0.00     0.174 C
HETATM   26  C21 UNL     1      -6.684   2.413  16.804  1.00  0.00     0.034 C
ENDBRANCH  24  25
ENDBRANCH  22  24
ENDBRANCH   8  22
TORSDOF 5
ENDMDL