MODEL 4
REMARK VINA RESULT: -6.780678100      3.044      5.038
REMARK  3 active torsions:
REMARK  status: ('A' for Active; 'I' for Inactive)
REMARK    1  A    between atoms: N2_5  and  C4_6
REMARK    2  A    between atoms: C13_16  and  C14_17
REMARK    3  A    between atoms: C14_17  and  N3_18
ROOT
HETATM    1  C4  UNL     1      -2.808   5.943  14.204  1.00  0.00    -0.005 C
HETATM    2  C5  UNL     1      -1.935   4.775  14.046  1.00  0.00     0.061 C
HETATM    3  C6  UNL     1      -2.357   3.713  13.112  1.00  0.00     0.028 C
HETATM    4  C7  UNL     1      -2.663   4.337  11.784  1.00  0.00     0.015 C
HETATM    5  C8  UNL     1      -4.054   4.726  11.569  1.00  0.00    -0.000 C
HETATM    6  C9  UNL     1      -4.405   4.073  10.313  1.00  0.00     0.013 C
HETATM    7  C10 UNL     1      -4.108   2.587  10.670  1.00  0.00     0.084 C
HETATM    8  C11 UNL     1      -4.109   2.282  12.120  1.00  0.00     0.156 C
HETATM    9  O1  UNL     1      -4.754   1.261  12.423  1.00  0.00    -0.293 OA
HETATM   10  C12 UNL     1      -3.532   2.871  13.387  1.00  0.00     0.000 C
HETATM   11  C13 UNL     1      -4.542   3.359  14.360  1.00  0.00    -0.022 C
HETATM   12  C15 UNL     1      -5.005   4.765  14.232  1.00  0.00     0.019 C
HETATM   13  C16 UNL     1      -4.188   5.838  13.661  1.00  0.00    -0.031 C
HETATM   14  C17 UNL     1      -4.266   6.024  12.128  1.00  0.00    -0.008 A
HETATM   15  C18 UNL     1      -5.372   6.874  11.569  1.00  0.00     0.016 A
HETATM   16  C19 UNL     1      -3.899   7.274  11.507  1.00  0.00     0.016 A
ENDROOT
BRANCH   1  17
HETATM   17  N2  UNL     1      -2.289   7.251  13.932  1.00  0.00    -0.283 NA
HETATM   18  C3  UNL     1      -2.346   8.137  15.085  1.00  0.00     0.125 C
HETATM   19  C2  UNL     1      -1.016   8.519  15.636  1.00  0.00     0.286 C
HETATM   20  N1  UNL     1      -0.198   9.246  14.711  1.00  0.00     0.086 N
HETATM   21  C1  UNL     1      -0.381  10.679  14.800  1.00  0.00     0.310 C
HETATM   22  C21 UNL     1      -0.534   8.768  13.374  1.00  0.00     0.286 C
HETATM   23  C20 UNL     1      -0.924   7.304  13.480  1.00  0.00     0.125 C
ENDBRANCH   1  17
BRANCH  11  24
HETATM   24  C14 UNL     1      -4.260   2.955  15.810  1.00  0.00     0.269 C
BRANCH  24  25
HETATM   25  N3  UNL     1      -3.473   1.728  15.875  1.00  0.00    -0.075 N
ATOM     26  H33 UNL     1      -3.618   1.236  16.757  1.00  0.00     0.274 HD
ATOM     27  H32 UNL     1      -3.833   1.017  15.238  1.00  0.00     0.274 HD
ATOM     28  H31 UNL     1      -2.483   1.913  15.709  1.00  0.00     0.274 HD
ENDBRANCH  24  25
ENDBRANCH  11  24
TORSDOF 3
ENDMDL