MODEL 3
REMARK VINA RESULT: -7.523881420      1.093      1.177
REMARK  4 active torsions:
REMARK  status: ('A' for Active; 'I' for Inactive)
REMARK    1  A    between atoms: C3_3  and  C19_24
REMARK    2  A    between atoms: C4_4  and  C5_5
REMARK       I    between atoms: N2_12  and  C9_13
REMARK    3  A    between atoms: C9_13  and  C10_15
REMARK    4  A    between atoms: C10_15  and  C11_16
ROOT
HETATM    1  C1  UNL     1      -6.294   4.657  14.859  1.00  0.00     0.018 C
HETATM    2  C2  UNL     1      -5.445   3.794  14.882  1.00  0.00    -0.074 C
HETATM    3  C3  UNL     1      -4.424   2.788  14.900  1.00  0.00     0.060 C
HETATM    4  C4  UNL     1      -3.620   2.681  13.860  1.00  0.00     0.023 C
ENDROOT
BRANCH   3   5
HETATM    5  C19 UNL     1      -4.328   1.936  16.071  1.00  0.00     0.163 C
HETATM    6  C20 UNL     1      -5.489   1.764  16.955  1.00  0.00     0.097 C
HETATM    7  O3  UNL     1      -3.215   1.376  16.266  1.00  0.00    -0.292 OA
ENDBRANCH   3   5
BRANCH   4   8
HETATM    8  C5  UNL     1      -3.761   3.571  12.698  1.00  0.00     0.123 C
HETATM    9  N1  UNL     1      -3.910   2.724  11.529  1.00  0.00    -0.349 N
HETATM   10  C6  UNL     1      -2.727   2.270  10.898  1.00  0.00     0.243 C
ATOM     11  H1  UNL     1      -4.832   2.466  11.176  1.00  0.00     0.163 HD
HETATM   12  O1  UNL     1      -2.764   1.243  10.174  1.00  0.00    -0.269 OA
HETATM   13  C7  UNL     1      -1.487   2.997  11.093  1.00  0.00     0.100 C
HETATM   14  C8  UNL     1      -1.457   4.072  11.851  1.00  0.00     0.030 C
HETATM   15  N2  UNL     1      -0.386   4.962  12.208  1.00  0.00    -0.321 N
HETATM   16  C17 UNL     1      -2.697   4.589  12.531  1.00  0.00     0.024 C
HETATM   17  C9  UNL     1       0.913   5.087  11.672  1.00  0.00     0.224 C
HETATM   18  C15 UNL     1      -0.871   5.794  13.296  1.00  0.00     0.133 C
HETATM   19  O2  UNL     1       1.670   5.988  12.186  1.00  0.00    -0.273 OA
HETATM   20  C16 UNL     1      -2.058   5.038  13.840  1.00  0.00     0.038 C
HETATM   21  C18 UNL     1      -3.191   5.863  11.853  1.00  0.00     0.024 C
BRANCH  17  22
HETATM   22  C10 UNL     1       1.501   4.297  10.582  1.00  0.00     0.111 C
BRANCH  22  23
HETATM   23  C11 UNL     1       1.304   4.979   9.226  1.00  0.00    -0.043 C
HETATM   24  C12 UNL     1       0.828   3.949   8.252  1.00  0.00     0.015 C
HETATM   25  C13 UNL     1       2.667   5.539   8.849  1.00  0.00     0.015 C
HETATM   26  C14 UNL     1       0.320   6.097   9.302  1.00  0.00     0.015 C
ENDBRANCH  22  23
ENDBRANCH  17  22
ENDBRANCH   4   8
TORSDOF 4
ENDMDL