MODEL 1
REMARK VINA RESULT: -7.534965540      0.000      0.000
REMARK  4 active torsions:
REMARK  status: ('A' for Active; 'I' for Inactive)
REMARK    1  A    between atoms: C7_9  and  N2_10
REMARK    2  A    between atoms: N2_10  and  C8_12
REMARK    3  A    between atoms: C8_12  and  C9_13
REMARK    4  A    between atoms: C9_13  and  N3_14
ROOT
HETATM    1  C1  UNL     1      -3.361  -0.165   9.969  1.00  0.00     0.010 C
HETATM    2  C2  UNL     1      -4.264   0.220  11.101  1.00  0.00    -0.009 C
HETATM    3  C3  UNL     1      -3.858  -0.385  12.405  1.00  0.00     0.062 C
HETATM    4  C4  UNL     1      -4.323   0.599  13.404  1.00  0.00     0.018 A
HETATM    5  N1  UNL     1      -4.569   0.470  14.700  1.00  0.00    -0.362 N
ATOM      6  H1  UNL     1      -4.431  -0.443  15.132  1.00  0.00     0.165 HD
HETATM    7  C5  UNL     1      -4.989   1.484  15.467  1.00  0.00     0.018 A
HETATM    8  C6  UNL     1      -5.174   2.704  14.889  1.00  0.00    -0.008 A
HETATM    9  C7  UNL     1      -4.943   2.944  13.529  1.00  0.00     0.048 A
HETATM   10  C15 UNL     1      -4.513   1.845  12.819  1.00  0.00    -0.008 A
HETATM   11  C16 UNL     1      -4.172   1.709  11.402  1.00  0.00     0.047 C
HETATM   12  C17 UNL     1      -5.634   3.938  15.576  1.00  0.00     0.043 C
HETATM   13  C18 UNL     1      -6.882   3.671  16.417  1.00  0.00     0.005 C
HETATM   14  C19 UNL     1      -6.539   2.895  17.666  1.00  0.00     0.001 C
HETATM   15  C20 UNL     1      -6.538   1.390  17.398  1.00  0.00     0.006 C
HETATM   16  C21 UNL     1      -5.180   1.030  16.890  1.00  0.00     0.057 C
ENDROOT
BRANCH   9  17
HETATM   17  N2  UNL     1      -5.143   4.101  13.120  1.00  0.00    -0.367 N
ATOM     18  H2  UNL     1      -6.105   4.390  13.299  1.00  0.00     0.165 HD
BRANCH  17  19
HETATM   19  C8  UNL     1      -4.430   5.114  12.488  1.00  0.00     0.080 C
BRANCH  19  20
HETATM   20  C9  UNL     1      -3.034   5.384  13.074  1.00  0.00     0.161 C
BRANCH  20  21
HETATM   21  N3  UNL     1      -2.085   5.200  12.033  1.00  0.00    -0.405 N
HETATM   22  C10 UNL     1      -2.618   5.100  10.725  1.00  0.00     0.147 C
HETATM   23  C11 UNL     1      -1.544   4.723   9.751  1.00  0.00     0.291 C
HETATM   24  N4  UNL     1      -0.786   3.561  10.098  1.00  0.00     0.087 N
HETATM   25  C12 UNL     1       0.604   3.757   9.689  1.00  0.00     0.310 C
HETATM   26  C13 UNL     1      -0.824   3.194  11.485  1.00  0.00     0.291 C
HETATM   27  C14 UNL     1      -0.921   4.455  12.334  1.00  0.00     0.147 C
ENDBRANCH  20  21
ENDBRANCH  19  20
ENDBRANCH  17  19
ENDBRANCH   9  17
TORSDOF 4
ENDMDL