MODEL 2
REMARK VINA RESULT: -7.369888273      1.265      1.727
REMARK  3 active torsions:
REMARK  status: ('A' for Active; 'I' for Inactive)
REMARK    1  A    between atoms: N1_2  and  C3_4
REMARK    2  A    between atoms: C3_4  and  C4_5
REMARK    3  A    between atoms: C4_5  and  N2_6
ROOT
HETATM    1  N2  UNL     1      -4.168   1.571  14.139  1.00  0.00    -0.345 N
HETATM    2  C5  UNL     1      -3.716   2.936  14.157  1.00  0.00     0.183 C
HETATM    3  C6  UNL     1      -3.152   3.401  12.890  1.00  0.00     0.038 A
HETATM    4  N3  UNL     1      -2.852   4.696  12.753  1.00  0.00    -0.360 N
ATOM      5  H3  UNL     1      -3.029   5.317  13.544  1.00  0.00     0.165 HD
HETATM    6  C7  UNL     1      -2.329   5.234  11.630  1.00  0.00     0.020 A
HETATM    7  C8  UNL     1      -2.070   4.415  10.517  1.00  0.00     0.024 A
HETATM    8  C9  UNL     1      -2.377   3.096  10.665  1.00  0.00     0.189 A
HETATM    9  O1  UNL     1      -2.166   2.337   9.714  1.00  0.00    -0.287 OA
HETATM   10  C10 UNL     1      -2.917   2.570  11.839  1.00  0.00     0.025 A
HETATM   11  C11 UNL     1      -3.188   1.114  11.825  1.00  0.00     0.148 C
HETATM   12  C12 UNL     1      -3.960   0.747  13.016  1.00  0.00     0.224 C
HETATM   13  O2  UNL     1      -4.476  -0.403  13.025  1.00  0.00    -0.273 OA
HETATM   14  C13 UNL     1      -1.510   5.080   9.362  1.00  0.00    -0.007 C
HETATM   15  C14 UNL     1      -0.049   5.411   9.673  1.00  0.00     0.014 C
HETATM   16  C15 UNL     1       0.757   4.274   9.087  1.00  0.00     0.001 C
HETATM   17  C16 UNL     1      -0.056   3.805   7.914  1.00  0.00     0.001 C
HETATM   18  C17 UNL     1      -1.438   4.415   8.066  1.00  0.00     0.014 C
HETATM   19  C18 UNL     1      -2.303   6.386   9.175  1.00  0.00     0.015 C
HETATM   20  C19 UNL     1      -2.103   7.331  10.304  1.00  0.00     0.007 C
HETATM   21  C20 UNL     1      -2.052   6.684  11.646  1.00  0.00     0.058 C
ENDROOT
BRANCH   1  22
HETATM   22  C4  UNL     1      -4.839   1.057  15.302  1.00  0.00     0.156 C
BRANCH  22  23
HETATM   23  C3  UNL     1      -4.763   1.991  16.487  1.00  0.00     0.291 C
BRANCH  23  24
HETATM   24  N1  UNL     1      -6.063   2.283  17.014  1.00  0.00     0.081 N
HETATM   25  C1  UNL     1      -6.983   1.163  16.962  1.00  0.00     0.309 C
HETATM   26  C2  UNL     1      -6.712   3.410  16.417  1.00  0.00     0.309 C
ENDBRANCH  23  24
ENDBRANCH  22  23
ENDBRANCH   1  22
TORSDOF 3
ENDMDL