MODEL 5
REMARK VINA RESULT: -7.282925751      3.451      7.384
REMARK  5 active torsions:
REMARK  status: ('A' for Active; 'I' for Inactive)
REMARK    1  A    between atoms: C2_2  and  C3_3
REMARK    2  A    between atoms: C3_3  and  C4_4
REMARK    3  A    between atoms: C4_4  and  C5_5
REMARK    4  A    between atoms: C6_6  and  C7_7
REMARK    5  A    between atoms: N2_21  and  C17_22
ROOT
HETATM    1  C7  UNL     1      -4.077   5.617  14.037  1.00  0.00     0.018 A
HETATM    2  C8  UNL     1      -3.221   6.420  14.750  1.00  0.00     0.023 A
HETATM    3  C9  UNL     1      -2.437   7.379  14.144  1.00  0.00     0.039 A
HETATM    4  C10 UNL     1      -2.525   7.532  12.747  1.00  0.00     0.078 A
HETATM    5  C11 UNL     1      -3.365   6.751  12.004  1.00  0.00     0.014 A
HETATM    6  C12 UNL     1      -4.137   5.793  12.673  1.00  0.00     0.033 A
HETATM    7  C13 UNL     1      -3.483   6.880  10.566  1.00  0.00     0.148 C
HETATM    8  C14 UNL     1      -2.357   7.708  10.006  1.00  0.00     0.073 C
HETATM    9  C15 UNL     1      -2.187   8.970  10.866  1.00  0.00     0.179 C
HETATM   10  O1  UNL     1      -1.746   8.489  12.120  1.00  0.00    -0.350 OA
HETATM   11  N1  UNL     1      -3.381   5.560   9.973  1.00  0.00    -0.320 N
ATOM     12  H1  UNL     1      -2.899   4.747  10.357  1.00  0.00     0.165 HD
HETATM   13  C16 UNL     1      -4.087   5.637   8.755  1.00  0.00     0.326 C
HETATM   14  O2  UNL     1      -3.933   4.845   7.787  1.00  0.00    -0.247 OA
HETATM   15  N2  UNL     1      -4.989   6.743   8.805  1.00  0.00    -0.264 N
HETATM   16  C20 UNL     1      -4.805   7.327  10.087  1.00  0.00     0.261 C
HETATM   17  O3  UNL     1      -5.646   8.073  10.645  1.00  0.00    -0.270 OA
ENDROOT
BRANCH  15  18
HETATM   18  C17 UNL     1      -5.891   7.149   7.742  1.00  0.00     0.089 C
HETATM   19  C18 UNL     1      -7.338   6.892   8.117  1.00  0.00     0.032 C
HETATM   20  C19 UNL     1      -5.714   8.589   7.353  1.00  0.00     0.032 C
ENDBRANCH  15  18
BRANCH   1  21
HETATM   21  C6  UNL     1      -4.906   4.609  14.643  1.00  0.00    -0.067 C
HETATM   22  C5  UNL     1      -5.617   3.777  15.151  1.00  0.00    -0.101 C
BRANCH  22  23
HETATM   23  C4  UNL     1      -6.494   2.779  15.785  1.00  0.00     0.094 C
BRANCH  23  24
HETATM   24  C3  UNL     1      -6.699   3.077  17.250  1.00  0.00     0.012 C
BRANCH  24  25
HETATM   25  C2  UNL     1      -6.202   1.933  18.120  1.00  0.00    -0.004 C
HETATM   26  C1  UNL     1      -5.984   0.687  17.292  1.00  0.00     0.005 C
ENDBRANCH  24  25
ENDBRANCH  23  24
ENDBRANCH  22  23
ENDBRANCH   1  21
TORSDOF 5
ENDMDL