MODEL 2
REMARK VINA RESULT: -6.780630889      4.145      7.090
REMARK  5 active torsions:
REMARK  status: ('A' for Active; 'I' for Inactive)
REMARK    1  A    between atoms: C2_2  and  C4_4
REMARK    2  A    between atoms: C8_8  and  N1_9
REMARK    3  A    between atoms: N1_9  and  C9_11
REMARK    4  A    between atoms: C9_11  and  N2_13
REMARK    5  A    between atoms: C14_19  and  N3_20
ROOT
HETATM    1  C4  UNL     1      -5.503   2.898  14.980  1.00  0.00    -0.006 C
HETATM    2  C5  UNL     1      -4.337   3.763  15.372  1.00  0.00     0.010 C
HETATM    3  C6  UNL     1      -3.448   2.877  14.526  1.00  0.00    -0.008 C
HETATM    4  C7  UNL     1      -3.156   3.566  13.211  1.00  0.00     0.032 C
HETATM    5  C8  UNL     1      -2.864   2.614  12.084  1.00  0.00     0.117 C
HETATM    6  C14 UNL     1      -3.365   1.232  12.391  1.00  0.00     0.244 C
HETATM    7  C17 UNL     1      -4.745   1.416  13.032  1.00  0.00     0.043 C
HETATM    8  C18 UNL     1      -4.546   1.870  14.466  1.00  0.00    -0.004 C
ENDROOT
BRANCH   5   9
HETATM    9  N1  UNL     1      -1.480   2.685  11.743  1.00  0.00    -0.360 N
ATOM     10  H1  UNL     1      -0.794   2.153  12.280  1.00  0.00     0.162 HD
BRANCH   9  11
HETATM   11  C9  UNL     1      -1.056   3.496  10.658  1.00  0.00     0.170 C
HETATM   12  S1  UNL     1      -2.163   4.052   9.599  1.00  0.00    -0.041 SA
BRANCH  11  13
HETATM   13  N2  UNL     1       0.332   3.817  10.480  1.00  0.00    -0.354 N
HETATM   14  C10 UNL     1       1.106   4.130  11.656  1.00  0.00     0.151 C
HETATM   15  C11 UNL     1       2.260   5.010  11.159  1.00  0.00     0.187 C
HETATM   16  O1  UNL     1       3.022   4.225  10.337  1.00  0.00    -0.388 OA
HETATM   17  C12 UNL     1       2.428   3.782   9.197  1.00  0.00     0.187 C
HETATM   18  C13 UNL     1       0.929   3.825   9.187  1.00  0.00     0.151 C
ENDBRANCH  11  13
ENDBRANCH   9  11
ENDBRANCH   5   9
BRANCH   6  19
HETATM   19  N3  UNL     1      -3.458   0.458  11.177  1.00  0.00     0.086 N
HETATM   20  C15 UNL     1      -4.735   0.504  10.541  1.00  0.00     0.310 C
HETATM   21  C16 UNL     1      -2.894  -0.857  11.301  1.00  0.00     0.310 C
ENDBRANCH   6  19
BRANCH   1  22
HETATM   22  C2  UNL     1      -6.360   2.466  16.146  1.00  0.00    -0.018 C
HETATM   23  C1  UNL     1      -6.975   3.610  16.891  1.00  0.00     0.010 C
HETATM   24  C3  UNL     1      -5.622   1.526  17.070  1.00  0.00     0.010 C
ENDBRANCH   1  22
TORSDOF 5
ENDMDL