MODEL 2
REMARK VINA RESULT: -8.428335954      2.474      6.856
REMARK  3 active torsions:
REMARK  status: ('A' for Active; 'I' for Inactive)
REMARK       I    between atoms: C3_3  and  N1_5
REMARK    1  A    between atoms: C8_12  and  C9_13
REMARK    2  A    between atoms: C9_13  and  C10_14
REMARK       I    between atoms: C10_14  and  N3_16
REMARK    3  A    between atoms: N3_16  and  C11_18
ROOT
HETATM    1  C1  UNL     1      -7.051   3.474  16.962  1.00  0.00     0.022 C
HETATM    2  C2  UNL     1      -6.606   3.672  15.861  1.00  0.00    -0.016 C
HETATM    3  C3  UNL     1      -6.044   3.896  14.520  1.00  0.00     0.302 C
HETATM    4  O1  UNL     1      -6.664   4.682  13.831  1.00  0.00    -0.258 OA
HETATM    5  N1  UNL     1      -4.900   3.205  14.205  1.00  0.00    -0.300 N
HETATM    6  C4  UNL     1      -3.961   3.343  13.120  1.00  0.00     0.068 A
HETATM    7  C5  UNL     1      -3.517   2.072  12.824  1.00  0.00     0.039 A
HETATM    8  N2  UNL     1      -2.634   1.880  11.862  1.00  0.00    -0.360 N
ATOM      9  H2  UNL     1      -2.315   0.933  11.656  1.00  0.00     0.165 HD
HETATM   10  C6  UNL     1      -2.135   2.934  11.132  1.00  0.00     0.016 A
HETATM   11  C7  UNL     1      -2.560   4.202  11.404  1.00  0.00    -0.026 A
HETATM   12  C8  UNL     1      -3.504   4.456  12.428  1.00  0.00    -0.012 A
HETATM   13  C13 UNL     1      -2.238   5.494  10.781  1.00  0.00     0.041 C
HETATM   14  C14 UNL     1      -1.388   5.529   9.569  1.00  0.00     0.005 C
HETATM   15  C15 UNL     1      -0.322   4.507   9.433  1.00  0.00     0.001 C
HETATM   16  C16 UNL     1      -0.989   3.208   8.957  1.00  0.00     0.006 C
HETATM   17  C17 UNL     1      -1.146   2.379  10.155  1.00  0.00     0.057 C
HETATM   18  C18 UNL     1      -4.178   1.101  13.748  1.00  0.00     0.084 C
HETATM   19  C19 UNL     1      -4.425   2.011  14.947  1.00  0.00     0.095 C
HETATM   20  C20 UNL     1      -3.219   2.260  15.773  1.00  0.00     0.033 C
ENDROOT
BRANCH  12  21
HETATM   21  C9  UNL     1      -3.986   5.792  12.789  1.00  0.00     0.144 C
BRANCH  21  22
HETATM   22  C10 UNL     1      -3.234   6.406  13.948  1.00  0.00     0.221 C
HETATM   23  O2  UNL     1      -3.603   6.231  15.121  1.00  0.00    -0.273 OA
HETATM   24  N3  UNL     1      -2.092   7.193  13.690  1.00  0.00    -0.361 N
ATOM     25  H3  UNL     1      -1.778   7.346  12.732  1.00  0.00     0.162 HD
BRANCH  24  26
HETATM   26  C11 UNL     1      -1.374   7.779  14.791  1.00  0.00     0.118 C
HETATM   27  C12 UNL     1      -1.649   9.257  14.936  1.00  0.00     0.026 C
ENDBRANCH  24  26
ENDBRANCH  21  22
ENDBRANCH  12  21
TORSDOF 3
ENDMDL