MODEL 4
REMARK VINA RESULT: -7.254779429      1.597      2.160
REMARK  4 active torsions:
REMARK  status: ('A' for Active; 'I' for Inactive)
REMARK    1  A    between atoms: C2_2  and  C4_4
REMARK    2  A    between atoms: C6_6  and  C7_7
REMARK       I    between atoms: C7_7  and  N1_9
REMARK    3  A    between atoms: N1_9  and  C8_11
REMARK       I    between atoms: N2_19  and  C16_20
REMARK    4  A    between atoms: C16_20  and  C17_22
ROOT
HETATM    1  C4  UNL     1      -1.866   6.043  10.461  1.00  0.00     0.126 C
HETATM    2  C5  UNL     1      -2.024   4.599  10.447  1.00  0.00     0.048 C
HETATM    3  C6  UNL     1      -2.680   3.891  11.611  1.00  0.00     0.105 C
HETATM    4  C12 UNL     1      -3.499   4.849  12.384  1.00  0.00     0.129 C
HETATM    5  C13 UNL     1      -2.552   6.051  12.558  1.00  0.00     0.147 C
HETATM    6  C14 UNL     1      -3.017   6.671  13.814  1.00  0.00     0.054 C
HETATM    7  C15 UNL     1      -3.058   5.364  14.661  1.00  0.00     0.129 C
HETATM    8  N2  UNL     1      -3.841   4.518  13.737  1.00  0.00    -0.342 N
HETATM    9  C16 UNL     1      -4.763   3.568  14.238  1.00  0.00     0.251 C
HETATM   10  O2  UNL     1      -5.396   2.883  13.395  1.00  0.00    -0.271 OA
HETATM   11  O3  UNL     1      -2.643   6.756  11.401  1.00  0.00    -0.378 OA
ENDROOT
BRANCH   9  12
HETATM   12  C17 UNL     1      -5.077   3.272  15.641  1.00  0.00     0.277 C
HETATM   13  C18 UNL     1      -6.523   3.030  15.900  1.00  0.00     0.044 C
HETATM   14  C19 UNL     1      -6.603   1.670  16.524  1.00  0.00     0.030 C
HETATM   15  C20 UNL     1      -5.277   1.033  16.155  1.00  0.00     0.233 C
HETATM   16  N3  UNL     1      -4.332   2.136  16.147  1.00  0.00    -0.062 N
ATOM     17  H32 UNL     1      -3.477   1.940  15.627  1.00  0.00     0.278 HD
ATOM     18  H31 UNL     1      -3.888   2.303  17.049  1.00  0.00     0.278 HD
ENDBRANCH   9  12
BRANCH   3  19
HETATM   19  C7  UNL     1      -3.362   2.717  11.032  1.00  0.00     0.224 C
HETATM   20  O1  UNL     1      -4.090   2.813  10.016  1.00  0.00    -0.273 OA
HETATM   21  N1  UNL     1      -3.215   1.437  11.615  1.00  0.00    -0.353 N
ATOM     22  H1  UNL     1      -2.618   1.354  12.438  1.00  0.00     0.163 HD
BRANCH  21  23
HETATM   23  C8  UNL     1      -3.850   0.244  11.126  1.00  0.00     0.022 C
HETATM   24  C9  UNL     1      -2.930  -0.455  10.144  1.00  0.00     0.037 C
HETATM   25  C10 UNL     1      -4.088  -0.765  12.249  1.00  0.00     0.037 C
HETATM   26  C11 UNL     1      -5.203   0.489  10.502  1.00  0.00     0.037 C
ENDBRANCH  21  23
ENDBRANCH   3  19
BRANCH   1  27
HETATM   27  C2  UNL     1      -0.459   6.562  10.582  1.00  0.00     0.006 C
HETATM   28  C1  UNL     1       0.576   5.475  10.688  1.00  0.00     0.012 C
HETATM   29  C3  UNL     1      -0.093   7.411   9.380  1.00  0.00     0.012 C
ENDBRANCH   1  27
TORSDOF 4
ENDMDL