MODEL 4
REMARK VINA RESULT: -7.388715688      2.078      2.919
REMARK  7 active torsions:
REMARK  status: ('A' for Active; 'I' for Inactive)
REMARK    1  A    between atoms: C12_13  and  N1_14
REMARK    2  A    between atoms: N1_14  and  C13_15
REMARK    3  A    between atoms: N1_14  and  C19_28
REMARK    4  A    between atoms: C13_15  and  O2_16
REMARK    5  A    between atoms: C13_15  and  C14_18
REMARK    6  A    between atoms: C14_18  and  C15_19
REMARK    7  A    between atoms: C15_19  and  O3_20
ROOT
HETATM    1  N1  UNL     1      -4.319   4.073  12.907  1.00  0.00    -0.354 N
ENDROOT
BRANCH   1   2
HETATM    2  C12 UNL     1      -3.643   5.068  11.973  1.00  0.00     0.099 C
HETATM    3  C5  UNL     1      -2.808   6.067  12.655  1.00  0.00     0.007 C
HETATM    4  C4  UNL     1      -2.470   5.847  14.088  1.00  0.00     0.014 C
HETATM    5  C6  UNL     1      -1.431   6.204  11.960  1.00  0.00     0.014 C
HETATM    6  C9  UNL     1      -3.294   7.497  12.530  1.00  0.00     0.136 C
HETATM    7  C3  UNL     1      -1.328   6.803  14.475  1.00  0.00     0.005 C
HETATM    8  C2  UNL     1      -1.734   8.239  14.251  1.00  0.00    -0.012 C
HETATM    9  C1  UNL     1      -0.510   9.092  14.501  1.00  0.00     0.010 C
HETATM   10  C8  UNL     1      -2.086   8.366  12.792  1.00  0.00     0.019 C
HETATM   11  C7  UNL     1      -1.023   7.618  12.024  1.00  0.00     0.008 C
HETATM   12  O1  UNL     1      -3.697   7.697  11.214  1.00  0.00    -0.385 OA
HETATM   13  C10 UNL     1      -4.915   7.057  11.093  1.00  0.00     0.170 C
HETATM   14  C11 UNL     1      -4.738   5.565  11.094  1.00  0.00     0.052 C
ENDBRANCH   1   2
BRANCH   1  15
HETATM   15  C13 UNL     1      -3.767   2.808  12.875  1.00  0.00     0.127 C
BRANCH  15  16
HETATM   16  O2  UNL     1      -3.177   2.539  14.081  1.00  0.00    -0.349 OA
ATOM     17  H2  UNL     1      -3.116   1.598  14.199  1.00  0.00     0.219 HD
ENDBRANCH  15  16
BRANCH  15  18
HETATM   18  C14 UNL     1      -3.595   1.660  12.027  1.00  0.00     0.071 C
HETATM   19  C16 UNL     1      -4.033   0.380  12.588  1.00  0.00     0.049 C
HETATM   20  C17 UNL     1      -4.478  -0.442  11.392  1.00  0.00     0.233 C
HETATM   21  N2  UNL     1      -5.073   0.513  10.527  1.00  0.00    -0.074 N
HETATM   22  C18 UNL     1      -4.633   1.816  10.838  1.00  0.00     0.252 C
ATOM     23  H22 UNL     1      -4.912   0.285   9.546  1.00  0.00     0.277 HD
ATOM     24  H21 UNL     1      -6.091   0.446  10.535  1.00  0.00     0.277 HD
BRANCH  18  25
HETATM   25  C15 UNL     1      -2.286   1.579  11.267  1.00  0.00     0.183 C
BRANCH  25  26
HETATM   26  O3  UNL     1      -1.215   2.203  11.780  1.00  0.00    -0.400 OA
ATOM     27  H3  UNL     1      -0.396   2.158  11.300  1.00  0.00     0.209 HD
ENDBRANCH  25  26
ENDBRANCH  18  25
ENDBRANCH  15  18
ENDBRANCH   1  15
BRANCH   1  28
HETATM   28  C19 UNL     1      -5.434   4.512  13.609  1.00  0.00     0.086 A
HETATM   29  C20 UNL     1      -6.312   3.908  14.592  1.00  0.00     0.027 A
HETATM   30  C21 UNL     1      -5.587   5.177  14.948  1.00  0.00     0.027 A
ENDBRANCH   1  28
TORSDOF 7
ENDMDL