MODEL 4
REMARK VINA RESULT: -6.786702914      2.420      4.704
REMARK  5 active torsions:
REMARK  status: ('A' for Active; 'I' for Inactive)
REMARK    1  A    between atoms: N1_2  and  C2_4
REMARK    2  A    between atoms: C2_4  and  N2_6
REMARK    3  A    between atoms: N2_6  and  C3_8
REMARK    4  A    between atoms: C3_8  and  C4_9
REMARK    5  A    between atoms: N3_20  and  C13_21
ROOT
HETATM    1  C4  UNL     1      -4.829   2.561  12.147  1.00  0.00     0.098 C
HETATM    2  C5  UNL     1      -3.716   3.376  11.645  1.00  0.00     0.042 C
HETATM    3  C6  UNL     1      -3.567   3.696  10.200  1.00  0.00     0.168 C
HETATM    4  O1  UNL     1      -2.452   4.586  10.194  1.00  0.00    -0.389 OA
HETATM    5  C7  UNL     1      -2.763   5.861  10.564  1.00  0.00     0.193 C
HETATM    6  C8  UNL     1      -1.884   6.522  11.563  1.00  0.00     0.193 C
HETATM    7  O2  UNL     1      -1.539   5.837  12.680  1.00  0.00    -0.389 OA
HETATM    8  C9  UNL     1      -1.897   6.358  13.894  1.00  0.00     0.167 C
HETATM    9  C10 UNL     1      -3.341   6.443  14.207  1.00  0.00     0.028 C
HETATM   10  C11 UNL     1      -3.891   5.326  15.065  1.00  0.00     0.022 C
HETATM   11  C12 UNL     1      -3.339   3.977  14.825  1.00  0.00     0.126 C
HETATM   12  N3  UNL     1      -4.254   2.865  14.703  1.00  0.00    -0.347 N
HETATM   13  C17 UNL     1      -4.558   2.133  13.535  1.00  0.00     0.226 C
HETATM   14  O3  UNL     1      -4.609   0.853  13.705  1.00  0.00    -0.273 OA
ENDROOT
BRANCH   1  15
HETATM   15  C3  UNL     1      -5.195   1.474  11.219  1.00  0.00     0.136 C
BRANCH  15  16
HETATM   16  N2  UNL     1      -4.189   0.859  10.441  1.00  0.00    -0.366 N
ATOM     17  H2  UNL     1      -4.150   1.047   9.439  1.00  0.00     0.161 HD
BRANCH  16  18
HETATM   18  C2  UNL     1      -3.242  -0.004  11.015  1.00  0.00     0.167 C
HETATM   19  S1  UNL     1      -1.673   0.420  11.049  1.00  0.00    -0.041 SA
BRANCH  18  20
HETATM   20  N1  UNL     1      -3.595  -1.270  11.587  1.00  0.00    -0.372 N
HETATM   21  C1  UNL     1      -2.857  -2.469  11.353  1.00  0.00     0.148 C
ATOM     22  H1  UNL     1      -4.416  -1.317  12.191  1.00  0.00     0.161 HD
ENDBRANCH  18  20
ENDBRANCH  16  18
ENDBRANCH  15  16
ENDBRANCH   1  15
BRANCH  12  23
HETATM   23  C13 UNL     1      -4.906   2.436  15.934  1.00  0.00     0.087 C
HETATM   24  C14 UNL     1      -5.148   1.053  16.276  1.00  0.00     0.025 C
HETATM   25  C15 UNL     1      -6.466   1.499  16.946  1.00  0.00     0.004 C
HETATM   26  C16 UNL     1      -6.396   2.705  16.018  1.00  0.00     0.025 C
ENDBRANCH  12  23
TORSDOF 5
ENDMDL