MODEL 1
REMARK VINA RESULT: -6.770788989      0.000      0.000
REMARK  5 active torsions:
REMARK  status: ('A' for Active; 'I' for Inactive)
REMARK    1  A    between atoms: C6_6  and  C7_7
REMARK    2  A    between atoms: C10_13  and  C11_14
REMARK    3  A    between atoms: C12_15  and  C13_16
REMARK    4  A    between atoms: C17_22  and  C18_23
REMARK       I    between atoms: C18_23  and  N3_25
REMARK    5  A    between atoms: N3_25  and  O3_27
ROOT
HETATM    1  C1  UNL     1      -0.163   5.120  10.852  1.00  0.00     0.017 C
HETATM    2  C2  UNL     1      -1.408   4.674  10.950  1.00  0.00    -0.057 C
HETATM    3  C3  UNL     1      -2.520   5.321  10.149  1.00  0.00     0.048 C
HETATM    4  C4  UNL     1      -3.399   5.925  11.277  1.00  0.00    -0.005 C
HETATM    5  C5  UNL     1      -2.456   6.781  12.069  1.00  0.00     0.018 C
HETATM    6  C6  UNL     1      -4.540   6.595  10.633  1.00  0.00     0.088 C
HETATM    7  C9  UNL     1      -5.770   6.672  11.503  1.00  0.00     0.223 C
HETATM    8  O1  UNL     1      -6.862   7.084  10.997  1.00  0.00    -0.273 OA
HETATM    9  N1  UNL     1      -5.657   6.282  12.851  1.00  0.00    -0.344 N
ATOM     10  H1  UNL     1      -6.406   6.540  13.493  1.00  0.00     0.163 HD
HETATM   11  C10 UNL     1      -4.537   5.536  13.372  1.00  0.00     0.187 C
HETATM   12  C16 UNL     1      -3.863   4.814  12.189  1.00  0.00     0.121 C
HETATM   13  N2  UNL     1      -2.942   3.884  12.633  1.00  0.00    -0.398 N
ATOM     14  H2  UNL     1      -3.077   3.420  13.531  1.00  0.00     0.154 HD
HETATM   15  C17 UNL     1      -1.795   3.572  11.827  1.00  0.00     0.201 C
ENDROOT
BRANCH  15  16
HETATM   16  C18 UNL     1      -2.042   2.344  10.998  1.00  0.00     0.269 C
HETATM   17  O2  UNL     1      -1.644   2.355   9.804  1.00  0.00    -0.269 OA
HETATM   18  N3  UNL     1      -2.689   1.186  11.454  1.00  0.00    -0.229 N
HETATM   19  C19 UNL     1      -2.861   0.066  10.563  1.00  0.00     0.189 C
BRANCH  18  20
HETATM   20  O3  UNL     1      -3.162   1.110  12.698  1.00  0.00    -0.281 OA
HETATM   21  C20 UNL     1      -4.293   0.290  12.739  1.00  0.00     0.238 C
ENDBRANCH  18  20
ENDBRANCH  15  16
BRANCH  11  22
HETATM   22  C11 UNL     1      -4.963   4.410  14.246  1.00  0.00    -0.079 C
HETATM   23  C12 UNL     1      -5.336   3.496  14.936  1.00  0.00    -0.100 C
BRANCH  23  24
HETATM   24  C13 UNL     1      -5.819   2.380  15.768  1.00  0.00     0.057 C
HETATM   25  C14 UNL     1      -6.756   2.951  16.796  1.00  0.00     0.023 C
HETATM   26  C15 UNL     1      -4.701   1.643  16.448  1.00  0.00     0.023 C
ENDBRANCH  23  24
ENDBRANCH  11  22
BRANCH   6  27
HETATM   27  C7  UNL     1      -4.313   7.893   9.938  1.00  0.00     0.010 C
HETATM   28  C8  UNL     1      -4.527   7.952   8.479  1.00  0.00     0.006 C
ENDBRANCH   6  27
TORSDOF 5
ENDMDL