MODEL 4
REMARK VINA RESULT: -7.245498290      4.406      5.417
REMARK  6 active torsions:
REMARK  status: ('A' for Active; 'I' for Inactive)
REMARK    1  A    between atoms: C2_2  and  C3_3
REMARK    2  A    between atoms: C3_3  and  O1_4
REMARK    3  A    between atoms: C3_3  and  N1_6
REMARK    4  A    between atoms: C10_13  and  O2_14
REMARK    5  A    between atoms: C11_16  and  N2_17
REMARK       I    between atoms: N2_17  and  C12_19
REMARK    6  A    between atoms: C12_19  and  C13_21
ROOT
HETATM    1  N1  UNL     1       1.844   5.476   8.322  1.00  0.00    -0.360 N
HETATM    2  C4  UNL     1       1.570   6.732   7.554  1.00  0.00     0.125 C
HETATM    3  C5  UNL     1       0.091   6.817   7.275  1.00  0.00     0.020 C
HETATM    4  C6  UNL     1      -0.515   5.516   6.882  1.00  0.00     0.008 C
HETATM    5  C7  UNL     1      -0.217   4.437   7.815  1.00  0.00     0.009 C
HETATM    6  C8  UNL     1      -1.375   4.055   8.741  1.00  0.00     0.014 C
HETATM    7  C9  UNL     1      -0.606   3.213   9.730  1.00  0.00     0.023 C
HETATM    8  C10 UNL     1      -1.360   2.813  10.924  1.00  0.00     0.145 C
HETATM    9  C11 UNL     1      -1.308   3.688  12.118  1.00  0.00     0.113 C
HETATM   10  C17 UNL     1      -0.454   4.916  11.905  1.00  0.00     0.028 C
HETATM   11  C18 UNL     1       0.868   4.519  11.300  1.00  0.00     0.009 C
HETATM   12  C19 UNL     1       0.725   3.884   9.940  1.00  0.00     0.015 C
HETATM   13  C20 UNL     1       0.704   4.978   8.938  1.00  0.00     0.094 C
ENDROOT
BRANCH   9  14
HETATM   14  N2  UNL     1      -2.641   4.140  12.469  1.00  0.00    -0.352 N
HETATM   15  C12 UNL     1      -3.561   3.322  13.176  1.00  0.00     0.247 C
HETATM   16  O3  UNL     1      -3.210   2.161  13.510  1.00  0.00    -0.271 OA
ATOM     17  H2  UNL     1      -2.928   5.080  12.198  1.00  0.00     0.163 HD
BRANCH  15  18
HETATM   18  C13 UNL     1      -4.902   3.822  13.513  1.00  0.00     0.213 C
HETATM   19  C14 UNL     1      -4.885   5.188  14.133  1.00  0.00     0.043 C
HETATM   20  C15 UNL     1      -6.026   5.155  15.121  1.00  0.00     0.029 C
HETATM   21  C16 UNL     1      -6.377   3.707  15.205  1.00  0.00     0.168 C
HETATM   22  O4  UNL     1      -5.483   3.001  14.443  1.00  0.00    -0.376 OA
ENDBRANCH  15  18
ENDBRANCH   9  14
BRANCH   8  23
HETATM   23  O2  UNL     1      -0.935   1.523  11.329  1.00  0.00    -0.393 OA
ATOM     24  H2  UNL     1      -1.020   0.925  10.596  1.00  0.00     0.210 HD
ENDBRANCH   8  23
BRANCH   1  25
HETATM   25  C3  UNL     1       3.150   5.036   8.289  1.00  0.00     0.113 C
BRANCH  25  26
HETATM   26  C2  UNL     1       3.731   3.801   7.727  1.00  0.00     0.079 C
HETATM   27  C1  UNL     1       3.054   3.443   6.406  1.00  0.00     0.013 C
ENDBRANCH  25  26
BRANCH  25  28
HETATM   28  O1  UNL     1       4.065   5.804   8.834  1.00  0.00    -0.349 OA
ATOM     29  H1  UNL     1       4.867   5.327   9.014  1.00  0.00     0.219 HD
ENDBRANCH  25  28
ENDBRANCH   1  25
TORSDOF 6
ENDMDL