MODEL 5
REMARK VINA RESULT: -7.391038741      2.408      3.346
REMARK  4 active torsions:
REMARK  status: ('A' for Active; 'I' for Inactive)
REMARK       I    between atoms: C1_2  and  N1_3
REMARK    1  A    between atoms: C1_2  and  C9_12
REMARK    2  A    between atoms: N1_3  and  C2_5
REMARK       I    between atoms: C9_12  and  N2_14
REMARK    3  A    between atoms: C13_18  and  C14_19
REMARK       I    between atoms: C14_19  and  N3_21
REMARK    4  A    between atoms: N3_21  and  C15_23
ROOT
HETATM    1  C9  UNL     1      -2.115   3.772  11.603  1.00  0.00     0.312 C
HETATM    2  O2  UNL     1      -1.944   2.620  12.058  1.00  0.00    -0.262 OA
HETATM    3  N2  UNL     1      -2.586   4.795  12.434  1.00  0.00    -0.331 N
HETATM    4  C10 UNL     1      -2.824   6.162  12.026  1.00  0.00     0.127 C
HETATM    5  C11 UNL     1      -3.291   6.922  13.245  1.00  0.00     0.022 C
HETATM    6  C12 UNL     1      -3.085   6.005  14.416  1.00  0.00     0.037 C
HETATM    7  C13 UNL     1      -2.910   4.636  13.845  1.00  0.00     0.179 C
ENDROOT
BRANCH   1   8
HETATM    8  C1  UNL     1      -1.822   4.038  10.211  1.00  0.00     0.309 C
HETATM    9  O1  UNL     1      -2.671   3.865   9.280  1.00  0.00    -0.262 OA
HETATM   10  N1  UNL     1      -0.545   4.520   9.782  1.00  0.00    -0.348 N
ATOM     11  H1  UNL     1       0.172   4.676  10.492  1.00  0.00     0.163 HD
BRANCH  10  12
HETATM   12  C2  UNL     1      -0.207   4.800   8.404  1.00  0.00     0.084 C
HETATM   13  C3  UNL     1       0.549   6.101   8.260  1.00  0.00     0.025 C
HETATM   14  C4  UNL     1       1.770   6.193   9.100  1.00  0.00     0.002 C
HETATM   15  C5  UNL     1       2.958   5.776   8.266  1.00  0.00     0.000 C
HETATM   16  C6  UNL     1       2.839   4.262   8.082  1.00  0.00     0.000 C
HETATM   17  C7  UNL     1       1.770   3.879   7.132  1.00  0.00     0.002 C
HETATM   18  C8  UNL     1       0.418   3.664   7.697  1.00  0.00     0.025 C
ENDBRANCH  10  12
ENDBRANCH   1   8
BRANCH   7  19
HETATM   19  C14 UNL     1      -4.069   3.747  14.048  1.00  0.00     0.241 C
HETATM   20  O3  UNL     1      -5.031   3.726  13.237  1.00  0.00    -0.271 OA
HETATM   21  N3  UNL     1      -4.149   2.878  15.170  1.00  0.00    -0.355 N
ATOM     22  H3  UNL     1      -3.381   2.878  15.841  1.00  0.00     0.162 HD
BRANCH  21  23
HETATM   23  C15 UNL     1      -5.266   1.994  15.402  1.00  0.00     0.088 C
HETATM   24  C16 UNL     1      -6.206   2.669  16.409  1.00  0.00     0.051 C
HETATM   25  C17 UNL     1      -7.429   1.804  16.518  1.00  0.00     0.169 C
HETATM   26  O4  UNL     1      -7.061   0.557  16.970  1.00  0.00    -0.391 OA
HETATM   27  C18 UNL     1      -5.729   0.402  17.261  1.00  0.00     0.169 C
HETATM   28  C19 UNL     1      -4.829   0.693  16.063  1.00  0.00     0.051 C
ENDBRANCH  21  23
ENDBRANCH   7  19
TORSDOF 4
ENDMDL