MODEL 5
REMARK VINA RESULT: -7.229235979      1.876      2.200
REMARK  4 active torsions:
REMARK  status: ('A' for Active; 'I' for Inactive)
REMARK       I    between atoms: C2_5  and  N3_6
REMARK       I    between atoms: C2_5  and  N5_20
REMARK    1  A    between atoms: N3_6  and  C3_8
REMARK    2  A    between atoms: C5_12  and  C6_13
REMARK    3  A    between atoms: C6_13  and  C7_14
REMARK    4  A    between atoms: N5_20  and  C12_22
ROOT
HETATM    1  N1  UNL     1      -5.886   5.836  10.050  1.00  0.00    -0.171 NA
HETATM    2  C1  UNL     1      -5.017   6.319  10.636  1.00  0.00     0.196 C
HETATM    3  N2  UNL     1      -3.972   6.906  11.354  1.00  0.00    -0.126 N
ATOM      4  H2  UNL     1      -4.083   7.862  11.691  1.00  0.00     0.197 HD
HETATM    5  C2  UNL     1      -2.866   6.276  11.610  1.00  0.00     0.689 C
HETATM    6  N3  UNL     1      -2.754   4.948  11.124  1.00  0.00    -0.170 N
ATOM      7  H3  UNL     1      -2.236   4.760  10.265  1.00  0.00     0.186 HD
HETATM    8  N5  UNL     1      -1.817   6.893  12.344  1.00  0.00    -0.219 N
ATOM      9  H5  UNL     1      -0.901   6.445  12.376  1.00  0.00     0.178 HD
ENDROOT
BRANCH   6  10
HETATM   10  C3  UNL     1      -3.318   3.958  11.783  1.00  0.00     0.164 A
HETATM   11  N4  UNL     1      -4.206   3.074  11.323  1.00  0.00    -0.345 N
HETATM   12  C4  UNL     1      -4.650   2.162  12.134  1.00  0.00     0.104 A
ATOM     13  H4  UNL     1      -4.528   3.114  10.356  1.00  0.00     0.167 HD
HETATM   14  C5  UNL     1      -4.182   2.158  13.420  1.00  0.00     0.002 A
HETATM   15  S1  UNL     1      -3.107   3.484  13.407  1.00  0.00    -0.057 SA
BRANCH  14  16
HETATM   16  C6  UNL     1      -4.524   1.227  14.552  1.00  0.00     0.052 C
BRANCH  16  17
HETATM   17  C7  UNL     1      -4.819   1.993  15.801  1.00  0.00    -0.010 C
HETATM   18  C8  UNL     1      -5.186   1.089  16.952  1.00  0.00     0.005 C
HETATM   19  C9  UNL     1      -6.052   2.024  17.796  1.00  0.00     0.000 C
HETATM   20  C10 UNL     1      -6.954   2.641  16.751  1.00  0.00     0.000 C
HETATM   21  C11 UNL     1      -6.042   2.843  15.563  1.00  0.00     0.005 C
ENDBRANCH  16  17
ENDBRANCH  14  16
ENDBRANCH   6  10
BRANCH   8  22
HETATM   22  C12 UNL     1      -2.016   8.127  13.037  1.00  0.00     0.131 C
HETATM   23  C13 UNL     1      -1.768   9.313  12.098  1.00  0.00     0.298 C
HETATM   24  N6  UNL     1      -1.097  10.377  12.825  1.00  0.00     0.090 N
HETATM   25  C14 UNL     1      -1.704  10.591  14.124  1.00  0.00     0.273 C
HETATM   26  C18 UNL     1       0.312   9.983  12.952  1.00  0.00     0.273 C
HETATM   27  C15 UNL     1      -1.304   9.437  15.025  1.00  0.00     0.037 C
HETATM   28  C16 UNL     1      -0.991   8.250  14.143  1.00  0.00     0.014 C
HETATM   29  C17 UNL     1       0.356   8.550  13.485  1.00  0.00     0.037 C
ENDBRANCH   8  22
TORSDOF 4
ENDMDL