MODEL 3
REMARK VINA RESULT: -8.417876291      2.906      3.682
REMARK  3 active torsions:
REMARK  status: ('A' for Active; 'I' for Inactive)
REMARK    1  A    between atoms: N2_9  and  C7_10
REMARK    2  A    between atoms: C7_10  and  C8_11
REMARK       I    between atoms: C8_11  and  N3_13
REMARK       I    between atoms: N3_13  and  C9_15
REMARK       I    between atoms: C9_15  and  N4_17
REMARK    3  A    between atoms: N4_17  and  C10_19
ROOT
HETATM    1  N1  UNL     1      -6.846   5.175  13.923  1.00  0.00    -0.195 NA
HETATM    2  C1  UNL     1      -6.302   4.423  14.614  1.00  0.00     0.084 C
HETATM    3  C2  UNL     1      -5.621   3.464  15.515  1.00  0.00     0.192 C
HETATM    4  C3  UNL     1      -6.638   2.546  16.086  1.00  0.00     0.048 C
HETATM    5  C4  UNL     1      -6.057   1.276  16.641  1.00  0.00     0.087 C
HETATM    6  C5  UNL     1      -4.939   0.762  15.843  1.00  0.00     0.164 C
HETATM    7  O1  UNL     1      -4.808  -0.443  15.715  1.00  0.00    -0.292 OA
HETATM    8  C6  UNL     1      -3.988   1.673  15.206  1.00  0.00     0.137 C
HETATM    9  N2  UNL     1      -4.484   2.949  14.900  1.00  0.00    -0.361 N
ENDROOT
BRANCH   9  10
HETATM   10  C7  UNL     1      -4.356   3.252  13.437  1.00  0.00     0.227 C
BRANCH  10  11
HETATM   11  C8  UNL     1      -3.166   2.886  12.906  1.00  0.00     0.243 C
HETATM   12  O2  UNL     1      -2.793   1.769  12.549  1.00  0.00    -0.271 OA
HETATM   13  N3  UNL     1      -1.857   3.939  12.613  1.00  0.00    -0.278 N
HETATM   14  C9  UNL     1      -2.461   5.151  13.046  1.00  0.00     0.323 C
ATOM     15  H3  UNL     1      -0.926   3.756  12.240  1.00  0.00     0.173 HD
HETATM   16  O3  UNL     1      -3.544   5.447  13.423  1.00  0.00    -0.247 OA
HETATM   17  N4  UNL     1      -1.486   6.276  13.010  1.00  0.00    -0.338 N
ATOM     18  H4  UNL     1      -0.531   6.105  12.693  1.00  0.00     0.164 HD
BRANCH  17  19
HETATM   19  C10 UNL     1      -1.874   7.592  13.412  1.00  0.00     0.091 C
HETATM   20  C11 UNL     1      -2.238   8.506  12.284  1.00  0.00     0.030 C
HETATM   21  C12 UNL     1      -1.238   9.624  12.076  1.00  0.00    -0.012 C
HETATM   22  C13 UNL     1      -1.506  10.771  12.995  1.00  0.00     0.009 C
HETATM   23  C17 UNL     1       0.133   9.059  12.197  1.00  0.00     0.010 C
HETATM   24  C14 UNL     1      -0.943  10.577  14.379  1.00  0.00    -0.013 C
HETATM   25  C15 UNL     1       0.509  10.140  14.333  1.00  0.00     0.010 C
HETATM   26  C19 UNL     1      -1.575   9.372  15.052  1.00  0.00     0.011 C
HETATM   27  C16 UNL     1       0.346   8.755  13.682  1.00  0.00    -0.008 C
HETATM   28  C18 UNL     1      -0.867   8.226  14.357  1.00  0.00     0.013 C
ENDBRANCH  17  19
ENDBRANCH  10  11
ENDBRANCH   9  10
TORSDOF 3
ENDMDL