MODEL 5
REMARK VINA RESULT: -6.446861979      1.728      3.046
REMARK  5 active torsions:
REMARK  status: ('A' for Active; 'I' for Inactive)
REMARK    1  A    between atoms: C3_3  and  C4_4
REMARK    2  A    between atoms: C4_4  and  N1_5
REMARK    3  A    between atoms: N2_8  and  C6_9
REMARK    4  A    between atoms: C6_9  and  C7_11
REMARK    5  A    between atoms: C10_14  and  N3_15
ROOT
HETATM    1  C1  UNL     1      -6.886   1.465  17.210  1.00  0.00     0.112 C
HETATM    2  C2  UNL     1      -5.846   1.370  16.183  1.00  0.00    -0.105 C
HETATM    3  C3  UNL     1      -5.005   1.287  15.318  1.00  0.00    -0.062 C
ENDROOT
BRANCH   3   4
HETATM    4  C4  UNL     1      -4.045   1.199  14.243  1.00  0.00     0.158 C
BRANCH   4   5
HETATM    5  N1  UNL     1      -3.852   2.353  13.478  1.00  0.00    -0.320 N
HETATM    6  C5  UNL     1      -3.385   2.244  12.084  1.00  0.00     0.182 C
HETATM    7  S1  UNL     1      -3.666   0.965  11.121  1.00  0.00    -0.040 SA
HETATM    8  N2  UNL     1      -2.670   3.437  11.762  1.00  0.00    -0.309 N
HETATM    9  C13 UNL     1      -2.651   4.198  13.021  1.00  0.00     0.116 C
HETATM   10  C14 UNL     1      -2.599   5.655  12.881  1.00  0.00     0.028 C
HETATM   11  C18 UNL     1      -3.983   3.753  13.616  1.00  0.00     0.115 C
HETATM   12  C15 UNL     1      -2.961   6.345  14.189  1.00  0.00     0.002 C
HETATM   13  C16 UNL     1      -4.217   5.857  14.802  1.00  0.00     0.002 C
HETATM   14  C17 UNL     1      -4.171   4.317  14.963  1.00  0.00     0.028 C
BRANCH   8  15
HETATM   15  C6  UNL     1      -2.089   3.823  10.547  1.00  0.00     0.113 C
HETATM   16  S2  UNL     1      -2.953   4.662   9.411  1.00  0.00    -0.063 SA
BRANCH  15  17
HETATM   17  C7  UNL     1      -0.675   3.566  10.129  1.00  0.00     0.247 C
HETATM   18  C8  UNL     1       0.272   3.766  11.285  1.00  0.00     0.042 C
HETATM   19  C9  UNL     1       1.523   4.523  10.782  1.00  0.00     0.037 C
HETATM   20  C10 UNL     1       1.915   3.795   9.511  1.00  0.00     0.211 C
HETATM   21  C12 UNL     1       0.932   4.244   8.452  1.00  0.00     0.266 C
HETATM   22  N4  UNL     1      -0.313   4.570   9.113  1.00  0.00    -0.063 N
ATOM     23  H42 UNL     1      -1.067   4.704   8.438  1.00  0.00     0.278 HD
ATOM     24  H41 UNL     1      -0.286   5.509   9.512  1.00  0.00     0.278 HD
BRANCH  20  25
HETATM   25  N3  UNL     1       3.286   3.973   9.140  1.00  0.00    -0.073 N
HETATM   26  C11 UNL     1       3.446   5.297   8.567  1.00  0.00     0.267 C
ATOM     27  H32 UNL     1       3.925   3.804   9.916  1.00  0.00     0.277 HD
ATOM     28  H31 UNL     1       3.621   3.236   8.519  1.00  0.00     0.277 HD
ENDBRANCH  20  25
ENDBRANCH  15  17
ENDBRANCH   8  15
ENDBRANCH   4   5
ENDBRANCH   3   4
TORSDOF 5
ENDMDL