MODEL 4
REMARK VINA RESULT: -6.936791332      1.424      1.967
REMARK  7 active torsions:
REMARK  status: ('A' for Active; 'I' for Inactive)
REMARK    1  A    between atoms: C2_2  and  C3_3
REMARK    2  A    between atoms: C2_2  and  N4_23
REMARK    3  A    between atoms: C4_4  and  C5_5
REMARK    4  A    between atoms: C5_5  and  N1_6
REMARK    5  A    between atoms: C5_5  and  S1_19
REMARK    6  A    between atoms: N1_6  and  C6_8
REMARK    7  A    between atoms: S1_19  and  N3_20
ROOT
HETATM    1  C5  UNL     1      -3.453   2.963  11.520  1.00  0.00     0.136 C
ENDROOT
BRANCH   1   2
HETATM    2  C4  UNL     1      -4.363   3.139  12.615  1.00  0.00    -0.038 C
HETATM    3  C3  UNL     1      -5.134   3.309  13.540  1.00  0.00    -0.063 C
BRANCH   3   4
HETATM    4  C2  UNL     1      -6.069   3.534  14.643  1.00  0.00     0.297 C
HETATM    5  C1  UNL     1      -6.169   5.020  14.974  1.00  0.00     0.056 C
BRANCH   4   6
HETATM    6  N4  UNL     1      -5.645   2.864  15.856  1.00  0.00     0.104 N
HETATM    7  C17 UNL     1      -6.733   2.906  16.801  1.00  0.00     0.274 C
HETATM    8  C18 UNL     1      -6.641   1.635  17.616  1.00  0.00     0.032 C
HETATM    9  C19 UNL     1      -5.641   0.754  16.936  1.00  0.00     0.032 C
HETATM   10  C20 UNL     1      -5.306   1.486  15.662  1.00  0.00     0.274 C
ENDBRANCH   4   6
ENDBRANCH   3   4
ENDBRANCH   1   2
BRANCH   1  11
HETATM   11  N1  UNL     1      -3.248   4.025  10.592  1.00  0.00    -0.372 N
ATOM     12  H1  UNL     1      -3.840   4.072   9.763  1.00  0.00     0.161 HD
BRANCH  11  13
HETATM   13  C6  UNL     1      -2.231   5.038  10.779  1.00  0.00     0.087 C
HETATM   14  C7  UNL     1      -0.880   4.333  10.740  1.00  0.00     0.054 C
HETATM   15  C8  UNL     1       0.211   5.195  11.278  1.00  0.00     0.021 C
HETATM   16  C9  UNL     1       0.531   6.328  10.297  1.00  0.00     0.037 C
HETATM   17  C10 UNL     1       1.478   4.337  11.321  1.00  0.00     0.037 C
HETATM   18  N2  UNL     1      -0.031   5.667  12.590  1.00  0.00    -0.405 N
HETATM   19  C11 UNL     1      -1.357   5.799  13.044  1.00  0.00     0.021 C
ATOM     20  H2  UNL     1       0.749   5.910  13.202  1.00  0.00     0.154 HD
HETATM   21  C12 UNL     1      -1.561   7.069  13.892  1.00  0.00     0.037 C
HETATM   22  C13 UNL     1      -1.588   4.663  14.062  1.00  0.00     0.037 C
HETATM   23  C14 UNL     1      -2.467   5.722  12.076  1.00  0.00     0.054 C
ENDBRANCH  11  13
ENDBRANCH   1  11
BRANCH   1  24
HETATM   24  S1  UNL     1      -2.673   1.538  11.380  1.00  0.00    -0.015 SA
BRANCH  24  25
HETATM   25  N3  UNL     1      -3.405   0.172  10.471  1.00  0.00    -0.261 NA
HETATM   26  C15 UNL     1      -4.846   0.268  10.448  1.00  0.00     0.124 C
HETATM   27  C16 UNL     1      -3.012  -1.042  11.163  1.00  0.00     0.124 C
ENDBRANCH  24  25
ENDBRANCH   1  24
TORSDOF 7
ENDMDL