MODEL 2
REMARK VINA RESULT: -6.117538359      5.130      6.997
REMARK  7 active torsions:
REMARK  status: ('A' for Active; 'I' for Inactive)
REMARK    1  A    between atoms: N1_2  and  C2_3
REMARK    2  A    between atoms: C2_3  and  C3_4
REMARK    3  A    between atoms: C3_4  and  N2_5
REMARK    4  A    between atoms: C10_17  and  N3_18
REMARK       I    between atoms: N3_18  and  C11_20
REMARK    5  A    between atoms: C11_20  and  C12_22
REMARK    6  A    between atoms: C13_23  and  C14_24
REMARK    7  A    between atoms: C15_25  and  C16_26
ROOT
HETATM    1  C1  UNL     1      -2.523   3.798  12.608  1.00  0.00     0.273 C
HETATM    2  N1  UNL     1      -3.597   4.300  13.398  1.00  0.00    -0.058 N
HETATM    3  C8  UNL     1      -4.394   5.186  12.552  1.00  0.00     0.240 C
HETATM    4  C9  UNL     1      -3.980   6.591  12.845  1.00  0.00     0.055 C
HETATM    5  C10 UNL     1      -2.691   6.414  13.598  1.00  0.00     0.112 C
HETATM    6  C17 UNL     1      -2.947   5.176  14.388  1.00  0.00     0.263 C
ENDROOT
BRANCH   2   7
HETATM    7  C2  UNL     1      -4.416   3.330  14.075  1.00  0.00     0.154 C
HETATM    8  C4  UNL     1      -5.376   4.008  15.001  1.00  0.00     0.054 C
HETATM    9  C5  UNL     1      -6.446   3.078  15.524  1.00  0.00     0.111 C
HETATM   10  S1  UNL     1      -5.597   1.859  16.495  1.00  0.00     0.015 S
HETATM   11  O1  UNL     1      -6.039   0.310  16.155  1.00  0.00    -0.258 OA
HETATM   12  C6  UNL     1      -3.878   2.190  16.270  1.00  0.00     0.111 C
HETATM   13  C7  UNL     1      -3.474   2.434  14.867  1.00  0.00     0.054 C
BRANCH   7  14
HETATM   14  C3  UNL     1      -5.089   2.449  13.062  1.00  0.00     0.268 C
BRANCH  14  15
HETATM   15  N2  UNL     1      -4.604   1.120  12.961  1.00  0.00    -0.077 N
ATOM     16  H23 UNL     1      -3.584   1.128  12.935  1.00  0.00     0.274 HD
ATOM     17  H22 UNL     1      -4.763   0.627  13.840  1.00  0.00     0.274 HD
ATOM     18  H21 UNL     1      -4.963   0.564  12.185  1.00  0.00     0.274 HD
ENDBRANCH  14  15
ENDBRANCH   7  14
ENDBRANCH   2   7
BRANCH   5  19
HETATM   19  N3  UNL     1      -2.351   7.558  14.404  1.00  0.00    -0.351 N
HETATM   20  C11 UNL     1      -1.142   8.281  14.214  1.00  0.00     0.242 C
HETATM   21  O2  UNL     1      -0.370   7.882  13.302  1.00  0.00    -0.269 OA
ATOM     22  H3  UNL     1      -2.997   7.858  15.134  1.00  0.00     0.163 HD
BRANCH  20  23
HETATM   23  C12 UNL     1      -0.778   9.439  15.017  1.00  0.00     0.083 C
HETATM   24  C13 UNL     1       0.413  10.004  14.970  1.00  0.00     0.070 C
BRANCH  24  25
HETATM   25  C14 UNL     1       0.728  11.139  15.775  1.00  0.00    -0.077 C
HETATM   26  C15 UNL     1       0.988  12.091  16.473  1.00  0.00    -0.087 C
BRANCH  26  27
HETATM   27  C16 UNL     1       1.306  13.235  17.341  1.00  0.00     0.208 C
HETATM   28 CL1  UNL     1       1.964  12.698  18.905  1.00  0.00    -0.117 Cl
ENDBRANCH  26  27
ENDBRANCH  24  25
ENDBRANCH  20  23
ENDBRANCH   5  19
TORSDOF 7
ENDMDL