MODEL 3
REMARK VINA RESULT: -7.471686367      2.212      3.770
REMARK  4 active torsions:
REMARK  status: ('A' for Active; 'I' for Inactive)
REMARK       I    between atoms: N1_2  and  C2_4
REMARK    1  A    between atoms: C2_4  and  C3_6
REMARK    2  A    between atoms: C5_8  and  C6_9
REMARK       I    between atoms: C6_9  and  N2_11
REMARK    3  A    between atoms: N2_11  and  C7_13
REMARK       I    between atoms: N4_20  and  C12_21
REMARK    4  A    between atoms: C12_21  and  C13_23
ROOT
HETATM    1  C3  UNL     1      -4.360   5.617  12.920  1.00  0.00     0.105 C
HETATM    2  C4  UNL     1      -5.285   4.898  13.920  1.00  0.00     0.051 C
HETATM    3  C5  UNL     1      -4.915   3.452  13.848  1.00  0.00     0.180 C
HETATM    4  N3  UNL     1      -3.801   3.376  12.940  1.00  0.00    -0.330 N
HETATM    5  C10 UNL     1      -3.316   2.269  12.204  1.00  0.00     0.238 C
HETATM    6  O3  UNL     1      -3.878   1.153  12.130  1.00  0.00    -0.271 OA
HETATM    7  C11 UNL     1      -2.044   2.457  11.468  1.00  0.00     0.229 C
HETATM    8  N4  UNL     1      -1.944   3.826  10.988  1.00  0.00    -0.336 N
HETATM    9  C12 UNL     1      -1.674   4.029   9.622  1.00  0.00     0.238 C
HETATM   10  O4  UNL     1      -1.556   2.980   8.899  1.00  0.00    -0.272 OA
HETATM   11  C15 UNL     1      -2.130   4.920  11.936  1.00  0.00     0.107 C
HETATM   12  C16 UNL     1      -0.769   5.033  12.653  1.00  0.00     0.034 C
HETATM   13  C17 UNL     1      -3.213   4.695  12.898  1.00  0.00     0.123 C
ENDROOT
BRANCH   3  14
HETATM   14  C6  UNL     1      -4.649   2.847  15.159  1.00  0.00     0.241 C
HETATM   15  O2  UNL     1      -3.499   2.659  15.632  1.00  0.00    -0.271 OA
HETATM   16  N2  UNL     1      -5.747   2.441  15.959  1.00  0.00    -0.355 N
ATOM     17  H2  UNL     1      -6.693   2.580  15.603  1.00  0.00     0.162 HD
BRANCH  16  18
HETATM   18  C7  UNL     1      -5.573   1.834  17.267  1.00  0.00     0.076 C
HETATM   19  C8  UNL     1      -5.990   0.375  17.154  1.00  0.00     0.032 C
HETATM   20  C9  UNL     1      -6.462   2.467  18.312  1.00  0.00     0.032 C
ENDBRANCH  16  18
ENDBRANCH   3  14
BRANCH   1  21
HETATM   21  C2  UNL     1      -5.131   5.830  11.724  1.00  0.00     0.223 C
HETATM   22  N1  UNL     1      -5.897   7.030  11.636  1.00  0.00    -0.365 N
HETATM   23  C1  UNL     1      -6.721   7.370  10.486  1.00  0.00     0.149 C
ATOM     24  H1  UNL     1      -5.865   7.683  12.419  1.00  0.00     0.161 HD
HETATM   25  O1  UNL     1      -5.231   5.090  10.718  1.00  0.00    -0.273 OA
ENDBRANCH   1  21
BRANCH   9  26
HETATM   26  C13 UNL     1      -1.513   5.332   8.947  1.00  0.00     0.170 C
HETATM   27  C14 UNL     1      -0.105   5.837   8.891  1.00  0.00     0.036 C
HETATM   28 CL1  UNL     1      -2.129   5.238   7.288  1.00  0.00    -0.115 Cl
ENDBRANCH   9  26
TORSDOF 4
ENDMDL