MODEL 3
REMARK VINA RESULT: -6.393985319      1.728      2.041
REMARK  8 active torsions:
REMARK  status: ('A' for Active; 'I' for Inactive)
REMARK    1  A    between atoms: C3_4  and  N2_5
REMARK    2  A    between atoms: C7_11  and  C8_12
REMARK    3  A    between atoms: C8_12  and  N4_13
REMARK    4  A    between atoms: N4_13  and  C9_15
REMARK    5  A    between atoms: N5_17  and  C11_19
REMARK    6  A    between atoms: C11_19  and  O1_20
REMARK    7  A    between atoms: C11_19  and  C12_22
REMARK    8  A    between atoms: C12_22  and  N6_23
ROOT
HETATM    1  C1  UNL     1      -1.250   7.490   8.968  1.00  0.00     0.222 C
HETATM    2  N1  UNL     1      -1.093   6.702   9.816  1.00  0.00    -0.453 NA
HETATM    3  C2  UNL     1      -0.920   5.725  10.835  1.00  0.00     0.283 A
HETATM    4  C3  UNL     1       0.470   5.255  10.925  1.00  0.00     0.225 A
HETATM    5  N3  UNL     1       0.478   3.995  10.659  1.00  0.00    -0.337 N
ATOM      6  H3  UNL     1       1.315   3.413  10.650  1.00  0.00     0.167 HD
HETATM    7  C7  UNL     1      -0.824   3.525  10.382  1.00  0.00     0.050 A
HETATM    8  C17 UNL     1      -1.688   4.518  10.473  1.00  0.00     0.079 A
HETATM    9 CL1  UNL     1      -3.437   4.487  10.228  1.00  0.00    -0.083 Cl
ENDROOT
BRANCH   4  10
HETATM   10  N2  UNL     1       1.647   6.039  11.250  1.00  0.00    -0.034 N
HETATM   11  C4  UNL     1       2.647   5.215  11.895  1.00  0.00     0.280 C
HETATM   12  C5  UNL     1       2.217   6.593  10.057  1.00  0.00     0.280 C
HETATM   13  C6  UNL     1       1.291   7.093  12.191  1.00  0.00     0.280 C
ENDBRANCH   4  10
BRANCH   7  14
HETATM   14  C8  UNL     1      -1.214   2.118  10.000  1.00  0.00     0.179 C
BRANCH  14  15
HETATM   15  N4  UNL     1      -1.431   1.397  11.217  1.00  0.00    -0.374 N
ATOM     16  H4  UNL     1      -0.670   1.250  11.879  1.00  0.00     0.161 HD
BRANCH  15  17
HETATM   17  C9  UNL     1      -2.764   0.880  11.487  1.00  0.00     0.071 C
HETATM   18  C10 UNL     1      -3.026  -0.519  11.071  1.00  0.00     0.088 C
HETATM   19  N5  UNL     1      -3.536   1.685  12.034  1.00  0.00    -0.353 N
ATOM     20  H5  UNL     1      -3.077   2.582  12.192  1.00  0.00     0.163 HD
BRANCH  19  21
HETATM   21  C11 UNL     1      -4.843   1.709  12.488  1.00  0.00     0.237 C
BRANCH  21  22
HETATM   22  O1  UNL     1      -5.692   1.868  11.352  1.00  0.00    -0.375 OA
ATOM     23  H1  UNL     1      -6.589   1.895  11.665  1.00  0.00     0.212 HD
ENDBRANCH  21  22
BRANCH  21  24
HETATM   24  C12 UNL     1      -5.118   2.824  13.462  1.00  0.00     0.182 C
BRANCH  24  25
HETATM   25  N6  UNL     1      -5.265   2.225  14.812  1.00  0.00    -0.347 N
HETATM   26  C13 UNL     1      -4.701   1.089  15.221  1.00  0.00     0.109 A
HETATM   27  C14 UNL     1      -5.060   0.866  16.543  1.00  0.00     0.108 A
HETATM   28  N7  UNL     1      -5.846   1.889  16.912  1.00  0.00    -0.356 N
HETATM   29  C15 UNL     1      -6.458   2.069  18.233  1.00  0.00     0.156 C
HETATM   30  C16 UNL     1      -5.957   2.701  15.848  1.00  0.00     0.184 A
ENDBRANCH  24  25
ENDBRANCH  21  24
ENDBRANCH  19  21
ENDBRANCH  15  17
ENDBRANCH  14  15
ENDBRANCH   7  14
TORSDOF 8
ENDMDL