MODEL 4
REMARK VINA RESULT: -6.274619330      1.943      3.899
REMARK  3 active torsions:
REMARK  status: ('A' for Active; 'I' for Inactive)
REMARK    1  A    between atoms: C4_7  and  C5_8
REMARK       I    between atoms: C5_8  and  N2_10
REMARK    2  A    between atoms: C8_15  and  N4_16
REMARK    3  A    between atoms: N5_27  and  C19_28
ROOT
HETATM    1  C1  UNL     1      -3.263   2.750  15.819  1.00  0.00     0.100 C
HETATM    2  C2  UNL     1      -3.628   3.277  14.777  1.00  0.00    -0.140 C
HETATM    3  C3  UNL     1      -4.094   3.882  13.541  1.00  0.00     0.335 C
HETATM    4  N1  UNL     1      -3.089   3.860  12.485  1.00  0.00    -0.026 N
ATOM      5  H11 UNL     1      -3.187   3.114  11.796  1.00  0.00     0.281 HD
ATOM      6  H12 UNL     1      -2.150   3.584  12.773  1.00  0.00     0.281 HD
HETATM    7  C4  UNL     1      -3.217   5.197  11.977  1.00  0.00     0.257 C
HETATM    8  C8  UNL     1      -2.102   5.812  11.311  1.00  0.00     0.237 C
HETATM    9  C12 UNL     1      -2.317   7.283  11.612  1.00  0.00     0.044 C
HETATM   10  C13 UNL     1      -2.965   7.274  13.009  1.00  0.00     0.022 C
HETATM   11  C14 UNL     1      -1.841   7.291  14.050  1.00  0.00    -0.040 C
HETATM   12  C15 UNL     1      -0.513   7.780  13.583  1.00  0.00     0.015 C
HETATM   13  C16 UNL     1      -2.207   8.120  15.298  1.00  0.00     0.015 C
HETATM   14  C17 UNL     1      -2.051   5.811  14.190  1.00  0.00     0.038 C
HETATM   15  C18 UNL     1      -3.275   5.913  13.353  1.00  0.00     0.070 C
HETATM   16  N5  UNL     1      -4.456   5.308  13.724  1.00  0.00    -0.232 NA
ENDROOT
BRANCH  16  17
HETATM   17  C19 UNL     1      -5.142   5.438  14.910  1.00  0.00     0.148 C
HETATM   18 CL1  UNL     1      -6.679   4.550  15.042  1.00  0.00    -0.084 Cl
ENDBRANCH  16  17
BRANCH   7  19
HETATM   19  C5  UNL     1      -4.558   5.323  11.404  1.00  0.00     0.263 C
HETATM   20  O1  UNL     1      -5.115   4.371  10.743  1.00  0.00    -0.270 OA
HETATM   21  N2  UNL     1      -5.358   6.484  11.529  1.00  0.00    -0.317 N
HETATM   22  C6  UNL     1      -6.203   6.944  10.722  1.00  0.00     0.091 C
ATOM     23  H2  UNL     1      -5.232   7.017  12.389  1.00  0.00     0.169 HD
HETATM   24  C7  UNL     1      -6.921   8.206  11.109  1.00  0.00     0.085 C
HETATM   25  N3  UNL     1      -6.539   6.387   9.464  1.00  0.00    -0.088 NA
ENDBRANCH   7  19
BRANCH   8  26
HETATM   26  N4  UNL     1      -1.739   5.510   9.986  1.00  0.00    -0.071 N
HETATM   27  C9  UNL     1      -2.484   6.434   9.105  1.00  0.00     0.272 C
HETATM   28  C10 UNL     1      -1.885   4.228   9.452  1.00  0.00     0.272 C
HETATM   29  C11 UNL     1      -0.335   5.924   9.805  1.00  0.00     0.272 C
ENDBRANCH   8  26
TORSDOF 3
ENDMDL