MODEL 4
REMARK VINA RESULT: -6.248593322      5.500      7.351
REMARK  8 active torsions:
REMARK  status: ('A' for Active; 'I' for Inactive)
REMARK    1  A    between atoms: C3_3  and  C4_4
REMARK    2  A    between atoms: C5_5  and  C6_6
REMARK    3  A    between atoms: C7_7  and  C8_8
REMARK    4  A    between atoms: N1_11  and  C11_12
REMARK    5  A    between atoms: C11_12  and  C12_13
REMARK    6  A    between atoms: C14_16  and  C15_17
REMARK    7  A    between atoms: C14_16  and  C16_19
REMARK    8  A    between atoms: C16_19  and  O3_20
ROOT
HETATM    1  C1  UNL     1       2.308  14.026  16.747  1.00  0.00     0.113 C
HETATM    2  C2  UNL     1       1.548  12.846  16.349  1.00  0.00    -0.097 C
HETATM    3  C3  UNL     1       0.904  11.869  16.021  1.00  0.00    -0.015 C
ENDROOT
BRANCH   3   4
HETATM    4  C4  UNL     1       0.168  10.718  15.653  1.00  0.00    -0.001 C
HETATM    5  C5  UNL     1      -0.454   9.725  15.353  1.00  0.00    -0.001 C
BRANCH   5   6
HETATM    6  C6  UNL     1      -1.174   8.553  15.021  1.00  0.00    -0.009 C
HETATM    7  C7  UNL     1      -1.776   7.544  14.744  1.00  0.00    -0.053 C
BRANCH   7   8
HETATM    8  C8  UNL     1      -2.500   6.357  14.399  1.00  0.00     0.022 A
HETATM    9  C9  UNL     1      -1.936   5.351  13.624  1.00  0.00     0.038 A
HETATM   10  C10 UNL     1      -2.696   4.231  13.328  1.00  0.00     0.093 A
HETATM   11  N1  UNL     1      -3.954   4.110  13.777  1.00  0.00    -0.350 N
HETATM   12  C17 UNL     1      -4.529   5.062  14.527  1.00  0.00     0.083 A
HETATM   13 BR1  UNL     1      -6.336   4.875  15.164  1.00  0.00    -0.031 Br
HETATM   14  C18 UNL     1      -3.796   6.188  14.837  1.00  0.00     0.058 A
BRANCH  11  15
HETATM   15  C11 UNL     1      -4.691   2.917  13.439  1.00  0.00     0.139 C
BRANCH  15  16
HETATM   16  C12 UNL     1      -3.857   1.762  13.018  1.00  0.00     0.072 C
HETATM   17  C13 UNL     1      -4.444   0.384  13.230  1.00  0.00     0.179 C
HETATM   18  O1  UNL     1      -5.141   0.578  12.028  1.00  0.00    -0.370 OA
HETATM   19  C14 UNL     1      -4.034   1.343  11.606  1.00  0.00     0.141 C
BRANCH  19  20
HETATM   20  C15 UNL     1      -2.921   0.469  11.078  1.00  0.00     0.271 C
HETATM   21  O2  UNL     1      -2.908   0.318   9.865  1.00  0.00    -0.303 OA
ENDBRANCH  19  20
BRANCH  19  22
HETATM   22  C16 UNL     1      -4.445   2.342  10.585  1.00  0.00     0.210 C
BRANCH  22  23
HETATM   23  O3  UNL     1      -3.359   3.016  10.024  1.00  0.00    -0.397 OA
ATOM     24  H3  UNL     1      -3.597   3.514   9.250  1.00  0.00     0.209 HD
ENDBRANCH  22  23
ENDBRANCH  19  22
ENDBRANCH  15  16
ENDBRANCH  11  15
ENDBRANCH   7   8
ENDBRANCH   5   6
ENDBRANCH   3   4
TORSDOF 8
ENDMDL