MODEL 3
REMARK VINA RESULT: -7.642369620      1.961      2.128
REMARK  6 active torsions:
REMARK  status: ('A' for Active; 'I' for Inactive)
REMARK    1  A    between atoms: N1_2  and  C2_3
REMARK       I    between atoms: N1_2  and  C5_10
REMARK    2  A    between atoms: C2_3  and  C3_4
REMARK    3  A    between atoms: C3_4  and  N2_5
REMARK    4  A    between atoms: C5_10  and  C6_12
REMARK    5  A    between atoms: C9_16  and  C14_22
REMARK    6  A    between atoms: C11_19  and  C12_20
ROOT
HETATM    1  C6  UNL     1      -4.216   2.387  14.247  1.00  0.00     0.092 C
HETATM    2  C7  UNL     1      -4.289   3.799  13.699  1.00  0.00     0.045 C
HETATM    3  C8  UNL     1      -3.965   4.891  14.691  1.00  0.00     0.095 C
HETATM    4 BR1  UNL     1      -3.400   6.418  13.598  1.00  0.00    -0.088 Br
HETATM    5  C9  UNL     1      -5.269   5.206  15.275  1.00  0.00     0.145 C
HETATM    6  O2  UNL     1      -6.242   4.905  14.346  1.00  0.00    -0.378 OA
HETATM    7  C10 UNL     1      -5.777   3.736  13.791  1.00  0.00     0.133 C
HETATM    8  C11 UNL     1      -5.654   2.602  14.709  1.00  0.00     0.033 C
ENDROOT
BRANCH   1   9
HETATM    9  C5  UNL     1      -4.036   1.364  13.191  1.00  0.00     0.224 C
HETATM   10  N1  UNL     1      -3.301   1.518  12.006  1.00  0.00    -0.355 N
HETATM   11  C1  UNL     1      -3.237   0.403  11.074  1.00  0.00     0.152 C
HETATM   12  O1  UNL     1      -4.609   0.244  13.395  1.00  0.00    -0.273 OA
BRANCH  10  13
HETATM   13  C2  UNL     1      -2.593   2.720  11.650  1.00  0.00     0.145 C
BRANCH  13  14
HETATM   14  C3  UNL     1      -2.932   3.251  10.285  1.00  0.00     0.141 C
BRANCH  14  15
HETATM   15  N2  UNL     1      -4.214   3.928  10.352  1.00  0.00    -0.365 N
HETATM   16  C4  UNL     1      -4.357   5.183  10.170  1.00  0.00     0.197 C
HETATM   17  N3  UNL     1      -5.691   5.703  10.269  1.00  0.00    -0.067 NA
HETATM   18  N4  UNL     1      -3.325   6.092   9.884  1.00  0.00    -0.067 NA
ATOM     19  H2  UNL     1      -5.044   3.372  10.555  1.00  0.00     0.161 HD
ENDBRANCH  14  15
ENDBRANCH  13  14
ENDBRANCH  10  13
ENDBRANCH   1   9
BRANCH   8  20
HETATM   20  C12 UNL     1      -5.891   2.751  16.128  1.00  0.00    -0.001 C
HETATM   21  C13 UNL     1      -7.279   2.500  16.659  1.00  0.00     0.018 C
HETATM   22  C14 UNL     1      -6.815   1.131  16.771  1.00  0.00    -0.008 A
HETATM   23  C15 UNL     1      -5.946   0.490  17.663  1.00  0.00     0.018 A
HETATM   24  C16 UNL     1      -5.445   1.706  17.075  1.00  0.00     0.002 A
ENDBRANCH   8  20
TORSDOF 6
ENDMDL