MODEL 2
REMARK VINA RESULT: -6.244682309      3.237      5.244
REMARK  9 active torsions:
REMARK  status: ('A' for Active; 'I' for Inactive)
REMARK    1  A    between atoms: N2_6  and  N3_8
REMARK    2  A    between atoms: N3_8  and  O1_9
REMARK    3  A    between atoms: N4_11  and  C4_13
REMARK    4  A    between atoms: C4_13  and  C5_14
REMARK    5  A    between atoms: C5_14  and  C6_15
REMARK    6  A    between atoms: C7_16  and  C8_17
REMARK    7  A    between atoms: C11_20  and  C12_21
REMARK    8  A    between atoms: C12_21  and  C13_22
REMARK    9  A    between atoms: C14_24  and  O2_25
ROOT
HETATM    1  C8  UNL     1      -1.294  10.293  14.374  1.00  0.00    -0.015 C
HETATM    2  C9  UNL     1      -1.040  11.476  14.372  1.00  0.00    -0.097 C
HETATM    3  C10 UNL     1      -0.727  12.917  14.394  1.00  0.00     0.113 C
ENDROOT
BRANCH   1   4
HETATM    4  C7  UNL     1      -1.616   8.904  14.387  1.00  0.00    -0.015 C
HETATM    5  C6  UNL     1      -1.881   7.726  14.378  1.00  0.00    -0.091 C
BRANCH   5   6
HETATM    6  C5  UNL     1      -2.203   6.298  14.342  1.00  0.00     0.116 C
BRANCH   6   7
HETATM    7  C4  UNL     1      -2.958   5.983  13.052  1.00  0.00     0.155 C
BRANCH   7   8
HETATM    8  N4  UNL     1      -4.357   6.222  13.215  1.00  0.00    -0.294 N
HETATM    9  N3  UNL     1      -5.151   5.244  13.318  1.00  0.00    -0.098 N
ATOM     10  H4  UNL     1      -4.713   7.177  13.248  1.00  0.00     0.184 HD
BRANCH   9  11
HETATM   11  N2  UNL     1      -4.755   3.907  13.285  1.00  0.00    -0.243 N
HETATM   12  C3  UNL     1      -5.102   3.145  14.252  1.00  0.00     0.136 A
HETATM   13  N1  UNL     1      -5.825   3.605  15.277  1.00  0.00    -0.341 N
HETATM   14  C11 UNL     1      -4.693   1.799  14.200  1.00  0.00     0.040 A
HETATM   15  C2  UNL     1      -6.186   2.774  16.304  1.00  0.00     0.033 A
ATOM     16  H1  UNL     1      -6.110   4.584  15.295  1.00  0.00     0.167 HD
HETATM   17  C1  UNL     1      -6.903   3.299  17.287  1.00  0.00     0.043 C
HETATM   18  C15 UNL     1      -5.803   1.468  16.278  1.00  0.00    -0.002 A
HETATM   19  C14 UNL     1      -5.040   0.949  15.212  1.00  0.00     0.087 A
HETATM   20  C16 UNL     1      -6.167   0.524  17.360  1.00  0.00     0.053 C
ATOM     21  H2  UNL     1      -4.202   3.545  12.508  1.00  0.00     0.193 HD
BRANCH  19  22
HETATM   22  O2  UNL     1      -4.673  -0.383  15.225  1.00  0.00    -0.359 OA
ATOM     23  H2  UNL     1      -5.239  -1.067  15.563  1.00  0.00     0.217 HD
ENDBRANCH  19  22
BRANCH  14  24
HETATM   24  C12 UNL     1      -3.989   1.438  13.159  1.00  0.00     0.002 C
BRANCH  24  25
HETATM   25  C13 UNL     1      -4.509   0.872  11.908  1.00  0.00     0.113 C
HETATM   26 BR1  UNL     1      -3.993  -0.982  11.641  1.00  0.00    -0.092 Br
ENDBRANCH  24  25
ENDBRANCH  14  24
ENDBRANCH   9  11
BRANCH   9  27
HETATM   27  O1  UNL     1      -6.487   5.509  13.473  1.00  0.00    -0.254 OA
ATOM     28  H1  UNL     1      -6.930   5.968  12.770  1.00  0.00     0.248 HD
ENDBRANCH   9  27
ENDBRANCH   7   8
ENDBRANCH   6   7
ENDBRANCH   5   6
ENDBRANCH   1   4
TORSDOF 9
ENDMDL