MODEL 5
REMARK VINA RESULT: -6.428136120      3.169      5.201
REMARK  6 active torsions:
REMARK  status: ('A' for Active; 'I' for Inactive)
REMARK       I    between atoms: C2_2  and  N1_4
REMARK    1  A    between atoms: N1_4  and  C3_6
REMARK    2  A    between atoms: C3_6  and  C4_7
REMARK    3  A    between atoms: C4_7  and  N2_8
REMARK    4  A    between atoms: C8_15  and  C9_16
REMARK    5  A    between atoms: C10_17  and  C11_18
REMARK    6  A    between atoms: C12_20  and  N4_21
REMARK       I    between atoms: N4_21  and  C13_23
ROOT
HETATM    1  N2  UNL     1      -3.808   3.732  13.662  1.00  0.00    -0.333 N
HETATM    2  C5  UNL     1      -4.681   4.836  13.359  1.00  0.00     0.180 C
HETATM    3  S1  UNL     1      -5.679   5.406  14.513  1.00  0.00    -0.040 SA
HETATM    4  N3  UNL     1      -4.707   5.453  12.084  1.00  0.00    -0.298 N
HETATM    5  C6  UNL     1      -5.580   6.565  11.764  1.00  0.00     0.161 C
HETATM    6  C7  UNL     1      -3.827   4.935  11.101  1.00  0.00     0.245 C
HETATM    7  O2  UNL     1      -3.884   5.351   9.897  1.00  0.00    -0.271 OA
HETATM    8  C8  UNL     1      -2.826   3.912  11.420  1.00  0.00     0.200 C
HETATM    9  C12 UNL     1      -3.252   3.015  12.569  1.00  0.00     0.213 C
ENDROOT
BRANCH   1  10
HETATM   10  C4  UNL     1      -3.541   3.418  15.063  1.00  0.00     0.147 C
BRANCH  10  11
HETATM   11  C3  UNL     1      -3.943   2.051  15.452  1.00  0.00     0.142 C
BRANCH  11  12
HETATM   12  N1  UNL     1      -5.348   2.014  15.792  1.00  0.00    -0.360 N
HETATM   13  C2  UNL     1      -5.927   1.155  16.751  1.00  0.00     0.213 C
HETATM   14  C1  UNL     1      -7.374   1.154  17.054  1.00  0.00     0.117 C
HETATM   15  O1  UNL     1      -5.204   0.354  17.381  1.00  0.00    -0.274 OA
ATOM     16  H1  UNL     1      -5.969   2.658  15.301  1.00  0.00     0.162 HD
ENDBRANCH  11  12
ENDBRANCH  10  11
ENDBRANCH   1  10
BRANCH   9  17
HETATM   17  N4  UNL     1      -4.110   2.002  11.986  1.00  0.00    -0.338 N
HETATM   18  C13 UNL     1      -3.687   0.815  11.404  1.00  0.00     0.215 C
HETATM   19  C14 UNL     1      -4.662  -0.143  10.840  1.00  0.00     0.117 C
HETATM   20  O3  UNL     1      -2.479   0.499  11.328  1.00  0.00    -0.274 OA
ATOM     21  H4  UNL     1      -5.115   2.178  12.005  1.00  0.00     0.164 HD
ENDBRANCH   9  17
BRANCH   8  22
HETATM   22  C9  UNL     1      -1.567   4.604  11.712  1.00  0.00    -0.087 C
HETATM   23  C10 UNL     1      -0.530   5.178  11.932  1.00  0.00    -0.095 C
BRANCH  23  24
HETATM   24  C11 UNL     1       0.727   5.887  12.177  1.00  0.00     0.178 C
HETATM   25 BR1  UNL     1       2.205   4.914  11.423  1.00  0.00    -0.083 Br
ENDBRANCH  23  24
ENDBRANCH   8  22
TORSDOF 6
ENDMDL