MODEL 1
REMARK VINA RESULT: -7.309821684      0.000      0.000
REMARK  3 active torsions:
REMARK  status: ('A' for Active; 'I' for Inactive)
REMARK    1  A    between atoms: N2_9  and  C8_10
REMARK    2  A    between atoms: C8_10  and  C9_11
REMARK       I    between atoms: C9_11  and  N3_13
REMARK    3  A    between atoms: N3_13  and  C10_15
ROOT
HETATM    1  C9  UNL     1      17.461  24.479   4.869  1.00  0.00     0.246 C
HETATM    2  O1  UNL     1      16.307  24.910   4.633  1.00  0.00    -0.272 OA
HETATM    3  N3  UNL     1      17.558  23.225   5.538  1.00  0.00    -0.350 N
ATOM      4  H3  UNL     1      18.490  22.862   5.739  1.00  0.00     0.163 HD
ENDROOT
BRANCH   1   5
HETATM    5  C8  UNL     1      18.677  25.221   4.481  1.00  0.00     0.374 C
BRANCH   5   6
HETATM    6  N2  UNL     1      18.920  25.136   3.060  1.00  0.00     0.098 N
HETATM    7  C7  UNL     1      18.579  23.875   2.494  1.00  0.00     0.273 C
HETATM    8  C6  UNL     1      19.565  22.782   2.550  1.00  0.00     0.031 C
HETATM    9  C5  UNL     1      20.944  23.271   2.810  1.00  0.00     0.015 C
HETATM   10  C4  UNL     1      21.167  24.588   2.153  1.00  0.00     0.014 C
HETATM   11  C3  UNL     1      22.628  24.984   2.477  1.00  0.00     0.043 C
HETATM   12  C20 UNL     1      20.222  25.619   2.693  1.00  0.00     0.284 C
HETATM   13  C21 UNL     1      21.242  24.571   0.662  1.00  0.00     0.283 C
HETATM   14  C2  UNL     1      23.353  24.046   1.510  1.00  0.00     0.272 C
HETATM   15  N1  UNL     1      22.544  24.020   0.328  1.00  0.00     0.085 N
HETATM   16  C1  UNL     1      22.479  22.735  -0.313  1.00  0.00     0.309 C
ENDBRANCH   5   6
ENDBRANCH   1   5
BRANCH   3  17
HETATM   17  C10 UNL     1      16.424  22.437   5.948  1.00  0.00     0.034 C
HETATM   18  C11 UNL     1      15.544  23.086   6.960  1.00  0.00     0.035 C
HETATM   19  C12 UNL     1      14.405  22.123   7.271  1.00  0.00    -0.012 C
HETATM   20  C13 UNL     1      13.664  21.746   6.016  1.00  0.00     0.009 C
HETATM   21  C17 UNL     1      14.951  20.881   7.938  1.00  0.00     0.009 C
HETATM   22  C14 UNL     1      14.581  21.013   5.059  1.00  0.00    -0.012 C
HETATM   23  C15 UNL     1      15.186  19.788   5.685  1.00  0.00     0.009 C
HETATM   24  C19 UNL     1      15.695  21.977   4.713  1.00  0.00     0.035 C
HETATM   25  C16 UNL     1      15.882  20.200   6.958  1.00  0.00    -0.012 C
HETATM   26  C18 UNL     1      16.974  21.160   6.600  1.00  0.00     0.035 C
ENDBRANCH   3  17
TORSDOF 3
ENDMDL