MODEL 4
REMARK VINA RESULT: -6.196024429      2.120      4.741
REMARK  4 active torsions:
REMARK  status: ('A' for Active; 'I' for Inactive)
REMARK    1  A    between atoms: C2_2  and  C3_3
REMARK    2  A    between atoms: C11_11  and  C12_12
REMARK    3  A    between atoms: C12_12  and  O1_13
REMARK    4  A    between atoms: C13_15  and  C14_16
REMARK       I    between atoms: C14_16  and  N1_18
ROOT
HETATM    1  C3  UNL     1      17.176  23.619   5.952  1.00  0.00     0.002 C
HETATM    2  C4  UNL     1      16.243  22.499   5.884  1.00  0.00     0.001 C
HETATM    3  C5  UNL     1      16.774  21.325   6.660  1.00  0.00     0.033 C
HETATM    4  C6  UNL     1      16.840  20.042   5.926  1.00  0.00    -0.023 C
HETATM    5  C7  UNL     1      16.713  19.902   4.606  1.00  0.00    -0.078 C
HETATM    6  C8  UNL     1      16.807  18.530   4.064  1.00  0.00     0.044 C
HETATM    7  C9  UNL     1      16.467  21.133   3.754  1.00  0.00    -0.002 C
HETATM    8  C10 UNL     1      15.432  20.592   2.739  1.00  0.00     0.021 C
HETATM    9  C11 UNL     1      15.659  22.057   4.624  1.00  0.00     0.027 C
HETATM   10  C13 UNL     1      17.589  21.646   3.004  1.00  0.00     0.102 C
HETATM   11  C17 UNL     1      18.255  22.926   3.242  1.00  0.00     0.074 C
HETATM   12  C18 UNL     1      17.509  24.141   3.480  1.00  0.00     0.137 C
HETATM   13  O3  UNL     1      16.785  24.906   2.818  1.00  0.00    -0.297 OA
HETATM   14  C19 UNL     1      17.955  24.122   4.845  1.00  0.00     0.064 C
HETATM   15  C20 UNL     1      19.069  23.138   4.460  1.00  0.00     0.005 C
HETATM   16  C21 UNL     1      20.427  23.827   4.247  1.00  0.00     0.011 C
ENDROOT
BRANCH  10  17
HETATM   17  C14 UNL     1      18.721  20.639   2.952  1.00  0.00     0.225 C
HETATM   18  O2  UNL     1      19.469  20.480   3.978  1.00  0.00    -0.273 OA
HETATM   19  N1  UNL     1      19.035  19.841   1.843  1.00  0.00    -0.360 N
HETATM   20  C15 UNL     1      18.276  19.960   0.627  1.00  0.00     0.152 C
HETATM   21  C16 UNL     1      20.113  18.886   1.875  1.00  0.00     0.152 C
ENDBRANCH  10  17
BRANCH   9  22
HETATM   22  C12 UNL     1      14.329  21.390   4.956  1.00  0.00     0.170 C
BRANCH  22  23
HETATM   23  O1  UNL     1      13.525  22.333   5.664  1.00  0.00    -0.400 OA
ATOM     24  H1  UNL     1      12.700  22.423   5.202  1.00  0.00     0.209 HD
ENDBRANCH  22  23
ENDBRANCH   9  22
BRANCH   1  25
HETATM   25  C2  UNL     1      16.445  24.838   6.562  1.00  0.00     0.001 C
HETATM   26  C1  UNL     1      17.369  25.665   7.399  1.00  0.00     0.005 C
ENDBRANCH   1  25
TORSDOF 4
ENDMDL