MODEL 5
REMARK VINA RESULT: -6.823939879      0.833      1.982
REMARK  5 active torsions:
REMARK  status: ('A' for Active; 'I' for Inactive)
REMARK    1  A    between atoms: O1_2  and  C2_3
REMARK    2  A    between atoms: C5_6  and  C6_7
REMARK    3  A    between atoms: C6_7  and  C7_8
REMARK    4  A    between atoms: C8_9  and  C9_10
REMARK       I    between atoms: C9_10  and  N1_12
REMARK    5  A    between atoms: C12_15  and  C13_16
ROOT
HETATM    1  C2  UNL     1      21.820  23.112   1.764  1.00  0.00     0.061 C
HETATM    2  C3  UNL     1      21.957  24.532   2.164  1.00  0.00     0.039 C
HETATM    3  C4  UNL     1      20.647  25.289   2.163  1.00  0.00     0.013 C
HETATM    4  C5  UNL     1      19.589  24.651   2.999  1.00  0.00    -0.029 C
HETATM    5  C14 UNL     1      20.092  23.808   4.120  1.00  0.00     0.015 C
HETATM    6  C15 UNL     1      20.485  22.424   3.762  1.00  0.00    -0.011 C
HETATM    7  C16 UNL     1      19.433  21.776   2.885  1.00  0.00     0.009 C
HETATM    8  C17 UNL     1      19.332  22.642   1.654  1.00  0.00    -0.011 C
HETATM    9  C18 UNL     1      18.646  23.923   2.071  1.00  0.00     0.015 C
HETATM   10  C19 UNL     1      20.600  22.836   0.917  1.00  0.00     0.042 C
HETATM   11  C20 UNL     1      21.791  22.282   3.059  1.00  0.00     0.042 C
ENDROOT
BRANCH   4  12
HETATM   12  C6  UNL     1      18.771  25.787   3.629  1.00  0.00     0.104 C
BRANCH  12  13
HETATM   13  C7  UNL     1      17.903  25.172   4.631  1.00  0.00    -0.096 C
HETATM   14  C8  UNL     1      17.185  24.639   5.465  1.00  0.00    -0.005 C
BRANCH  14  15
HETATM   15  C9  UNL     1      16.355  23.992   6.442  1.00  0.00     0.299 C
HETATM   16  O2  UNL     1      15.841  24.712   7.333  1.00  0.00    -0.258 OA
HETATM   17  N1  UNL     1      16.125  22.588   6.403  1.00  0.00    -0.327 N
HETATM   18  C10 UNL     1      16.571  21.529   5.520  1.00  0.00     0.130 C
HETATM   19  C12 UNL     1      15.399  21.613   7.155  1.00  0.00     0.190 C
HETATM   20  C11 UNL     1      16.389  20.561   6.665  1.00  0.00     0.056 C
BRANCH  19  21
HETATM   21  C13 UNL     1      14.066  21.349   6.561  1.00  0.00     0.197 C
HETATM   22  O3  UNL     1      13.342  22.276   6.083  1.00  0.00    -0.646 OA
HETATM   23  O4  UNL     1      13.552  20.048   6.505  1.00  0.00    -0.646 OA
ENDBRANCH  19  21
ENDBRANCH  14  15
ENDBRANCH  12  13
ENDBRANCH   4  12
BRANCH   1  24
HETATM   24  O1  UNL     1      22.899  22.610   1.054  1.00  0.00    -0.385 OA
HETATM   25  C1  UNL     1      24.137  22.851   1.565  1.00  0.00     0.202 C
ENDBRANCH   1  24
TORSDOF 5
ENDMDL