MODEL 3
REMARK VINA RESULT: -6.178503521      2.678      6.843
REMARK  4 active torsions:
REMARK  status: ('A' for Active; 'I' for Inactive)
REMARK    1  A    between atoms: C2_2  and  N1_3
REMARK    2  A    between atoms: N2_6  and  C5_7
REMARK    3  A    between atoms: C9_11  and  C10_12
REMARK       I    between atoms: C10_12  and  N3_14
REMARK    4  A    between atoms: N3_14  and  C11_16
ROOT
HETATM    1  C10 UNL     1      17.259  25.406   4.159  1.00  0.00     0.242 C
HETATM    2  O1  UNL     1      17.695  26.528   3.799  1.00  0.00    -0.271 OA
HETATM    3  N3  UNL     1      17.805  24.225   3.587  1.00  0.00    -0.354 N
ATOM      4  H3  UNL     1      17.437  23.324   3.894  1.00  0.00     0.162 HD
ENDROOT
BRANCH   1   5
HETATM    5  C9  UNL     1      16.187  25.385   5.174  1.00  0.00     0.194 C
HETATM    6  N2  UNL     1      16.406  24.506   6.248  1.00  0.00    -0.369 N
HETATM    7  C4  UNL     1      17.441  24.794   7.147  1.00  0.00     0.079 C
HETATM    8  C3  UNL     1      17.455  26.257   7.543  1.00  0.00     0.161 C
HETATM    9  N1  UNL     1      16.243  26.843   7.077  1.00  0.00    -0.406 N
HETATM   10  C21 UNL     1      16.037  26.829   5.668  1.00  0.00     0.152 C
BRANCH   6  11
HETATM   11  C5  UNL     1      15.835  23.235   6.264  1.00  0.00     0.022 C
HETATM   12  C6  UNL     1      15.166  23.028   7.632  1.00  0.00     0.037 C
HETATM   13  C7  UNL     1      16.748  22.072   6.059  1.00  0.00     0.037 C
HETATM   14  C8  UNL     1      14.692  23.100   5.259  1.00  0.00     0.037 C
ENDBRANCH   6  11
BRANCH   9  15
HETATM   15  C2  UNL     1      15.854  28.050   7.737  1.00  0.00     0.113 C
HETATM   16  C1  UNL     1      16.987  28.894   8.212  1.00  0.00     0.026 C
ENDBRANCH   9  15
ENDBRANCH   1   5
BRANCH   3  17
HETATM   17  C11 UNL     1      18.837  24.236   2.608  1.00  0.00     0.092 C
HETATM   18  C12 UNL     1      20.207  24.523   3.179  1.00  0.00     0.009 C
HETATM   19  C13 UNL     1      21.077  24.923   1.980  1.00  0.00     0.011 C
HETATM   20  C17 UNL     1      20.854  23.342   3.816  1.00  0.00     0.011 C
HETATM   21  C14 UNL     1      21.090  23.834   0.960  1.00  0.00    -0.013 C
HETATM   22  C15 UNL     1      21.778  22.631   1.589  1.00  0.00     0.009 C
HETATM   23  C20 UNL     1      19.726  23.389   0.516  1.00  0.00     0.011 C
HETATM   24  C16 UNL     1      20.977  22.212   2.807  1.00  0.00    -0.013 C
HETATM   25  C18 UNL     1      19.574  21.847   2.389  1.00  0.00     0.011 C
HETATM   26  C19 UNL     1      18.895  23.027   1.740  1.00  0.00     0.009 C
ENDBRANCH   3  17
TORSDOF 4
ENDMDL