MODEL 4
REMARK VINA RESULT: -6.734558265      3.099      4.900
REMARK  4 active torsions:
REMARK  status: ('A' for Active; 'I' for Inactive)
REMARK    1  A    between atoms: N1_2  and  C3_4
REMARK    2  A    between atoms: C3_4  and  C4_5
REMARK    3  A    between atoms: C4_5  and  N2_6
REMARK    4  A    between atoms: C10_19  and  C11_20
ROOT
HETATM    1  N2  UNL     1      17.383  24.417   5.844  1.00  0.00    -0.373 N
ATOM      2  H2  UNL     1      17.992  25.054   5.330  1.00  0.00     0.161 HD
HETATM    3  C5  UNL     1      17.439  23.145   5.529  1.00  0.00     0.124 C
HETATM    4  N3  UNL     1      16.620  22.201   6.205  1.00  0.00    -0.252 N
ATOM      5  H3  UNL     1      16.198  22.429   7.106  1.00  0.00     0.182 HD
HETATM    6  S1  UNL     1      16.350  20.643   5.464  1.00  0.00     0.326 S
HETATM    7  O1  UNL     1      15.182  20.685   4.532  1.00  0.00    -0.182 OA
HETATM    8  O2  UNL     1      16.150  19.591   6.509  1.00  0.00    -0.182 OA
HETATM    9  N4  UNL     1      17.798  20.327   4.573  1.00  0.00    -0.262 N
HETATM   10  C6  UNL     1      18.262  18.989   4.384  1.00  0.00     0.171 C
HETATM   11  C7  UNL     1      18.513  21.431   4.040  1.00  0.00     0.060 A
HETATM   12  C8  UNL     1      19.412  21.111   3.018  1.00  0.00     0.032 A
HETATM   13  C9  UNL     1      20.150  22.123   2.441  1.00  0.00     0.010 A
HETATM   14  C10 UNL     1      20.006  23.427   2.860  1.00  0.00    -0.050 A
HETATM   15  C15 UNL     1      19.117  23.735   3.869  1.00  0.00     0.025 A
HETATM   16  C16 UNL     1      18.352  22.731   4.475  1.00  0.00     0.036 A
ENDROOT
BRANCH   1  17
HETATM   17  C4  UNL     1      16.545  24.980   6.844  1.00  0.00     0.151 C
BRANCH  17  18
HETATM   18  C3  UNL     1      17.261  25.761   7.907  1.00  0.00     0.290 C
BRANCH  18  19
HETATM   19  N1  UNL     1      16.984  27.177   7.844  1.00  0.00     0.081 N
HETATM   20  C1  UNL     1      16.104  27.514   8.945  1.00  0.00     0.309 C
HETATM   21  C2  UNL     1      16.330  27.571   6.616  1.00  0.00     0.309 C
ENDBRANCH  18  19
ENDBRANCH  17  18
ENDBRANCH   1  17
BRANCH  14  22
HETATM   22  C11 UNL     1      20.769  24.558   2.274  1.00  0.00    -0.024 C
HETATM   23  C12 UNL     1      22.227  24.555   2.681  1.00  0.00     0.019 C
HETATM   24  C13 UNL     1      20.701  24.468   0.766  1.00  0.00     0.019 C
HETATM   25  C14 UNL     1      20.137  25.876   2.668  1.00  0.00     0.019 C
ENDBRANCH  14  22
TORSDOF 4
ENDMDL