MODEL 4
REMARK VINA RESULT: -6.859099293      2.386      4.964
REMARK  2 active torsions:
REMARK  status: ('A' for Active; 'I' for Inactive)
REMARK    1  A    between atoms: C8_8  and  O1_9
REMARK    2  A    between atoms: O1_9  and  C9_10
ROOT
HETATM    1  C1  UNL     1      20.350  23.119  -0.397  1.00  0.00     0.036 C
HETATM    2  C2  UNL     1      19.296  22.746   0.548  1.00  0.00    -0.026 C
HETATM    3  C3  UNL     1      19.251  22.928   1.850  1.00  0.00    -0.061 C
HETATM    4  C4  UNL     1      18.098  22.477   2.584  1.00  0.00     0.031 C
HETATM    5  C5  UNL     1      16.783  22.298   2.011  1.00  0.00    -0.007 C
HETATM    6  C6  UNL     1      16.143  23.267   1.128  1.00  0.00     0.011 C
HETATM    7  C7  UNL     1      15.942  22.225   3.313  1.00  0.00     0.037 C
HETATM    8  C8  UNL     1      16.634  23.209   4.243  1.00  0.00     0.132 C
HETATM    9  C12 UNL     1      17.975  23.497   3.709  1.00  0.00     0.010 C
HETATM   10  C13 UNL     1      18.153  24.883   3.134  1.00  0.00     0.006 C
HETATM   11  C14 UNL     1      17.334  25.922   3.919  1.00  0.00     0.011 C
HETATM   12  C15 UNL     1      19.578  25.296   3.258  1.00  0.00     0.067 C
HETATM   13  C16 UNL     1      20.523  24.938   2.128  1.00  0.00     0.146 C
HETATM   14  O2  UNL     1      21.055  25.736   1.350  1.00  0.00    -0.296 OA
HETATM   15  C17 UNL     1      20.370  23.563   2.514  1.00  0.00     0.065 C
HETATM   16  C18 UNL     1      21.466  22.586   2.736  1.00  0.00     0.145 C
HETATM   17  N1  UNL     1      21.004  21.756   3.866  1.00  0.00    -0.359 N
ATOM     18  H1  UNL     1      21.585  20.965   4.144  1.00  0.00     0.162 HD
HETATM   19  C19 UNL     1      19.804  21.981   4.592  1.00  0.00     0.223 C
HETATM   20  O3  UNL     1      19.249  21.069   5.255  1.00  0.00    -0.273 OA
HETATM   21  C20 UNL     1      19.133  23.319   4.610  1.00  0.00     0.096 C
HETATM   22  C21 UNL     1      20.167  24.130   3.899  1.00  0.00     0.033 C
ENDROOT
BRANCH   8  23
HETATM   23  O1  UNL     1      16.728  22.769   5.528  1.00  0.00    -0.381 OA
BRANCH  23  24
HETATM   24  C9  UNL     1      15.661  22.035   5.995  1.00  0.00     0.114 C
HETATM   25  C10 UNL     1      16.304  20.805   6.674  1.00  0.00     0.039 C
HETATM   26  C11 UNL     1      14.823  22.674   7.042  1.00  0.00     0.039 C
ENDBRANCH  23  24
ENDBRANCH   8  23
TORSDOF 2
ENDMDL