MODEL 4
REMARK VINA RESULT: -7.138567837      1.411      7.229
REMARK  3 active torsions:
REMARK  status: ('A' for Active; 'I' for Inactive)
REMARK    1  A    between atoms: C1_2  and  C2_3
REMARK       I    between atoms: C1_2  and  N2_15
REMARK    2  A    between atoms: C2_3  and  N1_4
REMARK    3  A    between atoms: N2_15  and  C11_17
ROOT
HETATM    1  O1  UNL     1      15.804  25.195   5.189  1.00  0.00    -0.272 OA
HETATM    2  C1  UNL     1      16.959  24.767   5.064  1.00  0.00     0.238 C
HETATM    3  N2  UNL     1      17.262  23.423   5.404  1.00  0.00    -0.350 N
ATOM      4  H2  UNL     1      18.226  23.111   5.285  1.00  0.00     0.163 HD
ENDROOT
BRANCH   2   5
HETATM    5  C2  UNL     1      18.019  25.643   4.565  1.00  0.00     0.262 C
BRANCH   5   6
HETATM    6  N1  UNL     1      19.052  24.933   3.800  1.00  0.00    -0.216 N
HETATM    7  O2  UNL     1      19.103  24.795   2.464  1.00  0.00    -0.263 OA
HETATM    8  C3  UNL     1      19.990  23.791   2.208  1.00  0.00     0.097 C
HETATM    9  C4  UNL     1      20.588  24.008   0.834  1.00  0.00     0.041 C
HETATM   10  C8  UNL     1      19.263  22.480   2.159  1.00  0.00     0.041 C
HETATM   11  C9  UNL     1      21.006  23.873   3.300  1.00  0.00     0.145 C
HETATM   12  C5  UNL     1      21.650  23.000   0.507  1.00  0.00     0.003 C
HETATM   13  C6  UNL     1      21.367  21.628   1.030  1.00  0.00     0.000 C
HETATM   14  C7  UNL     1      19.957  21.391   1.446  1.00  0.00     0.003 C
HETATM   15  C10 UNL     1      20.155  24.309   4.425  1.00  0.00     0.246 C
HETATM   16  O3  UNL     1      20.344  24.171   5.636  1.00  0.00    -0.271 OA
ENDBRANCH   5   6
ENDBRANCH   2   5
BRANCH   3  17
HETATM   17  C11 UNL     1      16.311  22.470   5.903  1.00  0.00     0.034 C
HETATM   18  C12 UNL     1      15.381  23.026   6.957  1.00  0.00     0.035 C
HETATM   19  C13 UNL     1      14.481  21.927   7.439  1.00  0.00    -0.012 C
HETATM   20  C14 UNL     1      15.207  20.735   7.971  1.00  0.00     0.009 C
HETATM   21  C18 UNL     1      13.607  21.471   6.293  1.00  0.00     0.009 C
HETATM   22  C15 UNL     1      16.073  20.181   6.849  1.00  0.00    -0.012 C
HETATM   23  C16 UNL     1      15.238  19.747   5.691  1.00  0.00     0.009 C
HETATM   24  C20 UNL     1      17.031  21.290   6.462  1.00  0.00     0.035 C
HETATM   25  C17 UNL     1      14.477  20.949   5.179  1.00  0.00    -0.012 C
HETATM   26  C19 UNL     1      15.441  22.014   4.748  1.00  0.00     0.035 C
ENDBRANCH   3  17
TORSDOF 3
ENDMDL