MODEL 4
REMARK VINA RESULT: -8.184672948      0.154      1.466
REMARK  3 active torsions:
REMARK  status: ('A' for Active; 'I' for Inactive)
REMARK    1  A    between atoms: C2_3  and  N2_4
REMARK       I    between atoms: N2_4  and  C3_6
REMARK    2  A    between atoms: C3_6  and  C4_8
REMARK       I    between atoms: N3_12  and  C8_13
REMARK    3  A    between atoms: C8_13  and  C9_15
ROOT
HETATM    1  N1  UNL     1      15.854  25.335   9.346  1.00  0.00    -0.195 NA
HETATM    2  C1  UNL     1      15.995  26.105   8.496  1.00  0.00     0.091 C
HETATM    3  C2  UNL     1      16.199  27.103   7.411  1.00  0.00     0.122 A
HETATM    4  C19 UNL     1      17.185  28.191   7.820  1.00  0.00     0.050 A
HETATM    5  C20 UNL     1      15.683  28.445   7.689  1.00  0.00     0.050 A
ENDROOT
BRANCH   3   6
HETATM    6  N2  UNL     1      16.394  26.550   6.110  1.00  0.00    -0.337 N
HETATM    7  C3  UNL     1      17.319  25.544   5.751  1.00  0.00     0.242 C
HETATM    8  O1  UNL     1      18.056  25.069   6.641  1.00  0.00    -0.271 OA
ATOM      9  H2  UNL     1      15.805  26.919   5.363  1.00  0.00     0.164 HD
BRANCH   7  10
HETATM   10  C4  UNL     1      17.415  25.068   4.375  1.00  0.00     0.179 C
HETATM   11  C5  UNL     1      18.496  25.723   3.553  1.00  0.00     0.037 C
HETATM   12  C6  UNL     1      19.684  24.839   3.829  1.00  0.00     0.022 C
HETATM   13  C7  UNL     1      19.124  23.624   4.544  1.00  0.00     0.127 C
HETATM   14  N3  UNL     1      17.743  23.655   4.237  1.00  0.00    -0.338 N
HETATM   15  C8  UNL     1      16.786  22.672   3.881  1.00  0.00     0.229 C
HETATM   16  O2  UNL     1      15.586  23.094   3.687  1.00  0.00    -0.272 OA
BRANCH  15  17
HETATM   17  C9  UNL     1      16.927  21.252   3.693  1.00  0.00     0.042 C
HETATM   18  C10 UNL     1      15.784  20.521   3.081  1.00  0.00     0.024 C
HETATM   19  C11 UNL     1      16.166  19.073   2.865  1.00  0.00    -0.013 C
HETATM   20  C12 UNL     1      16.386  18.434   4.221  1.00  0.00     0.009 C
HETATM   21  C16 UNL     1      17.349  18.897   1.974  1.00  0.00     0.009 C
HETATM   22  C13 UNL     1      17.573  19.122   4.878  1.00  0.00    -0.013 C
HETATM   23  C14 UNL     1      18.781  18.889   4.020  1.00  0.00     0.009 C
HETATM   24  C18 UNL     1      17.234  20.595   5.022  1.00  0.00     0.024 C
HETATM   25  C15 UNL     1      18.523  19.562   2.693  1.00  0.00    -0.013 C
HETATM   26  C17 UNL     1      18.181  21.001   2.839  1.00  0.00     0.024 C
ENDBRANCH  15  17
ENDBRANCH   7  10
ENDBRANCH   3   6
TORSDOF 3
ENDMDL