MODEL 2
REMARK VINA RESULT: -6.024312256      0.417      1.013
REMARK  8 active torsions:
REMARK  status: ('A' for Active; 'I' for Inactive)
REMARK    1  A    between atoms: C2_2  and  N1_3
REMARK    2  A    between atoms: N1_3  and  C3_4
REMARK    3  A    between atoms: N1_3  and  C5_6
REMARK    4  A    between atoms: C5_6  and  C7_8
REMARK    5  A    between atoms: C8_9  and  C9_10
REMARK    6  A    between atoms: C12_13  and  C13_14
REMARK    7  A    between atoms: C14_15  and  C15_16
REMARK    8  A    between atoms: C17_18  and  N2_19
ROOT
HETATM    1  C9  UNL     1      22.839  24.366   0.416  1.00  0.00     0.017 A
HETATM    2  C10 UNL     1      21.509  24.224   0.086  1.00  0.00     0.022 A
HETATM    3  C11 UNL     1      20.521  24.253   1.042  1.00  0.00     0.022 A
HETATM    4  C12 UNL     1      20.829  24.431   2.388  1.00  0.00     0.018 A
HETATM    5  C21 UNL     1      22.141  24.575   2.733  1.00  0.00     0.022 A
HETATM    6  C22 UNL     1      23.119  24.541   1.754  1.00  0.00     0.022 A
ENDROOT
BRANCH   4   7
HETATM    7  C13 UNL     1      19.774  24.454   3.366  1.00  0.00    -0.060 C
HETATM    8  C14 UNL     1      18.879  24.450   4.201  1.00  0.00    -0.043 C
BRANCH   8   9
HETATM    9  C15 UNL     1      17.838  24.417   5.185  1.00  0.00     0.091 A
HETATM   10  C16 UNL     1      16.732  23.593   5.004  1.00  0.00     0.087 A
HETATM   11  C17 UNL     1      15.747  23.581   5.962  1.00  0.00     0.104 A
HETATM   12  N3  UNL     1      15.865  24.366   7.060  1.00  0.00    -0.333 N
HETATM   13  C19 UNL     1      16.915  25.145   7.229  1.00  0.00     0.079 A
ATOM     14  H3  UNL     1      15.129  24.354   7.767  1.00  0.00     0.168 HD
HETATM   15  C20 UNL     1      17.067  26.015   8.430  1.00  0.00     0.089 C
HETATM   16  N4  UNL     1      17.879  25.156   6.291  1.00  0.00    -0.339 N
ATOM     17  H4  UNL     1      18.686  25.764   6.435  1.00  0.00     0.168 HD
BRANCH  11  18
HETATM   18  N2  UNL     1      14.717  22.859   5.871  1.00  0.00    -0.381 N
HETATM   19  C18 UNL     1      14.112  22.047   6.853  1.00  0.00     0.147 C
ATOM     20  H2  UNL     1      14.258  22.862   4.961  1.00  0.00     0.160 HD
ENDBRANCH  11  18
ENDBRANCH   8   9
ENDBRANCH   4   7
BRANCH   1  21
HETATM   21  C8  UNL     1      23.875  24.328  -0.597  1.00  0.00    -0.065 C
HETATM   22  C7  UNL     1      24.734  24.294  -1.445  1.00  0.00    -0.065 C
BRANCH  22  23
HETATM   23  C5  UNL     1      25.805  24.277  -2.476  1.00  0.00     0.297 C
HETATM   24  C6  UNL     1      25.142  24.320  -3.793  1.00  0.00     0.056 C
BRANCH  23  25
HETATM   25  N1  UNL     1      26.751  25.289  -2.144  1.00  0.00     0.103 N
BRANCH  25  26
HETATM   26  C2  UNL     1      27.202  26.121  -3.213  1.00  0.00     0.269 C
HETATM   27  C1  UNL     1      27.911  27.377  -2.856  1.00  0.00     0.037 C
ENDBRANCH  25  26
BRANCH  25  28
HETATM   28  C3  UNL     1      27.908  24.523  -1.595  1.00  0.00     0.269 C
HETATM   29  C4  UNL     1      28.164  24.787  -0.159  1.00  0.00     0.037 C
ENDBRANCH  25  28
ENDBRANCH  23  25
ENDBRANCH  22  23
ENDBRANCH   1  21
TORSDOF 8
ENDMDL