MODEL 1
REMARK VINA RESULT: -7.368469043      0.000      0.000
REMARK  4 active torsions:
REMARK  status: ('A' for Active; 'I' for Inactive)
REMARK    1  A    between atoms: C2_2  and  C3_3
REMARK    2  A    between atoms: C3_3  and  N1_4
REMARK    3  A    between atoms: S1_14  and  N3_15
REMARK    4  A    between atoms: C15_21  and  O2_22
ROOT
HETATM    1  N1  UNL     1      15.862  26.352   6.968  1.00  0.00    -0.340 N
HETATM    2  C4  UNL     1      16.540  26.556   5.730  1.00  0.00     0.210 C
HETATM    3  C5  UNL     1      16.353  25.370   4.831  1.00  0.00     0.181 C
HETATM    4  O1  UNL     1      16.472  25.483   3.594  1.00  0.00    -0.290 OA
HETATM    5  C6  UNL     1      16.027  24.056   5.367  1.00  0.00     0.062 A
HETATM    6  C7  UNL     1      15.634  23.883   6.648  1.00  0.00     0.116 A
HETATM    7  N2  UNL     1      15.403  22.578   6.862  1.00  0.00    -0.353 N
ATOM      8  H2  UNL     1      15.095  22.162   7.741  1.00  0.00     0.166 HD
HETATM    9  C8  UNL     1      15.649  21.906   5.713  1.00  0.00     0.030 A
HETATM   10  C9  UNL     1      16.042  22.829   4.766  1.00  0.00     0.036 A
HETATM   11  S1  UNL     1      16.421  22.222   3.189  1.00  0.00    -0.142 SA
HETATM   12  C11 UNL     1      15.772  22.939   1.763  1.00  0.00     0.076 C
HETATM   13  C12 UNL     1      15.168  21.766   0.997  1.00  0.00     0.011 C
HETATM   14  C13 UNL     1      15.436  20.486   1.735  1.00  0.00     0.018 C
HETATM   15  C14 UNL     1      15.297  20.753   3.159  1.00  0.00     0.078 C
HETATM   16  C15 UNL     1      15.850  19.921   4.205  1.00  0.00     0.140 C
HETATM   17  C17 UNL     1      15.513  20.451   5.543  1.00  0.00     0.091 C
HETATM   18  C18 UNL     1      15.540  25.078   7.507  1.00  0.00     0.271 C
HETATM   19  O3  UNL     1      15.178  24.917   8.689  1.00  0.00    -0.266 OA
ENDROOT
BRANCH   1  20
HETATM   20  C3  UNL     1      15.477  27.550   7.724  1.00  0.00     0.126 C
BRANCH  20  21
HETATM   21  C2  UNL     1      16.695  28.009   8.502  1.00  0.00     0.015 C
HETATM   22  C1  UNL     1      17.107  29.397   8.070  1.00  0.00     0.006 C
ENDBRANCH  20  21
ENDBRANCH   1  20
BRANCH  11  23
HETATM   23  N3  UNL     1      18.065  21.711   3.127  1.00  0.00    -0.199 NA
HETATM   24  C10 UNL     1      18.940  22.408   4.010  1.00  0.00     0.144 C
ENDBRANCH  11  23
BRANCH  16  25
HETATM   25  O2  UNL     1      15.377  18.618   4.109  1.00  0.00    -0.389 OA
HETATM   26  C16 UNL     1      16.403  17.759   3.667  1.00  0.00     0.202 C
ENDBRANCH  16  25
TORSDOF 4
ENDMDL