MODEL 2
REMARK VINA RESULT: -7.039940068      1.511      1.904
REMARK  3 active torsions:
REMARK  status: ('A' for Active; 'I' for Inactive)
REMARK    1  A    between atoms: C4_4  and  C5_5
REMARK       I    between atoms: C5_5  and  N1_7
REMARK    2  A    between atoms: N1_7  and  N2_9
REMARK       I    between atoms: N3_17  and  C12_18
REMARK       I    between atoms: C12_18  and  N4_20
REMARK    3  A    between atoms: N4_20  and  C13_22
ROOT
HETATM    1  C1  UNL     1      16.404  20.376   6.655  1.00  0.00     0.032 C
HETATM    2  C2  UNL     1      17.225  20.910   5.456  1.00  0.00     0.085 C
HETATM    3  C3  UNL     1      17.769  19.716   4.771  1.00  0.00     0.039 C
HETATM    4  C4  UNL     1      17.893  19.815   3.299  1.00  0.00     0.083 C
HETATM    5  C10 UNL     1      17.288  21.022   2.648  1.00  0.00     0.034 C
HETATM    6  C11 UNL     1      15.956  21.307   3.365  1.00  0.00     0.129 C
HETATM    7  N3  UNL     1      16.416  21.784   4.686  1.00  0.00    -0.330 N
HETATM    8  C12 UNL     1      16.010  23.083   5.065  1.00  0.00     0.319 C
HETATM    9  O3  UNL     1      15.258  23.727   4.237  1.00  0.00    -0.247 OA
HETATM   10  N4  UNL     1      16.353  23.737   6.264  1.00  0.00    -0.338 N
ATOM     11  H4  UNL     1      16.952  23.257   6.936  1.00  0.00     0.164 HD
ENDROOT
BRANCH   4  12
HETATM   12  C5  UNL     1      19.297  19.621   2.843  1.00  0.00     0.240 C
HETATM   13  O1  UNL     1      19.669  20.263   1.844  1.00  0.00    -0.271 OA
HETATM   14  N1  UNL     1      20.151  18.749   3.515  1.00  0.00    -0.268 N
ATOM     15  H1  UNL     1      19.732  18.283   4.319  1.00  0.00     0.190 HD
BRANCH  14  16
HETATM   16  N2  UNL     1      21.451  18.414   3.281  1.00  0.00    -0.300 N
HETATM   17  C6  UNL     1      21.880  17.082   3.413  1.00  0.00     0.109 C
HETATM   18  C7  UNL     1      22.657  16.728   4.638  1.00  0.00     0.213 C
HETATM   19  O2  UNL     1      23.488  17.707   5.130  1.00  0.00    -0.384 OA
HETATM   20  C8  UNL     1      22.765  18.879   5.293  1.00  0.00     0.189 C
HETATM   21  C9  UNL     1      22.403  19.330   3.882  1.00  0.00     0.174 C
ENDBRANCH  14  16
ENDBRANCH   4  12
BRANCH  10  22
HETATM   22  C13 UNL     1      15.874  25.086   6.574  1.00  0.00     0.086 C
HETATM   23  C14 UNL     1      16.616  26.150   5.809  1.00  0.00     0.025 C
HETATM   24  C15 UNL     1      15.976  27.482   6.070  1.00  0.00     0.002 C
HETATM   25  C16 UNL     1      15.748  27.776   7.529  1.00  0.00     0.000 C
HETATM   26  C17 UNL     1      16.464  26.722   8.351  1.00  0.00     0.002 C
HETATM   27  C18 UNL     1      15.856  25.364   8.047  1.00  0.00     0.025 C
ENDBRANCH  10  22
TORSDOF 3
ENDMDL