MODEL 4
REMARK VINA RESULT: -6.825354190      2.926      3.795
REMARK  3 active torsions:
REMARK  status: ('A' for Active; 'I' for Inactive)
REMARK    1  A    between atoms: C2_2  and  C4_4
REMARK    2  A    between atoms: C4_4  and  C5_5
REMARK       I    between atoms: N1_13  and  C9_14
REMARK       I    between atoms: C9_14  and  N2_16
REMARK    3  A    between atoms: N2_16  and  C10_18
ROOT
HETATM    1  C5  UNL     1      16.671  25.613   7.090  1.00  0.00     0.130 C
HETATM    2  C6  UNL     1      16.344  24.997   8.417  1.00  0.00     0.194 C
HETATM    3  O1  UNL     1      14.995  24.775   8.470  1.00  0.00    -0.388 OA
HETATM    4  C7  UNL     1      14.752  23.418   8.516  1.00  0.00     0.184 C
HETATM    5  C8  UNL     1      14.526  22.784   7.201  1.00  0.00     0.190 C
HETATM    6  S1  UNL     1      15.612  23.183   5.913  1.00  0.00     0.238 S
HETATM    7  O2  UNL     1      16.592  22.022   5.773  1.00  0.00    -0.205 OA
HETATM    8  O3  UNL     1      14.871  23.238   4.610  1.00  0.00    -0.205 OA
HETATM    9  N1  UNL     1      16.542  24.600   6.065  1.00  0.00    -0.220 N
HETATM   10  C9  UNL     1      17.393  24.836   4.960  1.00  0.00     0.333 C
HETATM   11  O4  UNL     1      18.137  25.887   4.977  1.00  0.00    -0.246 OA
HETATM   12  N2  UNL     1      17.552  24.055   3.806  1.00  0.00    -0.321 N
ATOM     13  H2  UNL     1      16.998  23.203   3.724  1.00  0.00     0.166 HD
ENDROOT
BRANCH  12  14
HETATM   14  C10 UNL     1      18.458  24.387   2.720  1.00  0.00     0.185 C
HETATM   15  N3  UNL     1      18.155  23.726   1.495  1.00  0.00    -0.401 N
HETATM   16  C11 UNL     1      18.804  22.469   1.296  1.00  0.00     0.120 C
ATOM     17  H3  UNL     1      17.516  24.124   0.805  1.00  0.00     0.155 HD
HETATM   18  C12 UNL     1      20.297  22.545   1.193  1.00  0.00     0.003 C
HETATM   19  C13 UNL     1      20.874  22.043   2.496  1.00  0.00     0.007 C
HETATM   20  C17 UNL     1      20.820  23.926   0.916  1.00  0.00     0.007 C
HETATM   21  C14 UNL     1      20.241  22.852   3.614  1.00  0.00     0.009 C
HETATM   22  C15 UNL     1      19.877  24.233   3.184  1.00  0.00     0.028 C
HETATM   23  C16 UNL     1      20.862  24.764   2.175  1.00  0.00     0.009 C
ENDBRANCH  12  14
BRANCH   1  24
HETATM   24  C4  UNL     1      16.111  26.941   6.844  1.00  0.00     0.032 C
BRANCH  24  25
HETATM   25  C2  UNL     1      15.915  27.895   7.953  1.00  0.00    -0.021 C
HETATM   26  C1  UNL     1      16.921  29.061   7.776  1.00  0.00     0.009 C
HETATM   27  C3  UNL     1      14.572  28.587   7.942  1.00  0.00     0.009 C
ENDBRANCH  24  25
ENDBRANCH   1  24
TORSDOF 3
ENDMDL