MODEL 5
REMARK VINA RESULT: -6.376598653      2.490      3.492
REMARK  3 active torsions:
REMARK  status: ('A' for Active; 'I' for Inactive)
REMARK    1  A    between atoms: C7_10  and  C8_11
REMARK       I    between atoms: C8_11  and  N2_13
REMARK    2  A    between atoms: N2_13  and  C9_15
REMARK    3  A    between atoms: N3_22  and  C16_23
ROOT
HETATM    1  C9  UNL     1      15.697  21.344   2.942  1.00  0.00     0.088 C
HETATM    2  C10 UNL     1      16.855  22.213   2.518  1.00  0.00     0.061 C
HETATM    3  C11 UNL     1      17.613  22.631   3.775  1.00  0.00     0.226 C
HETATM    4  C12 UNL     1      17.905  21.398   4.601  1.00  0.00     0.038 C
HETATM    5  C13 UNL     1      16.780  21.306   5.572  1.00  0.00     0.038 C
HETATM    6  C14 UNL     1      15.889  22.476   5.182  1.00  0.00     0.226 C
HETATM    7  C15 UNL     1      14.924  21.913   4.122  1.00  0.00     0.061 C
HETATM    8  N3  UNL     1      16.682  23.428   4.531  1.00  0.00     0.102 N
ENDROOT
BRANCH   1   9
HETATM    9  N2  UNL     1      14.823  21.195   1.798  1.00  0.00    -0.356 N
HETATM   10  C8  UNL     1      14.296  19.931   1.412  1.00  0.00     0.223 C
HETATM   11  O2  UNL     1      14.621  18.937   2.110  1.00  0.00    -0.273 OA
ATOM     12  H2  UNL     1      14.578  22.020   1.252  1.00  0.00     0.162 HD
BRANCH  10  13
HETATM   13  C7  UNL     1      13.386  19.779   0.221  1.00  0.00     0.090 C
HETATM   14  C2  UNL     1      14.081  20.016  -1.068  1.00  0.00     0.087 C
HETATM   15  C1  UNL     1      13.225  20.799  -2.070  1.00  0.00     0.020 C
HETATM   16  C3  UNL     1      14.711  18.851  -1.700  1.00  0.00     0.222 C
HETATM   17  O1  UNL     1      15.618  19.194  -2.543  1.00  0.00    -0.273 OA
HETATM   18  N1  UNL     1      14.485  17.479  -1.532  1.00  0.00    -0.361 N
HETATM   19  C4  UNL     1      13.252  16.801  -1.216  1.00  0.00     0.122 C
ATOM     20  H1  UNL     1      15.302  16.880  -1.647  1.00  0.00     0.162 HD
HETATM   21  C5  UNL     1      12.205  17.819  -0.868  1.00  0.00     0.020 C
HETATM   22  C6  UNL     1      12.651  18.509   0.383  1.00  0.00     0.016 C
ENDBRANCH  10  13
ENDBRANCH   1   9
BRANCH   8  23
HETATM   23  C16 UNL     1      17.235  24.525   5.188  1.00  0.00     0.228 C
HETATM   24  C17 UNL     1      16.571  25.104   6.372  1.00  0.00     0.062 C
HETATM   25  C18 UNL     1      15.646  26.261   6.048  1.00  0.00     0.169 C
HETATM   26  O3  UNL     1      16.473  27.258   5.470  1.00  0.00    -0.391 OA
HETATM   27  C19 UNL     1      16.725  26.798   4.187  1.00  0.00     0.169 C
HETATM   28  C20 UNL     1      17.599  25.598   4.175  1.00  0.00     0.062 C
ENDBRANCH   8  23
TORSDOF 3
ENDMDL