MODEL 1
REMARK VINA RESULT: -7.962480417      0.000      0.000
REMARK  5 active torsions:
REMARK  status: ('A' for Active; 'I' for Inactive)
REMARK    1  A    between atoms: C4_5  and  C5_6
REMARK    2  A    between atoms: C5_6  and  O1_7
REMARK    3  A    between atoms: C12_18  and  O3_19
REMARK    4  A    between atoms: O3_19  and  C13_20
REMARK    5  A    between atoms: C13_20  and  C14_22
ROOT
HETATM    1  C1  UNL     1      19.474  20.401   2.422  1.00  0.00     0.148 C
HETATM    2  N1  UNL     1      18.246  21.103   2.552  1.00  0.00    -0.395 N
HETATM    3  C2  UNL     1      17.076  20.341   2.096  1.00  0.00     0.148 C
HETATM    4  C3  UNL     1      18.098  22.297   2.987  1.00  0.00    -0.005 C
HETATM    5  C4  UNL     1      19.228  23.120   3.413  1.00  0.00     0.059 C
HETATM    6  C6  UNL     1      18.721  24.462   3.946  1.00  0.00    -0.002 C
HETATM    7  C7  UNL     1      17.835  25.144   2.936  1.00  0.00     0.006 C
HETATM    8  C8  UNL     1      16.732  24.278   2.437  1.00  0.00     0.011 C
HETATM    9  C9  UNL     1      16.745  22.895   3.109  1.00  0.00     0.045 C
HETATM   10  C10 UNL     1      16.210  23.048   4.452  1.00  0.00     0.095 C
HETATM   11  C11 UNL     1      16.549  22.120   5.515  1.00  0.00     0.225 C
HETATM   12  O2  UNL     1      17.146  21.038   5.629  1.00  0.00    -0.273 OA
HETATM   13  N2  UNL     1      15.990  22.730   6.710  1.00  0.00    -0.333 N
ATOM     14  H2  UNL     1      15.708  22.240   7.558  1.00  0.00     0.165 HD
HETATM   15  C12 UNL     1      15.903  24.164   6.480  1.00  0.00     0.237 C
HETATM   16  C19 UNL     1      16.595  24.365   5.141  1.00  0.00     0.049 C
HETATM   17  C20 UNL     1      18.102  24.329   5.292  1.00  0.00     0.015 C
ENDROOT
BRANCH  15  18
HETATM   18  O3  UNL     1      16.465  24.925   7.498  1.00  0.00    -0.295 OA
BRANCH  18  19
HETATM   19  C13 UNL     1      15.775  25.769   8.339  1.00  0.00     0.265 C
HETATM   20  O4  UNL     1      15.211  25.246   9.334  1.00  0.00    -0.265 OA
BRANCH  19  21
HETATM   21  C14 UNL     1      15.660  27.220   8.151  1.00  0.00     0.085 C
HETATM   22  C15 UNL     1      15.662  27.583   6.685  1.00  0.00     0.014 C
HETATM   23  C16 UNL     1      16.655  28.727   6.537  1.00  0.00     0.001 C
HETATM   24  C17 UNL     1      16.832  29.251   7.962  1.00  0.00     0.001 C
HETATM   25  C18 UNL     1      16.793  27.981   8.794  1.00  0.00     0.014 C
ENDBRANCH  19  21
ENDBRANCH  18  19
ENDBRANCH  15  18
BRANCH   5  26
HETATM   26  C5  UNL     1      20.235  23.472   2.346  1.00  0.00     0.175 C
BRANCH  26  27
HETATM   27  O1  UNL     1      21.221  24.236   3.035  1.00  0.00    -0.400 OA
ATOM     28  H1  UNL     1      21.472  24.908   2.412  1.00  0.00     0.209 HD
ENDBRANCH  26  27
ENDBRANCH   5  26
TORSDOF 5
ENDMDL