MODEL 1
REMARK VINA RESULT: -8.133863782      0.000      0.000
REMARK  3 active torsions:
REMARK  status: ('A' for Active; 'I' for Inactive)
REMARK       I    between atoms: C1_2  and  N1_3
REMARK       I    between atoms: C1_2  and  N3_20
REMARK    1  A    between atoms: N1_3  and  C2_5
REMARK    2  A    between atoms: N2_15  and  C11_16
REMARK    3  A    between atoms: C11_16  and  C12_17
ROOT
HETATM    1  C2  UNL     1      16.893  22.709   4.158  1.00  0.00     0.190 C
HETATM    2  C3  UNL     1      16.832  23.140   2.715  1.00  0.00     0.056 C
HETATM    3  C4  UNL     1      17.394  24.548   2.516  1.00  0.00     0.176 C
HETATM    4  O2  UNL     1      18.725  24.643   2.765  1.00  0.00    -0.390 OA
HETATM    5  C5  UNL     1      19.576  24.165   1.829  1.00  0.00     0.172 C
HETATM    6  C6  UNL     1      19.317  22.837   1.269  1.00  0.00     0.016 C
HETATM    7  C7  UNL     1      18.007  22.708   0.529  1.00  0.00     0.012 C
HETATM    8  C8  UNL     1      17.420  22.135   1.794  1.00  0.00     0.002 C
HETATM    9  C9  UNL     1      18.849  21.776   2.190  1.00  0.00     0.014 C
HETATM   10  C10 UNL     1      19.119  21.895   3.640  1.00  0.00     0.124 C
HETATM   11  N2  UNL     1      17.986  21.880   4.500  1.00  0.00    -0.391 N
ENDROOT
BRANCH   1  12
HETATM   12  N1  UNL     1      16.823  23.842   5.062  1.00  0.00    -0.320 N
HETATM   13  C1  UNL     1      16.021  23.833   6.236  1.00  0.00     0.336 C
HETATM   14  O1  UNL     1      15.356  22.795   6.480  1.00  0.00    -0.246 OA
HETATM   15  N3  UNL     1      15.958  24.928   7.102  1.00  0.00    -0.240 N
HETATM   16  N4  UNL     1      15.289  25.218   8.294  1.00  0.00    -0.127 NA
HETATM   17  C20 UNL     1      16.565  26.229   7.131  1.00  0.00     0.130 C
HETATM   18  C15 UNL     1      16.302  26.200   8.617  1.00  0.00     0.124 C
HETATM   19  C16 UNL     1      15.780  27.555   9.021  1.00  0.00     0.025 C
HETATM   20  C17 UNL     1      16.663  28.622   8.406  1.00  0.00     0.002 C
HETATM   21  C18 UNL     1      16.450  28.648   6.901  1.00  0.00     0.002 C
HETATM   22  C19 UNL     1      15.824  27.329   6.433  1.00  0.00     0.029 C
ATOM     23  H1  UNL     1      17.370  24.676   4.847  1.00  0.00     0.166 HD
ENDBRANCH   1  12
BRANCH  11  24
HETATM   24  C11 UNL     1      17.578  20.580   4.961  1.00  0.00     0.123 C
BRANCH  24  25
HETATM   25  C12 UNL     1      16.260  20.123   4.444  1.00  0.00     0.003 A
HETATM   26  C13 UNL     1      15.919  18.692   4.331  1.00  0.00     0.007 A
HETATM   27  C14 UNL     1      15.327  19.446   5.462  1.00  0.00     0.007 A
ENDBRANCH  24  25
ENDBRANCH  11  24
TORSDOF 3
ENDMDL