MODEL 1
REMARK VINA RESULT: -7.458633313      0.000      0.000
REMARK  7 active torsions:
REMARK  status: ('A' for Active; 'I' for Inactive)
REMARK    1  A    between atoms: N1_2  and  C2_4
REMARK    2  A    between atoms: C2_4  and  N2_6
REMARK    3  A    between atoms: N2_6  and  C3_8
REMARK       I    between atoms: N3_10  and  C5_11
REMARK    4  A    between atoms: C5_11  and  O2_13
REMARK    5  A    between atoms: O2_13  and  C6_14
REMARK    6  A    between atoms: C11_19  and  N4_20
REMARK       I    between atoms: N4_20  and  C13_22
REMARK    7  A    between atoms: C13_22  and  C14_24
ROOT
HETATM    1  C3  UNL     1      16.731  23.476   4.870  1.00  0.00     0.126 C
HETATM    2  C4  UNL     1      17.579  22.609   3.970  1.00  0.00     0.155 C
HETATM    3  N3  UNL     1      18.828  23.340   3.772  1.00  0.00    -0.324 N
HETATM    4  C5  UNL     1      20.035  22.817   3.299  1.00  0.00     0.363 C
HETATM    5  O1  UNL     1      20.127  21.582   2.988  1.00  0.00    -0.238 OA
HETATM    6  C10 UNL     1      18.591  24.742   4.163  1.00  0.00     0.155 C
HETATM    7  C11 UNL     1      17.688  24.540   5.322  1.00  0.00     0.129 C
ENDROOT
BRANCH   7   8
HETATM    8  N4  UNL     1      17.063  25.734   5.852  1.00  0.00    -0.348 N
HETATM    9  C12 UNL     1      16.250  26.482   4.917  1.00  0.00     0.153 C
HETATM   10  C13 UNL     1      17.195  26.161   7.173  1.00  0.00     0.224 C
HETATM   11  O3  UNL     1      17.910  25.379   7.918  1.00  0.00    -0.273 OA
BRANCH  10  12
HETATM   12  C14 UNL     1      16.668  27.332   7.849  1.00  0.00     0.078 C
HETATM   13  C15 UNL     1      15.568  27.219   8.831  1.00  0.00     0.014 C
HETATM   14  C16 UNL     1      14.954  28.500   8.250  1.00  0.00     0.002 C
HETATM   15  C17 UNL     1      15.911  28.354   7.069  1.00  0.00     0.014 C
ENDBRANCH  10  12
ENDBRANCH   7   8
BRANCH   1  16
HETATM   16  N2  UNL     1      16.195  22.741   6.009  1.00  0.00    -0.359 N
ATOM     17  H2  UNL     1      16.458  23.065   6.940  1.00  0.00     0.162 HD
BRANCH  16  18
HETATM   18  C2  UNL     1      15.350  21.628   5.932  1.00  0.00     0.167 C
HETATM   19  S1  UNL     1      15.901  20.180   6.424  1.00  0.00    -0.041 SA
BRANCH  18  20
HETATM   20  N1  UNL     1      14.049  21.734   5.441  1.00  0.00    -0.372 N
HETATM   21  C1  UNL     1      12.914  21.607   6.329  1.00  0.00     0.148 C
ATOM     22  H1  UNL     1      13.896  21.902   4.447  1.00  0.00     0.161 HD
ENDBRANCH  18  20
ENDBRANCH  16  18
ENDBRANCH   1  16
BRANCH   4  23
HETATM   23  O2  UNL     1      21.195  23.553   3.128  1.00  0.00    -0.294 OA
BRANCH  23  24
HETATM   24  C6  UNL     1      21.693  23.953   1.884  1.00  0.00     0.061 C
HETATM   25  C7  UNL     1      22.336  22.836   1.102  1.00  0.00     0.046 C
HETATM   26  C8  UNL     1      20.668  24.607   1.007  1.00  0.00     0.046 C
HETATM   27  C9  UNL     1      22.790  24.986   2.160  1.00  0.00     0.046 C
ENDBRANCH  23  24
ENDBRANCH   4  23
TORSDOF 7
ENDMDL