MODEL 4
REMARK VINA RESULT: -6.139687724      3.221      5.895
REMARK  4 active torsions:
REMARK  status: ('A' for Active; 'I' for Inactive)
REMARK    1  A    between atoms: C3_5  and  N2_6
REMARK       I    between atoms: N2_6  and  C4_8
REMARK    2  A    between atoms: C4_8  and  C5_10
REMARK    3  A    between atoms: C5_10  and  N3_11
REMARK    4  A    between atoms: C11_21  and  C12_22
ROOT
HETATM    1  N3  UNL     1      16.584  22.975   5.185  1.00  0.00    -0.338 N
HETATM    2  C6  UNL     1      15.703  23.614   6.139  1.00  0.00     0.172 C
HETATM    3  S1  UNL     1      16.158  25.014   6.890  1.00  0.00    -0.041 SA
HETATM    4  N4  UNL     1      14.431  23.093   6.477  1.00  0.00    -0.351 N
ATOM      5  H4  UNL     1      13.669  23.701   6.775  1.00  0.00     0.163 HD
HETATM    6  C7  UNL     1      14.258  21.657   6.379  1.00  0.00     0.088 C
HETATM    7  C8  UNL     1      14.858  21.072   7.655  1.00  0.00     0.046 C
HETATM    8  C9  UNL     1      12.799  21.276   6.288  1.00  0.00     0.046 C
HETATM    9  C10 UNL     1      14.967  21.208   5.169  1.00  0.00     0.177 C
HETATM   10  O2  UNL     1      14.392  20.481   4.379  1.00  0.00    -0.293 OA
HETATM   11  C11 UNL     1      16.377  21.601   4.850  1.00  0.00     0.162 C
ENDROOT
BRANCH   1  12
HETATM   12  C5  UNL     1      17.616  23.791   4.634  1.00  0.00     0.229 C
BRANCH  12  13
HETATM   13  C4  UNL     1      17.455  24.103   3.207  1.00  0.00     0.241 C
HETATM   14  N2  UNL     1      16.303  23.738   2.440  1.00  0.00    -0.306 N
ATOM     15  H2  UNL     1      15.384  23.639   2.871  1.00  0.00     0.171 HD
HETATM   16  O1  UNL     1      18.388  24.725   2.634  1.00  0.00    -0.271 OA
BRANCH  14  17
HETATM   17  C3  UNL     1      16.487  23.537   1.153  1.00  0.00     0.151 A
HETATM   18  N1  UNL     1      17.568  23.053   0.541  1.00  0.00    -0.339 N
HETATM   19  C2  UNL     1      17.542  22.929  -0.768  1.00  0.00     0.020 A
ATOM     20  H1  UNL     1      18.394  22.785   1.075  1.00  0.00     0.168 HD
HETATM   21  C1  UNL     1      18.721  22.386  -1.578  1.00  0.00     0.069 C
HETATM   22  C15 UNL     1      16.392  23.314  -1.413  1.00  0.00     0.004 A
HETATM   23  S2  UNL     1      15.408  23.829  -0.129  1.00  0.00    -0.057 SA
HETATM   24  C16 UNL     1      16.095  23.280  -2.890  1.00  0.00     0.058 C
ENDBRANCH  14  17
ENDBRANCH  12  13
ENDBRANCH   1  12
BRANCH  11  25
HETATM   25  C12 UNL     1      17.264  20.607   5.510  1.00  0.00     0.008 C
HETATM   26  C13 UNL     1      16.860  19.235   4.941  1.00  0.00     0.012 C
HETATM   27  C14 UNL     1      18.734  20.745   5.125  1.00  0.00     0.012 C
ENDBRANCH  11  25
TORSDOF 4
ENDMDL