MODEL 1
REMARK VINA RESULT: -7.889111783      0.000      0.000
REMARK  5 active torsions:
REMARK  status: ('A' for Active; 'I' for Inactive)
REMARK    1  A    between atoms: C2_2  and  C5_5
REMARK    2  A    between atoms: C7_7  and  C8_8
REMARK    3  A    between atoms: C8_8  and  C9_9
REMARK    4  A    between atoms: C11_12  and  N1_13
REMARK    5  A    between atoms: N3_20  and  C13_21
ROOT
HETATM    1  C9  UNL     1      17.010  23.231   4.182  1.00  0.00     0.082 A
HETATM    2  S1  UNL     1      16.967  23.052   2.470  1.00  0.00    -0.065 SA
HETATM    3  C10 UNL     1      15.740  21.875   2.385  1.00  0.00     0.092 A
HETATM    4  C11 UNL     1      15.206  21.278   1.302  1.00  0.00     0.131 C
HETATM    5  C12 UNL     1      15.427  21.680   3.698  1.00  0.00     0.267 A
HETATM    6  O1  UNL     1      14.497  20.816   3.977  1.00  0.00    -0.266 OA
HETATM    7  N3  UNL     1      16.076  22.372   4.595  1.00  0.00    -0.302 N
ENDROOT
BRANCH   1   8
HETATM    8  C8  UNL     1      17.804  24.057   4.896  1.00  0.00     0.068 C
BRANCH   8   9
HETATM    9  C7  UNL     1      17.150  25.250   5.455  1.00  0.00     0.052 A
HETATM   10  C6  UNL     1      17.047  25.685   6.740  1.00  0.00     0.058 A
HETATM   11  C5  UNL     1      16.322  26.869   6.719  1.00  0.00     0.035 A
HETATM   12  N5  UNL     1      16.007  27.119   5.431  1.00  0.00    -0.304 N
HETATM   13  N4  UNL     1      16.501  26.155   4.693  1.00  0.00    -0.301 N
ATOM     14  H5  UNL     1      15.475  27.920   5.089  1.00  0.00     0.186 HD
ATOM     15  H4  UNL     1      16.408  26.097   3.679  1.00  0.00     0.187 HD
BRANCH  11  16
HETATM   16  C2  UNL     1      15.953  27.709   7.870  1.00  0.00    -0.007 C
HETATM   17  C1  UNL     1      16.937  28.836   8.107  1.00  0.00     0.021 C
HETATM   18  C3  UNL     1      15.841  26.803   9.089  1.00  0.00     0.021 C
HETATM   19  C4  UNL     1      14.594  28.348   7.663  1.00  0.00     0.021 C
ENDBRANCH  11  16
ENDBRANCH   8   9
ENDBRANCH   1   8
BRANCH   7  20
HETATM   20  C13 UNL     1      15.799  22.227   6.049  1.00  0.00     0.094 C
HETATM   21  C14 UNL     1      16.013  20.829   6.535  1.00  0.00     0.026 C
HETATM   22  C15 UNL     1      14.849  20.254   7.304  1.00  0.00     0.002 C
HETATM   23  C16 UNL     1      14.202  21.194   8.261  1.00  0.00     0.000 C
HETATM   24  C17 UNL     1      14.266  22.641   7.878  1.00  0.00     0.002 C
HETATM   25  C18 UNL     1      14.379  22.711   6.348  1.00  0.00     0.026 C
ENDBRANCH   7  20
BRANCH   4  26
HETATM   26  N1  UNL     1      14.182  20.312   1.434  1.00  0.00    -0.317 N
HETATM   27  N2  UNL     1      14.500  19.085   1.384  1.00  0.00    -0.345 N
ATOM     28  H22 UNL     1      15.476  18.819   1.253  1.00  0.00     0.176 HD
ATOM     29  H21 UNL     1      13.761  18.389   1.480  1.00  0.00     0.176 HD
ATOM     30  H1  UNL     1      13.211  20.595   1.565  1.00  0.00     0.185 HD
ENDBRANCH   4  26
TORSDOF 5
ENDMDL