MODEL 3
REMARK VINA RESULT: -7.401492524      2.835      3.437
REMARK  4 active torsions:
REMARK  status: ('A' for Active; 'I' for Inactive)
REMARK    1  A    between atoms: C2_2  and  C3_3
REMARK    2  A    between atoms: C5_5  and  C6_6
REMARK       I    between atoms: C6_6  and  N1_8
REMARK    3  A    between atoms: C15_20  and  O2_21
REMARK    4  A    between atoms: O2_21  and  C16_22
REMARK       I    between atoms: C16_22  and  N3_24
ROOT
HETATM    1  C3  UNL     1      14.114  22.047   6.870  1.00  0.00     0.016 C
HETATM    2  C4  UNL     1      14.715  20.765   6.386  1.00  0.00     0.021 C
HETATM    3  C5  UNL     1      15.829  21.181   5.461  1.00  0.00     0.081 C
HETATM    4  C14 UNL     1      16.284  22.547   5.916  1.00  0.00     0.047 C
HETATM    5  C15 UNL     1      15.156  23.134   6.734  1.00  0.00     0.138 C
ENDROOT
BRANCH   3   6
HETATM    6  C6  UNL     1      16.917  20.207   5.374  1.00  0.00     0.224 C
HETATM    7  O1  UNL     1      16.619  18.997   5.691  1.00  0.00    -0.273 OA
HETATM    8  N1  UNL     1      18.237  20.508   4.974  1.00  0.00    -0.343 N
HETATM    9  C7  UNL     1      18.960  21.679   4.561  1.00  0.00     0.161 C
HETATM   10  C13 UNL     1      19.460  19.769   4.802  1.00  0.00     0.119 C
HETATM   11  C8  UNL     1      19.790  20.769   3.682  1.00  0.00     0.226 C
HETATM   12  N2  UNL     1      21.198  20.966   3.701  1.00  0.00    -0.067 N
HETATM   13  C9  UNL     1      21.805  19.759   3.114  1.00  0.00     0.233 C
ATOM     14  H22 UNL     1      21.490  21.827   3.240  1.00  0.00     0.277 HD
ATOM     15  H21 UNL     1      21.560  21.187   4.629  1.00  0.00     0.277 HD
HETATM   16  C10 UNL     1      21.854  18.710   4.170  1.00  0.00     0.027 C
HETATM   17  C11 UNL     1      20.688  17.761   4.146  1.00  0.00     0.004 C
HETATM   18  C12 UNL     1      19.356  18.424   4.168  1.00  0.00     0.027 C
ENDBRANCH   3   6
BRANCH   1  19
HETATM   19  C2  UNL     1      13.513  21.969   8.233  1.00  0.00     0.002 C
HETATM   20  C1  UNL     1      13.975  20.833   9.074  1.00  0.00     0.005 C
ENDBRANCH   1  19
BRANCH   5  21
HETATM   21  O2  UNL     1      14.643  24.309   6.179  1.00  0.00    -0.298 OA
BRANCH  21  22
HETATM   22  C16 UNL     1      15.439  25.424   5.982  1.00  0.00     0.364 C
HETATM   23  O3  UNL     1      15.745  25.702   4.792  1.00  0.00    -0.238 OA
HETATM   24  N3  UNL     1      15.909  26.239   7.035  1.00  0.00    -0.302 N
HETATM   25  C17 UNL     1      16.741  27.420   6.941  1.00  0.00     0.157 C
HETATM   26  C19 UNL     1      15.626  26.018   8.434  1.00  0.00     0.361 C
HETATM   27  C18 UNL     1      16.367  28.178   8.202  1.00  0.00     0.254 C
HETATM   28  N4  UNL     1      16.280  27.074   9.164  1.00  0.00    -0.058 N
ATOM     29  H42 UNL     1      17.174  26.806   9.574  1.00  0.00     0.279 HD
ATOM     30  H41 UNL     1      15.822  27.320  10.042  1.00  0.00     0.279 HD
ENDBRANCH  21  22
ENDBRANCH   5  21
TORSDOF 4
ENDMDL