MODEL 3
REMARK VINA RESULT: -5.857632812      1.383      1.666
REMARK  6 active torsions:
REMARK  status: ('A' for Active; 'I' for Inactive)
REMARK    1  A    between atoms: N1_2  and  C3_4
REMARK    2  A    between atoms: C3_4  and  N2_6
REMARK    3  A    between atoms: N2_6  and  C4_8
REMARK    4  A    between atoms: C4_8  and  C5_9
REMARK    5  A    between atoms: C5_9  and  C6_10
REMARK    6  A    between atoms: C6_10  and  N3_11
REMARK       I    between atoms: N3_11  and  C7_13
REMARK       I    between atoms: C7_13  and  N4_15
ROOT
HETATM    1  N3  UNL     1      14.015  22.585   6.183  1.00  0.00    -0.343 N
ATOM      2  H3  UNL     1      14.272  22.768   5.212  1.00  0.00     0.164 HD
HETATM    3  C7  UNL     1      14.522  23.435   7.185  1.00  0.00     0.318 C
HETATM    4  O1  UNL     1      14.223  23.216   8.382  1.00  0.00    -0.247 OA
HETATM    5  N4  UNL     1      15.357  24.532   6.910  1.00  0.00    -0.327 N
HETATM    6  C8  UNL     1      15.824  24.964   5.614  1.00  0.00     0.140 C
HETATM    7  C9  UNL     1      16.799  26.085   5.904  1.00  0.00     0.077 C
HETATM    8  C10 UNL     1      17.325  25.610   7.273  1.00  0.00     0.041 C
HETATM    9  C11 UNL     1      15.913  25.440   7.873  1.00  0.00     0.111 C
HETATM   10  C12 UNL     1      15.383  26.835   7.632  1.00  0.00     0.150 C
HETATM   11 BR1  UNL     1      15.727  28.040   9.069  1.00  0.00    -0.081 Br
HETATM   12  C13 UNL     1      16.013  27.256   6.345  1.00  0.00     0.149 C
HETATM   13  O2  UNL     1      15.930  28.311   5.751  1.00  0.00    -0.296 OA
ENDROOT
BRANCH   1  14
HETATM   14  C6  UNL     1      13.153  21.472   6.462  1.00  0.00     0.126 C
BRANCH  14  15
HETATM   15  C5  UNL     1      13.922  20.190   6.415  1.00  0.00     0.039 C
BRANCH  15  16
HETATM   16  C4  UNL     1      15.394  20.391   6.735  1.00  0.00     0.123 C
BRANCH  16  17
HETATM   17  N2  UNL     1      16.176  19.665   5.750  1.00  0.00    -0.367 N
ATOM     18  H2  UNL     1      16.773  18.895   6.052  1.00  0.00     0.161 HD
BRANCH  17  19
HETATM   19  C3  UNL     1      16.125  20.010   4.375  1.00  0.00     0.169 C
HETATM   20  S1  UNL     1      15.666  18.892   3.297  1.00  0.00    -0.041 SA
BRANCH  19  21
HETATM   21  N1  UNL     1      16.468  21.309   3.961  1.00  0.00    -0.367 N
HETATM   22  C1  UNL     1      17.695  21.915   4.425  1.00  0.00     0.151 C
HETATM   23  C2  UNL     1      15.591  22.031   3.073  1.00  0.00     0.151 C
ENDBRANCH  19  21
ENDBRANCH  17  19
ENDBRANCH  16  17
ENDBRANCH  15  16
ENDBRANCH  14  15
ENDBRANCH   1  14
TORSDOF 6
ENDMDL