MODEL 2
REMARK VINA RESULT: -6.386089277      2.685      4.271
REMARK  5 active torsions:
REMARK  status: ('A' for Active; 'I' for Inactive)
REMARK       I    between atoms: C2_2  and  N1_4
REMARK       I    between atoms: N2_8  and  C6_9
REMARK    1  A    between atoms: C6_9  and  C7_11
REMARK    2  A    between atoms: C7_11  and  O3_12
REMARK    3  A    between atoms: C9_16  and  C10_17
REMARK       I    between atoms: C10_17  and  N3_19
REMARK    4  A    between atoms: N3_19  and  C11_21
REMARK    5  A    between atoms: C11_21  and  C12_22
ROOT
HETATM    1  C1  UNL     1      13.466  20.654   7.648  1.00  0.00     0.117 C
HETATM    2  C2  UNL     1      13.100  21.559   6.509  1.00  0.00     0.216 C
HETATM    3  O1  UNL     1      11.910  21.479   6.082  1.00  0.00    -0.274 OA
HETATM    4  N1  UNL     1      14.053  22.422   5.980  1.00  0.00    -0.336 N
HETATM    5  C3  UNL     1      13.841  23.351   4.880  1.00  0.00     0.135 C
HETATM    6  C4  UNL     1      15.208  23.459   4.221  1.00  0.00     0.047 A
HETATM    7  C5  UNL     1      15.434  22.281   3.353  1.00  0.00     0.134 A
HETATM    8  N2  UNL     1      16.489  21.821   4.249  1.00  0.00    -0.341 N
HETATM    9  C6  UNL     1      17.372  20.713   4.130  1.00  0.00     0.259 C
HETATM   10  O2  UNL     1      17.240  19.971   3.097  1.00  0.00    -0.269 OA
HETATM   11  C8  UNL     1      16.210  22.889   5.156  1.00  0.00     0.126 A
HETATM   12  C9  UNL     1      15.429  22.578   6.402  1.00  0.00     0.202 C
ENDROOT
BRANCH  12  13
HETATM   13  C10 UNL     1      15.505  23.779   7.273  1.00  0.00     0.242 C
HETATM   14  O4  UNL     1      14.644  23.921   8.170  1.00  0.00    -0.271 OA
HETATM   15  N3  UNL     1      16.527  24.718   7.076  1.00  0.00    -0.359 N
ATOM     16  H3  UNL     1      17.185  24.526   6.320  1.00  0.00     0.162 HD
BRANCH  15  17
HETATM   17  C11 UNL     1      16.744  25.927   7.833  1.00  0.00     0.126 C
BRANCH  17  18
HETATM   18  C12 UNL     1      15.794  26.990   7.352  1.00  0.00    -0.005 C
HETATM   19  C13 UNL     1      16.259  28.303   7.992  1.00  0.00     0.011 C
HETATM   20  C14 UNL     1      15.841  27.136   5.840  1.00  0.00     0.011 C
ENDBRANCH  17  18
ENDBRANCH  15  17
ENDBRANCH  12  13
BRANCH   9  21
HETATM   21  C7  UNL     1      18.409  20.384   5.114  1.00  0.00     0.281 C
HETATM   22 BR1  UNL     1      19.575  18.969   4.489  1.00  0.00    -0.051 Br
BRANCH  21  23
HETATM   23  O3  UNL     1      19.136  21.471   5.567  1.00  0.00    -0.375 OA
ATOM     24  H3  UNL     1      19.291  22.141   4.911  1.00  0.00     0.211 HD
ENDBRANCH  21  23
ENDBRANCH   9  21
TORSDOF 5
ENDMDL