MODEL 5
REMARK VINA RESULT: -5.435793754      2.546      4.825
REMARK  4 active torsions:
REMARK  status: ('A' for Active; 'I' for Inactive)
REMARK    1  A    between atoms: C3_3  and  N1_4
REMARK       I    between atoms: N1_4  and  C4_6
REMARK    2  A    between atoms: C4_6  and  C5_8
REMARK    3  A    between atoms: C5_8  and  C6_9
REMARK    4  A    between atoms: C9_12  and  C10_13
ROOT
HETATM    1  C1  UNL     1      17.006  23.050  -0.772  1.00  0.00     0.098 C
HETATM    2  C2  UNL     1      16.114  23.140   0.064  1.00  0.00    -0.168 C
HETATM    3  C3  UNL     1      15.036  23.261   1.037  1.00  0.00     0.202 C
ENDROOT
BRANCH   3   4
HETATM    4  N1  UNL     1      15.505  22.777   2.312  1.00  0.00    -0.349 N
HETATM    5  C4  UNL     1      16.121  23.564   3.305  1.00  0.00     0.250 C
HETATM    6  O1  UNL     1      16.256  24.769   2.970  1.00  0.00    -0.271 OA
ATOM      7  H1  UNL     1      15.382  21.784   2.511  1.00  0.00     0.163 HD
BRANCH   5   8
HETATM    8  C5  UNL     1      16.602  23.160   4.641  1.00  0.00     0.153 C
HETATM    9  C9  UNL     1      17.632  22.130   4.636  1.00  0.00     0.152 C
HETATM   10  N2  UNL     1      17.334  21.066   5.637  1.00  0.00    -0.293 N
HETATM   11  S1  UNL     1      15.644  21.164   5.890  1.00  0.00     0.321 S
ATOM     12  H2  UNL     1      17.992  20.421   6.075  1.00  0.00     0.174 HD
HETATM   13  O2  UNL     1      14.911  20.295   4.908  1.00  0.00    -0.182 OA
HETATM   14  O3  UNL     1      15.194  20.771   7.237  1.00  0.00    -0.182 OA
HETATM   15  N3  UNL     1      15.562  22.835   5.557  1.00  0.00    -0.258 N
HETATM   16  C13 UNL     1      14.263  23.234   5.533  1.00  0.00     0.137 C
BRANCH   8  17
HETATM   17  C6  UNL     1      17.125  24.513   5.218  1.00  0.00     0.018 C
HETATM   18  C7  UNL     1      18.597  24.585   5.315  1.00  0.00     0.012 C
HETATM   19  C8  UNL     1      16.501  24.894   6.499  1.00  0.00     0.012 C
ENDBRANCH   8  17
BRANCH   9  20
HETATM   20  C10 UNL     1      18.347  21.541   3.507  1.00  0.00     0.035 C
HETATM   21  C11 UNL     1      19.008  22.485   2.529  1.00  0.00     0.029 C
HETATM   22  C12 UNL     1      19.564  20.805   4.150  1.00  0.00     0.029 C
HETATM   23 BR1  UNL     1      17.498  20.153   2.506  1.00  0.00    -0.084 Br
ENDBRANCH   9  20
ENDBRANCH   5   8
ENDBRANCH   3   4
TORSDOF 4
ENDMDL