MODEL 2
REMARK VINA RESULT: -6.482549254      2.431      2.846
REMARK  7 active torsions:
REMARK  status: ('A' for Active; 'I' for Inactive)
REMARK    1  A    between atoms: N1_2  and  C2_3
REMARK       I    between atoms: N1_2  and  C4_7
REMARK    2  A    between atoms: C2_3  and  C3_4
REMARK    3  A    between atoms: C3_4  and  O1_5
REMARK       I    between atoms: C4_7  and  N2_9
REMARK    4  A    between atoms: N2_9  and  C5_11
REMARK    5  A    between atoms: C7_13  and  N3_14
REMARK    6  A    between atoms: N3_14  and  C9_16
REMARK    7  A    between atoms: C9_16  and  C10_17
ROOT
HETATM    1  C10 UNL     1      18.827  19.691   3.673  1.00  0.00    -0.064 C
HETATM    2  C11 UNL     1      19.897  19.411   4.118  1.00  0.00    -0.022 C
HETATM    3 BR1  UNL     1      21.589  18.985   4.849  1.00  0.00     0.010 Br
ENDROOT
BRANCH   1   4
HETATM    4  C9  UNL     1      17.529  20.047   3.107  1.00  0.00     0.366 C
BRANCH   4   5
HETATM    5  N3  UNL     1      17.091  21.316   3.608  1.00  0.00     0.099 N
HETATM    6  C8  UNL     1      17.867  22.434   3.183  1.00  0.00     0.311 C
BRANCH   5   7
HETATM    7  C7  UNL     1      16.807  21.341   5.006  1.00  0.00     0.226 C
HETATM    8  C6  UNL     1      16.907  22.763   5.495  1.00  0.00     0.063 C
HETATM    9  C5  UNL     1      15.617  23.315   6.042  1.00  0.00     0.111 C
HETATM   10  C15 UNL     1      15.017  22.411   7.096  1.00  0.00     0.120 C
HETATM   11  C13 UNL     1      15.074  20.959   6.763  1.00  0.00     0.104 C
HETATM   12  N4  UNL     1      13.580  22.373   7.076  1.00  0.00    -0.353 N
HETATM   13  C12 UNL     1      15.454  20.722   5.301  1.00  0.00     0.052 C
HETATM   14  C14 UNL     1      13.600  20.969   6.910  1.00  0.00     0.224 C
HETATM   15  O3  UNL     1      12.777  20.005   6.877  1.00  0.00    -0.273 OA
ATOM     16  H4  UNL     1      12.844  23.075   7.152  1.00  0.00     0.163 HD
BRANCH   9  17
HETATM   17  N2  UNL     1      15.960  24.543   6.731  1.00  0.00    -0.336 N
HETATM   18  C4  UNL     1      15.761  25.803   6.112  1.00  0.00     0.318 C
HETATM   19  N1  UNL     1      16.095  27.004   6.777  1.00  0.00    -0.337 N
HETATM   20  O2  UNL     1      15.270  25.863   4.931  1.00  0.00    -0.247 OA
HETATM   21  C1  UNL     1      15.863  28.262   6.115  1.00  0.00     0.154 C
ATOM     22  H2  UNL     1      16.351  24.500   7.673  1.00  0.00     0.164 HD
BRANCH  19  23
HETATM   23  C2  UNL     1      16.666  26.963   8.090  1.00  0.00     0.153 C
BRANCH  23  24
HETATM   24  C3  UNL     1      16.061  28.016   9.008  1.00  0.00     0.184 C
BRANCH  24  25
HETATM   25  O1  UNL     1      15.120  27.483   9.856  1.00  0.00    -0.399 OA
ATOM     26  H1  UNL     1      14.248  27.809   9.670  1.00  0.00     0.209 HD
ENDBRANCH  24  25
ENDBRANCH  23  24
ENDBRANCH  19  23
ENDBRANCH   9  17
ENDBRANCH   5   7
ENDBRANCH   4   5
ENDBRANCH   1   4
TORSDOF 7
ENDMDL