MODEL 4
REMARK VINA RESULT: -5.719286081      2.662      4.018
REMARK  4 active torsions:
REMARK  status: ('A' for Active; 'I' for Inactive)
REMARK    1  A    between atoms: C2_2  and  N1_3
REMARK    2  A    between atoms: N1_3  and  C4_5
REMARK    3  A    between atoms: C4_5  and  C5_7
REMARK    4  A    between atoms: C6_8  and  C7_9
REMARK       I    between atoms: C7_9  and  N2_11
ROOT
HETATM    1  C5  UNL     1      17.631  22.917   3.663  1.00  0.00     0.070 C
HETATM    2  C6  UNL     1      16.290  23.134   3.088  1.00  0.00     0.174 C
HETATM    3  N5  UNL     1      15.473  23.924   4.042  1.00  0.00    -0.201 NA
HETATM    4  C9  UNL     1      14.879  23.113   5.056  1.00  0.00     0.130 C
HETATM    5  S1  UNL     1      16.442  25.194   4.620  1.00  0.00     0.212 S
HETATM    6  O2  UNL     1      16.748  24.933   6.086  1.00  0.00    -0.211 OA
HETATM    7  O3  UNL     1      15.744  26.518   4.551  1.00  0.00    -0.211 OA
HETATM    8  C10 UNL     1      17.986  25.350   3.788  1.00  0.00     0.167 C
HETATM    9  C11 UNL     1      18.634  24.000   3.586  1.00  0.00    -0.025 C
HETATM   10  C12 UNL     1      19.530  24.069   2.409  1.00  0.00     0.016 C
HETATM   11  C13 UNL     1      19.584  23.853   4.798  1.00  0.00     0.016 C
ENDROOT
BRANCH   2  12
HETATM   12  C7  UNL     1      16.129  23.722   1.777  1.00  0.00     0.243 C
HETATM   13  O1  UNL     1      15.449  24.794   1.609  1.00  0.00    -0.271 OA
HETATM   14  N2  UNL     1      16.677  23.203   0.586  1.00  0.00    -0.302 N
HETATM   15  C8  UNL     1      16.056  22.600  -0.340  1.00  0.00     0.203 C
ATOM     16  H2  UNL     1      17.681  23.327   0.456  1.00  0.00     0.171 HD
HETATM   17  N3  UNL     1      14.654  22.395  -0.227  1.00  0.00    -0.066 NA
HETATM   18  N4  UNL     1      16.800  22.152  -1.469  1.00  0.00    -0.066 NA
ENDBRANCH   2  12
BRANCH   1  19
HETATM   19  C4  UNL     1      18.190  21.516   3.546  1.00  0.00     0.324 C
HETATM   20 CL1  UNL     1      17.545  20.481   2.336  1.00  0.00    -0.091 Cl
BRANCH  19  21
HETATM   21  N1  UNL     1      18.160  20.839   4.841  1.00  0.00     0.102 N
HETATM   22  C3  UNL     1      19.307  19.950   4.982  1.00  0.00     0.311 C
BRANCH  21  23
HETATM   23  C2  UNL     1      16.993  19.967   4.906  1.00  0.00     0.269 C
HETATM   24  C1  UNL     1      16.299  20.127   6.244  1.00  0.00     0.037 C
ENDBRANCH  21  23
ENDBRANCH  19  21
ENDBRANCH   1  19
TORSDOF 4
ENDMDL