MODEL 4
REMARK VINA RESULT: -6.665506482      1.275      1.867
REMARK  5 active torsions:
REMARK  status: ('A' for Active; 'I' for Inactive)
REMARK       I    between atoms: C2_2  and  N1_4
REMARK    1  A    between atoms: N1_4  and  C3_6
REMARK    2  A    between atoms: C7_15  and  C8_16
REMARK    3  A    between atoms: C8_16  and  C9_18
REMARK    4  A    between atoms: C9_18  and  C12_21
REMARK    5  A    between atoms: C12_21  and  C13_23
ROOT
HETATM    1  C3  UNL     1      16.610  26.381   5.749  1.00  0.00     0.219 C
HETATM    2  C4  UNL     1      16.244  25.472   4.601  1.00  0.00     0.249 C
HETATM    3  O2  UNL     1      16.129  25.743   3.377  1.00  0.00    -0.271 OA
HETATM    4  N2  UNL     1      16.113  24.344   5.426  1.00  0.00    -0.308 N
HETATM    5  C5  UNL     1      16.875  25.079   6.459  1.00  0.00     0.222 C
HETATM    6  N3  UNL     1      16.071  24.789   7.621  1.00  0.00    -0.335 N
ATOM      7  H3  UNL     1      16.091  25.306   8.500  1.00  0.00     0.164 HD
HETATM    8  C6  UNL     1      15.231  23.647   7.336  1.00  0.00     0.247 C
HETATM    9  O3  UNL     1      14.259  23.356   8.040  1.00  0.00    -0.271 OA
HETATM   10  C7  UNL     1      15.858  23.069   6.113  1.00  0.00     0.219 C
ENDROOT
BRANCH  10  11
HETATM   11  C8  UNL     1      14.986  22.195   5.298  1.00  0.00     0.014 C
HETATM   12 BR1  UNL     1      13.213  22.099   6.034  1.00  0.00    -0.056 Br
BRANCH  11  13
HETATM   13  C9  UNL     1      15.538  20.910   4.809  1.00  0.00     0.046 C
HETATM   14  C10 UNL     1      14.991  19.751   5.638  1.00  0.00     0.029 C
HETATM   15  C11 UNL     1      15.123  20.579   3.392  1.00  0.00     0.029 C
BRANCH  13  16
HETATM   16  C12 UNL     1      17.032  20.922   4.827  1.00  0.00     0.143 C
HETATM   17  O4  UNL     1      17.581  20.661   5.881  1.00  0.00    -0.296 OA
BRANCH  16  18
HETATM   18  C13 UNL     1      17.869  21.228   3.650  1.00  0.00     0.048 C
HETATM   19  C14 UNL     1      18.826  20.070   3.384  1.00  0.00     0.017 C
HETATM   20  C15 UNL     1      18.741  22.447   3.808  1.00  0.00     0.017 C
ENDBRANCH  16  18
ENDBRANCH  13  16
ENDBRANCH  11  13
ENDBRANCH  10  11
BRANCH   1  21
HETATM   21  N1  UNL     1      15.540  27.182   6.246  1.00  0.00    -0.345 N
HETATM   22  C2  UNL     1      15.590  27.908   7.474  1.00  0.00     0.214 C
HETATM   23  C1  UNL     1      14.478  28.727   7.968  1.00  0.00     0.117 C
HETATM   24  O1  UNL     1      16.641  27.835   8.157  1.00  0.00    -0.274 OA
ATOM     25  H1  UNL     1      14.687  27.240   5.690  1.00  0.00     0.163 HD
ENDBRANCH   1  21
TORSDOF 5
ENDMDL