MODEL 3
REMARK VINA RESULT: -6.562609472      2.359      3.649
REMARK  4 active torsions:
REMARK  status: ('A' for Active; 'I' for Inactive)
REMARK       I    between atoms: N1_2  and  C2_4
REMARK    1  A    between atoms: C2_4  and  C3_6
REMARK       I    between atoms: N3_15  and  C8_16
REMARK    2  A    between atoms: C12_21  and  C13_22
REMARK    3  A    between atoms: C13_22  and  C14_23
REMARK    4  A    between atoms: C14_23  and  O4_24
ROOT
HETATM    1  C3  UNL     1      16.352  22.853   5.788  1.00  0.00     0.132 C
HETATM    2  C4  UNL     1      17.053  23.076   4.478  1.00  0.00     0.100 C
HETATM    3  C5  UNL     1      15.911  23.059   3.525  1.00  0.00     0.224 C
HETATM    4  O2  UNL     1      15.675  23.733   2.514  1.00  0.00    -0.273 OA
HETATM    5  N2  UNL     1      15.058  22.038   4.025  1.00  0.00    -0.339 N
ATOM      6  H2  UNL     1      14.387  21.506   3.471  1.00  0.00     0.164 HD
HETATM    7  C6  UNL     1      15.288  21.872   5.445  1.00  0.00     0.120 C
HETATM    8 BR1  UNL     1      13.610  22.137   6.320  1.00  0.00    -0.059 Br
HETATM    9  C7  UNL     1      15.795  20.487   5.778  1.00  0.00     0.170 C
HETATM   10  N3  UNL     1      16.949  20.147   4.924  1.00  0.00    -0.344 N
HETATM   11  C8  UNL     1      16.701  19.051   4.095  1.00  0.00     0.216 C
HETATM   12  C9  UNL     1      15.412  18.318   4.090  1.00  0.00     0.117 C
HETATM   13  O3  UNL     1      17.587  18.639   3.305  1.00  0.00    -0.274 OA
HETATM   14  C10 UNL     1      18.187  20.852   4.929  1.00  0.00     0.088 C
HETATM   15  C11 UNL     1      19.400  20.069   4.533  1.00  0.00     0.033 C
HETATM   16  C12 UNL     1      18.098  22.108   4.096  1.00  0.00     0.024 C
ENDROOT
BRANCH   1  17
HETATM   17  C2  UNL     1      15.734  24.137   6.211  1.00  0.00     0.225 C
HETATM   18  N1  UNL     1      16.198  24.761   7.401  1.00  0.00    -0.365 N
HETATM   19  C1  UNL     1      15.593  26.028   7.833  1.00  0.00     0.149 C
ATOM     20  H1  UNL     1      16.945  24.332   7.949  1.00  0.00     0.161 HD
HETATM   21  O1  UNL     1      14.814  24.671   5.537  1.00  0.00    -0.273 OA
ENDBRANCH   1  17
BRANCH  16  22
HETATM   22  C13 UNL     1      19.478  22.740   4.015  1.00  0.00     0.033 C
BRANCH  22  23
HETATM   23  C14 UNL     1      19.524  24.095   4.670  1.00  0.00     0.164 C
BRANCH  23  24
HETATM   24  O4  UNL     1      19.818  23.984   6.046  1.00  0.00    -0.401 OA
ATOM     25  H4  UNL     1      20.668  24.357   6.246  1.00  0.00     0.209 HD
ENDBRANCH  23  24
ENDBRANCH  22  23
ENDBRANCH  16  22
TORSDOF 4
ENDMDL