MODEL 2
REMARK VINA RESULT: -5.575071054      3.083      6.393
REMARK  9 active torsions:
REMARK  status: ('A' for Active; 'I' for Inactive)
REMARK    1  A    between atoms: C2_2  and  C3_4
REMARK    2  A    between atoms: C4_5  and  C5_6
REMARK    3  A    between atoms: C6_7  and  C7_8
REMARK    4  A    between atoms: C7_8  and  O1_9
REMARK    5  A    between atoms: O1_9  and  C8_10
REMARK    6  A    between atoms: C8_10  and  C9_11
REMARK    7  A    between atoms: C9_11  and  N1_12
REMARK    8  A    between atoms: C12_15  and  O2_16
REMARK    9  A    between atoms: C16_22  and  O3_23
ROOT
HETATM    1  N1  UNL     1      15.288  22.713   6.183  1.00  0.00     0.092 N
HETATM    2  C10 UNL     1      14.004  23.068   5.574  1.00  0.00     0.275 C
HETATM    3  C11 UNL     1      12.867  22.260   6.139  1.00  0.00     0.072 C
HETATM    4  C12 UNL     1      13.529  20.935   6.542  1.00  0.00     0.113 C
HETATM    5  C13 UNL     1      14.539  20.690   5.441  1.00  0.00     0.311 C
HETATM    6  N2  UNL     1      15.719  21.559   5.617  1.00  0.00     0.083 N
HETATM    7  C14 UNL     1      16.253  21.751   4.291  1.00  0.00     0.309 C
HETATM    8  C15 UNL     1      16.652  20.774   6.365  1.00  0.00     0.309 C
HETATM    9  C16 UNL     1      14.226  21.283   7.864  1.00  0.00     0.182 C
HETATM   10  C17 UNL     1      15.005  22.544   7.607  1.00  0.00     0.307 C
ENDROOT
BRANCH   1  11
HETATM   11  C9  UNL     1      16.083  23.891   5.999  1.00  0.00     0.298 C
BRANCH  11  12
HETATM   12  C8  UNL     1      15.429  25.188   5.991  1.00  0.00     0.199 C
BRANCH  12  13
HETATM   13  O1  UNL     1      16.273  26.268   5.811  1.00  0.00    -0.378 OA
BRANCH  13  14
HETATM   14  C7  UNL     1      16.213  26.712   4.510  1.00  0.00     0.262 C
BRANCH  14  15
HETATM   15  C6  UNL     1      17.411  26.119   3.846  1.00  0.00    -0.066 C
HETATM   16  C5  UNL     1      18.392  25.650   3.322  1.00  0.00    -0.013 C
BRANCH  16  17
HETATM   17  C4  UNL     1      19.536  25.112   2.687  1.00  0.00    -0.014 C
HETATM   18  C3  UNL     1      20.500  24.641   2.133  1.00  0.00    -0.077 C
BRANCH  18  19
HETATM   19  C2  UNL     1      21.664  24.059   1.436  1.00  0.00     0.133 C
HETATM   20  C1  UNL     1      22.917  24.870   1.796  1.00  0.00     0.035 C
HETATM   21 BR1  UNL     1      21.296  24.136  -0.440  1.00  0.00    -0.078 Br
ENDBRANCH  18  19
ENDBRANCH  16  17
ENDBRANCH  14  15
ENDBRANCH  13  14
ENDBRANCH  12  13
ENDBRANCH  11  12
ENDBRANCH   1  11
BRANCH   9  22
HETATM   22  O3  UNL     1      13.177  21.535   8.772  1.00  0.00    -0.391 OA
ATOM     23  H3  UNL     1      13.606  21.841   9.563  1.00  0.00     0.210 HD
ENDBRANCH   9  22
BRANCH   4  24
HETATM   24  O2  UNL     1      12.636  19.917   6.681  1.00  0.00    -0.385 OA
ATOM     25  H2  UNL     1      12.124  19.980   7.478  1.00  0.00     0.210 HD
ENDBRANCH   4  24
TORSDOF 9
ENDMDL