MODEL 1
REMARK VINA RESULT: -6.492605804      0.000      0.000
REMARK  6 active torsions:
REMARK  status: ('A' for Active; 'I' for Inactive)
REMARK    1  A    between atoms: N1_3  and  C3_4
REMARK    2  A    between atoms: C3_4  and  C4_5
REMARK    3  A    between atoms: C4_5  and  C5_6
REMARK    4  A    between atoms: C5_6  and  N2_7
REMARK    5  A    between atoms: N2_7  and  C6_8
REMARK    6  A    between atoms: C18_25  and  O2_27
ROOT
HETATM    1  C1  UNL     1      15.566  27.727   8.264  1.00  0.00     0.140 C
HETATM    2  C2  UNL     1      15.766  27.418   6.849  1.00  0.00     0.005 C
HETATM    3  N1  UNL     1      15.927  27.190   5.713  1.00  0.00    -0.410 NA
ENDROOT
BRANCH   3   4
HETATM    4  C3  UNL     1      16.122  26.940   4.345  1.00  0.00     0.231 C
BRANCH   4   5
HETATM    5  C4  UNL     1      17.201  25.830   4.247  1.00  0.00     0.062 C
BRANCH   5   6
HETATM    6  C5  UNL     1      16.932  24.981   3.036  1.00  0.00     0.243 C
BRANCH   6   7
HETATM    7  N2  UNL     1      17.546  23.702   2.985  1.00  0.00    -0.037 N
HETATM    8  C8  UNL     1      18.222  23.441   1.689  1.00  0.00     0.270 C
HETATM    9  C9  UNL     1      17.451  23.402   0.475  1.00  0.00     0.300 C
HETATM   10  N3  UNL     1      16.065  23.188   0.881  1.00  0.00     0.090 N
HETATM   11  C10 UNL     1      15.376  22.677  -0.280  1.00  0.00     0.310 C
HETATM   12  C11 UNL     1      16.263  22.048   1.811  1.00  0.00     0.334 C
HETATM   13  C12 UNL     1      16.673  22.596   3.200  1.00  0.00     0.240 C
HETATM   14  N4  UNL     1      17.383  21.500   3.903  1.00  0.00    -0.325 N
HETATM   15  C16 UNL     1      15.404  22.629   3.906  1.00  0.00     0.106 C
HETATM   16  C13 UNL     1      17.109  21.321   5.294  1.00  0.00     0.233 C
ATOM     17  H4  UNL     1      18.043  20.896   3.411  1.00  0.00     0.165 HD
HETATM   18  O1  UNL     1      18.018  20.868   6.045  1.00  0.00    -0.273 OA
HETATM   19  C14 UNL     1      15.803  21.640   5.913  1.00  0.00     0.170 C
HETATM   20  C15 UNL     1      15.144  22.877   5.287  1.00  0.00     0.096 C
HETATM   21  C18 UNL     1      14.834  20.639   5.277  1.00  0.00     0.073 C
HETATM   22  F1  UNL     1      15.264  23.995   5.964  1.00  0.00    -0.214 F
HETATM   23  C17 UNL     1      14.879  21.163   3.844  1.00  0.00     0.054 C
HETATM   24  C19 UNL     1      15.366  19.266   5.444  1.00  0.00     0.047 C
BRANCH   7  25
HETATM   25  C6  UNL     1      18.761  23.691   3.826  1.00  0.00     0.236 C
HETATM   26  C7  UNL     1      20.061  23.888   3.154  1.00  0.00     0.035 C
ENDBRANCH   7  25
BRANCH  21  27
HETATM   27  O2  UNL     1      13.556  20.753   5.825  1.00  0.00    -0.389 OA
ATOM     28  H2  UNL     1      12.930  20.211   5.358  1.00  0.00     0.210 HD
ENDBRANCH  21  27
ENDBRANCH   6   7
ENDBRANCH   5   6
ENDBRANCH   4   5
ENDBRANCH   3   4
TORSDOF 6
ENDMDL