MODEL 2
REMARK VINA RESULT: -9.584191209     11.279     13.056
REMARK  7 active torsions:
REMARK  status: ('A' for Active; 'I' for Inactive)
REMARK    1  A    between atoms: C2_2  and  C3_3
REMARK    2  A    between atoms: C3_3  and  N1_4
REMARK    3  A    between atoms: N1_4  and  C4_6
REMARK    4  A    between atoms: C5_9  and  C6_10
REMARK    5  A    between atoms: C15_21  and  S1_22
REMARK    6  A    between atoms: S1_22  and  N4_25
REMARK    7  A    between atoms: N4_25  and  C16_27
ROOT
HETATM    1  C4  UNL     1     -51.517 100.361  21.865  1.00  0.00     0.112 A
HETATM    2  N2  UNL     1     -50.323 100.645  22.472  1.00  0.00    -0.341 N
ATOM      3  H2  UNL     1     -49.794 101.455  22.147  1.00  0.00     0.167 HD
HETATM    4  C5  UNL     1     -49.817  99.919  23.464  1.00  0.00     0.044 A
HETATM    5  C11 UNL     1     -50.483  98.813  23.946  1.00  0.00     0.042 A
HETATM    6  C12 UNL     1     -51.707  98.477  23.362  1.00  0.00    -0.020 A
HETATM    7  C13 UNL     1     -52.416  97.369  23.814  1.00  0.00     0.014 A
HETATM    8  C14 UNL     1     -53.631  97.064  23.210  1.00  0.00     0.026 A
HETATM    9  C15 UNL     1     -54.116  97.833  22.196  1.00  0.00     0.081 A
HETATM   10  C18 UNL     1     -53.391  98.920  21.773  1.00  0.00     0.041 A
HETATM   11  C19 UNL     1     -52.190  99.257  22.339  1.00  0.00     0.019 A
ENDROOT
BRANCH   9  12
HETATM   12  S1  UNL     1     -55.655  97.428  21.447  1.00  0.00     0.276 S
HETATM   13  O1  UNL     1     -56.476  96.599  22.426  1.00  0.00    -0.200 OA
HETATM   14  O2  UNL     1     -55.460  96.569  20.238  1.00  0.00    -0.200 OA
BRANCH  12  15
HETATM   15  N4  UNL     1     -56.574  98.801  21.053  1.00  0.00    -0.111 N
ATOM     16  H4  UNL     1     -56.611  99.061  20.067  1.00  0.00     0.197 HD
BRANCH  15  17
HETATM   17  C16 UNL     1     -57.219  99.536  21.860  1.00  0.00     0.707 A
HETATM   18  N5  UNL     1     -58.126 100.453  21.412  1.00  0.00    -0.185 N
HETATM   19  C17 UNL     1     -58.651 101.084  22.481  1.00  0.00     0.215 A
ATOM     20  H5  UNL     1     -58.364 100.630  20.436  1.00  0.00     0.185 HD
HETATM   21  N6  UNL     1     -58.070 100.555  23.568  1.00  0.00    -0.281 N
HETATM   22  N7  UNL     1     -57.211  99.627  23.200  1.00  0.00    -0.130 N
ATOM     23  H6  UNL     1     -58.264 100.829  24.531  1.00  0.00     0.188 HD
ATOM     24  H7  UNL     1     -56.634  99.069  23.830  1.00  0.00     0.205 HD
ENDBRANCH  15  17
ENDBRANCH  12  15
ENDBRANCH   9  12
BRANCH   1  25
HETATM   25  N1  UNL     1     -51.972 101.096  20.902  1.00  0.00    -0.376 N
ATOM     26  H1  UNL     1     -52.900 101.516  20.957  1.00  0.00     0.161 HD
BRANCH  25  27
HETATM   27  C3  UNL     1     -51.135 101.304  19.756  1.00  0.00     0.121 C
BRANCH  27  28
HETATM   28  C2  UNL     1     -50.969 100.091  18.903  1.00  0.00     0.015 C
HETATM   29  C1  UNL     1     -49.532  99.623  18.827  1.00  0.00     0.006 C
ENDBRANCH  27  28
ENDBRANCH  25  27
ENDBRANCH   1  25
BRANCH   4  30
HETATM   30  C6  UNL     1     -48.516 100.280  24.083  1.00  0.00    -0.007 A
HETATM   31  C7  UNL     1     -48.425 101.175  25.125  1.00  0.00     0.030 A
HETATM   32  C8  UNL     1     -47.183 101.477  25.668  1.00  0.00     0.088 A
HETATM   33  N3  UNL     1     -46.060 100.916  25.202  1.00  0.00    -0.375 N
HETATM   34  C9  UNL     1     -46.085 100.036  24.189  1.00  0.00     0.088 A
ATOM     35  H3  UNL     1     -45.166 101.163  25.627  1.00  0.00     0.164 HD
HETATM   36  C10 UNL     1     -47.337  99.729  23.637  1.00  0.00     0.030 A
ENDBRANCH   4  30
TORSDOF 7
ENDMDL