MODEL 4
REMARK VINA RESULT: -9.752229775      1.346      1.763
REMARK  6 active torsions:
REMARK  status: ('A' for Active; 'I' for Inactive)
REMARK    1  A    between atoms: C6_9  and  N3_10
REMARK    2  A    between atoms: N3_10  and  C7_12
REMARK    3  A    between atoms: N5_18  and  C11_20
REMARK    4  A    between atoms: C11_20  and  C12_21
REMARK    5  A    between atoms: C12_21  and  C13_22
REMARK    6  A    between atoms: C13_22  and  N6_23
ROOT
HETATM    1  C1  UNL     1     -51.931  90.642  27.005  1.00  0.00     0.054 C
HETATM    2  C2  UNL     1     -51.997  91.979  27.690  1.00  0.00     0.005 A
HETATM    3  C3  UNL     1     -52.474  92.157  28.975  1.00  0.00     0.069 A
HETATM    4  C4  UNL     1     -52.986  91.188  29.901  1.00  0.00     0.101 C
HETATM    5  N1  UNL     1     -53.409  90.417  30.663  1.00  0.00    -0.191 NA
HETATM    6  C5  UNL     1     -52.351  93.520  29.196  1.00  0.00     0.113 A
HETATM    7  N2  UNL     1     -51.831  94.108  28.101  1.00  0.00    -0.350 N
ATOM      8  H2  UNL     1     -51.640  95.106  28.007  1.00  0.00     0.166 HD
HETATM    9  C6  UNL     1     -51.600  93.179  27.148  1.00  0.00     0.128 A
ENDROOT
BRANCH   9  10
HETATM   10  N3  UNL     1     -51.069  93.331  25.851  1.00  0.00    -0.176 N
ATOM     11  H3  UNL     1     -50.456  92.599  25.496  1.00  0.00     0.186 HD
BRANCH  10  12
HETATM   12  C7  UNL     1     -51.312  94.340  25.091  1.00  0.00     0.685 A
HETATM   13  N4  UNL     1     -51.155  95.617  25.451  1.00  0.00    -0.190 N
HETATM   14  C8  UNL     1     -51.420  96.639  24.614  1.00  0.00     0.070 A
ATOM     15  H4  UNL     1     -50.822  95.825  26.393  1.00  0.00     0.184 HD
HETATM   16  C9  UNL     1     -51.870  96.389  23.341  1.00  0.00     0.028 A
HETATM   17  C22 UNL     1     -51.300  98.127  24.813  1.00  0.00     0.090 A
HETATM   18  C10 UNL     1     -52.043  95.077  22.934  1.00  0.00     0.130 A
HETATM   19  C20 UNL     1     -52.102  97.694  22.655  1.00  0.00     0.139 A
HETATM   20  N5  UNL     1     -52.411  94.744  21.809  1.00  0.00    -0.355 N
HETATM   21  N7  UNL     1     -51.747  94.107  23.857  1.00  0.00    -0.176 N
ATOM     22  H5  UNL     1     -52.461  93.727  21.761  1.00  0.00     0.166 HD
ATOM     23  H7  UNL     1     -51.870  93.135  23.576  1.00  0.00     0.186 HD
HETATM   24  N8  UNL     1     -51.662  98.677  23.571  1.00  0.00    -0.290 NA
HETATM   25  C21 UNL     1     -50.762  99.592  22.957  1.00  0.00     0.116 C
BRANCH  20  26
HETATM   26  C11 UNL     1     -52.786  95.278  20.572  1.00  0.00     0.067 C
BRANCH  26  27
HETATM   27  C12 UNL     1     -54.271  95.531  20.591  1.00  0.00     0.089 C
BRANCH  27  28
HETATM   28  C13 UNL     1     -54.696  96.647  19.707  1.00  0.00     0.068 C
BRANCH  28  29
HETATM   29  N6  UNL     1     -55.157  97.787  20.341  1.00  0.00    -0.373 N
HETATM   30  C14 UNL     1     -54.888  99.098  20.037  1.00  0.00     0.063 C
HETATM   31  C15 UNL     1     -54.581  99.990  21.242  1.00  0.00     0.045 C
HETATM   32  C16 UNL     1     -55.199  99.458  22.499  1.00  0.00     0.011 C
HETATM   33  C17 UNL     1     -56.487  98.723  22.209  1.00  0.00     0.000 C
HETATM   34  C18 UNL     1     -57.540  99.635  21.625  1.00  0.00     0.011 C
HETATM   35  C19 UNL     1     -56.177  97.554  21.346  1.00  0.00     0.131 C
ENDBRANCH  28  29
ENDBRANCH  27  28
ENDBRANCH  26  27
ENDBRANCH  20  26
ENDBRANCH  10  12
ENDBRANCH   9  10
TORSDOF 6
ENDMDL