MODEL 1
REMARK VINA RESULT: -9.095919703      0.000      0.000
REMARK  8 active torsions:
REMARK  status: ('A' for Active; 'I' for Inactive)
REMARK    1  A    between atoms: C2_2  and  C3_3
REMARK    2  A    between atoms: C4_6  and  N2_7
REMARK    3  A    between atoms: N2_7  and  C5_9
REMARK    4  A    between atoms: C5_9  and  C6_10
REMARK    5  A    between atoms: C6_10  and  N3_11
REMARK    6  A    between atoms: C17_25  and  C18_26
REMARK    7  A    between atoms: C19_27  and  C20_28
REMARK    8  A    between atoms: C23_31  and  N6_32
ROOT
HETATM    1  C3  UNL     1     -50.414 101.685  19.282  1.00  0.00     0.047 A
HETATM    2  N1  UNL     1     -51.590 101.935  18.714  1.00  0.00    -0.194 N
ATOM      3  H1  UNL     1     -51.615 102.574  17.921  1.00  0.00     0.184 HD
HETATM    4  C4  UNL     1     -52.755 101.391  19.131  1.00  0.00     0.678 A
HETATM    5  N4  UNL     1     -52.698 100.558  20.173  1.00  0.00    -0.190 N
ATOM      6  H4  UNL     1     -53.570 100.141  20.497  1.00  0.00     0.184 HD
HETATM    7  C9  UNL     1     -51.544 100.228  20.835  1.00  0.00     0.080 A
HETATM    8  C10 UNL     1     -51.610  99.270  21.907  1.00  0.00    -0.007 A
HETATM    9  C11 UNL     1     -50.837  99.169  23.009  1.00  0.00     0.015 A
HETATM   10  C12 UNL     1     -50.990  98.103  23.882  1.00  0.00     0.023 A
HETATM   11  C13 UNL     1     -51.926  97.121  23.667  1.00  0.00     0.044 A
HETATM   12  C14 UNL     1     -52.112  96.006  24.551  1.00  0.00     0.099 C
HETATM   13  N5  UNL     1     -52.241  95.094  25.271  1.00  0.00    -0.191 NA
HETATM   14  C15 UNL     1     -52.734  97.200  22.548  1.00  0.00     0.023 A
HETATM   15  C16 UNL     1     -52.569  98.247  21.702  1.00  0.00     0.015 A
HETATM   16  C17 UNL     1     -50.412 100.797  20.377  1.00  0.00     0.069 A
ENDROOT
BRANCH  16  17
HETATM   17  C18 UNL     1     -49.128 100.463  20.913  1.00  0.00    -0.057 C
HETATM   18  C19 UNL     1     -48.019 100.222  21.389  1.00  0.00    -0.060 C
BRANCH  18  19
HETATM   19  C20 UNL     1     -46.729  99.960  21.957  1.00  0.00     0.033 A
HETATM   20  C21 UNL     1     -45.797  99.192  21.292  1.00  0.00     0.026 A
HETATM   21  C22 UNL     1     -44.560  98.937  21.828  1.00  0.00     0.049 A
HETATM   22  C23 UNL     1     -44.236  99.456  23.057  1.00  0.00     0.098 A
HETATM   23  N7  UNL     1     -45.135 100.200  23.707  1.00  0.00    -0.351 N
HETATM   24  C24 UNL     1     -46.343 100.453  23.189  1.00  0.00     0.110 A
ATOM     25  H7  UNL     1     -44.895 100.586  24.620  1.00  0.00     0.166 HD
BRANCH  22  26
HETATM   26  N6  UNL     1     -43.050  99.221  23.589  1.00  0.00    -0.385 N
ATOM     27  H62 UNL     1     -42.203  99.574  23.144  1.00  0.00     0.157 HD
ATOM     28  H61 UNL     1     -42.970  98.683  24.452  1.00  0.00     0.157 HD
ENDBRANCH  22  26
ENDBRANCH  18  19
ENDBRANCH  16  17
BRANCH   4  29
HETATM   29  N2  UNL     1     -53.852 101.689  18.519  1.00  0.00    -0.224 N
ATOM     30  H2  UNL     1     -53.764 102.294  17.702  1.00  0.00     0.177 HD
BRANCH  29  31
HETATM   31  C5  UNL     1     -55.163 101.274  18.855  1.00  0.00     0.168 C
BRANCH  31  32
HETATM   32  C6  UNL     1     -55.705 100.114  18.084  1.00  0.00     0.291 C
BRANCH  32  33
HETATM   33  N3  UNL     1     -55.893  98.906  18.849  1.00  0.00     0.081 N
HETATM   34  C7  UNL     1     -54.759  97.993  18.640  1.00  0.00     0.309 C
HETATM   35  C8  UNL     1     -55.904  99.170  20.281  1.00  0.00     0.309 C
ENDBRANCH  32  33
ENDBRANCH  31  32
ENDBRANCH  29  31
ENDBRANCH   4  29
BRANCH   1  36
HETATM   36  C2  UNL     1     -49.137 102.273  18.840  1.00  0.00     0.055 C
HETATM   37  C1  UNL     1     -49.218 103.764  19.086  1.00  0.00     0.011 C
ENDBRANCH   1  36
TORSDOF 8
ENDMDL