MODEL 5
REMARK VINA RESULT: -8.705388975      1.294      4.160
REMARK  11 active torsions:
REMARK  status: ('A' for Active; 'I' for Inactive)
REMARK    1  A    between atoms: C2_2  and  N1_3
REMARK    2  A    between atoms: N1_3  and  C3_5
REMARK    3  A    between atoms: C4_8  and  N3_9
REMARK    4  A    between atoms: N3_9  and  C5_10
REMARK    5  A    between atoms: C5_10  and  C6_11
REMARK    6  A    between atoms: C6_11  and  O1_12
REMARK    7  A    between atoms: C6_11  and  C7_14
REMARK    8  A    between atoms: C9_16  and  C10_17
REMARK    9  A    between atoms: C15_22  and  C16_23
REMARK   10  A    between atoms: C21_30  and  C22_31
REMARK   11  A    between atoms: N5_33  and  O3_34
ROOT
HETATM    1  C5  UNL     1     -50.069  98.907  20.871  1.00  0.00     0.258 C
ENDROOT
BRANCH   1   2
HETATM    2  N3  UNL     1     -49.076  99.345  21.649  1.00  0.00    -0.412 NA
BRANCH   2   3
HETATM    3  C4  UNL     1     -48.304  99.716  22.492  1.00  0.00     0.270 A
HETATM    4  N2  UNL     1     -46.939  99.545  22.452  1.00  0.00    -0.147 N
HETATM    5  C3  UNL     1     -46.100  99.960  23.398  1.00  0.00     0.713 A
ATOM      6  H2  UNL     1     -46.543  99.069  21.642  1.00  0.00     0.188 HD
HETATM    7  N5  UNL     1     -46.630 100.598  24.481  1.00  0.00    -0.032 N
HETATM    8  C21 UNL     1     -47.938 100.792  24.574  1.00  0.00     0.193 A
HETATM    9  N4  UNL     1     -48.763 100.369  23.616  1.00  0.00    -0.297 N
ATOM     10  H4  UNL     1     -49.764 100.534  23.718  1.00  0.00     0.171 HD
BRANCH   5  11
HETATM   11  N1  UNL     1     -44.843  99.832  23.403  1.00  0.00    -0.203 N
ATOM     12  H1  UNL     1     -44.380 100.579  23.921  1.00  0.00     0.183 HD
BRANCH  11  13
HETATM   13  C2  UNL     1     -43.933  98.912  22.870  1.00  0.00     0.074 C
HETATM   14  C1  UNL     1     -42.584  99.037  23.501  1.00  0.00     0.055 C
ENDBRANCH  11  13
ENDBRANCH   5  11
BRANCH   7  15
HETATM   15  O3  UNL     1     -45.810 101.043  25.478  1.00  0.00    -0.268 OA
ATOM     16  H3  UNL     1     -45.588 100.469  26.202  1.00  0.00     0.246 HD
ENDBRANCH   7  15
BRANCH   8  17
HETATM   17  C22 UNL     1     -48.444 101.492  25.775  1.00  0.00     0.310 C
HETATM   18  O2  UNL     1     -47.946 102.586  26.068  1.00  0.00    -0.298 OA
ENDBRANCH   8  17
ENDBRANCH   2   3
ENDBRANCH   1   2
BRANCH   1  19
HETATM   19  C6  UNL     1     -51.337  99.808  20.877  1.00  0.00     0.181 C
BRANCH  19  20
HETATM   20  O1  UNL     1     -51.485 100.257  22.192  1.00  0.00    -0.388 OA
ATOM     21  H1  UNL     1     -51.942 101.088  22.136  1.00  0.00     0.210 HD
ENDBRANCH  19  20
BRANCH  19  22
HETATM   22  C7  UNL     1     -52.548  99.058  20.508  1.00  0.00    -0.026 A
HETATM   23  C8  UNL     1     -52.786  97.731  20.786  1.00  0.00     0.017 A
HETATM   24  C9  UNL     1     -53.966  97.078  20.422  1.00  0.00    -0.049 A
HETATM   25  C14 UNL     1     -54.915  97.820  19.757  1.00  0.00     0.015 A
HETATM   26  C15 UNL     1     -54.739  99.136  19.452  1.00  0.00    -0.049 A
HETATM   27  C20 UNL     1     -53.567  99.745  19.825  1.00  0.00     0.017 A
BRANCH  24  28
HETATM   28  C10 UNL     1     -54.183  95.657  20.719  1.00  0.00    -0.024 C
HETATM   29  C11 UNL     1     -54.184  95.580  22.263  1.00  0.00     0.019 C
HETATM   30  C12 UNL     1     -53.068  94.763  20.283  1.00  0.00     0.019 C
HETATM   31  C13 UNL     1     -55.530  95.124  20.305  1.00  0.00     0.019 C
ENDBRANCH  24  28
BRANCH  26  32
HETATM   32  C16 UNL     1     -55.827  99.859  18.736  1.00  0.00    -0.024 C
HETATM   33  C17 UNL     1     -56.111  99.274  17.386  1.00  0.00     0.019 C
HETATM   34  C18 UNL     1     -57.073  99.964  19.585  1.00  0.00     0.019 C
HETATM   35  C19 UNL     1     -55.318 101.284  18.526  1.00  0.00     0.019 C
ENDBRANCH  26  32
ENDBRANCH  19  22
ENDBRANCH   1  19
TORSDOF 11
ENDMDL