MODEL 4
REMARK VINA RESULT: -8.211897549      2.586      5.109
REMARK  10 active torsions:
REMARK  status: ('A' for Active; 'I' for Inactive)
REMARK    1  A    between atoms: C3_3  and  C4_4
REMARK    2  A    between atoms: C4_4  and  O2_6
REMARK    3  A    between atoms: O2_6  and  C5_7
REMARK    4  A    between atoms: C9_11  and  C10_12
REMARK    5  A    between atoms: C10_12  and  C11_13
REMARK    6  A    between atoms: C12_14  and  O3_15
REMARK    7  A    between atoms: C16_22  and  O4_23
REMARK    8  A    between atoms: O4_23  and  C17_24
REMARK    9  A    between atoms: N2_28  and  C21_29
REMARK   10  A    between atoms: C23_31  and  O5_32
ROOT
HETATM    1  C1  UNL     1     -53.794 100.895  19.053  1.00  0.00     0.029 C
HETATM    2  C2  UNL     1     -52.498 100.667  19.138  1.00  0.00     0.022 A
HETATM    3  C3  UNL     1     -51.997  99.515  19.692  1.00  0.00     0.061 A
HETATM    4  C7  UNL     1     -50.620  99.268  19.782  1.00  0.00    -0.018 A
HETATM    5  C8  UNL     1     -50.169  97.988  20.405  1.00  0.00     0.052 C
HETATM    6  C9  UNL     1     -49.765 100.236  19.289  1.00  0.00     0.044 A
HETATM    7  N2  UNL     1     -50.283 101.385  18.739  1.00  0.00    -0.327 N
HETATM    8  C23 UNL     1     -51.613 101.596  18.663  1.00  0.00     0.153 A
ENDROOT
BRANCH   6   9
HETATM    9  C10 UNL     1     -48.482 100.108  19.312  1.00  0.00     0.047 C
BRANCH   9  10
HETATM   10  C11 UNL     1     -47.411 100.538  20.152  1.00  0.00     0.029 A
HETATM   11  C12 UNL     1     -46.272 101.254  19.865  1.00  0.00     0.151 A
HETATM   12  N1  UNL     1     -45.502 101.381  20.957  1.00  0.00    -0.336 N
HETATM   13  C13 UNL     1     -46.097 100.758  22.006  1.00  0.00     0.045 A
ATOM     14  H1  UNL     1     -44.607 101.870  20.994  1.00  0.00     0.168 HD
HETATM   15  C14 UNL     1     -45.740 100.588  23.332  1.00  0.00     0.033 A
HETATM   16  C20 UNL     1     -47.275 100.235  21.518  1.00  0.00     0.008 A
HETATM   17  C15 UNL     1     -46.611  99.873  24.156  1.00  0.00     0.039 A
HETATM   18  C16 UNL     1     -47.790  99.341  23.700  1.00  0.00     0.069 A
HETATM   19  C19 UNL     1     -48.117  99.533  22.349  1.00  0.00     0.051 A
BRANCH  11  20
HETATM   20  O3  UNL     1     -45.902 101.803  18.629  1.00  0.00    -0.345 OA
ATOM     21  H3  UNL     1     -46.467 101.982  17.886  1.00  0.00     0.219 HD
ENDBRANCH  11  20
BRANCH  18  22
HETATM   22  O4  UNL     1     -48.689  98.631  24.443  1.00  0.00    -0.351 OA
BRANCH  22  23
HETATM   23  C17 UNL     1     -50.048  98.491  24.117  1.00  0.00     0.171 C
HETATM   24  C18 UNL     1     -50.766  97.406  24.847  1.00  0.00     0.034 C
ENDBRANCH  22  23
ENDBRANCH  18  22
ENDBRANCH   9  10
ENDBRANCH   6   9
BRANCH   7  25
HETATM   25  C21 UNL     1     -49.426 102.439  18.239  1.00  0.00     0.127 C
HETATM   26  C22 UNL     1     -49.204 103.557  19.228  1.00  0.00     0.027 C
ENDBRANCH   7  25
BRANCH   3  27
HETATM   27  C4  UNL     1     -52.906  98.486  20.220  1.00  0.00     0.294 C
HETATM   28  O1  UNL     1     -53.287  98.537  21.439  1.00  0.00    -0.259 OA
BRANCH  27  29
HETATM   29  O2  UNL     1     -53.384  97.441  19.459  1.00  0.00    -0.318 OA
BRANCH  29  30
HETATM   30  C5  UNL     1     -54.747  97.048  19.516  1.00  0.00     0.174 C
HETATM   31  C6  UNL     1     -54.890  95.628  19.964  1.00  0.00     0.034 C
ENDBRANCH  29  30
ENDBRANCH  27  29
ENDBRANCH   3  27
BRANCH   8  32
HETATM   32  O5  UNL     1     -52.103 102.785  18.092  1.00  0.00    -0.345 OA
ATOM     33  H5  UNL     1     -51.527 103.537  18.017  1.00  0.00     0.219 HD
ENDBRANCH   8  32
TORSDOF 10
ENDMDL