MODEL 2
REMARK VINA RESULT: -8.945862549      1.602      1.714
REMARK  8 active torsions:
REMARK  status: ('A' for Active; 'I' for Inactive)
REMARK    1  A    between atoms: C3_5  and  N2_6
REMARK    2  A    between atoms: N2_6  and  C4_8
REMARK    3  A    between atoms: C4_8  and  C5_9
REMARK    4  A    between atoms: C9_16  and  N4_17
REMARK    5  A    between atoms: N4_17  and  C10_19
REMARK    6  A    between atoms: C10_19  and  C11_20
REMARK    7  A    between atoms: C11_20  and  N5_21
REMARK    8  A    between atoms: N5_21  and  C12_23
ROOT
HETATM    1  C1  UNL     1     -54.163  98.890  17.510  1.00  0.00     0.069 C
HETATM    2  C2  UNL     1     -54.169  99.791  18.692  1.00  0.00     0.032 A
HETATM    3  N1  UNL     1     -53.033 100.140  19.351  1.00  0.00    -0.195 N
ATOM      4  H1  UNL     1     -52.138  99.774  19.027  1.00  0.00     0.184 HD
HETATM    5  C3  UNL     1     -53.058 100.955  20.417  1.00  0.00     0.679 A
HETATM    6  N3  UNL     1     -54.226 101.452  20.865  1.00  0.00    -0.176 N
ATOM      7  H3  UNL     1     -54.224 102.070  21.677  1.00  0.00     0.186 HD
HETATM    8  C9  UNL     1     -55.395 101.156  20.270  1.00  0.00     0.124 A
HETATM    9  C20 UNL     1     -55.348 100.318  19.177  1.00  0.00     0.005 A
HETATM   10  C21 UNL     1     -56.642  99.975  18.499  1.00  0.00     0.054 C
ENDROOT
BRANCH   8  11
HETATM   11  N4  UNL     1     -56.507 101.613  20.673  1.00  0.00    -0.374 N
ATOM     12  H4  UNL     1     -56.995 102.243  20.037  1.00  0.00     0.161 HD
BRANCH  11  13
HETATM   13  C10 UNL     1     -57.153 101.345  21.916  1.00  0.00     0.141 C
BRANCH  13  14
HETATM   14  C11 UNL     1     -57.767  99.942  21.807  1.00  0.00     0.141 C
BRANCH  14  15
HETATM   15  N5  UNL     1     -57.122  99.135  22.821  1.00  0.00    -0.369 N
ATOM     16  H5  UNL     1     -57.585  98.951  23.712  1.00  0.00     0.161 HD
BRANCH  15  17
HETATM   17  C12 UNL     1     -55.927  98.641  22.575  1.00  0.00     0.145 A
HETATM   18  N6  UNL     1     -55.565  97.840  21.575  1.00  0.00    -0.339 N
HETATM   19  C13 UNL     1     -54.328  97.451  21.491  1.00  0.00     0.025 A
ATOM     20  H6  UNL     1     -56.250  97.536  20.883  1.00  0.00     0.168 HD
HETATM   21  C14 UNL     1     -53.454  97.894  22.455  1.00  0.00     0.009 A
HETATM   22  C19 UNL     1     -53.657  96.540  20.461  1.00  0.00     0.062 C
HETATM   23  S1  UNL     1     -54.468  98.856  23.435  1.00  0.00    -0.057 SA
HETATM   24  C15 UNL     1     -51.999  97.505  22.448  1.00  0.00     0.048 C
HETATM   25  C16 UNL     1     -51.734  96.155  21.899  1.00  0.00     0.010 C
HETATM   26  C17 UNL     1     -52.978  95.496  21.358  1.00  0.00    -0.013 C
HETATM   27  C18 UNL     1     -52.651  94.250  20.574  1.00  0.00     0.010 C
ENDBRANCH  15  17
ENDBRANCH  14  15
ENDBRANCH  13  14
ENDBRANCH  11  13
ENDBRANCH   8  11
BRANCH   5  28
HETATM   28  N2  UNL     1     -51.966 101.268  21.020  1.00  0.00    -0.224 N
ATOM     29  H2  UNL     1     -51.996 101.982  21.748  1.00  0.00     0.177 HD
BRANCH  28  30
HETATM   30  C4  UNL     1     -50.693 100.646  20.706  1.00  0.00     0.170 C
BRANCH  30  31
HETATM   31  C5  UNL     1     -49.761 100.680  21.901  1.00  0.00     0.139 C
HETATM   32  C6  UNL     1     -48.928  99.426  21.993  1.00  0.00     0.035 C
HETATM   33  C7  UNL     1     -48.632  99.341  23.461  1.00  0.00     0.029 C
HETATM   34  C8  UNL     1     -49.631 100.270  24.078  1.00  0.00     0.168 C
HETATM   35  O1  UNL     1     -50.454 100.748  23.083  1.00  0.00    -0.384 OA
ENDBRANCH  30  31
ENDBRANCH  28  30
ENDBRANCH   5  28
TORSDOF 8
ENDMDL