MODEL 4
REMARK VINA RESULT: -8.425085867      2.199      4.902
REMARK  8 active torsions:
REMARK  status: ('A' for Active; 'I' for Inactive)
REMARK    1  A    between atoms: N1_2  and  C2_4
REMARK    2  A    between atoms: C3_7  and  N3_8
REMARK    3  A    between atoms: N3_8  and  C4_10
REMARK    4  A    between atoms: C4_10  and  C5_11
REMARK    5  A    between atoms: C5_11  and  C6_12
REMARK    6  A    between atoms: C6_12  and  N4_13
REMARK    7  A    between atoms: N4_13  and  C7_15
REMARK    8  A    between atoms: C20_31  and  O1_32
ROOT
HETATM    1  C2  UNL     1     -50.184  97.997  20.401  1.00  0.00     0.679 A
HETATM    2  N2  UNL     1     -51.005  99.053  20.547  1.00  0.00    -0.176 N
ATOM      3  H2  UNL     1     -50.876  99.886  19.973  1.00  0.00     0.186 HD
HETATM    4  C3  UNL     1     -52.007  99.003  21.467  1.00  0.00     0.131 A
HETATM    5  C16 UNL     1     -52.175  97.875  22.238  1.00  0.00     0.056 A
HETATM    6  C17 UNL     1     -53.158  97.792  23.159  1.00  0.00     0.063 A
HETATM    7  C18 UNL     1     -54.078  98.867  23.381  1.00  0.00     0.100 C
HETATM    8  N6  UNL     1     -54.856  99.735  23.592  1.00  0.00    -0.191 NA
HETATM    9  C19 UNL     1     -53.285  96.620  23.920  1.00  0.00     0.060 A
HETATM   10  C20 UNL     1     -52.452  95.538  23.777  1.00  0.00     0.071 A
HETATM   11  C22 UNL     1     -51.452  95.634  22.833  1.00  0.00     0.067 A
HETATM   12  C23 UNL     1     -51.323  96.783  22.084  1.00  0.00     0.067 A
HETATM   13  N7  UNL     1     -50.354  96.897  21.159  1.00  0.00    -0.191 N
ATOM     14  H7  UNL     1     -49.716  96.112  21.026  1.00  0.00     0.184 HD
ENDROOT
BRANCH   4  15
HETATM   15  N3  UNL     1     -52.724 100.034  21.533  1.00  0.00    -0.375 N
ATOM     16  H3  UNL     1     -53.337 100.092  22.347  1.00  0.00     0.161 HD
BRANCH  15  17
HETATM   17  C4  UNL     1     -52.797 101.127  20.632  1.00  0.00     0.123 C
BRANCH  17  18
HETATM   18  C5  UNL     1     -52.947 100.795  19.199  1.00  0.00     0.039 C
BRANCH  18  19
HETATM   19  C6  UNL     1     -54.395 101.111  18.791  1.00  0.00     0.121 C
BRANCH  19  20
HETATM   20  N4  UNL     1     -55.241  99.975  18.780  1.00  0.00    -0.389 N
ATOM     21  H4  UNL     1     -55.364  99.531  17.871  1.00  0.00     0.159 HD
BRANCH  20  22
HETATM   22  C7  UNL     1     -55.874  99.428  19.748  1.00  0.00     0.041 A
HETATM   23  C8  UNL     1     -56.855 100.045  20.498  1.00  0.00     0.047 A
HETATM   24  C9  UNL     1     -57.490  99.386  21.520  1.00  0.00     0.090 A
HETATM   25  N5  UNL     1     -57.193  98.134  21.835  1.00  0.00    -0.365 N
HETATM   26  C10 UNL     1     -56.253  97.503  21.137  1.00  0.00     0.044 A
ATOM     27  H5  UNL     1     -57.676  97.663  22.599  1.00  0.00     0.165 HD
HETATM   28  C11 UNL     1     -55.946  96.180  21.475  1.00  0.00     0.030 A
HETATM   29  C15 UNL     1     -55.589  98.103  20.112  1.00  0.00     0.017 A
HETATM   30  C12 UNL     1     -54.988  95.519  20.772  1.00  0.00     0.002 A
HETATM   31  C13 UNL     1     -54.324  96.138  19.738  1.00  0.00     0.001 A
HETATM   32  C14 UNL     1     -54.628  97.435  19.410  1.00  0.00     0.016 A
ENDBRANCH  20  22
ENDBRANCH  19  20
ENDBRANCH  18  19
ENDBRANCH  17  18
ENDBRANCH  15  17
ENDBRANCH   4  15
BRANCH  10  33
HETATM   33  O1  UNL     1     -52.595  94.386  24.541  1.00  0.00    -0.356 OA
HETATM   34  C21 UNL     1     -51.942  94.336  25.792  1.00  0.00     0.210 C
ENDBRANCH  10  33
BRANCH   1  35
HETATM   35  N1  UNL     1     -49.218  98.043  19.517  1.00  0.00    -0.230 N
HETATM   36  C1  UNL     1     -48.983  99.227  18.723  1.00  0.00     0.165 C
ATOM     37  H1  UNL     1     -48.620  97.227  19.388  1.00  0.00     0.177 HD
ENDBRANCH   1  35
TORSDOF 8
ENDMDL