MODEL 3
REMARK VINA RESULT: -9.201155365      4.081      7.992
REMARK  5 active torsions:
REMARK  status: ('A' for Active; 'I' for Inactive)
REMARK    1  A    between atoms: O1_2  and  C2_3
REMARK    2  A    between atoms: C7_8  and  O2_9
REMARK    3  A    between atoms: C11_13  and  C12_14
REMARK    4  A    between atoms: C16_20  and  N2_21
REMARK    5  A    between atoms: N2_21  and  S1_23
ROOT
HETATM    1  C2  UNL     1     -54.343  97.929  22.586  1.00  0.00     0.102 A
HETATM    2  C3  UNL     1     -54.275  98.984  21.707  1.00  0.00     0.048 A
HETATM    3  C4  UNL     1     -53.085  99.632  21.365  1.00  0.00    -0.040 A
HETATM    4  C5  UNL     1     -51.927  99.170  21.956  1.00  0.00    -0.016 A
HETATM    5  C6  UNL     1     -51.974  98.112  22.841  1.00  0.00     0.052 A
HETATM    6  C7  UNL     1     -53.161  97.493  23.159  1.00  0.00     0.102 A
HETATM    7  C9  UNL     1     -50.834 100.009  21.436  1.00  0.00    -0.013 A
HETATM    8  C10 UNL     1     -49.487  99.967  21.706  1.00  0.00     0.043 A
HETATM    9  C11 UNL     1     -48.555 100.856  21.117  1.00  0.00     0.048 A
HETATM   10  N3  UNL     1     -49.080 101.749  20.273  1.00  0.00    -0.342 N
ATOM     11  H3  UNL     1     -48.449 102.412  19.825  1.00  0.00     0.167 HD
HETATM   12  C18 UNL     1     -50.413 101.828  19.973  1.00  0.00     0.106 A
HETATM   13  N4  UNL     1     -50.851 102.711  19.152  1.00  0.00    -0.385 N
ATOM     14  H41 UNL     1     -51.845 102.771  18.929  1.00  0.00     0.157 HD
ATOM     15  H42 UNL     1     -50.191 103.359  18.720  1.00  0.00     0.157 HD
HETATM   16  C19 UNL     1     -51.316 100.943  20.564  1.00  0.00     0.001 A
HETATM   17  C20 UNL     1     -52.778 100.766  20.459  1.00  0.00     0.083 A
ENDROOT
BRANCH   9  18
HETATM   18  C12 UNL     1     -47.154 100.703  21.420  1.00  0.00     0.035 A
HETATM   19  C13 UNL     1     -46.315  99.951  20.578  1.00  0.00     0.019 A
HETATM   20  C14 UNL     1     -44.975  99.815  20.795  1.00  0.00     0.018 A
HETATM   21  C15 UNL     1     -44.401 100.426  21.872  1.00  0.00     0.090 A
HETATM   22  N1  UNL     1     -45.173 101.152  22.698  1.00  0.00    -0.351 N
HETATM   23  C16 UNL     1     -46.524 101.289  22.476  1.00  0.00     0.127 A
ATOM     24  H1  UNL     1     -44.750 101.611  23.504  1.00  0.00     0.166 HD
BRANCH  23  25
HETATM   25  N2  UNL     1     -47.128 102.017  23.307  1.00  0.00    -0.269 N
ATOM     26  H2  UNL     1     -47.281 102.993  23.051  1.00  0.00     0.180 HD
BRANCH  25  27
HETATM   27  S1  UNL     1     -47.709 101.507  24.825  1.00  0.00     0.228 S
HETATM   28  C17 UNL     1     -47.052 102.625  26.084  1.00  0.00     0.186 C
HETATM   29  O3  UNL     1     -49.208 101.505  24.936  1.00  0.00    -0.206 OA
HETATM   30  O4  UNL     1     -47.146 100.151  25.213  1.00  0.00    -0.206 OA
ENDBRANCH  25  27
ENDBRANCH  23  25
ENDBRANCH   9  18
BRANCH   6  31
HETATM   31  O2  UNL     1     -53.237  96.423  24.050  1.00  0.00    -0.353 OA
HETATM   32  C8  UNL     1     -52.570  95.229  23.683  1.00  0.00     0.210 C
ENDBRANCH   6  31
BRANCH   1  33
HETATM   33  O1  UNL     1     -55.532  97.298  22.914  1.00  0.00    -0.353 OA
HETATM   34  C1  UNL     1     -56.405  96.695  22.013  1.00  0.00     0.210 C
ENDBRANCH   1  33
TORSDOF 5
ENDMDL