MODEL 2
REMARK VINA RESULT: -9.584930055      1.020      1.232
REMARK  5 active torsions:
REMARK  status: ('A' for Active; 'I' for Inactive)
REMARK    1  A    between atoms: C2_2  and  N1_3
REMARK    2  A    between atoms: N1_3  and  C3_4
REMARK    3  A    between atoms: N1_3  and  C5_6
REMARK    4  A    between atoms: C5_6  and  C6_7
REMARK    5  A    between atoms: C11_20  and  C12_21
ROOT
HETATM    1  C6  UNL     1     -54.626  99.284  22.290  1.00  0.00     0.046 C
HETATM    2  C7  UNL     1     -56.026  99.259  21.927  1.00  0.00     0.070 C
HETATM    3  N2  UNL     1     -56.451  99.149  20.578  1.00  0.00    -0.335 N
ATOM      4  H2  UNL     1     -57.217  98.500  20.401  1.00  0.00     0.168 HD
HETATM    5  C8  UNL     1     -55.938  99.834  19.443  1.00  0.00     0.273 C
HETATM    6  O1  UNL     1     -56.678  99.954  18.419  1.00  0.00    -0.266 OA
HETATM    7  C9  UNL     1     -54.586 100.425  19.363  1.00  0.00     0.123 A
HETATM    8  N3  UNL     1     -54.520 101.354  18.407  1.00  0.00    -0.292 N
ATOM      9  H3  UNL     1     -55.326 101.582  17.825  1.00  0.00     0.187 HD
HETATM   10  N4  UNL     1     -53.368 101.959  18.254  1.00  0.00    -0.265 N
ATOM     11  H4  UNL     1     -53.291 102.673  17.530  1.00  0.00     0.190 HD
HETATM   12  C10 UNL     1     -52.282 101.690  19.000  1.00  0.00     0.274 A
HETATM   13  O2  UNL     1     -51.227 102.327  18.767  1.00  0.00    -0.266 OA
HETATM   14  C11 UNL     1     -52.295 100.723  20.019  1.00  0.00     0.086 A
HETATM   15  C21 UNL     1     -53.487 100.088  20.186  1.00  0.00    -0.004 A
HETATM   16  C22 UNL     1     -53.558  99.097  21.229  1.00  0.00     0.054 C
ENDROOT
BRANCH  14  17
HETATM   17  C12 UNL     1     -51.089 100.541  20.831  1.00  0.00     0.122 A
HETATM   18  N5  UNL     1     -49.902 100.001  20.532  1.00  0.00    -0.340 N
HETATM   19  C13 UNL     1     -49.009 100.084  21.515  1.00  0.00     0.061 A
ATOM     20  H5  UNL     1     -49.700  99.565  19.632  1.00  0.00     0.167 HD
HETATM   21  C14 UNL     1     -47.686  99.673  21.676  1.00  0.00     0.039 A
HETATM   22  C20 UNL     1     -49.666 100.728  22.531  1.00  0.00     0.061 A
HETATM   23  C15 UNL     1     -47.020  99.906  22.858  1.00  0.00    -0.054 A
HETATM   24  C16 UNL     1     -45.603  99.482  23.064  1.00  0.00     0.049 C
HETATM   25  C17 UNL     1     -47.669 100.552  23.887  1.00  0.00    -0.054 A
HETATM   26  C18 UNL     1     -46.964 100.796  25.164  1.00  0.00     0.049 C
HETATM   27  C19 UNL     1     -48.986 100.954  23.707  1.00  0.00     0.039 A
HETATM   28  N6  UNL     1     -50.933 100.998  22.093  1.00  0.00    -0.340 N
ATOM     29  H6  UNL     1     -51.653 101.473  22.637  1.00  0.00     0.167 HD
ENDBRANCH  14  17
BRANCH   1  30
HETATM   30  C5  UNL     1     -54.372  98.125  23.257  1.00  0.00     0.127 C
BRANCH  30  31
HETATM   31  N1  UNL     1     -54.025  96.922  22.620  1.00  0.00    -0.412 N
BRANCH  31  32
HETATM   32  C2  UNL     1     -52.863  96.274  23.173  1.00  0.00     0.112 C
HETATM   33  C1  UNL     1     -52.167  97.019  24.259  1.00  0.00     0.026 C
ENDBRANCH  31  32
BRANCH  31  34
HETATM   34  C3  UNL     1     -55.051  96.013  22.265  1.00  0.00     0.112 C
HETATM   35  C4  UNL     1     -54.960  95.749  20.751  1.00  0.00     0.026 C
ENDBRANCH  31  34
ENDBRANCH  30  31
ENDBRANCH   1  30
TORSDOF 5
ENDMDL