MODEL 2
REMARK VINA RESULT: -9.117155680      2.864      6.834
REMARK  5 active torsions:
REMARK  status: ('A' for Active; 'I' for Inactive)
REMARK    1  A    between atoms: N2_6  and  C4_7
REMARK    2  A    between atoms: C4_7  and  C5_8
REMARK    3  A    between atoms: C5_8  and  N3_10
REMARK    4  A    between atoms: N3_10  and  S1_12
REMARK    5  A    between atoms: S1_12  and  C7_15
ROOT
HETATM    1  C7  UNL     1     -54.398  99.482  21.296  1.00  0.00     0.086 A
HETATM    2  C8  UNL     1     -53.080  99.910  21.346  1.00  0.00     0.037 A
HETATM    3  C9  UNL     1     -52.490 100.714  20.380  1.00  0.00    -0.003 A
HETATM    4  C10 UNL     1     -53.241 101.122  19.304  1.00  0.00     0.043 A
HETATM    5  C11 UNL     1     -54.554 100.705  19.244  1.00  0.00     0.038 A
HETATM    6  C12 UNL     1     -55.139  99.896  20.218  1.00  0.00    -0.036 A
HETATM    7  C13 UNL     1     -56.568  99.527  20.062  1.00  0.00     0.050 C
HETATM    8  N4  UNL     1     -52.701 101.959  18.259  1.00  0.00    -0.333 N
ATOM      9  H4  UNL     1     -53.283 102.245  17.472  1.00  0.00     0.168 HD
HETATM   10  C14 UNL     1     -51.358 102.371  18.344  1.00  0.00     0.173 A
HETATM   11  S2  UNL     1     -50.660 103.328  17.195  1.00  0.00    -0.041 SA
HETATM   12  N5  UNL     1     -50.578 101.955  19.450  1.00  0.00    -0.354 N
ATOM     13  H5  UNL     1     -49.606 102.258  19.502  1.00  0.00     0.163 HD
HETATM   14  C15 UNL     1     -51.092 101.127  20.498  1.00  0.00     0.054 A
HETATM   15  C16 UNL     1     -50.251  99.843  20.573  1.00  0.00     0.043 C
HETATM   16  C17 UNL     1     -50.812 101.852  21.805  1.00  0.00     0.043 C
ENDROOT
BRANCH   1  17
HETATM   17  S1  UNL     1     -55.022  98.440  22.567  1.00  0.00     0.259 S
HETATM   18  O1  UNL     1     -54.211  98.739  23.812  1.00  0.00    -0.201 OA
HETATM   19  O2  UNL     1     -56.446  98.839  22.951  1.00  0.00    -0.201 OA
BRANCH  17  20
HETATM   20  N3  UNL     1     -55.040  96.793  22.194  1.00  0.00    -0.309 N
ATOM     21  H3  UNL     1     -55.729  96.163  22.605  1.00  0.00     0.172 HD
BRANCH  20  22
HETATM   22  C5  UNL     1     -54.049  96.320  21.279  1.00  0.00     0.109 C
HETATM   23  C6  UNL     1     -54.749  95.544  20.136  1.00  0.00     0.034 C
BRANCH  22  24
HETATM   24  C4  UNL     1     -53.028  95.455  21.931  1.00  0.00     0.173 C
BRANCH  24  25
HETATM   25  N2  UNL     1     -52.251  96.189  22.937  1.00  0.00    -0.301 N
HETATM   26  N1  UNL     1     -52.317  96.106  24.255  1.00  0.00    -0.309 N
HETATM   27  C3  UNL     1     -51.436  96.946  24.829  1.00  0.00     0.115 A
ATOM     28  H1  UNL     1     -52.950  95.491  24.766  1.00  0.00     0.186 HD
HETATM   29  C2  UNL     1     -50.767  97.605  23.821  1.00  0.00    -0.028 A
HETATM   30  C1  UNL     1     -49.704  98.626  23.982  1.00  0.00     0.051 C
HETATM   31  C18 UNL     1     -51.308  97.101  22.647  1.00  0.00     0.118 A
ENDBRANCH  24  25
ENDBRANCH  22  24
ENDBRANCH  20  22
ENDBRANCH  17  20
ENDBRANCH   1  17
TORSDOF 5
ENDMDL