MODEL 1
REMARK VINA RESULT: -7.831931122      0.000      0.000
REMARK  6 active torsions:
REMARK  status: ('A' for Active; 'I' for Inactive)
REMARK    1  A    between atoms: C1_2  and  C2_3
REMARK       I    between atoms: C1_2  and  N1_6
REMARK    2  A    between atoms: C2_3  and  O2_4
REMARK    3  A    between atoms: N1_6  and  C3_8
REMARK    4  A    between atoms: C8_14  and  C9_15
REMARK    5  A    between atoms: C9_15  and  N2_16
REMARK    6  A    between atoms: N2_16  and  C10_18
ROOT
HETATM    1  C3  UNL     1       5.516  14.988  10.642  1.00  0.00     0.046 A
HETATM    2  C4  UNL     1       5.981  14.095   9.711  1.00  0.00     0.038 A
HETATM    3  C5  UNL     1       5.347  13.868   8.480  1.00  0.00    -0.047 A
HETATM    4  C6  UNL     1       4.218  14.565   8.192  1.00  0.00    -0.013 A
HETATM    5  C7  UNL     1       3.717  15.483   9.120  1.00  0.00     0.133 A
HETATM    6  F1  UNL     1       2.553  16.117   8.767  1.00  0.00    -0.205 F
HETATM    7  C8  UNL     1       4.337  15.694  10.304  1.00  0.00     0.025 A
HETATM    8  C15 UNL     1       3.491  14.372   6.894  1.00  0.00     0.042 C
HETATM    9  C16 UNL     1       3.886  13.010   6.366  1.00  0.00     0.005 C
HETATM   10  C17 UNL     1       5.396  12.993   6.206  1.00  0.00     0.005 C
HETATM   11  C18 UNL     1       5.985  12.856   7.573  1.00  0.00     0.039 C
ENDROOT
BRANCH   7  12
HETATM   12  C9  UNL     1       3.842  16.614  11.319  1.00  0.00     0.164 C
BRANCH  12  13
HETATM   13  N2  UNL     1       2.594  17.264  11.127  1.00  0.00    -0.386 N
ATOM     14  H2  UNL     1       1.745  16.736  11.327  1.00  0.00     0.160 HD
BRANCH  13  15
HETATM   15  C10 UNL     1       2.450  18.627  10.666  1.00  0.00     0.024 A
HETATM   16  C11 UNL     1       3.221  19.670  10.878  1.00  0.00     0.006 A
HETATM   17  C12 UNL     1       2.679  20.867  10.206  1.00  0.00     0.056 A
HETATM   18  C13 UNL     1       1.457  20.359   9.554  1.00  0.00    -0.021 A
HETATM   19  C14 UNL     1       1.329  19.073   9.821  1.00  0.00     0.025 A
ENDBRANCH  13  15
ENDBRANCH  12  13
ENDBRANCH   7  12
BRANCH   1  20
HETATM   20  N1  UNL     1       6.142  15.228  11.889  1.00  0.00    -0.325 N
HETATM   21  C1  UNL     1       6.148  14.356  12.980  1.00  0.00     0.245 C
HETATM   22  O1  UNL     1       5.617  13.242  13.041  1.00  0.00    -0.271 OA
ATOM     23  H1  UNL     1       6.631  16.116  12.001  1.00  0.00     0.169 HD
BRANCH  21  24
HETATM   24  C2  UNL     1       6.884  14.814  14.230  1.00  0.00     0.267 C
BRANCH  24  25
HETATM   25  O2  UNL     1       7.302  16.129  14.110  1.00  0.00    -0.392 OA
ATOM     26  H2  UNL     1       7.042  16.641  14.867  1.00  0.00     0.210 HD
ENDBRANCH  24  25
ENDBRANCH  21  24
ENDBRANCH   1  20
TORSDOF 6
ENDMDL