MODEL 3
REMARK VINA RESULT: -6.643965318      1.336      1.658
REMARK  3 active torsions:
REMARK  status: ('A' for Active; 'I' for Inactive)
REMARK    1  A    between atoms: N1_2  and  C2_4
REMARK    2  A    between atoms: C5_8  and  C6_9
REMARK    3  A    between atoms: C8_11  and  O2_12
ROOT
HETATM    1  C6  UNL     1       5.029  12.460   9.470  1.00  0.00    -0.014 A
HETATM    2  C7  UNL     1       5.452  11.128   9.356  1.00  0.00     0.049 A
HETATM    3  C8  UNL     1       6.095  10.456  10.359  1.00  0.00     0.066 A
HETATM    4  C9  UNL     1       6.328  11.144  11.529  1.00  0.00     0.037 A
HETATM    5  C10 UNL     1       5.932  12.445  11.687  1.00  0.00     0.016 A
HETATM    6  C11 UNL     1       5.264  13.119  10.629  1.00  0.00    -0.015 A
HETATM    7  C12 UNL     1       4.827  14.465  10.916  1.00  0.00    -0.025 A
HETATM    8  C13 UNL     1       3.516  14.822  10.756  1.00  0.00     0.015 A
HETATM    9  C14 UNL     1       3.084  16.125  11.049  1.00  0.00     0.043 A
HETATM   10  C15 UNL     1       4.011  17.036  11.502  1.00  0.00     0.116 A
HETATM   11  F1  UNL     1       3.643  18.324  11.803  1.00  0.00    -0.206 F
HETATM   12  C16 UNL     1       5.328  16.696  11.668  1.00  0.00     0.043 A
HETATM   13  C17 UNL     1       5.721  15.397  11.369  1.00  0.00     0.015 A
ENDROOT
BRANCH   1  14
HETATM   14  C5  UNL     1       4.348  13.094   8.335  1.00  0.00    -0.016 C
HETATM   15  C4  UNL     1       5.032  13.993   7.383  1.00  0.00     0.068 C
HETATM   16  C3  UNL     1       4.088  14.924   6.700  1.00  0.00     0.182 C
HETATM   17  O1  UNL     1       3.066  14.168   6.054  1.00  0.00    -0.334 OA
HETATM   18  C2  UNL     1       2.370  13.314   6.933  1.00  0.00     0.163 C
HETATM   19  C18 UNL     1       3.073  12.794   8.082  1.00  0.00     0.104 C
HETATM   20  N2  UNL     1       2.387  11.933   8.986  1.00  0.00    -0.097 NA
BRANCH  18  21
HETATM   21  N1  UNL     1       1.116  13.001   6.707  1.00  0.00    -0.374 N
HETATM   22  C1  UNL     1       0.799  11.947   5.762  1.00  0.00     0.148 C
ATOM     23  H1  UNL     1       0.368  13.497   7.194  1.00  0.00     0.161 HD
ENDBRANCH  18  21
ENDBRANCH   1  14
BRANCH   3  24
HETATM   24  O2  UNL     1       6.491   9.137  10.188  1.00  0.00    -0.361 OA
ATOM     25  H2  UNL     1       6.201   8.637   9.434  1.00  0.00     0.217 HD
ENDBRANCH   3  24
TORSDOF 3
ENDMDL