MODEL 5
REMARK VINA RESULT: -7.082960189      1.928      2.745
REMARK  5 active torsions:
REMARK  status: ('A' for Active; 'I' for Inactive)
REMARK    1  A    between atoms: C5_7  and  C6_8
REMARK    2  A    between atoms: C6_8  and  C7_10
REMARK    3  A    between atoms: C7_10  and  C8_11
REMARK    4  A    between atoms: C8_11  and  N2_12
REMARK       I    between atoms: N2_12  and  C9_14
REMARK    5  A    between atoms: C9_14  and  C10_16
ROOT
HETATM    1  C6  UNL     1       5.573  14.453  10.653  1.00  0.00     0.163 C
HETATM    2  O1  UNL     1       6.234  15.512  10.785  1.00  0.00    -0.292 OA
ENDROOT
BRANCH   1   3
HETATM    3  C5  UNL     1       5.847  13.601   9.506  1.00  0.00     0.040 A
HETATM    4  C2  UNL     1       5.607  13.939   8.204  1.00  0.00     0.020 A
HETATM    5  C1  UNL     1       5.026  15.234   7.712  1.00  0.00     0.069 C
HETATM    6  N1  UNL     1       5.990  12.898   7.447  1.00  0.00    -0.362 N
HETATM    7  C3  UNL     1       6.463  11.914   8.232  1.00  0.00     0.016 A
ATOM      8  H1  UNL     1       5.931  12.859   6.430  1.00  0.00     0.165 HD
HETATM    9  C4  UNL     1       6.385  12.330   9.545  1.00  0.00    -0.020 A
HETATM   10  C18 UNL     1       7.008  10.572   7.968  1.00  0.00     0.057 C
HETATM   11  C15 UNL     1       6.807  11.530  10.694  1.00  0.00     0.042 C
HETATM   12  C16 UNL     1       6.950  10.079  10.430  1.00  0.00     0.005 C
HETATM   13  C17 UNL     1       6.586   9.631   9.064  1.00  0.00     0.006 C
ENDBRANCH   1   3
BRANCH   1  14
HETATM   14  C7  UNL     1       4.557  14.122  11.661  1.00  0.00     0.103 C
BRANCH  14  15
HETATM   15  C8  UNL     1       3.229  14.740  11.335  1.00  0.00     0.130 C
BRANCH  15  16
HETATM   16  N2  UNL     1       3.255  16.177  11.372  1.00  0.00    -0.356 N
HETATM   17  C9  UNL     1       2.878  16.910  10.238  1.00  0.00     0.254 C
HETATM   18  O2  UNL     1       2.521  16.327   9.202  1.00  0.00    -0.268 OA
ATOM     19  H2  UNL     1       3.547  16.661  12.221  1.00  0.00     0.162 HD
BRANCH  17  20
HETATM   20  C10 UNL     1       2.910  18.374  10.293  1.00  0.00     0.066 A
HETATM   21  C11 UNL     1       3.903  19.133  10.729  1.00  0.00    -0.003 A
HETATM   22  C12 UNL     1       3.538  20.565  10.618  1.00  0.00     0.058 A
HETATM   23  C13 UNL     1       2.161  20.532  10.043  1.00  0.00     0.020 A
HETATM   24  C14 UNL     1       1.822  19.267   9.865  1.00  0.00     0.128 A
HETATM   25  F1  UNL     1       0.650  18.807   9.364  1.00  0.00    -0.205 F
ENDBRANCH  17  20
ENDBRANCH  15  16
ENDBRANCH  14  15
ENDBRANCH   1  14
TORSDOF 5
ENDMDL