MODEL 5
REMARK VINA RESULT: -6.574758104      4.015      5.032
REMARK  3 active torsions:
REMARK  status: ('A' for Active; 'I' for Inactive)
REMARK    1  A    between atoms: C6_7  and  N2_8
REMARK    2  A    between atoms: C9_12  and  C10_13
REMARK    3  A    between atoms: C13_16  and  O2_17
ROOT
HETATM    1  N2  UNL     1       4.093  12.330   8.454  1.00  0.00    -0.374 N
HETATM    2  C7  UNL     1       3.343  11.229   9.081  1.00  0.00     0.149 C
HETATM    3  C8  UNL     1       2.547  11.754  10.247  1.00  0.00     0.188 C
HETATM    4  O1  UNL     1       3.242  12.742  10.942  1.00  0.00    -0.378 OA
HETATM    5  C9  UNL     1       4.602  12.613  10.777  1.00  0.00     0.172 C
HETATM    6  C17 UNL     1       5.037  12.977   9.342  1.00  0.00     0.160 C
ENDROOT
BRANCH   5   7
HETATM    7  C10 UNL     1       5.311  13.567  11.704  1.00  0.00    -0.027 A
HETATM    8  C11 UNL     1       5.532  14.875  11.345  1.00  0.00     0.012 A
HETATM    9  C12 UNL     1       6.182  15.763  12.187  1.00  0.00     0.037 A
HETATM   10  C13 UNL     1       6.622  15.312  13.429  1.00  0.00     0.071 A
HETATM   11  C14 UNL     1       6.407  14.008  13.801  1.00  0.00    -0.028 A
HETATM   12  C15 UNL     1       6.868  13.485  15.135  1.00  0.00     0.051 C
HETATM   13  C16 UNL     1       5.758  13.157  12.937  1.00  0.00     0.019 A
BRANCH  10  14
HETATM   14  O2  UNL     1       7.282  16.166  14.314  1.00  0.00    -0.360 OA
ATOM     15  H2  UNL     1       8.088  15.903  14.743  1.00  0.00     0.217 HD
ENDBRANCH  10  14
ENDBRANCH   5   7
BRANCH   1  16
HETATM   16  C6  UNL     1       3.823  12.666   7.126  1.00  0.00     0.055 A
HETATM   17  C5  UNL     1       3.032  13.744   6.827  1.00  0.00     0.072 A
HETATM   18  C4  UNL     1       2.745  14.046   5.490  1.00  0.00     0.029 A
HETATM   19  N1  UNL     1       2.529  14.551   7.874  1.00  0.00    -0.100 NA
HETATM   20  C3  UNL     1       3.265  13.249   4.495  1.00  0.00     0.009 A
HETATM   21  C2  UNL     1       4.064  12.158   4.756  1.00  0.00    -0.060 A
HETATM   22  C1  UNL     1       4.598  11.334   3.641  1.00  0.00     0.048 C
HETATM   23  C18 UNL     1       4.335  11.876   6.085  1.00  0.00     0.038 A
ENDBRANCH   1  16
TORSDOF 3
ENDMDL