MODEL 2
REMARK VINA RESULT: -6.874474496      1.098      1.467
REMARK  3 active torsions:
REMARK  status: ('A' for Active; 'I' for Inactive)
REMARK    1  A    between atoms: C4_5  and  C5_6
REMARK    2  A    between atoms: C6_7  and  C7_8
REMARK       I    between atoms: C7_8  and  N2_10
REMARK    3  A    between atoms: N2_10  and  C8_12
ROOT
HETATM    1  C7  UNL     1       6.680  12.334   9.937  1.00  0.00     0.245 C
HETATM    2  O1  UNL     1       7.648  11.879  10.569  1.00  0.00    -0.268 OA
HETATM    3  N2  UNL     1       6.113  11.655   8.850  1.00  0.00    -0.323 N
ATOM      4  H2  UNL     1       5.321  12.124   8.407  1.00  0.00     0.169 HD
ENDROOT
BRANCH   1   5
HETATM    5  C6  UNL     1       6.145  13.642  10.387  1.00  0.00     0.075 C
HETATM    6  C5  UNL     1       5.132  14.177   9.795  1.00  0.00     0.020 C
BRANCH   6   7
HETATM    7  C4  UNL     1       4.466  15.429  10.072  1.00  0.00     0.003 A
HETATM    8  C3  UNL     1       4.840  16.101  11.235  1.00  0.00     0.016 A
HETATM    9  C2  UNL     1       4.293  17.299  11.626  1.00  0.00     0.027 A
HETATM   10  C1  UNL     1       3.326  17.889  10.853  1.00  0.00     0.049 A
HETATM   11  N1  UNL     1       2.745  19.133  11.242  1.00  0.00    -0.102 NA
HETATM   12  C18 UNL     1       2.938  17.255   9.707  1.00  0.00     0.069 A
HETATM   13  C17 UNL     1       3.504  16.030   9.315  1.00  0.00     0.128 A
HETATM   14  F1  UNL     1       3.079  15.463   8.183  1.00  0.00    -0.205 F
ENDBRANCH   6   7
ENDBRANCH   1   5
BRANCH   3  15
HETATM   15  C8  UNL     1       6.476  10.424   8.282  1.00  0.00     0.042 A
HETATM   16  C9  UNL     1       6.187   9.228   8.871  1.00  0.00     0.030 A
HETATM   17  C10 UNL     1       6.586   8.009   8.286  1.00  0.00     0.003 A
HETATM   18  C11 UNL     1       7.283   8.025   7.098  1.00  0.00     0.010 A
HETATM   19  C12 UNL     1       7.588   9.225   6.481  1.00  0.00    -0.026 A
HETATM   20  C13 UNL     1       7.183  10.376   7.079  1.00  0.00    -0.021 A
HETATM   21  C16 UNL     1       8.345   9.142   5.222  1.00  0.00     0.206 C
HETATM   22  C14 UNL     1       7.495  11.667   6.415  1.00  0.00     0.068 C
HETATM   23  C15 UNL     1       7.838  11.372   4.975  1.00  0.00     0.172 C
HETATM   24  O2  UNL     1       8.770  10.393   4.782  1.00  0.00    -0.386 OA
ENDBRANCH   3  15
TORSDOF 3
ENDMDL