MODEL 1
REMARK VINA RESULT: -6.953559236      0.000      0.000
REMARK  3 active torsions:
REMARK  status: ('A' for Active; 'I' for Inactive)
REMARK    1  A    between atoms: C7_8  and  N1_9
REMARK       I    between atoms: N1_9  and  C8_11
REMARK    2  A    between atoms: C8_11  and  C9_13
REMARK    3  A    between atoms: C18_24  and  O2_25
ROOT
HETATM    1  C9  UNL     1       3.178  14.358   6.958  1.00  0.00     0.108 A
HETATM    2  N2  UNL     1       3.454  15.076   5.859  1.00  0.00    -0.352 N
ATOM      3  H2  UNL     1       3.966  15.958   5.851  1.00  0.00     0.166 HD
HETATM    4  C10 UNL     1       2.956  14.463   4.771  1.00  0.00     0.045 A
HETATM    5  C11 UNL     1       2.330  13.294   5.191  1.00  0.00    -0.025 A
HETATM    6  C12 UNL     1       2.487  13.259   6.561  1.00  0.00    -0.021 A
HETATM    7  C13 UNL     1       1.961  12.163   7.425  1.00  0.00     0.051 C
HETATM    8  C14 UNL     1       1.629  12.274   4.362  1.00  0.00     0.041 C
HETATM    9  C15 UNL     1       0.872  13.032   3.284  1.00  0.00     0.005 C
HETATM   10  C16 UNL     1       1.716  13.286   2.070  1.00  0.00     0.003 C
HETATM   11  C17 UNL     1       3.091  13.782   2.418  1.00  0.00     0.038 C
HETATM   12  C18 UNL     1       3.065  14.962   3.365  1.00  0.00     0.168 C
ENDROOT
BRANCH   1  13
HETATM   13  C8  UNL     1       3.534  14.656   8.369  1.00  0.00     0.273 C
HETATM   14  N1  UNL     1       4.613  13.996   8.935  1.00  0.00    -0.321 N
ATOM     15  H1  UNL     1       5.106  13.334   8.336  1.00  0.00     0.169 HD
HETATM   16  O1  UNL     1       2.852  15.490   9.007  1.00  0.00    -0.266 OA
BRANCH  14  17
HETATM   17  C7  UNL     1       5.101  14.140  10.241  1.00  0.00     0.041 A
HETATM   18  C2  UNL     1       4.979  13.041  11.105  1.00  0.00    -0.032 A
HETATM   19  C1  UNL     1       4.342  11.773  10.616  1.00  0.00     0.050 C
HETATM   20  C3  UNL     1       5.429  13.102  12.385  1.00  0.00     0.051 A
HETATM   21  C4  UNL     1       6.021  14.237  12.890  1.00  0.00     0.117 A
HETATM   22  F1  UNL     1       6.460  14.276  14.163  1.00  0.00    -0.206 F
HETATM   23  C5  UNL     1       6.159  15.323  12.090  1.00  0.00     0.044 A
HETATM   24  C6  UNL     1       5.697  15.256  10.777  1.00  0.00     0.033 A
ENDBRANCH  14  17
ENDBRANCH   1  13
BRANCH  12  25
HETATM   25  O2  UNL     1       2.092  15.879   3.056  1.00  0.00    -0.389 OA
ATOM     26  H2  UNL     1       2.320  16.413   2.304  1.00  0.00     0.210 HD
ENDBRANCH  12  25
TORSDOF 3
ENDMDL