MODEL 2
REMARK VINA RESULT: -6.701865416      3.253      7.484
REMARK  5 active torsions:
REMARK  status: ('A' for Active; 'I' for Inactive)
REMARK    1  A    between atoms: C2_2  and  C3_3
REMARK    2  A    between atoms: C3_3  and  C6_6
REMARK    3  A    between atoms: C6_6  and  O1_7
REMARK    4  A    between atoms: O1_7  and  C7_8
REMARK    5  A    between atoms: C18_24  and  O2_25
ROOT
HETATM    1  C7  UNL     1       5.653  13.391  11.245  1.00  0.00     0.103 A
HETATM    2  C8  UNL     1       5.892  14.728  10.984  1.00  0.00     0.053 A
HETATM    3  C9  UNL     1       4.830  15.617  10.852  1.00  0.00    -0.006 A
HETATM    4  C10 UNL     1       5.070  16.952  10.592  1.00  0.00     0.032 A
HETATM    5  C11 UNL     1       3.970  17.807  10.467  1.00  0.00     0.049 A
HETATM    6  C12 UNL     1       3.861  19.159  10.215  1.00  0.00     0.152 A
HETATM    7  F1  UNL     1       4.920  19.979  10.025  1.00  0.00    -0.203 F
HETATM    8  C13 UNL     1       2.516  19.452  10.205  1.00  0.00     0.046 A
HETATM    9  C14 UNL     1       1.925  20.803   9.969  1.00  0.00     0.071 C
HETATM   10  N1  UNL     1       1.792  18.347  10.437  1.00  0.00    -0.343 N
ATOM     11  H1  UNL     1       0.775  18.279  10.484  1.00  0.00     0.167 HD
HETATM   12  C15 UNL     1       2.679  17.343  10.598  1.00  0.00     0.119 A
HETATM   13  N2  UNL     1       2.493  16.039  10.850  1.00  0.00    -0.341 N
ATOM     14  H2  UNL     1       1.541  15.687  10.949  1.00  0.00     0.167 HD
HETATM   15  C16 UNL     1       3.527  15.176  10.978  1.00  0.00     0.046 A
HETATM   16  C17 UNL     1       3.276  13.838  11.239  1.00  0.00     0.069 A
HETATM   17  C18 UNL     1       4.347  12.971  11.368  1.00  0.00     0.101 A
ENDROOT
BRANCH   1  18
HETATM   18  O1  UNL     1       6.665  12.462  11.387  1.00  0.00    -0.344 OA
BRANCH  18  19
HETATM   19  C6  UNL     1       7.556  12.133  10.339  1.00  0.00     0.214 C
BRANCH  19  20
HETATM   20  C3  UNL     1       6.883  11.270   9.320  1.00  0.00    -0.039 C
HETATM   21  C4  UNL     1       6.573  10.023   9.611  1.00  0.00    -0.022 C
HETATM   22  C5  UNL     1       5.912   9.172   8.614  1.00  0.00     0.036 C
BRANCH  20  23
HETATM   23  C2  UNL     1       6.556  11.781   7.996  1.00  0.00    -0.001 C
HETATM   24  C1  UNL     1       6.618  13.056   7.683  1.00  0.00     0.012 C
ENDBRANCH  20  23
ENDBRANCH  19  20
ENDBRANCH  18  19
ENDBRANCH   1  18
BRANCH  17  25
HETATM   25  O2  UNL     1       4.107  11.612  11.631  1.00  0.00    -0.358 OA
ATOM     26  H2  UNL     1       3.288  11.234  11.333  1.00  0.00     0.217 HD
ENDBRANCH  17  25
TORSDOF 5
ENDMDL