MODEL 4
REMARK VINA RESULT: -6.779767681      3.829      5.587
REMARK  4 active torsions:
REMARK  status: ('A' for Active; 'I' for Inactive)
REMARK    1  A    between atoms: C4_7  and  C5_8
REMARK       I    between atoms: C5_8  and  N2_10
REMARK    2  A    between atoms: N2_10  and  C6_12
REMARK    3  A    between atoms: C6_12  and  C7_13
REMARK    4  A    between atoms: C18_24  and  O2_25
ROOT
HETATM    1  C5  UNL     1       6.207  13.431  11.923  1.00  0.00     0.268 C
HETATM    2  O1  UNL     1       6.227  13.317  13.187  1.00  0.00    -0.266 OA
HETATM    3  N2  UNL     1       6.024  14.688  11.300  1.00  0.00    -0.351 N
ATOM      4  H2  UNL     1       6.016  14.740  10.282  1.00  0.00     0.163 HD
ENDROOT
BRANCH   1   5
HETATM    5  C4  UNL     1       6.379  12.235  11.138  1.00  0.00     0.101 A
HETATM    6  N1  UNL     1       6.653  12.308   9.756  1.00  0.00    -0.347 N
HETATM    7  C3  UNL     1       6.812  11.110   8.993  1.00  0.00     0.100 A
ATOM      8  H1  UNL     1       6.737  13.217   9.300  1.00  0.00     0.166 HD
HETATM    9  C2  UNL     1       7.070  11.170   7.702  1.00  0.00     0.119 C
HETATM   10  C18 UNL     1       6.684   9.838   9.678  1.00  0.00     0.095 A
HETATM   11  C1  UNL     1       7.203  12.452   7.001  1.00  0.00     0.084 C
HETATM   12  F1  UNL     1       7.212  10.020   7.008  1.00  0.00    -0.209 F
HETATM   13  C17 UNL     1       6.429   9.812  10.970  1.00  0.00     0.041 A
HETATM   14  C16 UNL     1       6.270  11.054  11.731  1.00  0.00     0.038 A
BRANCH  10  15
HETATM   15  O2  UNL     1       6.827   8.641   9.000  1.00  0.00    -0.358 OA
ATOM     16  H2  UNL     1       6.117   8.011   8.959  1.00  0.00     0.217 HD
ENDBRANCH  10  15
ENDBRANCH   1   5
BRANCH   3  17
HETATM   17  C6  UNL     1       5.848  15.913  12.078  1.00  0.00     0.161 C
BRANCH  17  18
HETATM   18  C7  UNL     1       4.725  16.657  11.409  1.00  0.00    -0.040 A
HETATM   19  C8  UNL     1       3.840  15.987  10.585  1.00  0.00     0.009 A
HETATM   20  C9  UNL     1       2.810  16.662   9.970  1.00  0.00     0.008 A
HETATM   21  C10 UNL     1       2.661  18.022  10.180  1.00  0.00    -0.052 A
HETATM   22  C11 UNL     1       3.521  18.689  10.986  1.00  0.00    -0.051 A
HETATM   23  C15 UNL     1       1.645  18.989   9.649  1.00  0.00     0.039 A
HETATM   24  C12 UNL     1       4.569  18.012  11.613  1.00  0.00     0.016 A
HETATM   25  C13 UNL     1       3.216  20.138  11.096  1.00  0.00     0.039 A
HETATM   26  C14 UNL     1       2.015  20.317  10.231  1.00  0.00     0.009 A
ENDBRANCH  17  18
ENDBRANCH   3  17
TORSDOF 4
ENDMDL