MODEL 4
REMARK VINA RESULT: -6.408426755      3.171      4.834
REMARK  4 active torsions:
REMARK  status: ('A' for Active; 'I' for Inactive)
REMARK    1  A    between atoms: C6_6  and  C7_7
REMARK    2  A    between atoms: C7_7  and  C8_8
REMARK       I    between atoms: C8_8  and  N1_10
REMARK    3  A    between atoms: N1_10  and  C9_12
REMARK    4  A    between atoms: C18_23  and  O2_24
ROOT
HETATM    1  C9  UNL     1       3.782  14.220   8.037  1.00  0.00     0.070 A
HETATM    2  C10 UNL     1       2.927  13.150   8.044  1.00  0.00     0.062 A
HETATM    3  C11 UNL     1       2.230  12.736   6.927  1.00  0.00     0.045 A
HETATM    4  N2  UNL     1       1.360  11.724   6.721  1.00  0.00    -0.365 N
ATOM      5  H2  UNL     1       1.061  11.058   7.433  1.00  0.00     0.165 HD
HETATM    6  C12 UNL     1       0.948  11.719   5.457  1.00  0.00     0.096 A
HETATM    7  C13 UNL     1       1.571  12.779   4.776  1.00  0.00    -0.034 A
HETATM    8  C14 UNL     1       1.395  13.122   3.350  1.00  0.00     0.050 C
HETATM    9  C15 UNL     1       2.361  13.395   5.711  1.00  0.00     0.007 A
HETATM   10  C16 UNL     1       3.214  14.480   5.663  1.00  0.00    -0.013 A
HETATM   11  C17 UNL     1       3.332  15.190   4.364  1.00  0.00     0.052 C
HETATM   12  C18 UNL     1       3.899  14.877   6.786  1.00  0.00     0.099 A
ENDROOT
BRANCH   1  13
HETATM   13  N1  UNL     1       4.519  14.704   9.111  1.00  0.00    -0.325 N
HETATM   14  C8  UNL     1       4.049  15.471  10.187  1.00  0.00     0.222 C
HETATM   15  O1  UNL     1       2.869  15.817  10.299  1.00  0.00    -0.273 OA
ATOM     16  H1  UNL     1       5.513  14.476   9.118  1.00  0.00     0.169 HD
BRANCH  14  17
HETATM   17  C7  UNL     1       4.990  15.916  11.272  1.00  0.00     0.112 C
BRANCH  17  18
HETATM   18  C6  UNL     1       5.831  14.761  11.692  1.00  0.00     0.023 C
HETATM   19  C2  UNL     1       6.453  14.996  13.039  1.00  0.00    -0.083 C
HETATM   20  C1  UNL     1       6.896  16.303  13.597  1.00  0.00     0.043 C
HETATM   21  C3  UNL     1       6.560  13.846  13.682  1.00  0.00    -0.024 C
HETATM   22  C4  UNL     1       6.026  12.733  12.848  1.00  0.00     0.028 C
HETATM   23  C5  UNL     1       5.012  13.518  11.996  1.00  0.00     0.013 C
ENDBRANCH  17  18
ENDBRANCH  14  17
ENDBRANCH   1  13
BRANCH  12  24
HETATM   24  O2  UNL     1       4.760  15.957   6.761  1.00  0.00    -0.358 OA
ATOM     25  H2  UNL     1       5.090  16.236   7.607  1.00  0.00     0.217 HD
ENDBRANCH  12  24
TORSDOF 4
ENDMDL