MODEL 3
REMARK VINA RESULT: -6.955144883      4.257      7.205
REMARK  4 active torsions:
REMARK  status: ('A' for Active; 'I' for Inactive)
REMARK    1  A    between atoms: C5_5  and  C6_6
REMARK    2  A    between atoms: C6_6  and  N1_7
REMARK       I    between atoms: N1_7  and  C7_9
REMARK       I    between atoms: C7_9  and  N2_11
REMARK    3  A    between atoms: N2_11  and  C8_13
REMARK    4  A    between atoms: C15_20  and  O2_21
ROOT
HETATM    1  C1  UNL     1       3.076  16.877  11.352  1.00  0.00     0.051 C
HETATM    2  C2  UNL     1       4.037  16.047  10.582  1.00  0.00    -0.022 A
HETATM    3  C3  UNL     1       3.682  15.515   9.364  1.00  0.00     0.022 A
HETATM    4  C4  UNL     1       4.567  14.733   8.625  1.00  0.00    -0.015 A
HETATM    5  C5  UNL     1       4.186  14.205   7.395  1.00  0.00    -0.029 A
HETATM    6  C13 UNL     1       5.037  13.435   6.653  1.00  0.00     0.012 A
HETATM    7  C14 UNL     1       6.328  13.149   7.104  1.00  0.00     0.038 A
HETATM    8  C15 UNL     1       6.710  13.680   8.340  1.00  0.00     0.076 A
HETATM    9  C16 UNL     1       5.835  14.453   9.072  1.00  0.00     0.011 A
HETATM   10  C17 UNL     1       6.193  14.988  10.299  1.00  0.00     0.058 A
HETATM   11  C18 UNL     1       5.305  15.775  11.042  1.00  0.00     0.123 A
HETATM   12  F1  UNL     1       5.677  16.291  12.246  1.00  0.00    -0.206 F
ENDROOT
BRANCH   5  13
HETATM   13  C6  UNL     1       2.807  14.508   6.965  1.00  0.00     0.163 C
BRANCH  13  14
HETATM   14  N1  UNL     1       2.381  13.916   5.747  1.00  0.00    -0.339 N
HETATM   15  C7  UNL     1       1.327  12.983   5.600  1.00  0.00     0.316 C
HETATM   16  O1  UNL     1       0.706  12.626   6.656  1.00  0.00    -0.247 OA
HETATM   17  N2  UNL     1       0.962  12.460   4.342  1.00  0.00    -0.339 N
ATOM     18  H2  UNL     1       1.463  12.751   3.502  1.00  0.00     0.164 HD
ATOM     19  H1  UNL     1       2.882  14.188   4.901  1.00  0.00     0.164 HD
BRANCH  17  20
HETATM   20  C8  UNL     1      -0.111  11.520   4.249  1.00  0.00     0.086 C
HETATM   21  C9  UNL     1      -0.943  11.658   3.023  1.00  0.00     0.025 C
HETATM   22  C10 UNL     1      -1.107  10.280   2.413  1.00  0.00     0.002 C
HETATM   23  C11 UNL     1      -0.643   9.348   3.533  1.00  0.00     0.002 C
HETATM   24  C12 UNL     1       0.525  10.134   4.090  1.00  0.00     0.025 C
ENDBRANCH  17  20
ENDBRANCH  13  14
ENDBRANCH   5  13
BRANCH   8  25
HETATM   25  O2  UNL     1       7.986  13.390   8.775  1.00  0.00    -0.360 OA
ATOM     26  H2  UNL     1       8.069  12.733   9.456  1.00  0.00     0.217 HD
ENDBRANCH   8  25
TORSDOF 4
ENDMDL