MODEL 4
REMARK VINA RESULT: -6.698201142      0.752      1.022
REMARK  6 active torsions:
REMARK  status: ('A' for Active; 'I' for Inactive)
REMARK    1  A    between atoms: C2_2  and  C3_3
REMARK    2  A    between atoms: C3_3  and  C4_6
REMARK       I    between atoms: C4_6  and  N1_8
REMARK    3  A    between atoms: N1_8  and  C5_10
REMARK    4  A    between atoms: C12_18  and  C13_19
REMARK       I    between atoms: C13_19  and  N2_21
REMARK    5  A    between atoms: N2_21  and  C14_23
REMARK    6  A    between atoms: C14_23  and  C15_24
ROOT
HETATM    1  C5  UNL     1      20.956  41.972  54.013  1.00  0.00     0.232 C
HETATM    2  O2  UNL     1      21.604  42.896  53.188  1.00  0.00    -0.360 OA
HETATM    3  C6  UNL     1      22.848  43.126  53.742  1.00  0.00     0.128 C
HETATM    4  C7  UNL     1      23.815  43.795  52.829  1.00  0.00     0.040 C
HETATM    5  C8  UNL     1      22.663  43.844  55.056  1.00  0.00     0.050 C
HETATM    6  C9  UNL     1      21.497  44.774  54.907  1.00  0.00    -0.022 C
HETATM    7  C10 UNL     1      20.369  44.102  55.064  1.00  0.00    -0.020 C
HETATM    8  C11 UNL     1      20.676  42.671  55.330  1.00  0.00     0.070 C
HETATM    9  C12 UNL     1      22.036  42.810  56.005  1.00  0.00     0.100 C
ENDROOT
BRANCH   1  10
HETATM   10  N1  UNL     1      19.763  41.430  53.409  1.00  0.00    -0.331 N
HETATM   11  C4  UNL     1      19.765  40.827  52.138  1.00  0.00     0.258 C
HETATM   12  O1  UNL     1      20.831  40.750  51.497  1.00  0.00    -0.270 OA
ATOM     13  H1  UNL     1      18.884  41.487  53.923  1.00  0.00     0.165 HD
BRANCH  11  14
HETATM   14  C3  UNL     1      18.518  40.291  51.568  1.00  0.00     0.192 C
HETATM   15 CL1  UNL     1      18.503  40.328  49.800  1.00  0.00    -0.091 Cl
HETATM   16 CL2  UNL     1      17.126  41.279  52.123  1.00  0.00    -0.091 Cl
BRANCH  14  17
HETATM   17  C2  UNL     1      18.306  38.830  51.981  1.00  0.00     0.048 C
HETATM   18  C1  UNL     1      18.250  37.951  50.778  1.00  0.00     0.009 C
ENDBRANCH  14  17
ENDBRANCH  11  14
ENDBRANCH   1  10
BRANCH   9  19
HETATM   19  C13 UNL     1      21.785  43.427  57.357  1.00  0.00     0.227 C
HETATM   20  O3  UNL     1      22.591  44.251  57.833  1.00  0.00    -0.273 OA
HETATM   21  N2  UNL     1      20.624  43.050  58.059  1.00  0.00    -0.339 N
ATOM     22  H2  UNL     1      20.015  42.384  57.586  1.00  0.00     0.167 HD
BRANCH  21  23
HETATM   23  C14 UNL     1      20.199  43.475  59.328  1.00  0.00     0.079 C
BRANCH  23  24
HETATM   24  C15 UNL     1      18.773  43.354  59.727  1.00  0.00     0.159 C
HETATM   25 CL3  UNL     1      18.460  43.027  61.416  1.00  0.00    -0.125 Cl
ENDBRANCH  23  24
ENDBRANCH  21  23
ENDBRANCH   9  19
TORSDOF 6
ENDMDL