MODEL 2
REMARK VINA RESULT: -5.617586467      3.664      4.733
REMARK  8 active torsions:
REMARK  status: ('A' for Active; 'I' for Inactive)
REMARK    1  A    between atoms: O1_2  and  C2_3
REMARK    2  A    between atoms: C2_3  and  C3_5
REMARK    3  A    between atoms: C3_5  and  C4_6
REMARK    4  A    between atoms: C8_10  and  N1_11
REMARK    5  A    between atoms: N1_11  and  C9_13
REMARK    6  A    between atoms: C9_13  and  N2_15
REMARK    7  A    between atoms: N2_15  and  C10_17
REMARK    8  A    between atoms: C10_17  and  C11_18
ROOT
HETATM    1  C4  UNL     1      25.736  45.684  54.732  1.00  0.00     0.021 C
HETATM    2  C5  UNL     1      25.519  45.345  53.272  1.00  0.00     0.019 C
HETATM    3  C6  UNL     1      25.517  43.832  53.216  1.00  0.00    -0.009 C
HETATM    4  C7  UNL     1      24.136  43.395  53.622  1.00  0.00     0.036 C
HETATM    5  C8  UNL     1      23.765  43.759  55.021  1.00  0.00     0.037 C
HETATM    6  C12 UNL     1      23.333  45.221  55.060  1.00  0.00     0.069 C
HETATM    7  C13 UNL     1      24.454  46.178  55.306  1.00  0.00     0.183 C
HETATM    8  F2  UNL     1      24.566  46.532  56.641  1.00  0.00    -0.248 F
HETATM    9  C14 UNL     1      24.916  43.658  56.005  1.00  0.00     0.057 C
HETATM   10  C15 UNL     1      26.097  44.365  55.404  1.00  0.00     0.050 C
HETATM   11 CL1  UNL     1      27.316  44.579  56.660  1.00  0.00    -0.118 Cl
HETATM   12  C16 UNL     1      26.577  43.524  54.256  1.00  0.00     0.031 C
ENDROOT
BRANCH   5  13
HETATM   13  N1  UNL     1      22.629  42.958  55.425  1.00  0.00    -0.358 N
ATOM     14  H1  UNL     1      22.595  42.006  55.062  1.00  0.00     0.162 HD
BRANCH  13  15
HETATM   15  C9  UNL     1      21.575  43.345  56.257  1.00  0.00     0.168 C
HETATM   16  S1  UNL     1      21.676  43.586  57.875  1.00  0.00    -0.041 SA
BRANCH  15  17
HETATM   17  N2  UNL     1      20.288  43.564  55.689  1.00  0.00    -0.365 N
ATOM     18  H2  UNL     1      19.492  43.772  56.291  1.00  0.00     0.161 HD
BRANCH  17  19
HETATM   19  C10 UNL     1      20.113  43.491  54.251  1.00  0.00     0.153 C
BRANCH  19  20
HETATM   20  C11 UNL     1      19.126  42.445  53.845  1.00  0.00     0.241 C
HETATM   21  F1  UNL     1      19.843  41.249  53.707  1.00  0.00    -0.254 F
ENDBRANCH  19  20
ENDBRANCH  17  19
ENDBRANCH  15  17
ENDBRANCH  13  15
ENDBRANCH   5  13
BRANCH   1  22
HETATM   22  C3  UNL     1      26.882  46.644  54.790  1.00  0.00     0.125 C
BRANCH  22  23
HETATM   23  C2  UNL     1      27.111  47.469  53.617  1.00  0.00     0.259 C
HETATM   24  O2  UNL     1      28.007  47.249  52.779  1.00  0.00    -0.265 OA
BRANCH  23  25
HETATM   25  O1  UNL     1      26.290  48.568  53.406  1.00  0.00    -0.326 OA
HETATM   26  C1  UNL     1      25.780  48.842  52.095  1.00  0.00     0.213 C
ENDBRANCH  23  25
ENDBRANCH  22  23
ENDBRANCH   1  22
TORSDOF 8
ENDMDL