MODEL 3
REMARK VINA RESULT: -6.899225795      2.496      3.458
REMARK  5 active torsions:
REMARK  status: ('A' for Active; 'I' for Inactive)
REMARK    1  A    between atoms: C2_2  and  N1_3
REMARK    2  A    between atoms: C2_2  and  C11_17
REMARK       I    between atoms: N1_3  and  C3_5
REMARK    3  A    between atoms: C3_5  and  C4_7
REMARK    4  A    between atoms: C4_7  and  N2_8
REMARK    5  A    between atoms: C8_12  and  C9_13
ROOT
HETATM    1  N1  UNL     1      23.278  43.579  55.690  1.00  0.00    -0.349 N
ATOM      2  H1  UNL     1      23.788  42.696  55.680  1.00  0.00     0.163 HD
HETATM    3  C3  UNL     1      22.473  43.890  54.562  1.00  0.00     0.257 C
HETATM    4  O1  UNL     1      21.849  44.973  54.574  1.00  0.00    -0.267 OA
ENDROOT
BRANCH   1   5
HETATM    5  C2  UNL     1      23.425  44.414  56.834  1.00  0.00     0.121 C
HETATM    6  C1  UNL     1      24.931  44.661  57.072  1.00  0.00     0.036 C
BRANCH   5   7
HETATM    7  C11 UNL     1      22.875  43.920  58.114  1.00  0.00     0.136 C
HETATM    8  F1  UNL     1      23.790  43.033  58.702  1.00  0.00    -0.240 F
HETATM    9  C12 UNL     1      21.518  43.256  58.057  1.00  0.00     0.089 C
HETATM   10  C13 UNL     1      21.337  43.740  59.500  1.00  0.00     0.126 C
HETATM   11 CL1  UNL     1      19.722  44.365  59.854  1.00  0.00    -0.101 Cl
HETATM   12 CL2  UNL     1      21.916  42.562  60.670  1.00  0.00    -0.101 Cl
HETATM   13  C14 UNL     1      22.353  44.839  59.141  1.00  0.00     0.026 C
HETATM   14  C15 UNL     1      21.601  46.064  58.759  1.00  0.00     0.021 C
HETATM   15  C16 UNL     1      23.245  45.095  60.339  1.00  0.00     0.021 C
ENDBRANCH   5   7
ENDBRANCH   1   5
BRANCH   3  16
HETATM   16  C4  UNL     1      22.336  43.008  53.385  1.00  0.00     0.160 C
BRANCH  16  17
HETATM   17  N2  UNL     1      21.022  42.552  53.182  1.00  0.00    -0.385 N
HETATM   18  C5  UNL     1      20.166  42.402  54.300  1.00  0.00     0.122 C
HETATM   19  C6  UNL     1      18.697  42.496  53.957  1.00  0.00     0.021 C
HETATM   20  C7  UNL     1      18.391  41.897  52.604  1.00  0.00     0.019 C
HETATM   21  C8  UNL     1      19.487  40.895  52.274  1.00  0.00     0.105 C
HETATM   22  C10 UNL     1      20.754  41.715  52.071  1.00  0.00     0.137 C
BRANCH  21  23
HETATM   23  C9  UNL     1      19.160  40.204  51.020  1.00  0.00     0.178 C
HETATM   24  O2  UNL     1      20.026  39.575  50.344  1.00  0.00    -0.648 OA
HETATM   25  O3  UNL     1      17.872  40.215  50.521  1.00  0.00    -0.648 OA
ENDBRANCH  21  23
ENDBRANCH  16  17
ENDBRANCH   3  16
TORSDOF 5
ENDMDL