MODEL 4
REMARK VINA RESULT: -7.315371313      0.827      1.276
REMARK  6 active torsions:
REMARK  status: ('A' for Active; 'I' for Inactive)
REMARK    1  A    between atoms: C2_2  and  C3_3
REMARK    2  A    between atoms: C2_2  and  N3_21
REMARK    3  A    between atoms: C3_3  and  C4_4
REMARK       I    between atoms: C4_4  and  N1_6
REMARK    4  A    between atoms: C8_10  and  C9_11
REMARK       I    between atoms: C9_11  and  N2_13
REMARK    5  A    between atoms: N2_13  and  C10_15
REMARK       I    between atoms: N3_21  and  C14_23
REMARK    6  A    between atoms: C14_23  and  C15_25
ROOT
HETATM    1  C4  UNL     1      23.818  43.761  54.186  1.00  0.00     0.222 C
HETATM    2  O1  UNL     1      23.721  42.831  53.344  1.00  0.00    -0.273 OA
HETATM    3  N1  UNL     1      22.980  43.803  55.326  1.00  0.00    -0.339 N
HETATM    4  C5  UNL     1      23.007  44.825  56.355  1.00  0.00     0.127 C
HETATM    5  C6  UNL     1      22.544  44.026  57.570  1.00  0.00     0.022 C
HETATM    6  C7  UNL     1      21.359  43.269  56.962  1.00  0.00     0.037 C
HETATM    7  C8  UNL     1      21.960  42.828  55.639  1.00  0.00     0.179 C
ENDROOT
BRANCH   1   8
HETATM    8  C3  UNL     1      24.853  44.806  53.925  1.00  0.00     0.127 C
BRANCH   8   9
HETATM    9  C2  UNL     1      25.935  44.281  53.012  1.00  0.00     0.089 C
HETATM   10  C1  UNL     1      26.820  43.361  53.853  1.00  0.00     0.032 C
BRANCH   9  11
HETATM   11  N3  UNL     1      26.701  45.444  52.567  1.00  0.00    -0.356 N
HETATM   12  C14 UNL     1      26.370  46.120  51.363  1.00  0.00     0.225 C
HETATM   13  O3  UNL     1      25.398  45.696  50.679  1.00  0.00    -0.273 OA
ATOM     14  H3  UNL     1      27.484  45.775  53.131  1.00  0.00     0.162 HD
BRANCH  12  15
HETATM   15  C15 UNL     1      27.109  47.290  50.877  1.00  0.00     0.030 C
HETATM   16  C16 UNL     1      28.517  47.376  51.472  1.00  0.00     0.024 C
HETATM   17  C17 UNL     1      26.414  48.586  51.243  1.00  0.00     0.024 C
HETATM   18  C18 UNL     1      27.273  47.260  49.374  1.00  0.00     0.024 C
ENDBRANCH  12  15
ENDBRANCH   9  11
ENDBRANCH   8   9
ENDBRANCH   1   8
BRANCH   7  19
HETATM   19  C9  UNL     1      20.853  42.817  54.651  1.00  0.00     0.241 C
HETATM   20  O2  UNL     1      20.010  43.750  54.746  1.00  0.00    -0.271 OA
HETATM   21  N2  UNL     1      20.798  41.803  53.690  1.00  0.00    -0.354 N
ATOM     22  H2  UNL     1      21.532  41.094  53.702  1.00  0.00     0.162 HD
BRANCH  21  23
HETATM   23  C10 UNL     1      19.768  41.692  52.678  1.00  0.00     0.095 C
HETATM   24  C11 UNL     1      20.279  41.575  51.258  1.00  0.00     0.104 C
HETATM   25  C12 UNL     1      19.200  40.529  51.026  1.00  0.00     0.247 C
HETATM   26  F1  UNL     1      19.591  39.462  50.253  1.00  0.00    -0.206 F
HETATM   27  F2  UNL     1      18.048  41.170  50.591  1.00  0.00    -0.206 F
HETATM   28  C13 UNL     1      19.227  40.266  52.517  1.00  0.00     0.104 C
ENDBRANCH  21  23
ENDBRANCH   7  19
TORSDOF 6
ENDMDL