MODEL 4
REMARK VINA RESULT: -7.526579743      3.770      4.368
REMARK  6 active torsions:
REMARK  status: ('A' for Active; 'I' for Inactive)
REMARK    1  A    between atoms: C1_2  and  C2_4
REMARK    2  A    between atoms: N2_7  and  C5_8
REMARK    3  A    between atoms: C8_11  and  N3_12
REMARK       I    between atoms: N3_12  and  C9_14
REMARK    4  A    between atoms: C9_14  and  C10_16
REMARK    5  A    between atoms: C10_16  and  C11_17
REMARK    6  A    between atoms: C11_17  and  C12_19
ROOT
HETATM    1  C5  UNL     1      20.501  42.924  54.211  1.00  0.00     0.079 C
HETATM    2  C6  UNL     1      21.297  44.152  53.819  1.00  0.00     0.027 C
HETATM    3  C7  UNL     1      21.672  44.917  55.061  1.00  0.00     0.027 C
HETATM    4  C8  UNL     1      22.311  44.070  56.120  1.00  0.00     0.084 C
HETATM    5  C13 UNL     1      21.583  42.771  56.374  1.00  0.00     0.027 C
HETATM    6  C14 UNL     1      21.411  42.057  55.048  1.00  0.00     0.027 C
ENDROOT
BRANCH   4   7
HETATM    7  N3  UNL     1      23.670  43.835  55.768  1.00  0.00    -0.353 N
HETATM    8  C9  UNL     1      24.711  44.055  56.754  1.00  0.00     0.243 C
HETATM    9  O2  UNL     1      24.299  44.445  57.856  1.00  0.00    -0.269 OA
ATOM     10  H3  UNL     1      23.909  43.513  54.830  1.00  0.00     0.163 HD
BRANCH   8  11
HETATM   11  C10 UNL     1      26.063  43.790  56.308  1.00  0.00     0.101 C
BRANCH  11  12
HETATM   12  C11 UNL     1      26.638  44.365  55.116  1.00  0.00     0.089 C
HETATM   13 CL1  UNL     1      27.373  46.016  55.429  1.00  0.00    -0.080 Cl
BRANCH  12  14
HETATM   14  C12 UNL     1      26.738  43.954  53.893  1.00  0.00     0.207 C
HETATM   15  F1  UNL     1      27.743  43.295  53.307  1.00  0.00    -0.191 F
HETATM   16 CL2  UNL     1      25.372  44.277  52.765  1.00  0.00    -0.050 Cl
ENDBRANCH  12  14
ENDBRANCH  11  12
ENDBRANCH   8  11
ENDBRANCH   4   7
BRANCH   1  17
HETATM   17  N2  UNL     1      19.836  42.274  53.166  1.00  0.00    -0.408 N
HETATM   18  C4  UNL     1      20.465  42.132  51.915  1.00  0.00     0.118 C
HETATM   19  C3  UNL     1      20.223  40.700  51.426  1.00  0.00     0.033 C
HETATM   20  C2  UNL     1      19.073  40.103  52.188  1.00  0.00     0.078 C
HETATM   21  C16 UNL     1      17.928  41.102  52.378  1.00  0.00     0.033 C
HETATM   22  C15 UNL     1      18.425  42.360  53.090  1.00  0.00     0.118 C
BRANCH  20  23
HETATM   23  C1  UNL     1      18.500  38.910  51.554  1.00  0.00     0.235 C
HETATM   24  N1  UNL     1      17.461  38.223  52.188  1.00  0.00    -0.062 NA
HETATM   25  O1  UNL     1      18.943  38.517  50.459  1.00  0.00    -0.277 OA
ENDBRANCH  20  23
ENDBRANCH   1  17
TORSDOF 6
ENDMDL