MODEL 5
REMARK VINA RESULT: -7.210253505      3.088      6.719
REMARK  5 active torsions:
REMARK  status: ('A' for Active; 'I' for Inactive)
REMARK       I    between atoms: C2_2  and  N1_4
REMARK    1  A    between atoms: N1_4  and  C3_6
REMARK    2  A    between atoms: C3_6  and  C4_7
REMARK    3  A    between atoms: C4_7  and  C5_8
REMARK       I    between atoms: C5_8  and  N2_10
REMARK    4  A    between atoms: N2_10  and  C6_12
REMARK    5  A    between atoms: C6_12  and  C7_14
ROOT
HETATM    1  C5  UNL     1      23.272  44.036  54.999  1.00  0.00     0.253 C
HETATM    2  O2  UNL     1      23.467  42.799  54.906  1.00  0.00    -0.270 OA
HETATM    3  N2  UNL     1      24.252  44.900  54.447  1.00  0.00    -0.328 N
ATOM      4  H2  UNL     1      24.129  45.911  54.498  1.00  0.00     0.165 HD
ENDROOT
BRANCH   1   5
HETATM    5  C4  UNL     1      22.043  44.491  55.666  1.00  0.00     0.148 C
HETATM    6  C14 UNL     1      22.033  45.995  55.614  1.00  0.00     0.056 C
HETATM    7  C15 UNL     1      22.247  46.522  57.002  1.00  0.00     0.106 C
HETATM    8  C16 UNL     1      22.731  45.287  57.713  1.00  0.00     0.220 C
HETATM    9  O3  UNL     1      23.544  45.288  58.669  1.00  0.00    -0.273 OA
HETATM   10  N3  UNL     1      22.096  44.182  57.095  1.00  0.00    -0.334 N
HETATM   11  C17 UNL     1      21.619  43.002  57.786  1.00  0.00     0.154 C
BRANCH   5  12
HETATM   12  C3  UNL     1      20.782  43.999  55.073  1.00  0.00     0.105 C
BRANCH  12  13
HETATM   13  N1  UNL     1      20.734  43.393  53.806  1.00  0.00    -0.338 N
HETATM   14  C2  UNL     1      19.782  42.644  53.146  1.00  0.00     0.217 C
HETATM   15  C1  UNL     1      20.074  42.156  51.742  1.00  0.00     0.117 C
HETATM   16  O1  UNL     1      18.677  42.311  53.578  1.00  0.00    -0.274 OA
ATOM     17  H1  UNL     1      21.582  43.538  53.258  1.00  0.00     0.167 HD
ENDBRANCH  12  13
ENDBRANCH   5  12
ENDBRANCH   1   5
BRANCH   3  18
HETATM   18  C6  UNL     1      25.413  44.351  53.819  1.00  0.00     0.282 C
HETATM   19  F1  UNL     1      25.179  44.144  52.465  1.00  0.00    -0.226 F
BRANCH  18  20
HETATM   20  C7  UNL     1      26.701  45.048  54.077  1.00  0.00     0.122 C
HETATM   21  C8  UNL     1      26.348  46.239  55.041  1.00  0.00     0.095 C
HETATM   22  C9  UNL     1      27.355  46.266  56.005  1.00  0.00    -0.182 C
HETATM   23  C10 UNL     1      28.361  46.241  56.987  1.00  0.00     0.080 C
HETATM   24  C11 UNL     1      29.220  44.969  56.648  1.00  0.00     0.017 C
HETATM   25  C12 UNL     1      28.983  44.506  55.228  1.00  0.00     0.080 C
HETATM   26  C13 UNL     1      27.735  44.122  54.647  1.00  0.00     0.252 C
HETATM   27  F2  UNL     1      28.148  43.469  53.437  1.00  0.00    -0.206 F
HETATM   28  F3  UNL     1      27.138  43.007  55.273  1.00  0.00    -0.206 F
ENDBRANCH  18  20
ENDBRANCH   3  18
TORSDOF 5
ENDMDL