MODEL 5
REMARK VINA RESULT: -7.031820163      1.550      1.832
REMARK  6 active torsions:
REMARK  status: ('A' for Active; 'I' for Inactive)
REMARK    1  A    between atoms: C2_2  and  C3_3
REMARK    2  A    between atoms: C2_2  and  C4_8
REMARK    3  A    between atoms: C2_2  and  C9_16
REMARK    4  A    between atoms: C3_3  and  N1_4
REMARK    5  A    between atoms: C4_8  and  C5_9
REMARK    6  A    between atoms: C13_23  and  C14_24
REMARK       I    between atoms: C14_24  and  N3_26
ROOT
HETATM    1  C9  UNL     1      23.641  44.339  54.138  1.00  0.00     0.028 C
HETATM    2  C10 UNL     1      24.659  43.681  53.169  1.00  0.00     0.017 C
HETATM    3  C11 UNL     1      25.440  44.730  52.433  1.00  0.00     0.103 C
HETATM    4  C12 UNL     1      25.744  45.897  53.293  1.00  0.00     0.218 C
HETATM    5  O1  UNL     1      26.603  46.712  52.854  1.00  0.00    -0.274 OA
HETATM    6  N2  UNL     1      25.135  46.107  54.508  1.00  0.00    -0.347 N
ATOM      7  H2  UNL     1      25.138  47.029  54.944  1.00  0.00     0.163 HD
HETATM    8  C13 UNL     1      24.460  44.932  55.180  1.00  0.00     0.181 C
ENDROOT
BRANCH   1   9
HETATM    9  C2  UNL     1      22.428  43.537  54.287  1.00  0.00    -0.014 C
HETATM   10  C1  UNL     1      22.636  42.559  55.448  1.00  0.00     0.017 C
BRANCH   9  11
HETATM   11  C3  UNL     1      21.317  44.422  54.904  1.00  0.00     0.239 C
BRANCH  11  12
HETATM   12  N1  UNL     1      20.899  44.165  56.198  1.00  0.00    -0.079 N
ATOM     13  H13 UNL     1      20.132  43.493  56.168  1.00  0.00     0.274 HD
ATOM     14  H12 UNL     1      21.619  43.624  56.675  1.00  0.00     0.274 HD
ATOM     15  H11 UNL     1      20.628  44.949  56.793  1.00  0.00     0.274 HD
ENDBRANCH  11  12
ENDBRANCH   9  11
BRANCH   9  16
HETATM   16  C4  UNL     1      21.942  42.798  53.117  1.00  0.00     0.019 C
BRANCH  16  17
HETATM   17  C5  UNL     1      20.531  42.456  52.957  1.00  0.00     0.032 C
HETATM   18  C6  UNL     1      19.910  41.274  53.589  1.00  0.00     0.089 C
HETATM   19  C7  UNL     1      19.047  41.151  52.315  1.00  0.00     0.274 C
HETATM   20  F1  UNL     1      18.766  39.869  51.953  1.00  0.00    -0.203 F
HETATM   21  F2  UNL     1      17.953  41.970  52.325  1.00  0.00    -0.203 F
HETATM   22  C8  UNL     1      20.275  41.746  51.607  1.00  0.00     0.246 C
HETATM   23  F3  UNL     1      19.875  42.570  50.606  1.00  0.00    -0.243 F
ENDBRANCH  16  17
ENDBRANCH   9  16
ENDBRANCH   1   9
BRANCH   8  24
HETATM   24  C14 UNL     1      24.008  45.502  56.409  1.00  0.00     0.243 C
HETATM   25  O2  UNL     1      23.193  46.481  56.415  1.00  0.00    -0.271 OA
HETATM   26  N3  UNL     1      24.403  45.073  57.671  1.00  0.00    -0.350 N
HETATM   27  C15 UNL     1      25.344  44.004  57.851  1.00  0.00     0.126 C
HETATM   28  C19 UNL     1      23.901  45.665  58.916  1.00  0.00     0.126 C
HETATM   29  C16 UNL     1      26.121  44.208  59.143  1.00  0.00     0.020 C
HETATM   30  C17 UNL     1      26.305  45.659  59.460  1.00  0.00     0.003 C
HETATM   31  C18 UNL     1      25.027  46.431  59.527  1.00  0.00     0.020 C
ENDBRANCH   8  24
TORSDOF 6
ENDMDL