MODEL 2
REMARK VINA RESULT: -6.553968322      2.617      8.175
REMARK  7 active torsions:
REMARK  status: ('A' for Active; 'I' for Inactive)
REMARK       I    between atoms: N2_7  and  C5_9
REMARK    1  A    between atoms: C5_9  and  C6_11
REMARK    2  A    between atoms: C6_11  and  C7_12
REMARK    3  A    between atoms: C7_12  and  C8_13
REMARK    4  A    between atoms: C8_13  and  O3_15
REMARK    5  A    between atoms: O3_15  and  C9_16
REMARK    6  A    between atoms: C9_16  and  C10_17
REMARK       I    between atoms: C10_17  and  N3_19
REMARK    7  A    between atoms: N3_19  and  C11_20
ROOT
HETATM    1  C1  UNL     1      21.220  45.521  63.412  1.00  0.00     0.049 C
HETATM    2  C2  UNL     1      21.073  44.973  62.024  1.00  0.00    -0.045 A
HETATM    3  C3  UNL     1      22.187  44.995  61.223  1.00  0.00     0.096 A
HETATM    4  N1  UNL     1      22.094  44.511  59.925  1.00  0.00    -0.350 N
ATOM      5  H1  UNL     1      22.924  44.528  59.332  1.00  0.00     0.166 HD
HETATM    6  C4  UNL     1      20.968  44.029  59.430  1.00  0.00     0.129 A
HETATM    7  N2  UNL     1      20.852  43.630  58.238  1.00  0.00    -0.312 N
ATOM      8  H2  UNL     1      19.918  43.290  58.009  1.00  0.00     0.170 HD
HETATM    9  C5  UNL     1      21.718  43.563  57.204  1.00  0.00     0.223 C
HETATM   10  O1  UNL     1      22.914  43.918  57.246  1.00  0.00    -0.273 OA
HETATM   11  C12 UNL     1      19.830  44.010  60.259  1.00  0.00     0.078 A
HETATM   12 CL3  UNL     1      18.313  43.393  59.650  1.00  0.00    -0.080 Cl
HETATM   13  C13 UNL     1      19.884  44.480  61.556  1.00  0.00     0.035 A
ENDROOT
BRANCH   9  14
HETATM   14  C6  UNL     1      21.320  43.032  55.832  1.00  0.00     0.113 C
BRANCH  14  15
HETATM   15  C7  UNL     1      22.179  43.690  54.811  1.00  0.00     0.120 C
BRANCH  15  16
HETATM   16  C8  UNL     1      22.352  42.809  53.603  1.00  0.00     0.259 C
HETATM   17  O2  UNL     1      23.514  42.399  53.237  1.00  0.00    -0.265 OA
BRANCH  16  18
HETATM   18  O3  UNL     1      21.373  42.399  52.863  1.00  0.00    -0.311 OA
BRANCH  18  19
HETATM   19  C9  UNL     1      20.666  41.754  52.016  1.00  0.00     0.297 C
BRANCH  19  20
HETATM   20  C10 UNL     1      19.182  41.637  52.456  1.00  0.00     0.313 C
HETATM   21  O4  UNL     1      18.869  42.462  53.346  1.00  0.00    -0.255 OA
HETATM   22  N3  UNL     1      18.459  40.669  51.805  1.00  0.00    -0.376 NA
BRANCH  22  23
HETATM   23  C11 UNL     1      17.750  39.720  51.166  1.00  0.00     0.359 C
HETATM   24 CL1  UNL     1      18.404  39.045  49.662  1.00  0.00    -0.071 Cl
HETATM   25 CL2  UNL     1      17.323  38.293  52.195  1.00  0.00    -0.071 Cl
ENDBRANCH  22  23
ENDBRANCH  19  20
ENDBRANCH  18  19
ENDBRANCH  16  18
ENDBRANCH  15  16
ENDBRANCH  14  15
ENDBRANCH   9  14
TORSDOF 7
ENDMDL