MODEL 5
REMARK VINA RESULT: -8.906349330      1.087      1.621
REMARK  5 active torsions:
REMARK  status: ('A' for Active; 'I' for Inactive)
REMARK       I    between atoms: C1_2  and  N1_3
REMARK    1  A    between atoms: C1_2  and  C10_17
REMARK    2  A    between atoms: N1_3  and  C2_5
REMARK    3  A    between atoms: C2_5  and  C3_6
REMARK    4  A    between atoms: C3_6  and  C4_7
REMARK    5  A    between atoms: C4_7  and  N2_8
ROOT
HETATM    1  O1  UNL     1      22.633  42.495  53.210  1.00  0.00    -0.273 OA
HETATM    2  C1  UNL     1      21.550  43.127  53.276  1.00  0.00     0.230 C
HETATM    3  N1  UNL     1      21.482  44.241  54.140  1.00  0.00    -0.360 N
ATOM      4  H1  UNL     1      20.593  44.739  54.177  1.00  0.00     0.162 HD
ENDROOT
BRANCH   2   5
HETATM    5  C10 UNL     1      20.408  42.676  52.453  1.00  0.00     0.169 C
HETATM    6  C11 UNL     1      20.791  41.759  51.322  1.00  0.00     0.026 C
HETATM    7  C12 UNL     1      20.228  40.368  51.453  1.00  0.00     0.032 C
HETATM    8  C13 UNL     1      18.761  40.317  51.761  1.00  0.00     0.033 C
HETATM    9  C14 UNL     1      17.885  40.654  50.596  1.00  0.00     0.031 C
HETATM   10  C18 UNL     1      18.425  38.939  52.270  1.00  0.00     0.031 C
HETATM   11  N3  UNL     1      18.411  41.249  52.836  1.00  0.00    -0.351 N
HETATM   12  C15 UNL     1      17.958  39.642  49.482  1.00  0.00     0.002 C
HETATM   13  C16 UNL     1      17.881  38.231  50.001  1.00  0.00     0.000 C
HETATM   14  C17 UNL     1      17.358  38.256  51.437  1.00  0.00     0.002 C
HETATM   15  C19 UNL     1      19.369  42.128  53.335  1.00  0.00     0.231 C
ATOM     16  H3  UNL     1      17.464  41.255  53.218  1.00  0.00     0.163 HD
HETATM   17  O2  UNL     1      19.348  42.455  54.539  1.00  0.00    -0.273 OA
ENDBRANCH   2   5
BRANCH   3  18
HETATM   18  C2  UNL     1      22.541  44.745  54.972  1.00  0.00     0.124 C
BRANCH  18  19
HETATM   19  C3  UNL     1      22.003  45.627  56.047  1.00  0.00     0.050 C
BRANCH  19  20
HETATM   20  C4  UNL     1      22.563  45.262  57.415  1.00  0.00     0.278 C
BRANCH  20  21
HETATM   21  N2  UNL     1      21.539  44.686  58.265  1.00  0.00     0.122 N
HETATM   22  C5  UNL     1      21.394  45.513  59.412  1.00  0.00     0.282 C
HETATM   23  C6  UNL     1      20.754  44.848  60.593  1.00  0.00     0.109 C
HETATM   24  C7  UNL     1      21.306  43.465  60.852  1.00  0.00     0.249 C
HETATM   25  F1  UNL     1      20.652  42.926  61.941  1.00  0.00    -0.206 F
HETATM   26  F2  UNL     1      22.674  43.541  61.041  1.00  0.00    -0.206 F
HETATM   27  C8  UNL     1      21.057  42.668  59.588  1.00  0.00     0.148 C
HETATM   28  C9  UNL     1      21.830  43.325  58.488  1.00  0.00     0.410 C
HETATM   29  F3  UNL     1      21.517  42.624  57.317  1.00  0.00    -0.216 F
ENDBRANCH  20  21
ENDBRANCH  19  20
ENDBRANCH  18  19
ENDBRANCH   3  18
TORSDOF 5
ENDMDL