MODEL 3
REMARK VINA RESULT: -7.153719623      1.813      6.924
REMARK  5 active torsions:
REMARK  status: ('A' for Active; 'I' for Inactive)
REMARK    1  A    between atoms: O1_2  and  C2_3
REMARK    2  A    between atoms: C2_3  and  C3_4
REMARK       I    between atoms: C3_4  and  N1_6
REMARK    3  A    between atoms: N1_6  and  C4_8
REMARK    4  A    between atoms: C4_8  and  C5_9
REMARK       I    between atoms: C5_9  and  N2_11
REMARK    5  A    between atoms: N2_11  and  C6_13
ROOT
HETATM    1  C4  UNL     1      22.755  43.772  54.348  1.00  0.00     0.150 C
HETATM    2  C16 UNL     1      22.592  45.205  54.738  1.00  0.00     0.123 C
HETATM    3  C17 UNL     1      22.572  45.279  56.224  1.00  0.00     0.249 C
HETATM    4  F1  UNL     1      23.686  45.935  56.764  1.00  0.00    -0.206 F
HETATM    5  F2  UNL     1      21.460  46.009  56.625  1.00  0.00    -0.206 F
HETATM    6  C18 UNL     1      22.427  43.883  56.733  1.00  0.00     0.119 C
HETATM    7  C19 UNL     1      22.867  43.004  55.621  1.00  0.00     0.213 C
HETATM    8  F3  UNL     1      21.989  41.924  55.570  1.00  0.00    -0.246 F
ENDROOT
BRANCH   1   9
HETATM    9  N1  UNL     1      21.709  43.320  53.454  1.00  0.00    -0.339 N
HETATM   10  C3  UNL     1      20.322  43.376  53.666  1.00  0.00     0.242 C
HETATM   11  O2  UNL     1      19.847  43.855  54.710  1.00  0.00    -0.271 OA
ATOM     12  H1  UNL     1      22.015  42.914  52.569  1.00  0.00     0.164 HD
BRANCH  10  13
HETATM   13  C2  UNL     1      19.410  42.852  52.622  1.00  0.00     0.269 C
BRANCH  13  14
HETATM   14  O1  UNL     1      18.458  41.981  53.015  1.00  0.00    -0.387 OA
HETATM   15  C1  UNL     1      17.847  41.190  52.086  1.00  0.00     0.202 C
ENDBRANCH  13  14
ENDBRANCH  10  13
ENDBRANCH   1   9
BRANCH   1  16
HETATM   16  C5  UNL     1      24.044  43.653  53.569  1.00  0.00     0.249 C
HETATM   17  O3  UNL     1      24.634  42.547  53.585  1.00  0.00    -0.271 OA
HETATM   18  N2  UNL     1      24.597  44.737  52.836  1.00  0.00    -0.353 N
ATOM     19  H2  UNL     1      24.120  45.639  52.822  1.00  0.00     0.163 HD
BRANCH  18  20
HETATM   20  C6  UNL     1      25.833  44.564  52.108  1.00  0.00     0.092 C
HETATM   21  C7  UNL     1      27.013  45.166  52.840  1.00  0.00     0.009 C
HETATM   22  C8  UNL     1      27.042  46.658  52.792  1.00  0.00     0.011 C
HETATM   23  C12 UNL     1      28.264  44.606  52.188  1.00  0.00     0.011 C
HETATM   24  C9  UNL     1      27.104  47.106  51.347  1.00  0.00    -0.013 C
HETATM   25  C10 UNL     1      28.352  46.550  50.725  1.00  0.00     0.009 C
HETATM   26  C15 UNL     1      25.857  46.622  50.667  1.00  0.00     0.011 C
HETATM   27  C11 UNL     1      28.282  45.032  50.741  1.00  0.00    -0.013 C
HETATM   28  C13 UNL     1      27.045  44.605  50.005  1.00  0.00     0.011 C
HETATM   29  C14 UNL     1      25.785  45.114  50.715  1.00  0.00     0.009 C
ENDBRANCH  18  20
ENDBRANCH   1  16
TORSDOF 5
ENDMDL