MODEL 2
REMARK VINA RESULT: -6.731121882      1.981      2.684
REMARK  14 active torsions:
REMARK  status: ('A' for Active; 'I' for Inactive)
REMARK    1  A    between atoms: O1_2  and  C2_3
REMARK    2  A    between atoms: C4_5  and  O2_6
REMARK    3  A    between atoms: C5_8  and  O3_9
REMARK    4  A    between atoms: C7_12  and  N1_13
REMARK    5  A    between atoms: N1_13  and  C8_15
REMARK    6  A    between atoms: C10_20  and  S1_21
REMARK    7  A    between atoms: S1_21  and  C11_22
REMARK    8  A    between atoms: C11_22  and  C12_23
REMARK    9  A    between atoms: C11_22  and  C14_29
REMARK   10  A    between atoms: C12_23  and  C13_24
REMARK   11  A    between atoms: C13_24  and  O5_25
REMARK   12  A    between atoms: C13_24  and  O6_27
REMARK   13  A    between atoms: N4_34  and  N5_35
REMARK   14  A    between atoms: C16_44  and  C17_45
ROOT
HETATM    1  N1  UNL     1      -6.248  -3.456  -3.225  1.00  0.00    -0.209 N
ATOM      2  H1  UNL     1      -6.051  -2.468  -3.066  1.00  0.00     0.178 HD
ENDROOT
BRANCH   1   3
HETATM    3  C7  UNL     1      -5.981  -4.345  -2.140  1.00  0.00     0.198 C
HETATM    4  C6  UNL     1      -5.365  -3.650  -0.943  1.00  0.00     0.150 C
HETATM    5  C5  UNL     1      -5.901  -2.233  -0.884  1.00  0.00     0.172 C
HETATM    6  N7  UNL     1      -5.883  -4.402   0.151  1.00  0.00    -0.162 NA
HETATM    7  C4  UNL     1      -5.669  -1.629   0.486  1.00  0.00     0.185 C
HETATM    8  C2  UNL     1      -6.290  -2.447   1.573  1.00  0.00     0.113 C
HETATM    9  C3  UNL     1      -5.819  -1.901   2.906  1.00  0.00     0.051 C
HETATM   10  C16 UNL     1      -5.673  -3.853   1.456  1.00  0.00     0.224 C
HETATM   11  O9  UNL     1      -7.196  -4.573  -0.176  1.00  0.00    -0.245 OA
HETATM   12  C15 UNL     1      -7.240  -4.895  -1.539  1.00  0.00     0.159 C
HETATM   13  N6  UNL     1      -8.170  -5.536  -2.165  1.00  0.00    -0.380 N
ATOM     14  H62 UNL     1      -8.202  -5.771  -3.157  1.00  0.00     0.158 HD
ATOM     15  H61 UNL     1      -9.026  -5.911  -1.756  1.00  0.00     0.158 HD
BRANCH   5  16
HETATM   16  O3  UNL     1      -7.232  -2.159  -1.204  1.00  0.00    -0.391 OA
ATOM     17  H3  UNL     1      -7.329  -1.943  -2.124  1.00  0.00     0.210 HD
ENDBRANCH   5  16
BRANCH   7  18
HETATM   18  O2  UNL     1      -6.008  -0.301   0.468  1.00  0.00    -0.390 OA
ATOM     19  H2  UNL     1      -5.465   0.259  -0.075  1.00  0.00     0.210 HD
ENDBRANCH   7  18
BRANCH   8  20
HETATM   20  O1  UNL     1      -7.648  -2.562   1.503  1.00  0.00    -0.380 OA
HETATM   21  C1  UNL     1      -8.416  -1.907   2.405  1.00  0.00     0.202 C
ENDBRANCH   8  20
BRANCH  10  22
HETATM   22  C17 UNL     1      -6.288  -4.768   2.446  1.00  0.00     0.197 C
HETATM   23  O10 UNL     1      -5.726  -5.030   3.539  1.00  0.00    -0.647 OA
HETATM   24  O11 UNL     1      -7.512  -5.374   2.208  1.00  0.00    -0.647 OA
ENDBRANCH  10  22
ENDBRANCH   1   3
BRANCH   1  25
HETATM   25  C8  UNL     1      -6.707  -3.770  -4.367  1.00  0.00     0.718 A
HETATM   26  N2  UNL     1      -6.087  -4.555  -5.255  1.00  0.00    -0.151 N
HETATM   27  C9  UNL     1      -6.618  -4.870  -6.478  1.00  0.00     0.294 A
ATOM     28  H2  UNL     1      -5.174  -4.939  -5.009  1.00  0.00     0.188 HD
HETATM   29  O4  UNL     1      -5.903  -5.623  -7.196  1.00  0.00    -0.265 OA
HETATM   30  C10 UNL     1      -7.831  -4.371  -6.824  1.00  0.00     0.156 A
HETATM   31  N3  UNL     1      -8.445  -3.571  -5.899  1.00  0.00    -0.254 N
HETATM   32  N4  UNL     1      -7.918  -3.281  -4.728  1.00  0.00    -0.026 N
ATOM     33  H3  UNL     1      -9.359  -3.179  -6.127  1.00  0.00     0.190 HD
BRANCH  30  34
HETATM   34  S1  UNL     1      -8.603  -4.710  -8.379  1.00  0.00    -0.089 SA
BRANCH  34  35
HETATM   35  C11 UNL     1      -9.790  -3.495  -8.921  1.00  0.00     0.159 C
BRANCH  35  36
HETATM   36  C12 UNL     1      -9.231  -2.562  -9.963  1.00  0.00     0.086 C
BRANCH  36  37
HETATM   37  C13 UNL     1      -8.944  -1.225  -9.340  1.00  0.00     0.255 C
BRANCH  37  38
HETATM   38  O5  UNL     1      -9.942  -0.741  -8.551  1.00  0.00    -0.371 OA
ATOM     39  H5  UNL     1     -10.330  -1.381  -7.966  1.00  0.00     0.212 HD
ENDBRANCH  37  38
BRANCH  37  40
HETATM   40  O6  UNL     1      -7.700  -1.226  -8.682  1.00  0.00    -0.371 OA
ATOM     41  H6  UNL     1      -7.091  -0.626  -9.098  1.00  0.00     0.212 HD
ENDBRANCH  37  40
ENDBRANCH  36  37
ENDBRANCH  35  36
BRANCH  35  42
HETATM   42  C14 UNL     1     -11.107  -4.046  -9.315  1.00  0.00     0.187 C
HETATM   43  O7  UNL     1     -11.998  -3.302  -9.751  1.00  0.00    -0.647 OA
HETATM   44  O8  UNL     1     -11.351  -5.403  -9.196  1.00  0.00    -0.647 OA
ENDBRANCH  35  42
ENDBRANCH  34  35
ENDBRANCH  30  34
BRANCH  32  45
HETATM   45  N5  UNL     1      -8.596  -2.458  -3.830  1.00  0.00    -0.309 N
ATOM     46  H52 UNL     1      -8.270  -2.361  -2.869  1.00  0.00     0.179 HD
ATOM     47  H51 UNL     1      -9.422  -1.959  -4.158  1.00  0.00     0.179 HD
ENDBRANCH  32  45
ENDBRANCH   1  25
TORSDOF 14
ENDMDL