MODEL 3
REMARK VINA RESULT: -7.345320064      2.045      6.487
REMARK  15 active torsions:
REMARK  status: ('A' for Active; 'I' for Inactive)
REMARK    1  A    between atoms: C2_2  and  O1_4
REMARK    2  A    between atoms: C2_2  and  O2_6
REMARK    3  A    between atoms: O2_6  and  C4_7
REMARK       I    between atoms: C4_7  and  N1_9
REMARK    4  A    between atoms: N1_9  and  C5_11
REMARK    5  A    between atoms: C5_11  and  N2_12
REMARK    6  A    between atoms: C5_11  and  C6_16
REMARK    7  A    between atoms: C6_16  and  C7_17
REMARK    8  A    between atoms: C7_17  and  C8_18
REMARK    9  A    between atoms: C8_18  and  O4_19
REMARK   10  A    between atoms: O4_19  and  C9_20
REMARK   11  A    between atoms: C10_21  and  C11_22
REMARK   12  A    between atoms: C12_25  and  O7_26
REMARK   13  A    between atoms: C13_28  and  O8_29
REMARK   14  A    between atoms: C14_31  and  N3_32
REMARK   15  A    between atoms: C15_35  and  C16_36
ROOT
HETATM    1  C9  UNL     1      -7.622  -3.187  -7.489  1.00  0.00     0.155 C
HETATM    2  C10 UNL     1      -8.934  -3.066  -7.522  1.00  0.00     0.100 C
HETATM    3  C12 UNL     1      -9.563  -1.928  -8.216  1.00  0.00     0.195 C
HETATM    4  C13 UNL     1      -8.645  -0.834  -8.626  1.00  0.00     0.196 C
HETATM    5  C14 UNL     1      -7.367  -1.440  -9.191  1.00  0.00     0.244 C
HETATM    6  N11 UNL     1      -6.805  -2.226  -8.117  1.00  0.00    -0.345 N
ATOM      7  H11 UNL     1      -5.839  -2.088  -7.821  1.00  0.00     0.163 HD
ENDROOT
BRANCH   5   8
HETATM    8  N3  UNL     1      -6.479  -0.429  -9.677  1.00  0.00    -0.215 N
HETATM    9  N4  UNL     1      -5.166  -0.508  -9.630  1.00  0.00    -0.286 N
HETATM   10  C15 UNL     1      -4.333   0.463 -10.097  1.00  0.00     0.139 A
ATOM     11  H4  UNL     1      -4.750  -1.343  -9.221  1.00  0.00     0.187 HD
HETATM   12  C17 UNL     1      -4.856   1.600 -10.655  1.00  0.00     0.135 A
HETATM   13  N9  UNL     1      -4.187   2.578 -11.127  1.00  0.00    -0.383 N
HETATM   14  N10 UNL     1      -6.235   1.675 -10.701  1.00  0.00    -0.291 N
ATOM     15  H92 UNL     1      -3.169   2.522 -11.093  1.00  0.00     0.157 HD
ATOM     16  H91 UNL     1      -4.577   3.424 -11.543  1.00  0.00     0.157 HD
HETATM   17  C18 UNL     1      -6.992   0.686 -10.225  1.00  0.00     0.344 A
ATOM     18  H10 UNL     1      -6.680   2.498 -11.105  1.00  0.00     0.172 HD
HETATM   19  O9  UNL     1      -8.264   0.793 -10.286  1.00  0.00    -0.245 OA
BRANCH  10  20
HETATM   20  C16 UNL     1      -2.894   0.294 -10.005  1.00  0.00     0.166 A
HETATM   21  N5  UNL     1      -2.313  -0.078  -8.815  1.00  0.00    -0.270 N
HETATM   22  N6  UNL     1      -1.022  -0.170  -8.954  1.00  0.00    -0.225 N
ATOM     23  H5  UNL     1      -2.820  -0.256  -7.948  1.00  0.00     0.190 HD
HETATM   24  N7  UNL     1      -0.741   0.134 -10.213  1.00  0.00    -0.005 NA
ATOM     25  H6  UNL     1      -0.352  -0.428  -8.230  1.00  0.00     0.205 HD
HETATM   26  N8  UNL     1      -1.880   0.412 -10.832  1.00  0.00    -0.265 N
ATOM     27  H8  UNL     1      -1.958   0.679 -11.813  1.00  0.00     0.186 HD
ENDBRANCH  10  20
ENDBRANCH   5   8
BRANCH   4  28
HETATM   28  O8  UNL     1      -8.312   0.050  -7.617  1.00  0.00    -0.389 OA
ATOM     29  H8  UNL     1      -8.885   0.805  -7.546  1.00  0.00     0.210 HD
ENDBRANCH   4  28
BRANCH   3  30
HETATM   30  O7  UNL     1     -10.380  -2.360  -9.274  1.00  0.00    -0.388 OA
ATOM     31  H7  UNL     1     -10.721  -3.232  -9.115  1.00  0.00     0.210 HD
ENDBRANCH   3  30
BRANCH   1  32
HETATM   32  O4  UNL     1      -7.070  -4.293  -6.814  1.00  0.00    -0.335 OA
BRANCH  32  33
HETATM   33  C8  UNL     1      -6.361  -5.210  -7.638  1.00  0.00     0.177 C
BRANCH  33  34
HETATM   34  C7  UNL     1      -5.854  -6.361  -6.774  1.00  0.00     0.030 C
BRANCH  34  35
HETATM   35  C6  UNL     1      -4.351  -6.278  -6.786  1.00  0.00     0.056 C
BRANCH  35  36
HETATM   36  C5  UNL     1      -3.846  -4.891  -6.453  1.00  0.00     0.285 C
BRANCH  36  37
HETATM   37  N1  UNL     1      -2.681  -4.563  -7.219  1.00  0.00    -0.309 N
HETATM   38  C4  UNL     1      -2.702  -3.527  -8.193  1.00  0.00     0.364 C
HETATM   39  O3  UNL     1      -3.764  -2.884  -8.387  1.00  0.00    -0.238 OA
ATOM     40  H1  UNL     1      -1.817  -5.083  -7.062  1.00  0.00     0.166 HD
BRANCH  38  41
HETATM   41  O2  UNL     1      -1.598  -3.200  -8.934  1.00  0.00    -0.267 OA
BRANCH  41  42
HETATM   42  C2  UNL     1      -1.478  -3.419 -10.323  1.00  0.00     0.165 C
HETATM   43  C1  UNL     1      -0.045  -3.303 -10.748  1.00  0.00     0.079 C
HETATM   44  C3  UNL     1      -1.945  -4.829 -10.607  1.00  0.00     0.079 C
BRANCH  42  45
HETATM   45  O1  UNL     1      -2.251  -2.524 -11.057  1.00  0.00    -0.365 OA
ATOM     46  H1  UNL     1      -3.113  -2.454 -10.662  1.00  0.00     0.213 HD
ENDBRANCH  42  45
ENDBRANCH  41  42
ENDBRANCH  38  41
ENDBRANCH  36  37
BRANCH  36  47
HETATM   47  N2  UNL     1      -3.570  -4.756  -5.036  1.00  0.00    -0.058 N
ATOM     48  H23 UNL     1      -2.752  -4.173  -4.862  1.00  0.00     0.276 HD
ATOM     49  H22 UNL     1      -4.269  -4.181  -4.565  1.00  0.00     0.276 HD
ATOM     50  H21 UNL     1      -3.481  -5.676  -4.605  1.00  0.00     0.276 HD
ENDBRANCH  36  47
ENDBRANCH  35  36
ENDBRANCH  34  35
ENDBRANCH  33  34
ENDBRANCH  32  33
ENDBRANCH   1  32
BRANCH   2  51
HETATM   51  C11 UNL     1      -9.795  -4.067  -6.868  1.00  0.00     0.212 C
HETATM   52  O5  UNL     1     -10.330  -4.989  -7.513  1.00  0.00    -0.644 OA
HETATM   53  O6  UNL     1     -10.011  -3.982  -5.514  1.00  0.00    -0.644 OA
ENDBRANCH   2  51
TORSDOF 15
ENDMDL