MODEL 5
REMARK VINA RESULT: -8.307852199      2.327      3.850
REMARK  14 active torsions:
REMARK  status: ('A' for Active; 'I' for Inactive)
REMARK    1  A    between atoms: C3_4  and  N1_5
REMARK    2  A    between atoms: C4_10  and  C5_11
REMARK    3  A    between atoms: C6_14  and  O2_15
REMARK    4  A    between atoms: O2_15  and  C7_16
REMARK    5  A    between atoms: C8_23  and  N7_24
REMARK    6  A    between atoms: C9_25  and  C10_26
REMARK    7  A    between atoms: C10_26  and  O3_27
REMARK    8  A    between atoms: C11_29  and  O4_30
REMARK    9  A    between atoms: C12_32  and  O5_33
REMARK   10  A    between atoms: C13_35  and  C14_36
REMARK   11  A    between atoms: C14_36  and  O6_37
REMARK   12  A    between atoms: O6_37  and  N8_38
REMARK   13  A    between atoms: C16_43  and  C17_44
REMARK   14  A    between atoms: C17_44  and  N11_45
ROOT
HETATM    1  C7  UNL     1      -9.731  -2.455  -8.137  1.00  0.00     0.262 A
HETATM    2  N4  UNL     1     -10.434  -3.369  -8.869  1.00  0.00    -0.249 N
ATOM      3  H4  UNL     1     -10.962  -3.068  -9.688  1.00  0.00     0.192 HD
HETATM    4  N5  UNL     1     -10.430  -4.640  -8.519  1.00  0.00    -0.225 N
ATOM      5  H5  UNL     1     -10.956  -5.320  -9.069  1.00  0.00     0.209 HD
HETATM    6  N6  UNL     1      -9.756  -5.033  -7.473  1.00  0.00    -0.117 N
ATOM      7  H6  UNL     1      -9.764  -6.021  -7.218  1.00  0.00     0.207 HD
HETATM    8  C8  UNL     1      -9.042  -4.158  -6.714  1.00  0.00     0.700 A
HETATM    9  N12 UNL     1      -9.051  -2.883  -7.073  1.00  0.00    -0.152 N
ATOM     10  H12 UNL     1      -8.522  -2.209  -6.519  1.00  0.00     0.188 HD
ENDROOT
BRANCH   8  11
HETATM   11  N7  UNL     1      -8.321  -4.684  -5.574  1.00  0.00    -0.200 N
HETATM   12  C9  UNL     1      -8.773  -4.694  -4.239  1.00  0.00     0.157 C
HETATM   13  C11 UNL     1      -8.855  -6.091  -3.644  1.00  0.00     0.172 C
HETATM   14  C12 UNL     1      -7.741  -6.978  -4.076  1.00  0.00     0.157 C
HETATM   15  C13 UNL     1      -6.652  -6.320  -4.845  1.00  0.00     0.068 C
HETATM   16  C16 UNL     1      -6.992  -5.258  -5.798  1.00  0.00     0.137 C
BRANCH  12  17
HETATM   17  C10 UNL     1     -10.069  -3.968  -3.998  1.00  0.00     0.192 C
BRANCH  17  18
HETATM   18  O3  UNL     1     -11.157  -4.884  -4.123  1.00  0.00    -0.399 OA
ATOM     19  H3  UNL     1     -11.967  -4.447  -3.888  1.00  0.00     0.209 HD
ENDBRANCH  17  18
ENDBRANCH  12  17
BRANCH  13  20
HETATM   20  O4  UNL     1      -8.891  -5.920  -2.263  1.00  0.00    -0.391 OA
ATOM     21  H4  UNL     1      -8.014  -6.111  -1.951  1.00  0.00     0.210 HD
ENDBRANCH  13  20
BRANCH  14  22
HETATM   22  O5  UNL     1      -7.223  -7.619  -2.950  1.00  0.00    -0.392 OA
ATOM     23  H5  UNL     1      -7.122  -6.976  -2.258  1.00  0.00     0.210 HD
ENDBRANCH  14  22
BRANCH  15  24
HETATM   24  C14 UNL     1      -5.841  -7.375  -5.622  1.00  0.00     0.210 C
BRANCH  24  25
HETATM   25  O6  UNL     1      -4.467  -7.059  -5.589  1.00  0.00    -0.278 OA
BRANCH  25  26
HETATM   26  N8  UNL     1      -3.732  -6.911  -6.708  1.00  0.00    -0.241 N
HETATM   27  C15 UNL     1      -2.807  -6.058  -6.932  1.00  0.00     0.221 C
HETATM   28  N9  UNL     1      -2.115  -6.036  -8.197  1.00  0.00    -0.065 NA
HETATM   29  N10 UNL     1      -2.431  -5.113  -5.958  1.00  0.00    -0.065 NA
ATOM     30  H8  UNL     1      -3.939  -7.558  -7.469  1.00  0.00     0.196 HD
ENDBRANCH  25  26
ENDBRANCH  24  25
ENDBRANCH  15  24
BRANCH  16  31
HETATM   31  C17 UNL     1      -5.925  -4.186  -5.885  1.00  0.00     0.256 C
BRANCH  31  32
HETATM   32  N11 UNL     1      -5.161  -4.012  -4.694  1.00  0.00    -0.077 N
ATOM     33 3H11 UNL     1      -5.607  -3.330  -4.081  1.00  0.00     0.274 HD
ATOM     34 2H11 UNL     1      -5.225  -4.843  -4.106  1.00  0.00     0.274 HD
ATOM     35 1H11 UNL     1      -4.185  -3.763  -4.850  1.00  0.00     0.274 HD
ENDBRANCH  31  32
ENDBRANCH  16  31
ENDBRANCH   8  11
BRANCH   1  36
HETATM   36  O2  UNL     1      -9.763  -1.130  -8.540  1.00  0.00    -0.244 OA
BRANCH  36  37
HETATM   37  C6  UNL     1      -9.038  -0.763  -9.658  1.00  0.00     0.247 A
HETATM   38  N3  UNL     1      -7.725  -0.499  -9.549  1.00  0.00    -0.305 N
HETATM   39  C5  UNL     1      -6.981  -0.140 -10.605  1.00  0.00     0.153 A
ATOM     40  H3  UNL     1      -7.280  -0.576  -8.634  1.00  0.00     0.171 HD
HETATM   41  N15 UNL     1      -7.592  -0.047 -11.795  1.00  0.00    -0.174 N
HETATM   42  C18 UNL     1      -8.900  -0.298 -11.967  1.00  0.00     0.680 A
ATOM     43  H15 UNL     1      -7.037   0.226 -12.607  1.00  0.00     0.186 HD
HETATM   44  N13 UNL     1      -9.609  -0.658 -10.865  1.00  0.00    -0.154 N
HETATM   45  N14 UNL     1      -9.471  -0.203 -13.125  1.00  0.00    -0.234 N
ATOM     46  H13 UNL     1     -10.606  -0.855 -10.959  1.00  0.00     0.188 HD
ATOM     47 2H14 UNL     1     -10.465  -0.393 -13.256  1.00  0.00     0.174 HD
ATOM     48 1H14 UNL     1      -8.938   0.068 -13.953  1.00  0.00     0.174 HD
BRANCH  39  49
HETATM   49  C4  UNL     1      -5.552   0.138 -10.443  1.00  0.00     0.110 A
HETATM   50  C2  UNL     1      -4.675  -0.440  -9.549  1.00  0.00     0.083 A
HETATM   51  C1  UNL     1      -5.032  -1.481  -8.560  1.00  0.00     0.079 C
HETATM   52  O1  UNL     1      -3.504   0.100  -9.745  1.00  0.00    -0.282 OA
HETATM   53  C3  UNL     1      -3.529   0.981 -10.689  1.00  0.00     0.222 A
HETATM   54  N2  UNL     1      -4.816   1.020 -11.141  1.00  0.00    -0.317 N
ATOM     55  H2  UNL     1      -5.164   1.620 -11.889  1.00  0.00     0.169 HD
BRANCH  53  56
HETATM   56  N1  UNL     1      -2.523   1.675 -11.102  1.00  0.00    -0.365 N
ATOM     57  H12 UNL     1      -1.549   1.381 -11.183  1.00  0.00     0.159 HD
ATOM     58  H11 UNL     1      -2.554   2.644 -11.417  1.00  0.00     0.159 HD
ENDBRANCH  53  56
ENDBRANCH  39  49
ENDBRANCH  36  37
ENDBRANCH   1  36
TORSDOF 14
ENDMDL