MODEL 3
REMARK VINA RESULT: -5.685872431      2.806      5.339
REMARK  18 active torsions:
REMARK  status: ('A' for Active; 'I' for Inactive)
REMARK       I    between atoms: C2_2  and  N1_4
REMARK    1  A    between atoms: N1_4  and  C3_5
REMARK    2  A    between atoms: C4_6  and  O2_7
REMARK    3  A    between atoms: O2_7  and  N2_8
REMARK    4  A    between atoms: C5_10  and  O3_11
REMARK    5  A    between atoms: C5_10  and  C6_13
REMARK    6  A    between atoms: C6_13  and  O4_14
REMARK    7  A    between atoms: C6_13  and  C7_16
REMARK    8  A    between atoms: C7_16  and  C8_17
REMARK    9  A    between atoms: C8_17  and  N3_18
REMARK   10  A    between atoms: C8_17  and  O5_22
REMARK   11  A    between atoms: C13_31  and  O7_32
REMARK   12  A    between atoms: C13_31  and  C14_34
REMARK   13  A    between atoms: C14_34  and  O8_35
REMARK   14  A    between atoms: C15_37  and  C16_38
REMARK   15  A    between atoms: C15_37  and  O10_41
REMARK   16  A    between atoms: C16_38  and  O9_39
REMARK   17  A    between atoms: O10_41  and  C17_42
REMARK   18  A    between atoms: C18_46  and  O11_47
ROOT
HETATM    1  C3  UNL     1      -6.971  -5.688  -5.909  1.00  0.00     0.234 C
HETATM    2  C4  UNL     1      -8.403  -5.010  -6.141  1.00  0.00     0.252 C
HETATM    3  S1  UNL     1      -8.810  -5.628  -4.505  1.00  0.00    -0.111 SA
HETATM    4  C9  UNL     1      -6.948  -5.690  -4.406  1.00  0.00     0.125 C
HETATM    5  C10 UNL     1      -6.539  -4.520  -3.645  1.00  0.00     0.153 A
HETATM    6  C11 UNL     1      -5.443  -3.673  -3.545  1.00  0.00     0.221 A
HETATM    7  O6  UNL     1      -6.691  -3.241  -4.156  1.00  0.00    -0.361 OA
HETATM    8  S2  UNL     1      -7.455  -4.759  -2.025  1.00  0.00    -0.124 SA
HETATM    9  C12 UNL     1      -6.726  -6.298  -1.465  1.00  0.00     0.120 C
HETATM   10  C13 UNL     1      -6.863  -7.406  -2.509  1.00  0.00     0.122 C
HETATM   11  C15 UNL     1      -6.495  -7.057  -3.867  1.00  0.00     0.144 C
ENDROOT
BRANCH   1  12
HETATM   12  N1  UNL     1      -6.050  -5.207  -6.723  1.00  0.00    -0.404 NA
HETATM   13  C2  UNL     1      -5.059  -4.700  -7.600  1.00  0.00     0.282 C
HETATM   14  C1  UNL     1      -4.875  -3.181  -7.711  1.00  0.00     0.134 C
HETATM   15  O1  UNL     1      -4.267  -5.320  -8.331  1.00  0.00    -0.258 OA
ENDBRANCH   1  12
BRANCH  11  16
HETATM   16  C16 UNL     1      -4.971  -7.100  -4.097  1.00  0.00     0.207 C
BRANCH  16  17
HETATM   17  O9  UNL     1      -4.236  -6.664  -3.051  1.00  0.00    -0.398 OA
ATOM     18  H9  UNL     1      -3.790  -7.352  -2.571  1.00  0.00     0.209 HD
ENDBRANCH  16  17
ENDBRANCH  11  16
BRANCH  11  19
HETATM   19  O10 UNL     1      -7.093  -7.901  -4.783  1.00  0.00    -0.320 OA
BRANCH  19  20
HETATM   20  C17 UNL     1      -6.470  -8.924  -5.365  1.00  0.00     0.479 C
HETATM   21  N4  UNL     1      -7.036  -9.209  -6.737  1.00  0.00     0.025 N
HETATM   22  C18 UNL     1      -6.879 -10.564  -6.316  1.00  0.00     0.476 C
ATOM     23  H42 UNL     1      -7.919  -8.824  -7.070  1.00  0.00     0.289 HD
ATOM     24  H41 UNL     1      -6.633  -8.839  -7.598  1.00  0.00     0.289 HD
HETATM   25  O12 UNL     1      -6.893 -10.164  -5.015  1.00  0.00    -0.284 OA
BRANCH  22  26
HETATM   26  O11 UNL     1      -7.944 -11.406  -6.682  1.00  0.00    -0.349 OA
ATOM     27  H11 UNL     1      -7.673 -12.208  -7.114  1.00  0.00     0.214 HD
ENDBRANCH  22  26
ENDBRANCH  19  20
ENDBRANCH  11  19
BRANCH   2  28
HETATM   28  O2  UNL     1      -8.367  -3.654  -6.262  1.00  0.00    -0.259 OA
BRANCH  28  29
HETATM   29  N2  UNL     1      -8.342  -2.694  -7.064  1.00  0.00    -0.245 N
HETATM   30  C5  UNL     1      -9.050  -2.050  -7.859  1.00  0.00     0.165 C
ATOM     31  H2  UNL     1      -7.403  -2.296  -7.066  1.00  0.00     0.196 HD
BRANCH  30  32
HETATM   32  O3  UNL     1     -10.369  -2.380  -8.046  1.00  0.00    -0.346 OA
ATOM     33  H3  UNL     1     -10.634  -3.290  -8.122  1.00  0.00     0.219 HD
ENDBRANCH  30  32
BRANCH  30  34
HETATM   34  C6  UNL     1      -8.411  -0.930  -8.588  1.00  0.00     0.198 C
BRANCH  34  35
HETATM   35  O4  UNL     1      -8.672   0.308  -7.954  1.00  0.00    -0.387 OA
ATOM     36  H4  UNL     1      -8.256   1.025  -8.418  1.00  0.00     0.210 HD
ENDBRANCH  34  35
BRANCH  34  37
HETATM   37  C7  UNL     1      -8.702  -0.799 -10.025  1.00  0.00     0.101 C
BRANCH  37  38
HETATM   38  C8  UNL     1      -7.720   0.042 -10.816  1.00  0.00     0.318 C
BRANCH  38  39
HETATM   39  N3  UNL     1      -6.442  -0.090 -10.093  1.00  0.00    -0.053 N
ATOM     40  H33 UNL     1      -6.452   0.317  -9.157  1.00  0.00     0.277 HD
ATOM     41  H32 UNL     1      -6.227  -1.044  -9.803  1.00  0.00     0.277 HD
ATOM     42  H31 UNL     1      -5.746   0.320 -10.716  1.00  0.00     0.277 HD
ENDBRANCH  38  39
BRANCH  38  43
HETATM   43  O5  UNL     1      -7.608  -0.532 -12.094  1.00  0.00    -0.370 OA
ATOM     44  H5  UNL     1      -8.131  -0.006 -12.689  1.00  0.00     0.212 HD
ENDBRANCH  38  43
ENDBRANCH  37  38
ENDBRANCH  34  37
ENDBRANCH  30  34
ENDBRANCH  28  29
ENDBRANCH   2  28
BRANCH  10  45
HETATM   45  O7  UNL     1      -5.920  -8.351  -1.991  1.00  0.00    -0.384 OA
ATOM     46  H7  UNL     1      -5.773  -8.878  -2.768  1.00  0.00     0.210 HD
ENDBRANCH  10  45
BRANCH  10  47
HETATM   47  C14 UNL     1      -8.209  -8.037  -2.273  1.00  0.00     0.206 C
BRANCH  47  48
HETATM   48  O8  UNL     1      -8.103  -9.458  -2.414  1.00  0.00    -0.398 OA
ATOM     49  H8  UNL     1      -8.724  -9.759  -3.068  1.00  0.00     0.209 HD
ENDBRANCH  47  48
ENDBRANCH  10  47
TORSDOF 18
ENDMDL