MODEL 3
REMARK VINA RESULT: -8.321477070      3.431      6.081
REMARK  13 active torsions:
REMARK  status: ('A' for Active; 'I' for Inactive)
REMARK    1  A    between atoms: N1_1  and  C1_4
REMARK    2  A    between atoms: C2_7  and  C3_8
REMARK    3  A    between atoms: N7_21  and  C6_22
REMARK    4  A    between atoms: C6_22  and  C7_23
REMARK       I    between atoms: C7_23  and  N8_25
REMARK    5  A    between atoms: N8_25  and  C8_27
REMARK    6  A    between atoms: C9_30  and  C10_31
REMARK    7  A    between atoms: N11_36  and  C11_37
REMARK    8  A    between atoms: C11_37  and  C12_38
REMARK    9  A    between atoms: C11_37  and  C13_41
REMARK   10  A    between atoms: C12_38  and  O5_39
REMARK   11  A    between atoms: C13_41  and  O6_42
REMARK   12  A    between atoms: C14_44  and  S1_45
REMARK   13  A    between atoms: S1_45  and  N12_46
ROOT
HETATM    1  C1  UNL     1      -9.304  -0.948 -10.670  1.00  0.00     0.677 A
HETATM    2  N2  UNL     1      -8.227  -0.143 -10.680  1.00  0.00    -0.186 N
ATOM      3  H2  UNL     1      -8.226   0.684 -11.276  1.00  0.00     0.184 HD
HETATM    4  C2  UNL     1      -7.142  -0.412  -9.911  1.00  0.00     0.125 A
HETATM    5  C5  UNL     1      -7.212  -1.541  -9.133  1.00  0.00     0.109 A
HETATM    6  N6  UNL     1      -6.355  -2.089  -8.283  1.00  0.00    -0.292 N
ATOM      7  H6  UNL     1      -5.434  -1.710  -8.068  1.00  0.00     0.187 HD
HETATM    8  N7  UNL     1      -6.851  -3.193  -7.750  1.00  0.00    -0.269 N
HETATM    9  C14 UNL     1      -8.092  -3.424  -8.241  1.00  0.00     0.196 A
HETATM   10  C15 UNL     1      -8.327  -2.377  -9.120  1.00  0.00     0.121 A
HETATM   11  N13 UNL     1      -9.369  -2.052  -9.908  1.00  0.00    -0.187 N
ATOM     12  H13 UNL     1     -10.202  -2.640  -9.926  1.00  0.00     0.184 HD
ENDROOT
BRANCH   8  13
HETATM   13  C6  UNL     1      -6.180  -4.020  -6.798  1.00  0.00     0.253 C
BRANCH  13  14
HETATM   14  C7  UNL     1      -6.574  -3.714  -5.396  1.00  0.00     0.255 C
HETATM   15  O2  UNL     1      -7.693  -3.210  -5.123  1.00  0.00    -0.271 OA
HETATM   16  N8  UNL     1      -5.688  -3.986  -4.321  1.00  0.00    -0.157 N
ATOM     17  H8  UNL     1      -4.774  -4.394  -4.517  1.00  0.00     0.187 HD
BRANCH  16  18
HETATM   18  C8  UNL     1      -6.050  -3.699  -2.979  1.00  0.00     0.704 A
HETATM   19  N9  UNL     1      -5.845  -2.523  -2.363  1.00  0.00    -0.167 N
HETATM   20  C9  UNL     1      -6.317  -2.612  -1.087  1.00  0.00     0.213 A
ATOM     21  H9  UNL     1      -5.409  -1.701  -2.781  1.00  0.00     0.186 HD
HETATM   22  N10 UNL     1      -6.797  -3.872  -0.995  1.00  0.00    -0.262 N
HETATM   23  N11 UNL     1      -6.645  -4.533  -2.114  1.00  0.00    -0.113 N
ATOM     24  H10 UNL     1      -7.226  -4.260  -0.155  1.00  0.00     0.189 HD
BRANCH  20  25
HETATM   25  C10 UNL     1      -6.306  -1.586  -0.064  1.00  0.00     0.247 C
HETATM   26  O3  UNL     1      -5.819  -0.464  -0.301  1.00  0.00    -0.642 OA
HETATM   27  O4  UNL     1      -6.836  -1.846   1.182  1.00  0.00    -0.642 OA
ENDBRANCH  20  25
BRANCH  23  28
HETATM   28  C11 UNL     1      -7.055  -5.924  -2.361  1.00  0.00     0.173 C
BRANCH  28  29
HETATM   29  C12 UNL     1      -6.702  -6.764  -1.138  1.00  0.00     0.194 C
BRANCH  29  30
HETATM   30  O5  UNL     1      -7.791  -6.720  -0.269  1.00  0.00    -0.399 OA
ATOM     31  H5  UNL     1      -7.458  -6.519   0.598  1.00  0.00     0.209 HD
ENDBRANCH  29  30
ENDBRANCH  28  29
BRANCH  28  32
HETATM   32  C13 UNL     1      -8.550  -5.935  -2.572  1.00  0.00     0.194 C
BRANCH  32  33
HETATM   33  O6  UNL     1      -8.846  -5.748  -3.906  1.00  0.00    -0.399 OA
ATOM     34  H6  UNL     1      -9.531  -5.098  -4.003  1.00  0.00     0.209 HD
ENDBRANCH  32  33
ENDBRANCH  28  32
ENDBRANCH  23  28
ENDBRANCH  16  18
ENDBRANCH  13  14
ENDBRANCH   8  13
BRANCH   9  35
HETATM   35  S1  UNL     1      -9.198  -4.715  -7.895  1.00  0.00     0.276 S
HETATM   36  O7  UNL     1     -10.267  -4.848  -8.939  1.00  0.00    -0.199 OA
HETATM   37  O8  UNL     1      -8.491  -6.040  -7.810  1.00  0.00    -0.199 OA
BRANCH  35  38
HETATM   38  N12 UNL     1     -10.011  -4.477  -6.377  1.00  0.00    -0.323 N
ATOM     39 2H12 UNL     1     -10.893  -4.929  -6.137  1.00  0.00     0.169 HD
ATOM     40 1H12 UNL     1      -9.498  -3.837  -5.769  1.00  0.00     0.169 HD
ENDBRANCH  35  38
ENDBRANCH   9  35
BRANCH   4  41
HETATM   41  C3  UNL     1      -6.000   0.490  -9.955  1.00  0.00     0.159 A
HETATM   42  N3  UNL     1      -4.955   0.427 -10.807  1.00  0.00    -0.304 N
HETATM   43  C4  UNL     1      -4.094   1.424 -10.548  1.00  0.00     0.242 A
ATOM     44  H3  UNL     1      -4.837  -0.274 -11.539  1.00  0.00     0.171 HD
HETATM   45  N4  UNL     1      -2.982   1.716 -11.126  1.00  0.00    -0.364 N
HETATM   46  O1  UNL     1      -4.592   2.102  -9.550  1.00  0.00    -0.199 OA
ATOM     47  H42 UNL     1      -2.593   1.186 -11.906  1.00  0.00     0.159 HD
ATOM     48  H41 UNL     1      -2.328   2.473 -10.929  1.00  0.00     0.159 HD
HETATM   49  N5  UNL     1      -5.738   1.554  -9.180  1.00  0.00    -0.239 N
ATOM     50  H5  UNL     1      -6.332   1.890  -8.421  1.00  0.00     0.196 HD
ENDBRANCH   4  41
BRANCH   1  51
HETATM   51  N1  UNL     1     -10.320  -0.670 -11.409  1.00  0.00    -0.234 N
ATOM     52  H12 UNL     1     -10.611   0.306 -11.469  1.00  0.00     0.174 HD
ATOM     53  H11 UNL     1     -10.804  -1.415 -11.910  1.00  0.00     0.174 HD
ENDBRANCH   1  51
TORSDOF 13
ENDMDL