MODEL 2
REMARK VINA RESULT: -7.136445638      2.199      3.405
REMARK  17 active torsions:
REMARK  status: ('A' for Active; 'I' for Inactive)
REMARK    1  A    between atoms: N1_2  and  C2_5
REMARK    2  A    between atoms: C3_6  and  O1_7
REMARK    3  A    between atoms: C4_9  and  O2_10
REMARK    4  A    between atoms: O2_10  and  C5_11
REMARK    5  A    between atoms: C6_12  and  N2_13
REMARK    6  A    between atoms: C8_18  and  O3_19
REMARK    7  A    between atoms: O3_19  and  C9_20
REMARK    8  A    between atoms: C9_20  and  O4_22
REMARK    9  A    between atoms: O4_22  and  C11_23
REMARK   10  A    between atoms: C12_25  and  C13_26
REMARK   11  A    between atoms: C13_26  and  O6_27
REMARK   12  A    between atoms: C14_29  and  O7_30
REMARK   13  A    between atoms: O7_30  and  N3_31
REMARK   14  A    between atoms: C15_34  and  O8_35
REMARK   15  A    between atoms: C15_34  and  O9_37
REMARK   16  A    between atoms: C16_39  and  N4_40
REMARK   17  A    between atoms: C21_50  and  O12_52
ROOT
HETATM    1  C5  UNL     1      -8.370  -4.212  -5.628  1.00  0.00     0.183 C
HETATM    2  C6  UNL     1      -7.183  -3.487  -6.210  1.00  0.00     0.219 C
HETATM    3  C7  UNL     1      -7.334  -3.210  -7.688  1.00  0.00     0.096 C
HETATM    4  C8  UNL     1      -8.587  -2.487  -8.043  1.00  0.00     0.265 C
HETATM    5  O10 UNL     1      -9.578  -2.784  -7.153  1.00  0.00    -0.354 OA
HETATM    6  C17 UNL     1      -9.539  -4.030  -6.603  1.00  0.00     0.151 C
HETATM    7  C18 UNL     1      -9.586  -5.081  -7.659  1.00  0.00     0.042 C
ENDROOT
BRANCH   4   8
HETATM    8  O3  UNL     1      -8.300  -1.120  -8.008  1.00  0.00    -0.332 OA
BRANCH   8   9
HETATM    9  C9  UNL     1      -8.467  -0.541  -9.245  1.00  0.00     0.262 C
HETATM   10  C10 UNL     1      -8.826  -1.557 -10.311  1.00  0.00     0.071 C
BRANCH   9  11
HETATM   11  O4  UNL     1      -7.305   0.129  -9.623  1.00  0.00    -0.330 OA
BRANCH  11  12
HETATM   12  C11 UNL     1      -6.251  -0.034  -8.746  1.00  0.00     0.299 C
HETATM   13  O5  UNL     1      -5.732   1.155  -8.282  1.00  0.00    -0.349 OA
HETATM   14  C12 UNL     1      -4.991   1.860  -9.188  1.00  0.00     0.185 C
HETATM   15  C14 UNL     1      -3.883   1.050  -9.836  1.00  0.00     0.246 C
HETATM   16  C15 UNL     1      -4.347  -0.259 -10.378  1.00  0.00     0.225 C
HETATM   17  C16 UNL     1      -5.209  -0.934  -9.365  1.00  0.00     0.302 C
BRANCH  14  18
HETATM   18  C13 UNL     1      -5.813   2.590 -10.231  1.00  0.00     0.199 C
BRANCH  18  19
HETATM   19  O6  UNL     1      -6.877   3.227  -9.633  1.00  0.00    -0.398 OA
ATOM     20  H6  UNL     1      -7.504   3.503 -10.291  1.00  0.00     0.209 HD
ENDBRANCH  18  19
ENDBRANCH  14  18
BRANCH  15  21
HETATM   21  O7  UNL     1      -3.364   1.826 -10.883  1.00  0.00    -0.274 OA
BRANCH  21  22
HETATM   22  N3  UNL     1      -2.135   1.352 -11.233  1.00  0.00    -0.310 N
ATOM     23  H32 UNL     1      -1.941   0.384 -11.493  1.00  0.00     0.184 HD
ATOM     24  H31 UNL     1      -1.455   2.111 -11.193  1.00  0.00     0.184 HD
ENDBRANCH  21  22
ENDBRANCH  15  21
BRANCH  16  25
HETATM   25  O8  UNL     1      -3.201  -1.068 -10.552  1.00  0.00    -0.362 OA
ATOM     26  H8  UNL     1      -3.463  -1.815 -11.077  1.00  0.00     0.213 HD
ENDBRANCH  16  25
BRANCH  16  27
HETATM   27  O9  UNL     1      -4.954  -0.144 -11.624  1.00  0.00    -0.362 OA
ATOM     28  H9  UNL     1      -5.492  -0.895 -11.844  1.00  0.00     0.213 HD
ENDBRANCH  16  27
BRANCH  17  29
HETATM   29  N4  UNL     1      -4.443  -1.619  -8.343  1.00  0.00    -0.065 N
ATOM     30  H43 UNL     1      -3.925  -2.410  -8.726  1.00  0.00     0.275 HD
ATOM     31  H42 UNL     1      -3.653  -1.057  -8.024  1.00  0.00     0.275 HD
ATOM     32  H41 UNL     1      -5.042  -1.901  -7.565  1.00  0.00     0.275 HD
ENDBRANCH  17  29
ENDBRANCH  11  12
ENDBRANCH   9  11
ENDBRANCH   8   9
ENDBRANCH   4   8
BRANCH   2  33
HETATM   33  N2  UNL     1      -5.953  -4.246  -6.067  1.00  0.00    -0.072 N
ATOM     34  H23 UNL     1      -5.929  -4.746  -5.178  1.00  0.00     0.274 HD
ATOM     35  H22 UNL     1      -5.937  -5.045  -6.701  1.00  0.00     0.274 HD
ATOM     36  H21 UNL     1      -5.125  -3.663  -6.186  1.00  0.00     0.274 HD
ENDBRANCH   2  33
BRANCH   1  37
HETATM   37  O2  UNL     1      -8.097  -5.533  -5.529  1.00  0.00    -0.349 OA
BRANCH  37  38
HETATM   38  C4  UNL     1      -8.355  -6.167  -4.362  1.00  0.00     0.291 C
HETATM   39  C3  UNL     1      -8.430  -5.381  -3.126  1.00  0.00     0.207 C
HETATM   40  C2  UNL     1      -7.034  -4.957  -2.717  1.00  0.00     0.255 C
HETATM   41  C21 UNL     1      -6.074  -6.096  -2.643  1.00  0.00     0.111 C
HETATM   42  C19 UNL     1      -6.159  -6.823  -3.986  1.00  0.00     0.157 C
HETATM   43  C22 UNL     1      -4.679  -5.518  -2.464  1.00  0.00     0.051 C
HETATM   44  O11 UNL     1      -7.460  -7.218  -4.199  1.00  0.00    -0.351 OA
HETATM   45  C20 UNL     1      -5.173  -7.942  -4.076  1.00  0.00     0.042 C
BRANCH  39  46
HETATM   46  O1  UNL     1      -8.968  -6.165  -2.085  1.00  0.00    -0.388 OA
ATOM     47  H1  UNL     1      -9.735  -5.716  -1.749  1.00  0.00     0.210 HD
ENDBRANCH  39  46
BRANCH  40  48
HETATM   48  N1  UNL     1      -7.026  -4.129  -1.531  1.00  0.00    -0.069 N
HETATM   49  C1  UNL     1      -7.083  -2.720  -1.866  1.00  0.00     0.267 C
ATOM     50  H12 UNL     1      -6.225  -4.339  -0.935  1.00  0.00     0.277 HD
ATOM     51  H11 UNL     1      -7.773  -4.390  -0.888  1.00  0.00     0.277 HD
ENDBRANCH  40  48
BRANCH  41  52
HETATM   52  O12 UNL     1      -6.307  -6.955  -1.587  1.00  0.00    -0.385 OA
ATOM     53  H12 UNL     1      -5.751  -6.798  -0.833  1.00  0.00     0.210 HD
ENDBRANCH  41  52
ENDBRANCH  37  38
ENDBRANCH   1  37
TORSDOF 17
ENDMDL