MODEL 1
REMARK VINA RESULT: -8.816808369      0.000      0.000
REMARK  12 active torsions:
REMARK  status: ('A' for Active; 'I' for Inactive)
REMARK    1  A    between atoms: C2_2  and  O1_3
REMARK    2  A    between atoms: O1_3  and  C3_4
REMARK    3  A    between atoms: C4_5  and  O2_6
REMARK    4  A    between atoms: C5_8  and  C6_9
REMARK    5  A    between atoms: C6_9  and  N1_10
REMARK    6  A    between atoms: C6_9  and  C7_14
REMARK    7  A    between atoms: C7_14  and  O3_15
REMARK    8  A    between atoms: C8_18  and  N2_19
REMARK    9  A    between atoms: C9_20  and  C10_21
REMARK       I    between atoms: C10_21  and  N3_23
REMARK   10  A    between atoms: C11_25  and  C12_26
REMARK       I    between atoms: C12_26  and  N4_28
REMARK       I    between atoms: N4_28  and  C13_30
REMARK       I    between atoms: C13_30  and  N5_31
REMARK       I    between atoms: C13_30  and  N6_35
REMARK   11  A    between atoms: C15_42  and  C16_43
REMARK   12  A    between atoms: C18_55  and  O8_56
ROOT
HETATM    1  N2  UNL     1      -6.077  -3.048  -7.770  1.00  0.00    -0.282 N
HETATM    2  C9  UNL     1      -4.830  -2.814  -8.180  1.00  0.00     0.181 A
HETATM    3  N7  UNL     1      -4.787  -1.609  -8.852  1.00  0.00    -0.333 N
ATOM      4  H7  UNL     1      -3.956  -1.190  -9.270  1.00  0.00     0.168 HD
HETATM    5  C14 UNL     1      -5.996  -1.091  -8.864  1.00  0.00     0.108 A
HETATM    6  C15 UNL     1      -6.516   0.092  -9.393  1.00  0.00     0.099 A
HETATM    7  N11 UNL     1      -7.816   0.328  -9.228  1.00  0.00    -0.318 N
ATOM      8  H11 UNL     1      -8.201   1.191  -9.612  1.00  0.00     0.169 HD
HETATM    9  C18 UNL     1      -8.649  -0.505  -8.582  1.00  0.00     0.223 A
HETATM   10  N12 UNL     1      -8.109  -1.629  -8.089  1.00  0.00    -0.306 N
ATOM     11  H12 UNL     1      -8.724  -2.276  -7.595  1.00  0.00     0.171 HD
HETATM   12  C19 UNL     1      -6.803  -1.961  -8.204  1.00  0.00     0.144 A
ENDROOT
BRANCH   1  13
HETATM   13  C8  UNL     1      -6.677  -4.079  -7.063  1.00  0.00     0.263 C
HETATM   14  C3  UNL     1      -7.346  -5.202  -7.813  1.00  0.00     0.202 C
HETATM   15  C4  UNL     1      -7.745  -6.074  -6.635  1.00  0.00     0.182 C
HETATM   16  C5  UNL     1      -7.642  -5.118  -5.491  1.00  0.00     0.188 C
HETATM   17  O4  UNL     1      -7.548  -3.836  -6.036  1.00  0.00    -0.353 OA
BRANCH  14  18
HETATM   18  O1  UNL     1      -8.302  -4.928  -8.685  1.00  0.00    -0.379 OA
BRANCH  18  19
HETATM   19  C2  UNL     1      -9.620  -4.940  -8.385  1.00  0.00     0.164 C
HETATM   20  C1  UNL     1     -10.465  -3.971  -9.177  1.00  0.00     0.033 C
ENDBRANCH  18  19
ENDBRANCH  14  18
BRANCH  15  21
HETATM   21  O2  UNL     1      -6.804  -7.091  -6.497  1.00  0.00    -0.390 OA
ATOM     22  H2  UNL     1      -6.674  -7.258  -5.571  1.00  0.00     0.210 HD
ENDBRANCH  15  21
BRANCH  16  23
HETATM   23  C6  UNL     1      -8.736  -5.243  -4.479  1.00  0.00     0.238 C
BRANCH  23  24
HETATM   24  N1  UNL     1      -8.249  -5.642  -3.184  1.00  0.00    -0.070 N
ATOM     25  H13 UNL     1      -7.240  -5.788  -3.201  1.00  0.00     0.274 HD
ATOM     26  H12 UNL     1      -8.292  -4.867  -2.522  1.00  0.00     0.274 HD
ATOM     27  H11 UNL     1      -8.731  -6.463  -2.818  1.00  0.00     0.274 HD
ENDBRANCH  23  24
BRANCH  23  28
HETATM   28  C7  UNL     1      -9.589  -4.008  -4.428  1.00  0.00     0.199 C
BRANCH  28  29
HETATM   29  O3  UNL     1     -10.946  -4.277  -4.359  1.00  0.00    -0.399 OA
ATOM     30  H3  UNL     1     -11.492  -3.524  -4.555  1.00  0.00     0.209 HD
ENDBRANCH  28  29
ENDBRANCH  23  28
ENDBRANCH  16  23
ENDBRANCH   1  13
BRANCH   2  31
HETATM   31  C10 UNL     1      -3.625  -3.581  -8.038  1.00  0.00     0.290 C
HETATM   32  O5  UNL     1      -2.526  -2.926  -7.928  1.00  0.00    -0.264 OA
HETATM   33  N3  UNL     1      -3.508  -4.946  -8.004  1.00  0.00    -0.325 N
HETATM   34  C11 UNL     1      -2.782  -5.795  -8.558  1.00  0.00     0.165 C
ATOM     35  H3  UNL     1      -4.180  -5.374  -7.367  1.00  0.00     0.168 HD
BRANCH  34  36
HETATM   36  C12 UNL     1      -1.741  -5.548  -9.505  1.00  0.00     0.259 C
HETATM   37  O6  UNL     1      -0.504  -5.752  -9.336  1.00  0.00    -0.267 OA
HETATM   38  N4  UNL     1      -2.074  -5.007 -10.808  1.00  0.00    -0.307 N
HETATM   39  C13 UNL     1      -1.079  -4.735 -11.809  1.00  0.00     0.483 C
ATOM     40  H4  UNL     1      -3.052  -4.813 -11.023  1.00  0.00     0.166 HD
HETATM   41  N5  UNL     1      -1.066  -3.339 -12.232  1.00  0.00    -0.033 N
HETATM   42  N6  UNL     1      -1.296  -5.537 -13.010  1.00  0.00    -0.033 N
ATOM     43  H53 UNL     1      -1.991  -3.045 -12.548  1.00  0.00     0.278 HD
ATOM     44  H52 UNL     1      -0.958  -2.716 -11.432  1.00  0.00     0.278 HD
ATOM     45  H51 UNL     1      -0.360  -3.145 -12.943  1.00  0.00     0.278 HD
ATOM     46  H63 UNL     1      -1.343  -6.532 -12.791  1.00  0.00     0.278 HD
ATOM     47  H62 UNL     1      -2.240  -5.412 -13.377  1.00  0.00     0.278 HD
ATOM     48  H61 UNL     1      -0.590  -5.343 -13.720  1.00  0.00     0.278 HD
ENDBRANCH  34  36
ENDBRANCH   2  31
BRANCH   6  49
HETATM   49  C16 UNL     1      -5.617   1.000 -10.095  1.00  0.00     0.131 A
HETATM   50  N8  UNL     1      -4.542   0.625 -10.833  1.00  0.00    -0.236 N
HETATM   51  O7  UNL     1      -3.960   1.707 -11.319  1.00  0.00    -0.155 OA
ATOM     52  H8  UNL     1      -4.234  -0.335 -10.987  1.00  0.00     0.197 HD
HETATM   53  N9  UNL     1      -4.622   2.753 -10.920  1.00  0.00    -0.224 N
HETATM   54  C17 UNL     1      -5.654   2.371 -10.162  1.00  0.00     0.152 A
ATOM     55  H9  UNL     1      -4.389   3.719 -11.152  1.00  0.00     0.198 HD
HETATM   56  N10 UNL     1      -6.537   3.097  -9.581  1.00  0.00    -0.382 N
ATOM     57 2H10 UNL     1      -7.325   2.805  -9.002  1.00  0.00     0.157 HD
ATOM     58 1H10 UNL     1      -6.564   4.115  -9.630  1.00  0.00     0.157 HD
ENDBRANCH   6  49
BRANCH   9  59
HETATM   59  O8  UNL     1     -10.003  -0.202  -8.440  1.00  0.00    -0.332 OA
ATOM     60  H8  UNL     1     -10.639  -0.879  -8.240  1.00  0.00     0.220 HD
ENDBRANCH   9  59
TORSDOF 12
ENDMDL