MODEL 5
REMARK VINA RESULT: -7.279328030      1.106      1.477
REMARK  19 active torsions:
REMARK  status: ('A' for Active; 'I' for Inactive)
REMARK    1  A    between atoms: C2_2  and  C4_6
REMARK    2  A    between atoms: C3_3  and  O1_4
REMARK    3  A    between atoms: C4_6  and  N1_7
REMARK    4  A    between atoms: N1_7  and  O2_9
REMARK    5  A    between atoms: O2_9  and  C5_10
REMARK    6  A    between atoms: C5_10  and  C6_11
REMARK    7  A    between atoms: C6_11  and  O3_12
REMARK    8  A    between atoms: C6_11  and  C7_14
REMARK    9  A    between atoms: C7_14  and  O4_15
REMARK   10  A    between atoms: C7_14  and  C8_17
REMARK   11  A    between atoms: C8_17  and  O5_18
REMARK   12  A    between atoms: C8_17  and  C9_20
REMARK   13  A    between atoms: C9_20  and  O6_21
REMARK   14  A    between atoms: C10_23  and  O7_24
REMARK   15  A    between atoms: C10_23  and  N2_26
REMARK   16  A    between atoms: C12_28  and  O8_29
REMARK   17  A    between atoms: C17_36  and  O10_37
REMARK   18  A    between atoms: C18_39  and  O11_40
REMARK   19  A    between atoms: C21_45  and  O13_46
ROOT
HETATM    1  N2  UNL     1      -7.322  -4.868  -6.621  1.00  0.00    -0.264 N
HETATM    2  C11 UNL     1      -6.623  -6.006  -6.757  1.00  0.00     0.142 A
HETATM    3  C12 UNL     1      -6.527  -6.998  -5.787  1.00  0.00     0.116 A
HETATM    4  C13 UNL     1      -7.204  -6.779  -4.617  1.00  0.00     0.119 A
HETATM    5  C14 UNL     1      -7.937  -5.623  -4.439  1.00  0.00     0.049 A
HETATM    6  C15 UNL     1      -7.994  -4.691  -5.417  1.00  0.00     0.263 A
HETATM    7  O9  UNL     1      -8.684  -3.668  -5.172  1.00  0.00    -0.267 OA
HETATM    8  C16 UNL     1      -8.777  -5.112  -3.293  1.00  0.00     0.083 C
HETATM    9  C17 UNL     1      -7.820  -4.709  -2.199  1.00  0.00     0.172 C
HETATM   10  C18 UNL     1      -7.211  -5.862  -1.490  1.00  0.00     0.210 C
HETATM   11  C19 UNL     1      -5.790  -6.132  -1.917  1.00  0.00     0.177 C
HETATM   12  O12 UNL     1      -4.940  -5.365  -2.284  1.00  0.00    -0.294 OA
HETATM   13  C20 UNL     1      -5.625  -7.624  -1.790  1.00  0.00     0.159 C
HETATM   14  C21 UNL     1      -6.966  -8.071  -2.396  1.00  0.00     0.240 C
HETATM   15  O14 UNL     1      -6.978  -7.875  -3.795  1.00  0.00    -0.303 OA
HETATM   16  C22 UNL     1      -7.885  -7.164  -1.662  1.00  0.00     0.233 C
HETATM   17  O15 UNL     1      -8.994  -7.449  -1.276  1.00  0.00    -0.288 OA
ENDROOT
BRANCH   1  18
HETATM   18  C10 UNL     1      -7.381  -3.802  -7.518  1.00  0.00     0.179 C
HETATM   19  C4  UNL     1      -8.202  -3.142  -8.468  1.00  0.00     0.113 C
BRANCH  19  20
HETATM   20  C2  UNL     1      -9.459  -3.455  -9.066  1.00  0.00    -0.007 C
HETATM   21  C1  UNL     1     -10.278  -2.581  -9.923  1.00  0.00     0.052 C
HETATM   22  C3  UNL     1     -10.097  -4.628  -8.773  1.00  0.00     0.140 C
BRANCH  22  23
HETATM   23  O1  UNL     1     -11.368  -4.803  -9.306  1.00  0.00    -0.372 OA
ATOM     24  H1  UNL     1     -12.079  -4.929  -8.688  1.00  0.00     0.216 HD
ENDBRANCH  22  23
ENDBRANCH  19  20
BRANCH  19  25
HETATM   25  N1  UNL     1      -7.604  -2.019  -8.870  1.00  0.00    -0.262 N
ATOM     26  H1  UNL     1      -6.969  -2.233  -9.639  1.00  0.00     0.194 HD
BRANCH  25  27
HETATM   27  O2  UNL     1      -7.556  -0.789  -8.626  1.00  0.00    -0.277 OA
BRANCH  27  28
HETATM   28  C5  UNL     1      -8.074   0.344  -9.247  1.00  0.00     0.235 C
BRANCH  28  29
HETATM   29  C6  UNL     1      -6.992   0.867 -10.208  1.00  0.00     0.175 C
BRANCH  29  30
HETATM   30  O3  UNL     1      -6.801  -0.163 -11.125  1.00  0.00    -0.391 OA
ATOM     31  H3  UNL     1      -6.041   0.099 -11.631  1.00  0.00     0.210 HD
ENDBRANCH  29  30
BRANCH  29  32
HETATM   32  C7  UNL     1      -5.773   1.100  -9.387  1.00  0.00     0.179 C
BRANCH  32  33
HETATM   33  O4  UNL     1      -5.491   2.465  -9.380  1.00  0.00    -0.390 OA
ATOM     34  H4  UNL     1      -4.987   2.676 -10.157  1.00  0.00     0.210 HD
ENDBRANCH  32  33
BRANCH  32  35
HETATM   35  C8  UNL     1      -4.574   0.275  -9.738  1.00  0.00     0.173 C
BRANCH  35  36
HETATM   36  O5  UNL     1      -4.742  -0.963  -9.072  1.00  0.00    -0.391 OA
ATOM     37  H5  UNL     1      -4.983  -0.750  -8.179  1.00  0.00     0.210 HD
ENDBRANCH  35  36
BRANCH  35  38
HETATM   38  C9  UNL     1      -3.263   0.881  -9.403  1.00  0.00     0.198 C
BRANCH  38  39
HETATM   39  O6  UNL     1      -3.243   1.398  -8.112  1.00  0.00    -0.398 OA
ATOM     40  H6  UNL     1      -2.791   0.823  -7.506  1.00  0.00     0.209 HD
ENDBRANCH  38  39
ENDBRANCH  35  38
ENDBRANCH  32  35
ENDBRANCH  29  32
ENDBRANCH  28  29
ENDBRANCH  27  28
ENDBRANCH  25  27
ENDBRANCH  19  25
BRANCH  18  41
HETATM   41  O7  UNL     1      -6.185  -3.098  -7.487  1.00  0.00    -0.344 OA
ATOM     42  H7  UNL     1      -5.748  -3.359  -6.685  1.00  0.00     0.219 HD
ENDBRANCH  18  41
ENDBRANCH   1  18
BRANCH   3  43
HETATM   43  O8  UNL     1      -5.797  -8.154  -5.960  1.00  0.00    -0.357 OA
ATOM     44  H8  UNL     1      -5.416  -8.642  -5.239  1.00  0.00     0.218 HD
ENDBRANCH   3  43
BRANCH   9  45
HETATM   45  O10 UNL     1      -6.768  -3.938  -2.750  1.00  0.00    -0.391 OA
ATOM     46  H10 UNL     1      -6.188  -3.649  -2.055  1.00  0.00     0.210 HD
ENDBRANCH   9  45
BRANCH  14  47
HETATM   47  O13 UNL     1      -7.211  -9.413  -2.110  1.00  0.00    -0.359 OA
ATOM     48  H13 UNL     1      -7.714  -9.817  -2.807  1.00  0.00     0.213 HD
ENDBRANCH  14  47
BRANCH  10  49
HETATM   49  O11 UNL     1      -7.112  -5.510  -0.136  1.00  0.00    -0.372 OA
ATOM     50  H11 UNL     1      -6.769  -6.266   0.327  1.00  0.00     0.211 HD
ENDBRANCH  10  49
TORSDOF 19
ENDMDL