MODEL 2
REMARK VINA RESULT: -8.633574955      3.826      8.877
REMARK  11 active torsions:
REMARK  status: ('A' for Active; 'I' for Inactive)
REMARK    1  A    between atoms: N1_1  and  C1_4
REMARK    2  A    between atoms: C2_7  and  N3_8
REMARK    3  A    between atoms: N4_11  and  C3_12
REMARK    4  A    between atoms: C4_18  and  N8_19
REMARK    5  A    between atoms: C6_21  and  C7_22
REMARK    6  A    between atoms: C9_25  and  C10_26
REMARK    7  A    between atoms: C10_26  and  C11_27
REMARK    8  A    between atoms: C12_33  and  C13_34
REMARK       I    between atoms: C13_34  and  N10_36
REMARK    9  A    between atoms: N10_36  and  C14_38
REMARK   10  A    between atoms: C14_38  and  C15_39
REMARK   11  A    between atoms: C15_39  and  C16_40
ROOT
HETATM    1  N8  UNL     1      -8.366  -2.119  -9.251  1.00  0.00    -0.241 N
HETATM    2  C5  UNL     1      -8.307  -2.324  -7.911  1.00  0.00     0.145 A
HETATM    3  C6  UNL     1      -8.933  -3.495  -7.595  1.00  0.00     0.075 A
HETATM    4  N11 UNL     1      -9.369  -3.993  -8.761  1.00  0.00    -0.286 N
ATOM      5  H11 UNL     1      -9.884  -4.864  -8.884  1.00  0.00     0.188 HD
HETATM    6  N12 UNL     1      -9.016  -3.152  -9.723  1.00  0.00    -0.237 N
ATOM      7  H12 UNL     1      -9.225  -3.294 -10.712  1.00  0.00     0.208 HD
ENDROOT
BRANCH   1   8
HETATM    8  C4  UNL     1      -7.787  -0.957  -9.892  1.00  0.00     0.373 C
HETATM    9  N7  UNL     1      -8.394   0.273  -9.391  1.00  0.00    -0.070 NA
HETATM   10  N6  UNL     1      -7.562   0.951  -8.492  1.00  0.00    -0.239 N
HETATM   11  N5  UNL     1      -6.271   1.249  -8.946  1.00  0.00    -0.252 N
ATOM     12  H6  UNL     1      -7.879   1.215  -7.559  1.00  0.00     0.204 HD
HETATM   13  C3  UNL     1      -5.662   0.281  -9.590  1.00  0.00     0.269 C
ATOM     14  H5  UNL     1      -5.833   2.156  -8.786  1.00  0.00     0.191 HD
HETATM   15  O7  UNL     1      -6.399  -0.886  -9.717  1.00  0.00    -0.276 OA
BRANCH  13  16
HETATM   16  N4  UNL     1      -4.352   0.447 -10.102  1.00  0.00    -0.056 N
HETATM   17  C2  UNL     1      -3.466  -0.556  -9.945  1.00  0.00     0.704 A
HETATM   18  N2  UNL     1      -2.207  -0.421 -10.426  1.00  0.00    -0.022 N
HETATM   19  C1  UNL     1      -1.827   0.701 -11.059  1.00  0.00     0.694 A
ATOM     20  H2  UNL     1      -1.539  -1.183 -10.307  1.00  0.00     0.203 HD
HETATM   21  N13 UNL     1      -2.698   1.706 -11.222  1.00  0.00    -0.140 N
HETATM   22  C17 UNL     1      -3.942   1.554 -10.738  1.00  0.00     0.362 A
ATOM     23  H13 UNL     1      -2.424   2.564 -11.701  1.00  0.00     0.189 HD
HETATM   24  O8  UNL     1      -4.744   2.507 -10.900  1.00  0.00    -0.245 OA
BRANCH  17  25
HETATM   25  N3  UNL     1      -3.769  -1.650  -9.351  1.00  0.00    -0.233 N
ATOM     26  H32 UNL     1      -3.957  -2.513  -9.861  1.00  0.00     0.174 HD
ATOM     27  H31 UNL     1      -3.820  -1.644  -8.331  1.00  0.00     0.174 HD
ENDBRANCH  17  25
BRANCH  19  28
HETATM   28  N1  UNL     1      -0.630   0.853 -11.527  1.00  0.00    -0.234 N
ATOM     29  H12 UNL     1      -0.068   0.016 -11.685  1.00  0.00     0.174 HD
ATOM     30  H11 UNL     1      -0.245   1.773 -11.736  1.00  0.00     0.174 HD
ENDBRANCH  19  28
ENDBRANCH  13  16
ENDBRANCH   1   8
BRANCH   3  31
HETATM   31  C7  UNL     1      -9.085  -4.107  -6.276  1.00  0.00     0.214 C
HETATM   32  O1  UNL     1      -8.438  -5.327  -6.101  1.00  0.00    -0.375 OA
HETATM   33  C8  UNL     1      -9.071  -5.947  -5.041  1.00  0.00     0.202 C
HETATM   34  C9  UNL     1      -9.469  -5.118  -3.890  1.00  0.00     0.220 C
HETATM   35  N9  UNL     1      -9.399  -3.701  -3.991  1.00  0.00    -0.053 N
HETATM   36  C12 UNL     1      -8.569  -3.255  -5.126  1.00  0.00     0.312 C
ATOM     37  H92 UNL     1     -10.331  -3.290  -4.035  1.00  0.00     0.278 HD
ATOM     38  H91 UNL     1      -9.077  -3.287  -3.117  1.00  0.00     0.278 HD
BRANCH  34  39
HETATM   39  C10 UNL     1     -10.920  -5.512  -3.546  1.00  0.00     0.148 C
BRANCH  39  40
HETATM   40  C11 UNL     1     -10.912  -6.620  -2.544  1.00  0.00     0.174 C
HETATM   41  O2  UNL     1      -9.840  -7.041  -2.030  1.00  0.00    -0.648 OA
HETATM   42  O3  UNL     1     -12.085  -7.237  -2.134  1.00  0.00    -0.648 OA
ENDBRANCH  39  40
ENDBRANCH  34  39
BRANCH  36  43
HETATM   43  C13 UNL     1      -7.174  -3.574  -4.758  1.00  0.00     0.251 C
HETATM   44  O4  UNL     1      -6.835  -3.543  -3.551  1.00  0.00    -0.271 OA
HETATM   45  N10 UNL     1      -6.174  -3.920  -5.689  1.00  0.00    -0.359 N
ATOM     46  H10 UNL     1      -6.423  -3.952  -6.678  1.00  0.00     0.162 HD
BRANCH  45  47
HETATM   47  C14 UNL     1      -4.825  -4.229  -5.318  1.00  0.00     0.133 C
BRANCH  47  48
HETATM   48  C15 UNL     1      -4.192  -5.338  -6.100  1.00  0.00     0.133 C
BRANCH  48  49
HETATM   49  C16 UNL     1      -4.672  -5.223  -7.510  1.00  0.00     0.174 C
HETATM   50  O5  UNL     1      -5.752  -5.706  -7.887  1.00  0.00    -0.648 OA
HETATM   51  O6  UNL     1      -3.910  -4.553  -8.482  1.00  0.00    -0.648 OA
ENDBRANCH  48  49
ENDBRANCH  47  48
ENDBRANCH  45  47
ENDBRANCH  36  43
ENDBRANCH   3  31
TORSDOF 11
ENDMDL