MODEL 3
REMARK VINA RESULT: -6.101175379      5.224      9.079
REMARK  16 active torsions:
REMARK  status: ('A' for Active; 'I' for Inactive)
REMARK    1  A    between atoms: O1_2  and  C2_3
REMARK    2  A    between atoms: C2_3  and  C3_5
REMARK    3  A    between atoms: C3_5  and  O3_6
REMARK    4  A    between atoms: O3_6  and  N1_7
REMARK    5  A    between atoms: C6_11  and  N2_12
REMARK    6  A    between atoms: N2_12  and  C7_14
REMARK    7  A    between atoms: C7_14  and  O4_15
REMARK    8  A    between atoms: C7_14  and  C8_17
REMARK    9  A    between atoms: C8_17  and  O5_18
REMARK   10  A    between atoms: C8_17  and  C9_20
REMARK   11  A    between atoms: C9_20  and  O6_21
REMARK   12  A    between atoms: C10_23  and  O7_24
REMARK   13  A    between atoms: O7_24  and  C11_25
REMARK   14  A    between atoms: C11_25  and  O8_26
REMARK   15  A    between atoms: C14_33  and  N4_34
REMARK   16  A    between atoms: C19_47  and  N7_48
ROOT
HETATM    1  N1  UNL     1      -6.285  -2.393  -1.958  1.00  0.00    -0.270 N
ATOM      2  H1  UNL     1      -6.544  -1.563  -2.493  1.00  0.00     0.194 HD
HETATM    3  C4  UNL     1      -6.543  -3.558  -2.512  1.00  0.00     0.078 C
HETATM    4  C5  UNL     1      -7.183  -3.506  -3.855  1.00  0.00     0.086 C
HETATM    5  C6  UNL     1      -6.790  -4.508  -4.858  1.00  0.00     0.116 C
HETATM    6  C10 UNL     1      -7.590  -5.740  -5.033  1.00  0.00     0.177 C
HETATM    7  C12 UNL     1      -8.684  -6.163  -4.202  1.00  0.00     0.174 C
HETATM    8  O9  UNL     1      -9.689  -5.320  -3.777  1.00  0.00    -0.326 OA
HETATM    9  C13 UNL     1     -10.559  -6.158  -3.052  1.00  0.00     0.170 A
HETATM   10  N3  UNL     1     -11.903  -6.145  -2.816  1.00  0.00    -0.170 N
ATOM     11  H3  UNL     1     -12.460  -5.392  -3.220  1.00  0.00     0.186 HD
HETATM   12  C14 UNL     1     -12.524  -7.068  -2.081  1.00  0.00     0.680 A
HETATM   13  N5  UNL     1     -11.786  -8.060  -1.550  1.00  0.00    -0.156 N
ATOM     14  H5  UNL     1     -12.256  -8.769  -0.987  1.00  0.00     0.187 HD
HETATM   15  C15 UNL     1     -10.443  -8.158  -1.729  1.00  0.00     0.270 A
HETATM   16  O10 UNL     1      -9.762  -9.100  -1.219  1.00  0.00    -0.267 OA
HETATM   17  C16 UNL     1      -9.834  -7.187  -2.493  1.00  0.00     0.073 A
HETATM   18  C17 UNL     1      -8.402  -6.944  -2.907  1.00  0.00     0.117 C
HETATM   19  C18 UNL     1      -7.819  -6.008  -1.999  1.00  0.00     0.336 C
HETATM   20  N6  UNL     1      -6.388  -5.917  -2.335  1.00  0.00    -0.006 N
ATOM     21  H61 UNL     1      -6.135  -5.982  -3.320  1.00  0.00     0.283 HD
ATOM     22  H62 UNL     1      -5.796  -6.704  -2.073  1.00  0.00     0.283 HD
HETATM   23  C19 UNL     1      -6.147  -4.673  -1.681  1.00  0.00     0.347 C
HETATM   24  C20 UNL     1      -7.028  -4.901  -0.436  1.00  0.00     0.246 C
HETATM   25  O11 UNL     1      -7.642  -6.180  -0.658  1.00  0.00    -0.354 OA
ENDROOT
BRANCH   5  26
HETATM   26  N2  UNL     1      -6.492  -3.953  -6.113  1.00  0.00    -0.388 N
ATOM     27  H2  UNL     1      -5.498  -3.804  -6.287  1.00  0.00     0.156 HD
BRANCH  26  28
HETATM   28  C7  UNL     1      -7.310  -3.578  -7.136  1.00  0.00     0.244 C
BRANCH  28  29
HETATM   29  O4  UNL     1      -6.505  -2.707  -7.984  1.00  0.00    -0.374 OA
ATOM     30  H4  UNL     1      -5.897  -3.280  -8.435  1.00  0.00     0.212 HD
ENDBRANCH  28  29
BRANCH  28  31
HETATM   31  C8  UNL     1      -8.586  -2.848  -7.001  1.00  0.00     0.189 C
BRANCH  31  32
HETATM   32  O5  UNL     1      -9.670  -3.501  -6.464  1.00  0.00    -0.389 OA
ATOM     33  H5  UNL     1      -9.953  -3.274  -5.587  1.00  0.00     0.210 HD
ENDBRANCH  31  32
BRANCH  31  34
HETATM   34  C9  UNL     1      -9.070  -2.292  -8.360  1.00  0.00     0.200 C
BRANCH  34  35
HETATM   35  O6  UNL     1     -10.458  -2.366  -8.340  1.00  0.00    -0.398 OA
ATOM     36  H6  UNL     1     -10.704  -2.962  -9.037  1.00  0.00     0.209 HD
ENDBRANCH  34  35
ENDBRANCH  31  34
ENDBRANCH  28  31
ENDBRANCH  26  28
ENDBRANCH   5  26
BRANCH   6  37
HETATM   37  O7  UNL     1      -6.711  -6.829  -5.112  1.00  0.00    -0.357 OA
BRANCH  37  38
HETATM   38  C11 UNL     1      -6.808  -7.592  -6.231  1.00  0.00     0.335 C
BRANCH  38  39
HETATM   39  O8  UNL     1      -7.042  -6.931  -7.416  1.00  0.00    -0.377 OA
ATOM     40  H8  UNL     1      -7.803  -6.364  -7.448  1.00  0.00     0.212 HD
ENDBRANCH  38  39
ENDBRANCH  37  38
ENDBRANCH   6  37
BRANCH   1  41
HETATM   41  O3  UNL     1      -5.718  -2.186  -0.764  1.00  0.00    -0.271 OA
BRANCH  41  42
HETATM   42  C3  UNL     1      -4.927  -1.024  -0.591  1.00  0.00     0.312 C
BRANCH  42  43
HETATM   43  C2  UNL     1      -3.618  -1.156  -1.254  1.00  0.00     0.284 C
HETATM   44  O2  UNL     1      -3.306  -2.249  -1.775  1.00  0.00    -0.263 OA
BRANCH  43  45
HETATM   45  O1  UNL     1      -2.730  -0.104  -1.315  1.00  0.00    -0.325 OA
HETATM   46  C1  UNL     1      -1.412  -0.311  -1.848  1.00  0.00     0.213 C
ENDBRANCH  43  45
ENDBRANCH  42  43
ENDBRANCH  41  42
ENDBRANCH   1  41
BRANCH  23  47
HETATM   47  N7  UNL     1      -4.793  -4.563  -1.166  1.00  0.00    -0.037 N
ATOM     48  H73 UNL     1      -4.131  -4.395  -1.924  1.00  0.00     0.277 HD
ATOM     49  H72 UNL     1      -4.676  -3.696  -0.643  1.00  0.00     0.277 HD
ATOM     50  H71 UNL     1      -4.502  -5.364  -0.605  1.00  0.00     0.277 HD
ENDBRANCH  23  47
BRANCH  12  51
HETATM   51  N4  UNL     1     -13.803  -7.056  -1.858  1.00  0.00    -0.234 N
ATOM     52  H42 UNL     1     -14.375  -6.357  -2.333  1.00  0.00     0.174 HD
ATOM     53  H41 UNL     1     -14.265  -7.711  -1.228  1.00  0.00     0.174 HD
ENDBRANCH  12  51
TORSDOF 16
ENDMDL