MODEL 3
REMARK VINA RESULT: -8.527524836      1.294      1.558
REMARK  17 active torsions:
REMARK  status: ('A' for Active; 'I' for Inactive)
REMARK       I    between atoms: C2_2  and  N1_4
REMARK    1  A    between atoms: N1_4  and  N2_6
REMARK    2  A    between atoms: C5_11  and  C6_12
REMARK    3  A    between atoms: C6_12  and  N4_13
REMARK    4  A    between atoms: N4_13  and  C7_15
REMARK    5  A    between atoms: C7_15  and  O2_16
REMARK    6  A    between atoms: C7_15  and  N5_18
REMARK       I    between atoms: N5_18  and  C8_20
REMARK    7  A    between atoms: C8_20  and  C9_22
REMARK    8  A    between atoms: C10_28  and  C11_29
REMARK       I    between atoms: C11_29  and  N8_31
REMARK    9  A    between atoms: N8_31  and  C12_33
REMARK   10  A    between atoms: C12_33  and  N9_34
REMARK   11  A    between atoms: C12_33  and  C13_38
REMARK   12  A    between atoms: C13_38  and  O6_39
REMARK   13  A    between atoms: C13_38  and  C14_41
REMARK   14  A    between atoms: C14_41  and  O7_42
REMARK   15  A    between atoms: C14_41  and  C15_44
REMARK   16  A    between atoms: C15_44  and  O8_45
REMARK   17  A    between atoms: C19_51  and  N11_52
ROOT
HETATM    1  N5  UNL     1     -13.625   4.560   8.435  1.00  0.00    -0.287 N
ATOM      2  H5  UNL     1     -13.536   5.019   7.528  1.00  0.00     0.172 HD
HETATM    3  C8  UNL     1     -14.799   3.855   8.587  1.00  0.00     0.279 C
HETATM    4  O3  UNL     1     -15.607   3.790   7.574  1.00  0.00    -0.265 OA
ENDROOT
BRANCH   1   5
HETATM    5  C7  UNL     1     -12.536   4.769   9.279  1.00  0.00     0.220 C
BRANCH   5   6
HETATM    6  N4  UNL     1     -11.360   4.011   9.402  1.00  0.00    -0.352 N
ATOM      7  H4  UNL     1     -11.403   2.994   9.350  1.00  0.00     0.163 HD
BRANCH   6   8
HETATM    8  C6  UNL     1     -10.092   4.670   9.603  1.00  0.00     0.165 C
BRANCH   8   9
HETATM    9  C5  UNL     1      -8.985   3.742   9.270  1.00  0.00     0.004 A
HETATM   10  C4  UNL     1      -8.619   2.742  10.168  1.00  0.00     0.073 A
HETATM   11  N3  UNL     1      -9.076   2.369  11.366  1.00  0.00    -0.348 N
HETATM   12  C18 UNL     1      -7.567   2.063   9.593  1.00  0.00     0.107 A
HETATM   13  C3  UNL     1      -8.532   1.325  12.049  1.00  0.00     0.209 A
ATOM     14  H3  UNL     1      -9.855   2.881  11.780  1.00  0.00     0.167 HD
HETATM   15  N2  UNL     1      -7.518   0.629  11.550  1.00  0.00    -0.231 N
HETATM   16  C19 UNL     1      -7.028   0.997  10.311  1.00  0.00     0.151 A
HETATM   17  N10 UNL     1      -7.297   2.620   8.392  1.00  0.00    -0.356 N
HETATM   18  C16 UNL     1      -8.163   3.651   8.186  1.00  0.00     0.102 A
HETATM   19  C17 UNL     1      -6.276   2.235   7.460  1.00  0.00     0.156 C
BRANCH  15  20
HETATM   20  N1  UNL     1      -6.898  -0.461  12.164  1.00  0.00    -0.261 N
HETATM   21  C2  UNL     1      -6.002  -0.456  13.237  1.00  0.00     0.232 C
HETATM   22  C1  UNL     1      -5.436  -1.756  13.753  1.00  0.00     0.119 C
HETATM   23  O1  UNL     1      -5.614   0.565  13.826  1.00  0.00    -0.272 OA
ATOM     24  H1  UNL     1      -7.128  -1.377  11.781  1.00  0.00     0.190 HD
ENDBRANCH  15  20
BRANCH  16  25
HETATM   25  N11 UNL     1      -6.066   0.340   9.834  1.00  0.00    -0.382 N
ATOM     26 2H11 UNL     1      -5.161   0.790   9.694  1.00  0.00     0.157 HD
ATOM     27 1H11 UNL     1      -6.223  -0.639   9.597  1.00  0.00     0.157 HD
ENDBRANCH  16  25
ENDBRANCH   8   9
ENDBRANCH   6   8
ENDBRANCH   5   6
BRANCH   5  28
HETATM   28  O2  UNL     1     -12.654   5.829  10.052  1.00  0.00    -0.332 OA
ATOM     29  H2  UNL     1     -13.113   6.580   9.693  1.00  0.00     0.220 HD
ENDBRANCH   5  28
ENDBRANCH   1   5
BRANCH   3  30
HETATM   30  C9  UNL     1     -15.270   3.159   9.754  1.00  0.00     0.158 A
HETATM   31  N6  UNL     1     -16.390   3.525  10.446  1.00  0.00    -0.234 N
HETATM   32  O4  UNL     1     -16.545   2.694  11.403  1.00  0.00    -0.156 OA
ATOM     33  H6  UNL     1     -16.994   4.319  10.235  1.00  0.00     0.197 HD
HETATM   34  N7  UNL     1     -15.631   1.802  11.418  1.00  0.00    -0.234 N
HETATM   35  C10 UNL     1     -14.762   2.040  10.374  1.00  0.00     0.158 A
ATOM     36  H7  UNL     1     -15.555   1.039  12.091  1.00  0.00     0.197 HD
BRANCH  35  37
HETATM   37  C11 UNL     1     -13.578   1.254  10.080  1.00  0.00     0.274 C
HETATM   38  O5  UNL     1     -13.062   1.509   8.920  1.00  0.00    -0.266 OA
HETATM   39  N8  UNL     1     -12.981   0.291  10.904  1.00  0.00    -0.326 N
ATOM     40  H8  UNL     1     -13.370   0.081  11.823  1.00  0.00     0.165 HD
BRANCH  39  41
HETATM   41  C12 UNL     1     -11.811  -0.395  10.430  1.00  0.00     0.316 C
BRANCH  41  42
HETATM   42  N9  UNL     1     -12.254  -1.166   9.249  1.00  0.00    -0.056 N
ATOM     43  H93 UNL     1     -12.301  -2.173   9.411  1.00  0.00     0.276 HD
ATOM     44  H92 UNL     1     -13.240  -1.035   9.020  1.00  0.00     0.276 HD
ATOM     45  H91 UNL     1     -11.620  -0.901   8.495  1.00  0.00     0.276 HD
ENDBRANCH  41  42
BRANCH  41  46
HETATM   46  C13 UNL     1     -11.142  -1.337  11.335  1.00  0.00     0.199 C
BRANCH  46  47
HETATM   47  O6  UNL     1     -10.712  -0.760  12.536  1.00  0.00    -0.389 OA
ATOM     48  H6  UNL     1     -10.692   0.189  12.520  1.00  0.00     0.210 HD
ENDBRANCH  46  47
BRANCH  46  49
HETATM   49  C14 UNL     1     -10.146  -2.290  10.789  1.00  0.00     0.174 C
BRANCH  49  50
HETATM   50  O7  UNL     1      -9.138  -1.770  10.022  1.00  0.00    -0.391 OA
ATOM     51  H7  UNL     1      -8.828  -2.300   9.297  1.00  0.00     0.210 HD
ENDBRANCH  49  50
BRANCH  49  52
HETATM   52  C15 UNL     1      -9.647  -3.311  11.809  1.00  0.00     0.198 C
BRANCH  52  53
HETATM   53  O8  UNL     1      -8.494  -2.837  12.428  1.00  0.00    -0.398 OA
ATOM     54  H8  UNL     1      -8.699  -2.538  13.306  1.00  0.00     0.209 HD
ENDBRANCH  52  53
ENDBRANCH  49  52
ENDBRANCH  46  49
ENDBRANCH  41  46
ENDBRANCH  39  41
ENDBRANCH  35  37
ENDBRANCH   3  30
TORSDOF 17
ENDMDL