MODEL 5
REMARK VINA RESULT: -7.597787214      2.235      3.495
REMARK  15 active torsions:
REMARK  status: ('A' for Active; 'I' for Inactive)
REMARK    1  A    between atoms: C2_2  and  N1_3
REMARK    2  A    between atoms: C4_9  and  C5_10
REMARK    3  A    between atoms: C5_10  and  N4_11
REMARK    4  A    between atoms: C8_16  and  N6_17
REMARK    5  A    between atoms: C9_22  and  N8_23
REMARK    6  A    between atoms: C13_31  and  C14_32
REMARK    7  A    between atoms: C14_32  and  O2_33
REMARK    8  A    between atoms: C14_32  and  N10_35
REMARK    9  A    between atoms: N10_35  and  C15_37
REMARK   10  A    between atoms: C15_37  and  O3_38
REMARK   11  A    between atoms: C15_37  and  C16_40
REMARK   12  A    between atoms: C16_40  and  O4_41
REMARK   13  A    between atoms: C16_40  and  C17_43
REMARK   14  A    between atoms: C17_43  and  C18_45
REMARK   15  A    between atoms: C18_45  and  O6_46
ROOT
HETATM    1  N4  UNL     1     -13.402   3.361   8.206  1.00  0.00    -0.146 N
HETATM    2  C6  UNL     1     -13.277   4.478   7.316  1.00  0.00     0.151 A
HETATM    3  C7  UNL     1     -12.506   5.657   7.320  1.00  0.00     0.189 A
HETATM    4  N5  UNL     1     -12.695   6.538   6.332  1.00  0.00    -0.168 N
ATOM      5  H5  UNL     1     -12.158   7.404   6.299  1.00  0.00     0.186 HD
HETATM    6  C8  UNL     1     -13.616   6.258   5.373  1.00  0.00     0.679 A
HETATM    7  N7  UNL     1     -14.360   5.148   5.336  1.00  0.00    -0.175 N
ATOM      8  H7  UNL     1     -15.037   4.989   4.589  1.00  0.00     0.186 HD
HETATM    9  C9  UNL     1     -14.181   4.241   6.332  1.00  0.00     0.147 A
HETATM   10  O1  UNL     1     -11.517   6.123   8.191  1.00  0.00    -0.332 OA
HETATM   11  C10 UNL     1     -10.346   5.499   8.750  1.00  0.00     0.198 C
HETATM   12  C11 UNL     1     -10.638   4.610   9.899  1.00  0.00     0.173 C
HETATM   13  N9  UNL     1     -11.225   3.348   9.653  1.00  0.00    -0.190 N
HETATM   14  C12 UNL     1     -10.470   2.448  10.301  1.00  0.00     0.126 A
HETATM   15  C13 UNL     1     -10.746   1.100  10.327  1.00  0.00     0.074 A
HETATM   16  C19 UNL     1     -11.849   0.627   9.660  1.00  0.00     0.271 A
HETATM   17  O7  UNL     1     -12.147  -0.615   9.656  1.00  0.00    -0.267 OA
HETATM   18  N11 UNL     1     -12.615   1.523   9.003  1.00  0.00    -0.155 N
ATOM     19  H11 UNL     1     -13.442   1.204   8.497  1.00  0.00     0.187 HD
HETATM   20  C20 UNL     1     -12.303   2.830   9.008  1.00  0.00     0.694 A
ENDROOT
BRANCH  15  21
HETATM   21  C14 UNL     1      -9.849   0.144  11.082  1.00  0.00     0.257 C
BRANCH  21  22
HETATM   22  O2  UNL     1     -10.338   0.006  12.352  1.00  0.00    -0.373 OA
ATOM     23  H2  UNL     1     -10.157  -0.879  12.648  1.00  0.00     0.212 HD
ENDBRANCH  21  22
BRANCH  21  24
HETATM   24  N10 UNL     1      -8.543   0.578  10.911  1.00  0.00    -0.365 N
ATOM     25  H10 UNL     1      -8.248   0.869   9.979  1.00  0.00     0.158 HD
BRANCH  24  26
HETATM   26  C15 UNL     1      -7.611   0.638  11.946  1.00  0.00     0.252 C
BRANCH  26  27
HETATM   27  O3  UNL     1      -8.020   1.324  13.087  1.00  0.00    -0.374 OA
ATOM     28  H3  UNL     1      -8.474   0.803  13.740  1.00  0.00     0.212 HD
ENDBRANCH  26  27
BRANCH  26  29
HETATM   29  C16 UNL     1      -7.013  -0.700  12.302  1.00  0.00     0.237 C
BRANCH  29  30
HETATM   30  O4  UNL     1      -7.951  -1.651  12.679  1.00  0.00    -0.384 OA
ATOM     31  H4  UNL     1      -7.592  -2.524  12.782  1.00  0.00     0.210 HD
ENDBRANCH  29  30
BRANCH  29  32
HETATM   32  C17 UNL     1      -5.957  -0.578  13.349  1.00  0.00     0.182 C
HETATM   33  O5  UNL     1      -5.324   0.443  13.552  1.00  0.00    -0.293 OA
BRANCH  32  34
HETATM   34  C18 UNL     1      -5.662  -1.769  14.189  1.00  0.00     0.245 C
BRANCH  34  35
HETATM   35  O6  UNL     1      -5.711  -2.946  13.442  1.00  0.00    -0.393 OA
ATOM     36  H6  UNL     1      -4.853  -3.348  13.368  1.00  0.00     0.209 HD
ENDBRANCH  34  35
ENDBRANCH  32  34
ENDBRANCH  29  32
ENDBRANCH  26  29
ENDBRANCH  24  26
ENDBRANCH  21  24
ENDBRANCH  15  21
BRANCH   1  37
HETATM   37  C5  UNL     1     -14.666   2.842   8.307  1.00  0.00     0.165 C
BRANCH  37  38
HETATM   38  C4  UNL     1     -15.474   3.308   9.553  1.00  0.00     0.140 A
HETATM   39  N1  UNL     1     -15.803   2.580  10.595  1.00  0.00    -0.326 N
HETATM   40  C3  UNL     1     -16.512   3.347  11.439  1.00  0.00     0.201 A
HETATM   41  N2  UNL     1     -16.606   4.561  10.885  1.00  0.00    -0.294 N
HETATM   42  N3  UNL     1     -15.964   4.522   9.728  1.00  0.00    -0.283 N
ATOM     43  H2  UNL     1     -17.086   5.370  11.282  1.00  0.00     0.187 HD
ATOM     44  H3  UNL     1     -15.863   5.301   9.077  1.00  0.00     0.188 HD
BRANCH  39  45
HETATM   45  C2  UNL     1     -15.455   1.158  10.810  1.00  0.00     0.127 C
HETATM   46  C1  UNL     1     -14.899   0.925  12.176  1.00  0.00     0.027 C
ENDBRANCH  39  45
ENDBRANCH  37  38
ENDBRANCH   1  37
BRANCH   9  47
HETATM   47  N8  UNL     1     -14.793   3.119   6.344  1.00  0.00    -0.383 N
ATOM     48  H82 UNL     1     -15.711   3.009   6.774  1.00  0.00     0.157 HD
ATOM     49  H81 UNL     1     -14.359   2.335   5.855  1.00  0.00     0.157 HD
ENDBRANCH   9  47
BRANCH   6  50
HETATM   50  N6  UNL     1     -13.772   7.127   4.438  1.00  0.00    -0.234 N
ATOM     51  H62 UNL     1     -14.307   6.858   3.614  1.00  0.00     0.174 HD
ATOM     52  H61 UNL     1     -13.346   8.043   4.579  1.00  0.00     0.174 HD
ENDBRANCH   6  50
TORSDOF 15
ENDMDL