MODEL 3
REMARK VINA RESULT: -7.409876577      1.320      1.865
REMARK  15 active torsions:
REMARK  status: ('A' for Active; 'I' for Inactive)
REMARK       I    between atoms: C2_2  and  N1_4
REMARK    1  A    between atoms: C3_5  and  N2_6
REMARK    2  A    between atoms: N2_6  and  C4_8
REMARK    3  A    between atoms: C4_8  and  C5_9
REMARK    4  A    between atoms: C5_9  and  N3_10
REMARK    5  A    between atoms: N3_10  and  C6_12
REMARK    6  A    between atoms: N4_15  and  C9_16
REMARK    7  A    between atoms: C10_18  and  O3_19
REMARK    8  A    between atoms: C10_18  and  C11_21
REMARK    9  A    between atoms: C11_21  and  O4_22
REMARK   10  A    between atoms: N5_24  and  O5_25
REMARK   11  A    between atoms: C12_27  and  O6_28
REMARK   12  A    between atoms: N8_35  and  N9_36
REMARK   13  A    between atoms: N9_36  and  O7_38
REMARK   14  A    between atoms: O7_38  and  C14_39
REMARK   15  A    between atoms: C14_39  and  C16_41
ROOT
HETATM    1  C4  UNL     1     -10.458   5.959   7.900  1.00  0.00     0.157 C
ENDROOT
BRANCH   1   2
HETATM    2  N2  UNL     1     -11.615   6.698   8.305  1.00  0.00    -0.224 N
ATOM      3  H2  UNL     1     -11.507   7.675   8.579  1.00  0.00     0.177 HD
BRANCH   2   4
HETATM    4  C3  UNL     1     -12.925   6.104   8.339  1.00  0.00     0.682 C
HETATM    5  N1  UNL     1     -13.709   5.904   7.145  1.00  0.00    -0.123 N
HETATM    6  C2  UNL     1     -13.539   6.808   6.081  1.00  0.00     0.236 C
HETATM    7  C17 UNL     1     -14.648   4.794   7.069  1.00  0.00     0.143 C
HETATM    8  C1  UNL     1     -14.214   6.716   4.774  1.00  0.00     0.118 C
HETATM    9  O1  UNL     1     -12.742   7.799   6.223  1.00  0.00    -0.273 OA
HETATM   10  N8  UNL     1     -14.761   4.173   8.359  1.00  0.00    -0.261 N
HETATM   11  C18 UNL     1     -14.131   3.786   6.088  1.00  0.00     0.065 C
HETATM   12  C19 UNL     1     -15.985   5.328   6.614  1.00  0.00     0.065 C
HETATM   13  C13 UNL     1     -14.718   5.066   9.451  1.00  0.00     0.287 C
HETATM   14  N7  UNL     1     -13.418   5.697   9.460  1.00  0.00    -0.208 N
ATOM     15  H7  UNL     1     -12.901   5.817  10.331  1.00  0.00     0.179 HD
BRANCH  10  16
HETATM   16  N9  UNL     1     -14.690   2.864   8.508  1.00  0.00    -0.205 N
ATOM     17  H9  UNL     1     -14.987   2.261   7.740  1.00  0.00     0.216 HD
BRANCH  16  18
HETATM   18  O7  UNL     1     -14.244   2.314   9.623  1.00  0.00    -0.249 OA
BRANCH  18  19
HETATM   19  C14 UNL     1     -15.310   1.699  10.276  1.00  0.00     0.250 C
HETATM   20  C15 UNL     1     -15.670   2.482  11.550  1.00  0.00     0.054 C
BRANCH  19  21
HETATM   21  C16 UNL     1     -14.986   0.323  10.694  1.00  0.00     0.205 C
HETATM   22  O8  UNL     1     -14.688  -0.542   9.815  1.00  0.00    -0.646 OA
HETATM   23  O9  UNL     1     -14.991  -0.085  12.021  1.00  0.00    -0.646 OA
ENDBRANCH  19  21
ENDBRANCH  18  19
ENDBRANCH  16  18
ENDBRANCH  10  16
ENDBRANCH   2   4
ENDBRANCH   1   2
BRANCH   1  24
HETATM   24  C5  UNL     1      -9.625   5.373   8.979  1.00  0.00     0.141 C
BRANCH  24  25
HETATM   25  N3  UNL     1      -8.585   4.486   8.562  1.00  0.00    -0.374 N
ATOM     26  H3  UNL     1      -7.869   4.831   7.923  1.00  0.00     0.161 HD
BRANCH  25  27
HETATM   27  C6  UNL     1      -8.522   3.240   8.975  1.00  0.00     0.117 A
HETATM   28  C7  UNL     1      -7.548   2.314   8.679  1.00  0.00     0.068 A
HETATM   29  C8  UNL     1      -7.889   1.147   9.328  1.00  0.00     0.117 A
HETATM   30  N4  UNL     1      -9.034   1.358   9.996  1.00  0.00    -0.268 N
HETATM   31  N6  UNL     1      -9.401   2.617   9.774  1.00  0.00    -0.281 N
ATOM     32  H6  UNL     1     -10.240   3.051  10.161  1.00  0.00     0.189 HD
BRANCH  30  33
HETATM   33  C9  UNL     1      -9.770   0.451  10.808  1.00  0.00     0.293 C
HETATM   34  O2  UNL     1      -9.560  -0.906  10.467  1.00  0.00    -0.308 OA
HETATM   35  C10 UNL     1     -10.425  -1.511  11.380  1.00  0.00     0.275 C
HETATM   36  N5  UNL     1     -11.654  -0.731  11.336  1.00  0.00    -0.104 NA
HETATM   37  C12 UNL     1     -11.260   0.544  10.708  1.00  0.00     0.274 C
BRANCH  35  38
HETATM   38  O3  UNL     1      -9.807  -1.398  12.635  1.00  0.00    -0.350 OA
ATOM     39  H3  UNL     1      -8.973  -1.848  12.559  1.00  0.00     0.214 HD
ENDBRANCH  35  38
BRANCH  35  40
HETATM   40  C11 UNL     1     -10.763  -2.929  11.048  1.00  0.00     0.253 C
BRANCH  40  41
HETATM   41  O4  UNL     1     -11.934  -2.977  10.333  1.00  0.00    -0.394 OA
ATOM     42  H4  UNL     1     -12.208  -3.880  10.219  1.00  0.00     0.209 HD
ENDBRANCH  40  41
ENDBRANCH  35  40
BRANCH  36  43
HETATM   43  O5  UNL     1     -12.009  -0.416  12.619  1.00  0.00    -0.306 OA
ATOM     44  H5  UNL     1     -12.391  -1.187  13.020  1.00  0.00     0.237 HD
ENDBRANCH  36  43
BRANCH  37  45
HETATM   45  O6  UNL     1     -11.730   0.469   9.392  1.00  0.00    -0.374 OA
ATOM     46  H6  UNL     1     -12.567   0.026   9.319  1.00  0.00     0.212 HD
ENDBRANCH  37  45
ENDBRANCH  30  33
ENDBRANCH  25  27
ENDBRANCH  24  25
ENDBRANCH   1  24
TORSDOF 15
ENDMDL