MODEL 4
REMARK VINA RESULT: -8.825102394      1.622      2.067
REMARK  12 active torsions:
REMARK  status: ('A' for Active; 'I' for Inactive)
REMARK    1  A    between atoms: C2_2  and  N1_3
REMARK    2  A    between atoms: N1_3  and  C3_5
REMARK    3  A    between atoms: C3_5  and  O1_7
REMARK    4  A    between atoms: C3_5  and  C5_9
REMARK       I    between atoms: C5_9  and  N2_11
REMARK       I    between atoms: N2_11  and  C6_13
REMARK    5  A    between atoms: C6_13  and  C7_15
REMARK    6  A    between atoms: C7_15  and  O4_16
REMARK    7  A    between atoms: C7_15  and  N3_18
REMARK    8  A    between atoms: N3_18  and  C8_20
REMARK    9  A    between atoms: N5_24  and  C10_25
REMARK   10  A    between atoms: C12_29  and  C13_30
REMARK   11  A    between atoms: C15_37  and  N9_38
REMARK   12  A    between atoms: C16_43  and  N11_44
ROOT
HETATM    1  C8  UNL     1     -15.274   1.082  11.532  1.00  0.00     0.685 A
HETATM    2  N4  UNL     1     -15.086   0.751  10.213  1.00  0.00    -0.187 N
ATOM      3  H4  UNL     1     -15.121  -0.225   9.923  1.00  0.00     0.185 HD
HETATM    4  C9  UNL     1     -14.854   1.710   9.305  1.00  0.00     0.211 A
HETATM    5  N5  UNL     1     -14.797   3.017   9.642  1.00  0.00    -0.258 N
HETATM    6  C18 UNL     1     -14.986   3.319  10.933  1.00  0.00     0.346 A
HETATM    7  O8  UNL     1     -14.940   4.524  11.274  1.00  0.00    -0.246 OA
HETATM    8  N12 UNL     1     -15.224   2.371  11.890  1.00  0.00    -0.141 N
ATOM      9  H12 UNL     1     -15.361   2.643  12.864  1.00  0.00     0.189 HD
ENDROOT
BRANCH   5  10
HETATM   10  C10 UNL     1     -14.525   3.936   8.606  1.00  0.00     0.062 A
HETATM   11  C11 UNL     1     -13.235   4.396   8.435  1.00  0.00     0.118 A
HETATM   12  N6  UNL     1     -12.905   5.238   7.471  1.00  0.00    -0.359 N
HETATM   13  C12 UNL     1     -13.807   5.737   6.549  1.00  0.00     0.111 A
ATOM     14  H6  UNL     1     -11.932   5.536   7.405  1.00  0.00     0.165 HD
HETATM   15  C16 UNL     1     -15.077   5.338   6.668  1.00  0.00     0.135 A
HETATM   16  C17 UNL     1     -15.437   4.416   7.717  1.00  0.00     0.070 A
BRANCH  13  17
HETATM   17  C13 UNL     1     -13.196   6.595   5.556  1.00  0.00     0.154 A
HETATM   18  N7  UNL     1     -13.172   6.126   4.248  1.00  0.00    -0.292 N
HETATM   19  C14 UNL     1     -12.521   6.783   3.304  1.00  0.00     0.340 A
ATOM     20  H7  UNL     1     -13.663   5.263   4.014  1.00  0.00     0.172 HD
HETATM   21  O5  UNL     1     -12.471   6.402   2.114  1.00  0.00    -0.246 OA
HETATM   22  N8  UNL     1     -11.865   7.924   3.582  1.00  0.00    -0.141 N
HETATM   23  C15 UNL     1     -11.866   8.415   4.839  1.00  0.00     0.681 A
ATOM     24  H8  UNL     1     -11.367   8.418   2.842  1.00  0.00     0.189 HD
HETATM   25  N10 UNL     1     -12.551   7.712   5.807  1.00  0.00    -0.174 N
ATOM     26  H10 UNL     1     -12.557   8.075   6.760  1.00  0.00     0.186 HD
BRANCH  23  27
HETATM   27  N9  UNL     1     -11.244   9.507   5.118  1.00  0.00    -0.234 N
ATOM     28  H92 UNL     1     -11.151  10.255   4.431  1.00  0.00     0.174 HD
ATOM     29  H91 UNL     1     -10.827   9.648   6.038  1.00  0.00     0.174 HD
ENDBRANCH  23  27
ENDBRANCH  13  17
BRANCH  15  30
HETATM   30  N11 UNL     1     -16.163   5.801   5.916  1.00  0.00    -0.113 N
HETATM   31  O6  UNL     1     -16.169   6.807   5.226  1.00  0.00    -0.532 OA
HETATM   32  O7  UNL     1     -17.395   5.194   6.115  1.00  0.00    -0.532 OA
ENDBRANCH  15  30
ENDBRANCH   5  10
BRANCH   1  33
HETATM   33  N3  UNL     1     -15.489   0.162  12.381  1.00  0.00    -0.191 N
ATOM     34  H3  UNL     1     -16.471  -0.015  12.592  1.00  0.00     0.181 HD
BRANCH  33  35
HETATM   35  C7  UNL     1     -14.558  -0.663  13.082  1.00  0.00     0.328 C
BRANCH  35  36
HETATM   36  C6  UNL     1     -13.620  -1.222  12.051  1.00  0.00     0.273 C
HETATM   37  N2  UNL     1     -12.220  -0.937  12.097  1.00  0.00    -0.290 N
HETATM   38  C5  UNL     1     -11.325  -1.470  11.128  1.00  0.00     0.279 C
ATOM     39  H2  UNL     1     -11.856  -0.340  12.838  1.00  0.00     0.172 HD
HETATM   40  O2  UNL     1     -11.781  -2.252  10.263  1.00  0.00    -0.268 OA
HETATM   41  O3  UNL     1     -14.015  -1.960  11.102  1.00  0.00    -0.268 OA
BRANCH  38  42
HETATM   42  C3  UNL     1      -9.892  -1.127  11.120  1.00  0.00     0.207 C
HETATM   43  C4  UNL     1      -9.170  -1.968  12.186  1.00  0.00     0.081 C
BRANCH  42  44
HETATM   44  N1  UNL     1      -9.627   0.269  11.338  1.00  0.00    -0.385 N
ATOM     45  H1  UNL     1      -9.529   0.654  12.277  1.00  0.00     0.156 HD
BRANCH  44  46
HETATM   46  C2  UNL     1      -9.509   1.085  10.181  1.00  0.00     0.112 C
HETATM   47  C1  UNL     1     -10.815   1.718   9.767  1.00  0.00     0.026 C
ENDBRANCH  44  46
ENDBRANCH  42  44
BRANCH  42  48
HETATM   48  O1  UNL     1      -9.356  -1.555   9.885  1.00  0.00    -0.363 OA
ATOM     49  H1  UNL     1      -8.448  -1.291   9.800  1.00  0.00     0.213 HD
ENDBRANCH  42  48
ENDBRANCH  38  42
ENDBRANCH  35  36
BRANCH  35  50
HETATM   50  O4  UNL     1     -13.739   0.105  13.931  1.00  0.00    -0.368 OA
ATOM     51  H4  UNL     1     -13.908  -0.235  14.803  1.00  0.00     0.212 HD
ENDBRANCH  35  50
ENDBRANCH  33  35
ENDBRANCH   1  33
TORSDOF 12
ENDMDL