MODEL 3
REMARK VINA RESULT: -8.984626285      1.154      2.435
REMARK  17 active torsions:
REMARK  status: ('A' for Active; 'I' for Inactive)
REMARK    1  A    between atoms: C2_2  and  O1_3
REMARK    2  A    between atoms: O1_3  and  C3_4
REMARK       I    between atoms: C3_4  and  N1_6
REMARK    3  A    between atoms: N1_6  and  C4_8
REMARK    4  A    between atoms: C4_8  and  C5_9
REMARK    5  A    between atoms: C4_8  and  C18_49
REMARK    6  A    between atoms: C5_9  and  O3_10
REMARK    7  A    between atoms: C5_9  and  N2_12
REMARK    8  A    between atoms: C6_17  and  C7_18
REMARK    9  A    between atoms: C7_18  and  C8_20
REMARK   10  A    between atoms: C8_20  and  O5_21
REMARK   11  A    between atoms: C8_20  and  C9_23
REMARK   12  A    between atoms: C9_23  and  N5_24
REMARK   13  A    between atoms: C12_29  and  N7_30
REMARK   14  A    between atoms: C13_35  and  N9_36
REMARK   15  A    between atoms: C15_42  and  N11_43
REMARK       I    between atoms: N11_43  and  C16_45
REMARK   16  A    between atoms: C18_49  and  O7_50
REMARK   17  A    between atoms: C18_49  and  O8_52
ROOT
HETATM    1  N11 UNL     1     -14.827  -0.160  11.439  1.00  0.00    -0.297 N
ATOM      2  H11 UNL     1     -15.685  -0.524  11.024  1.00  0.00     0.171 HD
HETATM    3  C16 UNL     1     -14.800  -0.080  12.832  1.00  0.00     0.328 C
HETATM    4  O6  UNL     1     -13.776   0.166  13.499  1.00  0.00    -0.256 OA
HETATM    5  C17 UNL     1     -16.005  -0.286  13.603  1.00  0.00     0.162 C
HETATM    6  N12 UNL     1     -16.981  -0.449  14.205  1.00  0.00    -0.186 NA
ENDROOT
BRANCH   1   7
HETATM    7  C15 UNL     1     -13.803   0.205  10.537  1.00  0.00     0.166 A
HETATM    8  N2  UNL     1     -13.811   1.359   9.805  1.00  0.00    -0.202 N
HETATM    9  N3  UNL     1     -12.598   1.427   9.191  1.00  0.00    -0.232 N
HETATM   10  N4  UNL     1     -11.897   0.400   9.514  1.00  0.00    -0.279 N
ATOM     11  H3  UNL     1     -12.293   2.177   8.570  1.00  0.00     0.209 HD
HETATM   12  C6  UNL     1     -12.593  -0.436  10.381  1.00  0.00     0.144 A
ATOM     13  H4  UNL     1     -10.951   0.221   9.178  1.00  0.00     0.189 HD
BRANCH   8  14
HETATM   14  C5  UNL     1     -14.738   2.379   9.619  1.00  0.00     0.169 C
BRANCH  14  15
HETATM   15  C4  UNL     1     -14.496   3.709   9.080  1.00  0.00     0.218 C
BRANCH  15  16
HETATM   16  N1  UNL     1     -15.719   4.182   8.372  1.00  0.00    -0.320 N
HETATM   17  C3  UNL     1     -15.804   4.012   6.993  1.00  0.00     0.361 C
HETATM   18  O2  UNL     1     -14.842   3.464   6.374  1.00  0.00    -0.238 OA
ATOM     19  H1  UNL     1     -16.480   4.623   8.889  1.00  0.00     0.165 HD
BRANCH  17  20
HETATM   20  O1  UNL     1     -16.880   4.401   6.215  1.00  0.00    -0.304 OA
BRANCH  20  21
HETATM   21  C2  UNL     1     -17.110   5.776   5.886  1.00  0.00     0.176 C
HETATM   22  C1  UNL     1     -15.769   6.399   5.567  1.00  0.00     0.034 C
ENDBRANCH  20  21
ENDBRANCH  17  20
ENDBRANCH  15  16
BRANCH  15  23
HETATM   23  C18 UNL     1     -14.383   4.756  10.198  1.00  0.00     0.284 C
BRANCH  23  24
HETATM   24  O7  UNL     1     -14.865   4.369  11.403  1.00  0.00    -0.369 OA
ATOM     25  H7  UNL     1     -15.633   4.841  11.703  1.00  0.00     0.212 HD
ENDBRANCH  23  24
BRANCH  23  26
HETATM   26  O8  UNL     1     -13.039   5.116  10.275  1.00  0.00    -0.369 OA
ATOM     27  H8  UNL     1     -12.621   4.488  10.851  1.00  0.00     0.212 HD
ENDBRANCH  23  26
ENDBRANCH  15  23
ENDBRANCH  14  15
BRANCH  14  28
HETATM   28  O3  UNL     1     -15.972   2.094   9.982  1.00  0.00    -0.346 OA
ATOM     29  H3  UNL     1     -16.442   1.457   9.456  1.00  0.00     0.219 HD
ENDBRANCH  14  28
ENDBRANCH   8  14
BRANCH  12  30
HETATM   30  C7  UNL     1     -11.946  -1.556  11.041  1.00  0.00     0.211 C
HETATM   31  O4  UNL     1     -12.340  -2.739  10.927  1.00  0.00    -0.288 OA
BRANCH  30  32
HETATM   32  C8  UNL     1     -10.748  -1.291  11.899  1.00  0.00     0.212 C
BRANCH  32  33
HETATM   33  O5  UNL     1     -11.019  -0.222  12.723  1.00  0.00    -0.386 OA
ATOM     34  H5  UNL     1     -10.322  -0.144  13.364  1.00  0.00     0.210 HD
ENDBRANCH  32  33
BRANCH  32  35
HETATM   35  C9  UNL     1      -9.503  -1.126  11.058  1.00  0.00     0.171 C
BRANCH  35  36
HETATM   36  N5  UNL     1      -8.581  -0.178  11.646  1.00  0.00    -0.324 N
HETATM   37  C10 UNL     1      -7.513  -0.450  12.451  1.00  0.00     0.185 A
HETATM   38  N6  UNL     1      -6.887   0.688  12.793  1.00  0.00    -0.346 N
HETATM   39  C11 UNL     1      -7.540   1.700  12.215  1.00  0.00     0.123 A
ATOM     40  H6  UNL     1      -6.061   0.766  13.387  1.00  0.00     0.167 HD
HETATM   41  C12 UNL     1      -7.339   3.066  12.227  1.00  0.00     0.145 A
HETATM   42  C14 UNL     1      -8.594   1.170  11.501  1.00  0.00     0.155 A
HETATM   43  N8  UNL     1      -8.197   3.830  11.530  1.00  0.00    -0.175 N
HETATM   44  C13 UNL     1      -9.222   3.293  10.838  1.00  0.00     0.679 A
ATOM     45  H8  UNL     1      -8.069   4.842  11.524  1.00  0.00     0.186 HD
HETATM   46  N10 UNL     1      -9.434   1.972  10.812  1.00  0.00    -0.174 N
ATOM     47  H10 UNL     1     -10.213   1.579  10.283  1.00  0.00     0.186 HD
BRANCH  41  48
HETATM   48  N7  UNL     1      -6.354   3.589  12.888  1.00  0.00    -0.383 N
ATOM     49  H72 UNL     1      -5.473   3.090  13.008  1.00  0.00     0.157 HD
ATOM     50  H71 UNL     1      -6.437   4.515  13.307  1.00  0.00     0.157 HD
ENDBRANCH  41  48
BRANCH  44  51
HETATM   51  N9  UNL     1     -10.004   4.084  10.192  1.00  0.00    -0.234 N
ATOM     52  H92 UNL     1      -9.998   5.084  10.393  1.00  0.00     0.174 HD
ATOM     53  H91 UNL     1     -10.622   3.685   9.485  1.00  0.00     0.174 HD
ENDBRANCH  44  51
ENDBRANCH  35  36
ENDBRANCH  32  35
ENDBRANCH  30  32
ENDBRANCH  12  30
ENDBRANCH   1   7
TORSDOF 17
ENDMDL