MODEL 3
REMARK VINA RESULT: -8.807368340      2.871      6.170
REMARK  15 active torsions:
REMARK  status: ('A' for Active; 'I' for Inactive)
REMARK    1  A    between atoms: C2_2  and  C3_3
REMARK    2  A    between atoms: C2_2  and  N11_34
REMARK    3  A    between atoms: C3_3  and  C4_4
REMARK    4  A    between atoms: C4_4  and  O2_6
REMARK    5  A    between atoms: O2_6  and  C5_7
REMARK    6  A    between atoms: C5_7  and  C6_8
REMARK    7  A    between atoms: C5_7  and  C7_17
REMARK    8  A    between atoms: C9_25  and  N8_26
REMARK    9  A    between atoms: N11_34  and  N12_36
REMARK       I    between atoms: N12_36  and  C11_38
REMARK   10  A    between atoms: C11_38  and  C12_40
REMARK   11  A    between atoms: C12_40  and  N13_41
REMARK   12  A    between atoms: C14_43  and  C15_44
REMARK   13  A    between atoms: C15_44  and  O4_45
REMARK   14  A    between atoms: C15_44  and  O5_47
REMARK   15  A    between atoms: C16_49  and  N14_50
ROOT
HETATM    1  C4  UNL     1     -13.309  -0.711  12.181  1.00  0.00     0.265 C
HETATM    2  O1  UNL     1     -13.789  -1.466  11.281  1.00  0.00    -0.265 OA
ENDROOT
BRANCH   1   3
HETATM    3  C3  UNL     1     -14.087  -0.369  13.401  1.00  0.00     0.164 C
BRANCH   3   4
HETATM    4  C2  UNL     1     -15.469   0.053  13.085  1.00  0.00     0.009 C
HETATM    5  C1  UNL     1     -16.558  -0.231  14.036  1.00  0.00     0.065 C
BRANCH   4   6
HETATM    6  N11 UNL     1     -15.710   0.658  11.995  1.00  0.00    -0.306 N
ATOM      7  H11 UNL     1     -15.977   0.089  11.192  1.00  0.00     0.186 HD
BRANCH   6   8
HETATM    8  N12 UNL     1     -15.640   2.025  11.809  1.00  0.00    -0.269 N
HETATM    9  C11 UNL     1     -14.771   2.667  10.903  1.00  0.00     0.254 C
HETATM   10  O3  UNL     1     -14.002   1.951  10.211  1.00  0.00    -0.270 OA
ATOM     11  H12 UNL     1     -16.261   2.612  12.366  1.00  0.00     0.190 HD
BRANCH   9  12
HETATM   12  C12 UNL     1     -14.745   4.145  10.750  1.00  0.00     0.237 C
BRANCH  12  13
HETATM   13  N13 UNL     1     -14.320   4.557   9.448  1.00  0.00    -0.300 N
HETATM   14  C13 UNL     1     -15.238   4.608   8.460  1.00  0.00     0.112 A
HETATM   15  C14 UNL     1     -14.887   4.999   7.181  1.00  0.00     0.055 A
HETATM   16  C16 UNL     1     -13.573   5.341   6.922  1.00  0.00     0.115 A
HETATM   17  N15 UNL     1     -12.669   5.286   7.915  1.00  0.00    -0.294 N
HETATM   18  C17 UNL     1     -13.068   4.903   9.123  1.00  0.00     0.328 A
ATOM     19  H15 UNL     1     -11.695   5.536   7.745  1.00  0.00     0.172 HD
HETATM   20  O6  UNL     1     -12.184   4.862  10.042  1.00  0.00    -0.246 OA
BRANCH  15  21
HETATM   21  C15 UNL     1     -15.851   5.071   6.070  1.00  0.00     0.293 C
BRANCH  21  22
HETATM   22  O4  UNL     1     -17.040   4.456   6.497  1.00  0.00    -0.367 OA
ATOM     23  H4  UNL     1     -17.605   4.366   5.739  1.00  0.00     0.213 HD
ENDBRANCH  21  22
BRANCH  21  24
HETATM   24  O5  UNL     1     -16.052   6.348   5.599  1.00  0.00    -0.367 OA
ATOM     25  H5  UNL     1     -16.830   6.764   5.952  1.00  0.00     0.213 HD
ENDBRANCH  21  24
ENDBRANCH  15  21
BRANCH  16  26
HETATM   26  N14 UNL     1     -13.215   5.707   5.751  1.00  0.00    -0.385 N
ATOM     27 2H14 UNL     1     -13.840   5.564   4.957  1.00  0.00     0.157 HD
ATOM     28 1H14 UNL     1     -12.306   6.143   5.598  1.00  0.00     0.157 HD
ENDBRANCH  16  26
ENDBRANCH  12  13
ENDBRANCH   9  12
ENDBRANCH   6   8
ENDBRANCH   4   6
ENDBRANCH   3   4
ENDBRANCH   1   3
BRANCH   1  29
HETATM   29  O2  UNL     1     -12.032  -0.233  11.953  1.00  0.00    -0.300 OA
BRANCH  29  30
HETATM   30  C5  UNL     1     -11.201  -0.659  10.888  1.00  0.00     0.269 C
BRANCH  30  31
HETATM   31  C6  UNL     1     -10.350  -1.807  11.277  1.00  0.00     0.150 A
HETATM   32  N1  UNL     1      -9.437  -1.806  12.258  1.00  0.00    -0.270 N
HETATM   33  N2  UNL     1      -8.877  -3.011  12.309  1.00  0.00    -0.227 N
ATOM     34  H1  UNL     1      -9.210  -1.016  12.862  1.00  0.00     0.190 HD
HETATM   35  N3  UNL     1      -9.414  -3.778  11.382  1.00  0.00    -0.227 N
ATOM     36  H2  UNL     1      -8.148  -3.295  12.963  1.00  0.00     0.210 HD
HETATM   37  N4  UNL     1     -10.317  -3.041  10.749  1.00  0.00    -0.270 N
ATOM     38  H3  UNL     1      -9.179  -4.752  11.188  1.00  0.00     0.210 HD
ATOM     39  H4  UNL     1     -10.900  -3.364   9.977  1.00  0.00     0.190 HD
ENDBRANCH  30  31
BRANCH  30  40
HETATM   40  C7  UNL     1     -10.397   0.491  10.411  1.00  0.00     0.122 A
HETATM   41  N5  UNL     1     -10.809   1.768  10.194  1.00  0.00    -0.325 N
HETATM   42  C8  UNL     1      -9.783   2.521   9.763  1.00  0.00     0.167 A
ATOM     43  H5  UNL     1     -11.761   2.106  10.338  1.00  0.00     0.169 HD
HETATM   44  N6  UNL     1      -9.598   3.795   9.405  1.00  0.00    -0.268 N
HETATM   45  C10 UNL     1      -8.635   1.619   9.711  1.00  0.00     0.168 A
HETATM   46  N7  UNL     1      -8.406   4.214   9.017  1.00  0.00    -0.131 N
ATOM     47  H6  UNL     1     -10.381   4.447   9.431  1.00  0.00     0.189 HD
HETATM   48  C9  UNL     1      -7.322   3.423   8.953  1.00  0.00     0.692 A
ATOM     49  H7  UNL     1      -8.303   5.194   8.751  1.00  0.00     0.205 HD
HETATM   50  N9  UNL     1      -7.458   2.132   9.304  1.00  0.00    -0.172 N
ATOM     51  H9  UNL     1      -6.642   1.520   9.260  1.00  0.00     0.186 HD
HETATM   52  N10 UNL     1      -9.092   0.433  10.113  1.00  0.00    -0.326 N
ATOM     53  H10 UNL     1      -8.522  -0.409  10.185  1.00  0.00     0.169 HD
BRANCH  48  54
HETATM   54  N8  UNL     1      -6.169   3.900   8.559  1.00  0.00    -0.233 N
ATOM     55  H82 UNL     1      -6.096   4.485   7.727  1.00  0.00     0.174 HD
ATOM     56  H81 UNL     1      -5.316   3.694   9.079  1.00  0.00     0.174 HD
ENDBRANCH  48  54
ENDBRANCH  30  40
ENDBRANCH  29  30
ENDBRANCH   1  29
TORSDOF 15
ENDMDL