MODEL 5
REMARK VINA RESULT: -7.574121316      1.681      2.332
REMARK  17 active torsions:
REMARK  status: ('A' for Active; 'I' for Inactive)
REMARK    1  A    between atoms: C2_2  and  O1_3
REMARK    2  A    between atoms: C2_2  and  C3_5
REMARK    3  A    between atoms: C2_2  and  C4_8
REMARK    4  A    between atoms: C3_5  and  O2_6
REMARK    5  A    between atoms: C4_8  and  O3_9
REMARK    6  A    between atoms: C4_8  and  C5_11
REMARK    7  A    between atoms: C5_11  and  O4_12
REMARK    8  A    between atoms: C5_11  and  C6_14
REMARK    9  A    between atoms: C6_14  and  O5_15
REMARK   10  A    between atoms: C6_14  and  C7_17
REMARK   11  A    between atoms: C7_17  and  O7_19
REMARK   12  A    between atoms: O7_19  and  C8_20
REMARK   13  A    between atoms: N1_24  and  N2_26
REMARK   14  A    between atoms: N2_26  and  C11_28
REMARK   15  A    between atoms: C16_35  and  N4_36
REMARK   16  A    between atoms: N4_36  and  N5_38
REMARK       I    between atoms: N5_38  and  C17_40
REMARK       I    between atoms: C17_40  and  N6_42
REMARK   17  A    between atoms: N6_42  and  N7_44
ROOT
HETATM    1  C8  UNL     1     -13.029   3.651   8.926  1.00  0.00     0.193 C
HETATM    2  C9  UNL     1     -14.390   4.326   9.138  1.00  0.00     0.213 C
HETATM    3  O8  UNL     1     -14.558   5.290   8.141  1.00  0.00    -0.329 OA
HETATM    4  C10 UNL     1     -13.631   5.827   7.274  1.00  0.00     0.203 C
HETATM    5  N1  UNL     1     -14.070   6.263   6.123  1.00  0.00    -0.276 N
ATOM      6  H1  UNL     1     -13.409   6.667   5.460  1.00  0.00     0.189 HD
HETATM    7  C16 UNL     1     -12.201   6.000   7.418  1.00  0.00     0.170 C
HETATM    8  N8  UNL     1     -11.485   5.423   8.333  1.00  0.00    -0.352 N
ATOM      9  H8  UNL     1     -10.488   5.639   8.315  1.00  0.00     0.162 HD
HETATM   10  C18 UNL     1     -11.910   4.505   9.388  1.00  0.00     0.222 C
HETATM   11  C19 UNL     1     -10.766   3.702   9.762  1.00  0.00     0.087 C
HETATM   12  N9  UNL     1      -9.840   3.082  10.068  1.00  0.00    -0.195 NA
ENDROOT
BRANCH   1  13
HETATM   13  O7  UNL     1     -13.109   2.442   9.652  1.00  0.00    -0.309 OA
BRANCH  13  14
HETATM   14  C7  UNL     1     -13.437   1.229   9.015  1.00  0.00     0.291 C
HETATM   15  O6  UNL     1     -13.909   1.360   7.861  1.00  0.00    -0.262 OA
BRANCH  14  16
HETATM   16  C6  UNL     1     -13.262  -0.097   9.616  1.00  0.00     0.248 C
BRANCH  16  17
HETATM   17  C5  UNL     1     -12.469  -0.156  10.877  1.00  0.00     0.188 C
BRANCH  17  18
HETATM   18  C4  UNL     1     -11.690  -1.425  10.975  1.00  0.00     0.185 C
BRANCH  18  19
HETATM   19  C2  UNL     1     -10.292  -1.305  11.458  1.00  0.00     0.103 C
HETATM   20  C1  UNL     1      -9.383  -0.544  10.482  1.00  0.00     0.051 C
BRANCH  19  21
HETATM   21  O1  UNL     1     -10.316  -0.445  12.593  1.00  0.00    -0.385 OA
ATOM     22  H1  UNL     1     -10.052  -1.025  13.297  1.00  0.00     0.210 HD
ENDBRANCH  19  21
BRANCH  19  23
HETATM   23  C3  UNL     1      -9.629  -2.567  11.904  1.00  0.00     0.204 C
BRANCH  23  24
HETATM   24  O2  UNL     1     -10.496  -3.630  12.035  1.00  0.00    -0.398 OA
ATOM     25  H2  UNL     1     -10.066  -4.477  12.011  1.00  0.00     0.209 HD
ENDBRANCH  23  24
ENDBRANCH  19  23
ENDBRANCH  18  19
BRANCH  18  26
HETATM   26  O3  UNL     1     -11.726  -2.113   9.776  1.00  0.00    -0.390 OA
ATOM     27  H3  UNL     1     -12.613  -2.390   9.582  1.00  0.00     0.210 HD
ENDBRANCH  18  26
ENDBRANCH  17  18
BRANCH  17  28
HETATM   28  O4  UNL     1     -13.238   0.134  12.001  1.00  0.00    -0.390 OA
ATOM     29  H4  UNL     1     -14.123  -0.210  11.970  1.00  0.00     0.210 HD
ENDBRANCH  17  28
ENDBRANCH  16  17
BRANCH  16  30
HETATM   30  O5  UNL     1     -14.467  -0.774   9.775  1.00  0.00    -0.383 OA
ATOM     31  H5  UNL     1     -15.110  -0.448   9.156  1.00  0.00     0.210 HD
ENDBRANCH  16  30
ENDBRANCH  14  16
ENDBRANCH  13  14
ENDBRANCH   1  13
BRANCH   7  32
HETATM   32  N4  UNL     1     -11.529   6.850   6.505  1.00  0.00    -0.278 N
ATOM     33  H4  UNL     1     -11.526   6.607   5.514  1.00  0.00     0.189 HD
BRANCH  32  34
HETATM   34  N5  UNL     1     -10.873   8.006   6.916  1.00  0.00    -0.249 N
HETATM   35  C17 UNL     1     -11.593   9.223   6.971  1.00  0.00     0.352 C
HETATM   36  O9  UNL     1     -12.804   9.247   6.651  1.00  0.00    -0.244 OA
HETATM   37  N6  UNL     1     -10.926  10.403   7.391  1.00  0.00    -0.257 N
ATOM     38  H6  UNL     1      -9.941  10.367   7.649  1.00  0.00     0.191 HD
ATOM     39  H5  UNL     1      -9.887   7.976   7.175  1.00  0.00     0.192 HD
BRANCH  37  40
HETATM   40  N7  UNL     1     -11.624  11.618   7.451  1.00  0.00    -0.341 N
ATOM     41  H72 UNL     1     -11.666  12.206   6.618  1.00  0.00     0.177 HD
ATOM     42  H71 UNL     1     -12.079  11.902   8.318  1.00  0.00     0.177 HD
ENDBRANCH  37  40
ENDBRANCH  32  34
ENDBRANCH   7  32
BRANCH   5  43
HETATM   43  N2  UNL     1     -15.414   6.190   5.780  1.00  0.00    -0.297 N
ATOM     44  H2  UNL     1     -15.978   5.394   6.080  1.00  0.00     0.187 HD
BRANCH  43  45
HETATM   45  C11 UNL     1     -15.997   7.229   5.011  1.00  0.00     0.063 A
HETATM   46  C12 UNL     1     -17.375   7.273   4.797  1.00  0.00     0.034 A
HETATM   47  C13 UNL     1     -17.875   8.296   4.048  1.00  0.00     0.019 A
HETATM   48  C14 UNL     1     -17.014   9.256   3.525  1.00  0.00     0.088 A
HETATM   49  N3  UNL     1     -15.688   9.208   3.734  1.00  0.00    -0.373 N
HETATM   50  C15 UNL     1     -15.200   8.197   4.472  1.00  0.00     0.118 A
ATOM     51  H3  UNL     1     -15.070   9.919   3.343  1.00  0.00     0.164 HD
ENDBRANCH  43  45
ENDBRANCH   5  43
TORSDOF 17
ENDMDL