MODEL 3
REMARK VINA RESULT: -8.165167231      1.808      2.597
REMARK  15 active torsions:
REMARK  status: ('A' for Active; 'I' for Inactive)
REMARK    1  A    between atoms: C3_6  and  N2_7
REMARK    2  A    between atoms: N3_10  and  C6_11
REMARK    3  A    between atoms: C6_11  and  C7_12
REMARK    4  A    between atoms: C7_12  and  N4_13
REMARK    5  A    between atoms: C10_16  and  C11_17
REMARK    6  A    between atoms: C11_17  and  O1_18
REMARK    7  A    between atoms: C11_17  and  C12_20
REMARK    8  A    between atoms: C12_20  and  O2_21
REMARK    9  A    between atoms: C12_20  and  C13_23
REMARK   10  A    between atoms: C13_23  and  N5_24
REMARK   11  A    between atoms: C16_28  and  C17_29
REMARK   12  A    between atoms: C17_29  and  O4_30
REMARK   13  A    between atoms: C17_29  and  O5_32
REMARK   14  A    between atoms: N6_34  and  N7_35
REMARK   15  A    between atoms: C19_40  and  O7_41
ROOT
HETATM    1  N4  UNL     1     -10.831   5.040   9.090  1.00  0.00    -0.336 N
HETATM    2  C8  UNL     1     -11.217   6.266   8.780  1.00  0.00     0.094 A
HETATM    3  C9  UNL     1     -12.581   6.428   8.962  1.00  0.00     0.031 A
HETATM    4  C10 UNL     1     -13.047   5.216   9.411  1.00  0.00     0.025 A
HETATM    5  C19 UNL     1     -11.926   4.373   9.480  1.00  0.00     0.151 A
ENDROOT
BRANCH   4   6
HETATM    6  C11 UNL     1     -14.430   4.779   9.769  1.00  0.00     0.185 C
BRANCH   6   7
HETATM    7  O1  UNL     1     -14.428   4.491  11.150  1.00  0.00    -0.388 OA
ATOM      8  H1  UNL     1     -14.384   3.546  11.237  1.00  0.00     0.210 HD
ENDBRANCH   6   7
BRANCH   6   9
HETATM    9  C12 UNL     1     -14.902   3.612   8.970  1.00  0.00     0.170 C
BRANCH   9  10
HETATM   10  O2  UNL     1     -15.629   3.978   7.838  1.00  0.00    -0.391 OA
ATOM     11  H2  UNL     1     -16.305   3.353   7.609  1.00  0.00     0.210 HD
ENDBRANCH   9  10
BRANCH   9  12
HETATM   12  C13 UNL     1     -15.611   2.587   9.824  1.00  0.00     0.171 C
BRANCH  12  13
HETATM   13  N5  UNL     1     -14.723   1.455  10.101  1.00  0.00    -0.262 N
HETATM   14  C14 UNL     1     -13.880   0.929   9.202  1.00  0.00     0.253 A
HETATM   15  O3  UNL     1     -13.823   1.399   8.053  1.00  0.00    -0.268 OA
HETATM   16  C15 UNL     1     -13.055  -0.152   9.538  1.00  0.00     0.107 A
HETATM   17  C16 UNL     1     -13.117  -0.674  10.809  1.00  0.00     0.098 A
HETATM   18  N6  UNL     1     -13.967  -0.137  11.701  1.00  0.00    -0.211 N
HETATM   19  C18 UNL     1     -14.747   0.903  11.345  1.00  0.00     0.350 A
HETATM   20  O6  UNL     1     -15.526   1.378  12.201  1.00  0.00    -0.244 OA
BRANCH  17  21
HETATM   21  C17 UNL     1     -12.249  -1.817  11.172  1.00  0.00     0.307 C
BRANCH  21  22
HETATM   22  O4  UNL     1     -11.728  -2.334   9.990  1.00  0.00    -0.366 OA
ATOM     23  H4  UNL     1     -10.807  -2.103   9.962  1.00  0.00     0.213 HD
ENDBRANCH  21  22
BRANCH  21  24
HETATM   24  O5  UNL     1     -11.169  -1.376  11.933  1.00  0.00    -0.366 OA
ATOM     25  H5  UNL     1     -11.176  -1.796  12.785  1.00  0.00     0.213 HD
ENDBRANCH  21  24
ENDBRANCH  17  21
BRANCH  18  26
HETATM   26  N7  UNL     1     -14.013  -0.682  12.979  1.00  0.00    -0.334 N
ATOM     27  H72 UNL     1     -14.879  -0.718  13.516  1.00  0.00     0.177 HD
ATOM     28  H71 UNL     1     -13.150  -1.053  13.378  1.00  0.00     0.177 HD
ENDBRANCH  18  26
ENDBRANCH  12  13
ENDBRANCH   9  12
ENDBRANCH   6   9
ENDBRANCH   4   6
BRANCH   5  29
HETATM   29  O7  UNL     1     -11.970   3.050   9.892  1.00  0.00    -0.345 OA
ATOM     30  H7  UNL     1     -11.981   2.745  10.792  1.00  0.00     0.219 HD
ENDBRANCH   5  29
BRANCH   1  31
HETATM   31  C7  UNL     1      -9.483   4.474   9.032  1.00  0.00     0.152 C
BRANCH  31  32
HETATM   32  C6  UNL     1      -8.820   4.800  10.377  1.00  0.00     0.162 C
BRANCH  32  33
HETATM   33  N3  UNL     1      -8.806   3.585  11.121  1.00  0.00    -0.328 N
HETATM   34  C5  UNL     1      -8.046   3.558  12.310  1.00  0.00     0.162 C
HETATM   35  C4  UNL     1      -6.988   2.515  12.417  1.00  0.00     0.147 C
HETATM   36  N2  UNL     1      -7.341   1.325  11.625  1.00  0.00    -0.348 N
HETATM   37  C20 UNL     1      -7.799   1.587  10.304  1.00  0.00     0.265 C
HETATM   38  N8  UNL     1      -8.961   2.443  10.405  1.00  0.00    -0.320 N
ATOM     39  H8  UNL     1      -9.848   2.202   9.962  1.00  0.00     0.182 HD
BRANCH  36  40
HETATM   40  C3  UNL     1      -7.213   0.029  12.208  1.00  0.00     0.108 A
HETATM   41  C2  UNL     1      -6.120  -0.304  12.945  1.00  0.00     0.096 A
HETATM   42  C1  UNL     1      -6.039  -1.586  13.490  1.00  0.00     0.103 A
HETATM   43  N1  UNL     1      -5.014  -1.943  14.198  1.00  0.00    -0.385 N
HETATM   44  N10 UNL     1      -7.028  -2.460  13.281  1.00  0.00    -0.339 N
ATOM     45  H12 UNL     1      -4.259  -1.276  14.358  1.00  0.00     0.157 HD
ATOM     46  H11 UNL     1      -4.954  -2.881  14.596  1.00  0.00     0.157 HD
HETATM   47  C21 UNL     1      -8.085  -2.095  12.550  1.00  0.00     0.183 A
ATOM     48  H10 UNL     1      -6.976  -3.399  13.675  1.00  0.00     0.168 HD
HETATM   49  N9  UNL     1      -8.213  -0.882  12.006  1.00  0.00    -0.339 N
ATOM     50  H9  UNL     1      -9.037  -0.641  11.455  1.00  0.00     0.168 HD
ENDBRANCH  36  40
ENDBRANCH  32  33
ENDBRANCH  31  32
ENDBRANCH   1  31
TORSDOF 15
ENDMDL