MODEL 1
REMARK VINA RESULT: -7.948088155      0.000      0.000
REMARK  15 active torsions:
REMARK  status: ('A' for Active; 'I' for Inactive)
REMARK    1  A    between atoms: N1_1  and  C1_4
REMARK    2  A    between atoms: N3_9  and  C4_10
REMARK    3  A    between atoms: C5_13  and  N5_14
REMARK       I    between atoms: N5_14  and  C6_16
REMARK    4  A    between atoms: C6_16  and  C7_18
REMARK    5  A    between atoms: C8_23  and  C9_24
REMARK    6  A    between atoms: C9_24  and  C10_25
REMARK    7  A    between atoms: C10_25  and  N8_26
REMARK    8  A    between atoms: C10_25  and  C17_42
REMARK       I    between atoms: N8_26  and  C11_28
REMARK    9  A    between atoms: C11_28  and  C12_30
REMARK   10  A    between atoms: C13_33  and  O3_34
REMARK   11  A    between atoms: C14_36  and  C15_37
REMARK   12  A    between atoms: C15_37  and  C16_38
REMARK   13  A    between atoms: C17_42  and  O6_43
REMARK   14  A    between atoms: C17_42  and  O7_45
REMARK   15  A    between atoms: C18_48  and  O8_49
ROOT
HETATM    1  C7  UNL     1     -12.487  -0.606  10.346  1.00  0.00     0.159 A
HETATM    2  N6  UNL     1     -11.760  -1.423   9.592  1.00  0.00    -0.289 N
ATOM      3  H6  UNL     1     -11.998  -1.553   8.609  1.00  0.00     0.188 HD
HETATM    4  N7  UNL     1     -10.778  -2.039  10.087  1.00  0.00    -0.297 N
ATOM      5  H7  UNL     1     -10.224  -2.666   9.503  1.00  0.00     0.187 HD
HETATM    6  C8  UNL     1     -10.462  -1.877  11.367  1.00  0.00     0.070 A
HETATM    7  S1  UNL     1     -11.678  -0.760  11.851  1.00  0.00    -0.051 SA
ENDROOT
BRANCH   6   8
HETATM    8  C9  UNL     1      -9.354  -2.494  12.164  1.00  0.00     0.096 C
BRANCH   8   9
HETATM    9  C10 UNL     1      -8.085  -1.742  12.012  1.00  0.00     0.145 C
BRANCH   9  10
HETATM   10  N8  UNL     1      -8.180  -0.313  12.136  1.00  0.00    -0.344 N
HETATM   11  C11 UNL     1      -8.231   0.583  11.063  1.00  0.00     0.293 C
HETATM   12  O2  UNL     1      -8.193   0.137   9.888  1.00  0.00    -0.264 OA
ATOM     13  H8  UNL     1      -8.212   0.076  13.078  1.00  0.00     0.163 HD
BRANCH  11  14
HETATM   14  C12 UNL     1      -8.327   2.024  11.237  1.00  0.00     0.219 A
HETATM   15  N9  UNL     1      -8.302   2.716  12.390  1.00  0.00    -0.311 N
HETATM   16  C13 UNL     1      -8.415   4.030  12.146  1.00  0.00     0.173 A
ATOM     17  H9  UNL     1      -8.211   2.301  13.318  1.00  0.00     0.170 HD
HETATM   18  C14 UNL     1      -8.513   4.130  10.776  1.00  0.00     0.114 A
HETATM   19  O5  UNL     1      -8.456   2.922  10.272  1.00  0.00    -0.288 OA
BRANCH  16  20
HETATM   20  O3  UNL     1      -8.433   5.092  13.048  1.00  0.00    -0.344 OA
ATOM     21  H3  UNL     1      -8.811   5.132  13.919  1.00  0.00     0.219 HD
ENDBRANCH  16  20
BRANCH  18  22
HETATM   22  C15 UNL     1      -8.658   5.379   9.955  1.00  0.00     0.169 C
BRANCH  22  23
HETATM   23  C16 UNL     1      -9.988   5.431   9.331  1.00  0.00     0.237 C
HETATM   24  N10 UNL     1     -10.180   6.049   8.074  1.00  0.00    -0.062 NA
HETATM   25  O4  UNL     1     -10.970   4.921   9.919  1.00  0.00    -0.277 OA
ENDBRANCH  22  23
ENDBRANCH  18  22
ENDBRANCH  11  14
ENDBRANCH   9  10
BRANCH   9  26
HETATM   26  C17 UNL     1      -7.083  -2.186  13.091  1.00  0.00     0.276 C
BRANCH  26  27
HETATM   27  O6  UNL     1      -7.674  -2.994  14.039  1.00  0.00    -0.369 OA
ATOM     28  H6  UNL     1      -7.548  -2.658  14.919  1.00  0.00     0.212 HD
ENDBRANCH  26  27
BRANCH  26  29
HETATM   29  O7  UNL     1      -6.462  -1.069  13.610  1.00  0.00    -0.369 OA
ATOM     30  H7  UNL     1      -6.539  -0.357  12.986  1.00  0.00     0.212 HD
ENDBRANCH  26  29
ENDBRANCH   9  26
ENDBRANCH   8   9
ENDBRANCH   6   8
BRANCH   1  31
HETATM   31  C6  UNL     1     -13.644   0.181   9.958  1.00  0.00     0.278 C
HETATM   32  N5  UNL     1     -14.093   1.215  10.802  1.00  0.00    -0.329 N
ATOM     33  H5  UNL     1     -13.592   1.390  11.673  1.00  0.00     0.165 HD
HETATM   34  O1  UNL     1     -14.230  -0.057   8.890  1.00  0.00    -0.265 OA
BRANCH  32  35
HETATM   35  C5  UNL     1     -15.245   2.044  10.477  1.00  0.00     0.243 C
HETATM   36  N4  UNL     1     -15.218   2.557   9.135  1.00  0.00    -0.330 N
HETATM   37  C4  UNL     1     -14.785   3.771   9.110  1.00  0.00     0.244 C
ATOM     38  H4  UNL     1     -15.503   2.030   8.310  1.00  0.00     0.165 HD
HETATM   39  O9  UNL     1     -14.489   4.166  10.413  1.00  0.00    -0.286 OA
HETATM   40  C18 UNL     1     -15.196   3.327  11.305  1.00  0.00     0.309 C
BRANCH  37  41
HETATM   41  N3  UNL     1     -14.634   4.577   7.920  1.00  0.00    -0.120 N
HETATM   42  C1  UNL     1     -13.944   5.728   7.814  1.00  0.00     0.685 A
HETATM   43  N2  UNL     1     -14.027   6.196   6.550  1.00  0.00    -0.200 N
HETATM   44  C2  UNL     1     -14.773   5.352   5.817  1.00  0.00     0.124 A
ATOM     45  H2  UNL     1     -13.592   7.053   6.206  1.00  0.00     0.183 HD
HETATM   46  C3  UNL     1     -15.146   4.339   6.704  1.00  0.00     0.136 A
BRANCH  42  47
HETATM   47  N1  UNL     1     -13.305   6.269   8.820  1.00  0.00    -0.234 N
ATOM     48  H12 UNL     1     -12.321   6.080   9.017  1.00  0.00     0.174 HD
ATOM     49  H11 UNL     1     -13.677   6.919   9.511  1.00  0.00     0.174 HD
ENDBRANCH  42  47
ENDBRANCH  37  41
BRANCH  40  50
HETATM   50  O8  UNL     1     -16.494   3.828  11.405  1.00  0.00    -0.367 OA
ATOM     51  H8  UNL     1     -16.494   4.519  12.056  1.00  0.00     0.212 HD
ENDBRANCH  40  50
ENDBRANCH  32  35
ENDBRANCH   1  31
TORSDOF 15
ENDMDL