MODEL 1
REMARK VINA RESULT: -7.733130622      0.000      0.000
REMARK  14 active torsions:
REMARK  status: ('A' for Active; 'I' for Inactive)
REMARK    1  A    between atoms: C2_2  and  O1_3
REMARK    2  A    between atoms: C2_2  and  C3_5
REMARK    3  A    between atoms: C3_5  and  C4_6
REMARK    4  A    between atoms: C3_5  and  N1_10
REMARK    5  A    between atoms: C4_6  and  C5_7
REMARK    6  A    between atoms: C5_7  and  S1_8
REMARK       I    between atoms: N1_10  and  C6_12
REMARK    7  A    between atoms: C6_12  and  C7_14
REMARK    8  A    between atoms: C11_24  and  C12_25
REMARK    9  A    between atoms: C12_25  and  O6_26
REMARK   10  A    between atoms: C13_28  and  C14_29
REMARK   11  A    between atoms: C14_29  and  O7_30
REMARK   12  A    between atoms: C14_29  and  C15_32
REMARK   13  A    between atoms: C15_32  and  O8_33
REMARK   14  A    between atoms: C17_37  and  O10_38
ROOT
HETATM    1  C7  UNL     1     -14.759   1.957   8.916  1.00  0.00     0.350 C
HETATM    2  N2  UNL     1     -15.813   2.640   9.717  1.00  0.00    -0.006 N
ATOM      3  H21 UNL     1     -16.678   2.845   9.218  1.00  0.00     0.284 HD
ATOM      4  H22 UNL     1     -15.618   3.611   9.960  1.00  0.00     0.284 HD
HETATM    5  C8  UNL     1     -15.939   1.736  10.829  1.00  0.00     0.475 C
HETATM    6  O3  UNL     1     -15.867   0.511  10.122  1.00  0.00    -0.294 OA
HETATM    7  C9  UNL     1     -14.515   0.748   9.675  1.00  0.00     0.271 C
HETATM    8  O4  UNL     1     -13.900  -0.324   9.180  1.00  0.00    -0.315 OA
HETATM    9  C10 UNL     1     -12.635  -0.326   9.737  1.00  0.00     0.308 C
HETATM   10  O5  UNL     1     -12.077  -1.538  10.022  1.00  0.00    -0.348 OA
HETATM   11  C11 UNL     1     -10.767  -1.294  10.474  1.00  0.00     0.179 C
HETATM   12  C13 UNL     1     -10.660  -0.325  11.585  1.00  0.00     0.185 C
HETATM   13  O9  UNL     1     -11.566   0.756  11.462  1.00  0.00    -0.355 OA
HETATM   14  C16 UNL     1     -12.769   0.315  11.136  1.00  0.00     0.226 C
HETATM   15  C17 UNL     1     -13.253  -0.736  12.146  1.00  0.00     0.368 C
HETATM   16  N3  UNL     1     -14.582  -0.379  11.780  1.00  0.00    -0.004 N
ATOM     17  H31 UNL     1     -15.311  -0.294  12.489  1.00  0.00     0.284 HD
ATOM     18  H32 UNL     1     -15.173  -1.034  11.268  1.00  0.00     0.284 HD
HETATM   19  C18 UNL     1     -14.030   0.835  11.107  1.00  0.00     0.332 C
HETATM   20  O11 UNL     1     -14.721   1.881  11.539  1.00  0.00    -0.293 OA
ENDROOT
BRANCH   1  21
HETATM   21  C6  UNL     1     -13.732   2.924   8.624  1.00  0.00     0.255 C
HETATM   22  N1  UNL     1     -14.034   4.166   8.044  1.00  0.00    -0.352 N
ATOM     23  H1  UNL     1     -14.999   4.400   7.812  1.00  0.00     0.163 HD
HETATM   24  O2  UNL     1     -12.534   2.690   8.886  1.00  0.00    -0.271 OA
BRANCH  22  25
HETATM   25  C3  UNL     1     -12.967   5.120   7.775  1.00  0.00     0.113 C
BRANCH  25  26
HETATM   26  C2  UNL     1     -12.855   6.137   8.903  1.00  0.00     0.136 C
HETATM   27  C1  UNL     1     -11.943   7.269   8.397  1.00  0.00     0.041 C
BRANCH  26  28
HETATM   28  O1  UNL     1     -12.383   5.599  10.069  1.00  0.00    -0.394 OA
ATOM     29  H1  UNL     1     -11.493   5.282   9.969  1.00  0.00     0.210 HD
ENDBRANCH  26  28
ENDBRANCH  25  26
BRANCH  25  30
HETATM   30  C4  UNL     1     -13.199   5.874   6.502  1.00  0.00     0.038 C
BRANCH  30  31
HETATM   31  C5  UNL     1     -13.452   4.984   5.314  1.00  0.00     0.089 C
BRANCH  31  32
HETATM   32  S1  UNL     1     -12.445   5.439   3.875  1.00  0.00    -0.085 SA
HETATM   33  S2  UNL     1     -12.300   3.771   2.541  1.00  0.00    -0.013 SA
ENDBRANCH  31  32
ENDBRANCH  30  31
ENDBRANCH  25  30
ENDBRANCH  22  25
ENDBRANCH   1  21
BRANCH  15  34
HETATM   34  O10 UNL     1     -13.017  -0.365  13.474  1.00  0.00    -0.367 OA
ATOM     35  H10 UNL     1     -13.506  -0.889  14.098  1.00  0.00     0.212 HD
ENDBRANCH  15  34
BRANCH  11  36
HETATM   36  C12 UNL     1     -10.268  -2.673  10.883  1.00  0.00     0.198 C
BRANCH  36  37
HETATM   37  O6  UNL     1     -11.089  -3.187  11.914  1.00  0.00    -0.398 OA
ATOM     38  H6  UNL     1     -10.545  -3.550  12.603  1.00  0.00     0.209 HD
ENDBRANCH  36  37
ENDBRANCH  11  36
BRANCH  12  39
HETATM   39  C14 UNL     1      -9.303   0.366  11.596  1.00  0.00     0.173 C
BRANCH  39  40
HETATM   40  O7  UNL     1      -9.128   1.215  12.662  1.00  0.00    -0.391 OA
ATOM     41  H7  UNL     1      -8.607   1.983  12.455  1.00  0.00     0.210 HD
ENDBRANCH  39  40
BRANCH  39  42
HETATM   42  C15 UNL     1      -8.839   0.942  10.318  1.00  0.00     0.198 C
BRANCH  42  43
HETATM   43  O8  UNL     1      -9.687   1.986   9.933  1.00  0.00    -0.398 OA
ATOM     44  H8  UNL     1     -10.146   1.751   9.136  1.00  0.00     0.209 HD
ENDBRANCH  42  43
ENDBRANCH  39  42
ENDBRANCH  12  39
TORSDOF 14
ENDMDL