MODEL 5
REMARK VINA RESULT: -3.276214761      1.322      1.720
REMARK  3 active torsions:
REMARK  status: ('A' for Active; 'I' for Inactive)
REMARK    1  A    between atoms: C1_4  and  N2_5
REMARK    2  A    between atoms: N2_5  and  N3_7
REMARK    3  A    between atoms: C2_9  and  C3_10
ROOT
HETATM    1  N3  UNL     1       6.573  39.425  -1.904  1.00  0.00    -0.313 N
ATOM      2  H3  UNL     1       7.250  39.842  -2.543  1.00  0.00     0.185 HD
HETATM    3  C2  UNL     1       5.486  40.079  -1.629  1.00  0.00     0.113 C
ENDROOT
BRANCH   1   4
HETATM    4  N2  UNL     1       6.848  38.188  -1.364  1.00  0.00    -0.297 N
ATOM      5  H2  UNL     1       6.257  37.809  -0.625  1.00  0.00     0.187 HD
BRANCH   4   6
HETATM    6  C1  UNL     1       7.960  37.439  -1.841  1.00  0.00     0.190 C
HETATM    7  N1  UNL     1       9.046  38.017  -2.210  1.00  0.00    -0.394 N
ATOM      8  H12 UNL     1       9.095  39.034  -2.155  1.00  0.00     0.156 HD
ATOM      9  H11 UNL     1       9.842  37.480  -2.552  1.00  0.00     0.156 HD
ENDBRANCH   4   6
ENDBRANCH   1   4
BRANCH   3  10
HETATM   10  C3  UNL     1       4.500  39.510  -0.721  1.00  0.00     0.225 C
HETATM   11  C4  UNL     1       3.727  38.389  -1.385  1.00  0.00     0.040 C
HETATM   12  C5  UNL     1       2.373  38.962  -1.672  1.00  0.00     0.030 C
HETATM   13  C6  UNL     1       2.335  40.297  -1.012  1.00  0.00     0.233 C
HETATM   14  N4  UNL     1       3.529  40.444  -0.221  1.00  0.00    -0.066 N
ATOM     15  H42 UNL     1       3.358  40.341   0.780  1.00  0.00     0.278 HD
ATOM     16  H41 UNL     1       3.876  41.403  -0.199  1.00  0.00     0.278 HD
ENDBRANCH   3  10
TORSDOF 3
ENDMDL