MODEL 4
REMARK VINA RESULT: -4.025138695      1.517      4.327
REMARK  4 active torsions:
REMARK  status: ('A' for Active; 'I' for Inactive)
REMARK    1  A    between atoms: N1_1  and  C1_5
REMARK    2  A    between atoms: C1_5  and  C2_6
REMARK    3  A    between atoms: C2_6  and  N2_7
REMARK    4  A    between atoms: N2_7  and  C3_9
ROOT
HETATM    1  N2  UNL     1       6.127  39.514  -1.115  1.00  0.00    -0.373 N
ATOM      2  H2  UNL     1       6.340  39.827  -0.168  1.00  0.00     0.161 HD
ENDROOT
BRANCH   1   3
HETATM    3  C2  UNL     1       7.188  39.210  -2.023  1.00  0.00     0.148 C
BRANCH   3   4
HETATM    4  C1  UNL     1       7.748  37.817  -1.846  1.00  0.00     0.249 C
BRANCH   4   5
HETATM    5  N1  UNL     1       9.166  37.880  -2.210  1.00  0.00    -0.078 N
ATOM      6  H13 UNL     1       9.332  38.356  -3.095  1.00  0.00     0.274 HD
ATOM      7  H12 UNL     1       9.704  38.513  -1.619  1.00  0.00     0.274 HD
ATOM      8  H11 UNL     1       9.518  36.923  -2.196  1.00  0.00     0.274 HD
ENDBRANCH   4   5
ENDBRANCH   3   4
ENDBRANCH   1   3
BRANCH   1   9
HETATM    9  C3  UNL     1       4.885  39.391  -1.498  1.00  0.00     0.131 A
HETATM   10  C4  UNL     1       3.863  38.752  -0.824  1.00  0.00     0.154 A
HETATM   11  N3  UNL     1       2.717  38.842  -1.551  1.00  0.00    -0.292 N
HETATM   12  N4  UNL     1       3.033  39.520  -2.646  1.00  0.00    -0.021 NA
ATOM     13  H3  UNL     1       1.802  38.463  -1.305  1.00  0.00     0.183 HD
HETATM   14  N5  UNL     1       4.320  39.854  -2.628  1.00  0.00    -0.268 N
ATOM     15  H5  UNL     1       4.803  40.380  -3.356  1.00  0.00     0.186 HD
ENDBRANCH   1   9
TORSDOF 4
ENDMDL