MODEL 4
REMARK VINA RESULT: -2.868803430      1.418      4.598
REMARK  4 active torsions:
REMARK  status: ('A' for Active; 'I' for Inactive)
REMARK    1  A    between atoms: N1_2  and  C2_5
REMARK    2  A    between atoms: C2_5  and  C3_6
REMARK    3  A    between atoms: C3_6  and  C4_7
REMARK    4  A    between atoms: C6_9  and  N2_10
ROOT
HETATM    1  C4  UNL     1       5.638  40.444  -1.794  1.00  0.00     0.189 C
HETATM    2  C5  UNL     1       4.616  39.849  -0.849  1.00  0.00     0.067 C
HETATM    3  C6  UNL     1       3.617  39.201  -1.806  1.00  0.00     0.211 C
HETATM    4  C7  UNL     1       3.677  40.193  -2.972  1.00  0.00     0.265 C
HETATM    5  N3  UNL     1       5.113  40.336  -3.123  1.00  0.00    -0.069 N
ATOM      6  H31 UNL     1       5.542  39.591  -3.671  1.00  0.00     0.277 HD
ATOM      7  H32 UNL     1       5.384  41.108  -3.732  1.00  0.00     0.277 HD
ENDROOT
BRANCH   1   8
HETATM    8  C3  UNL     1       6.918  39.650  -1.619  1.00  0.00     0.060 C
BRANCH   8   9
HETATM    9  C2  UNL     1       6.664  38.166  -1.589  1.00  0.00     0.233 C
BRANCH   9  10
HETATM   10  N1  UNL     1       7.895  37.414  -1.441  1.00  0.00    -0.079 N
HETATM   11  C1  UNL     1       8.897  37.785  -2.386  1.00  0.00     0.266 C
ATOM     12  H12 UNL     1       7.714  36.411  -1.479  1.00  0.00     0.276 HD
ATOM     13  H11 UNL     1       8.251  37.485  -0.488  1.00  0.00     0.276 HD
ENDBRANCH   9  10
ENDBRANCH   8   9
ENDBRANCH   1   8
BRANCH   3  14
HETATM   14  N2  UNL     1       2.306  39.103  -1.246  1.00  0.00    -0.073 N
ATOM     15  H23 UNL     1       2.020  38.129  -1.150  1.00  0.00     0.274 HD
ATOM     16  H22 UNL     1       2.305  39.373  -0.262  1.00  0.00     0.274 HD
ATOM     17  H21 UNL     1       1.614  39.638  -1.772  1.00  0.00     0.274 HD
ENDBRANCH   3  14
TORSDOF 4
ENDMDL