MODEL 1
REMARK VINA RESULT: -3.305443921      0.000      0.000
REMARK  5 active torsions:
REMARK  status: ('A' for Active; 'I' for Inactive)
REMARK    1  A    between atoms: C2_2  and  N1_3
REMARK    2  A    between atoms: N1_3  and  N2_4
REMARK    3  A    between atoms: N1_3  and  C3_9
REMARK    4  A    between atoms: N2_4  and  N3_6
REMARK    5  A    between atoms: C5_11  and  N4_12
ROOT
HETATM    1  N1  UNL     1       5.232  39.636  -2.005  1.00  0.00    -0.211 NA
ENDROOT
BRANCH   1   2
HETATM    2  C2  UNL     1       4.554  40.373  -3.051  1.00  0.00     0.111 C
HETATM    3  C1  UNL     1       3.060  40.165  -3.057  1.00  0.00     0.023 C
ENDBRANCH   1   2
BRANCH   1   4
HETATM    4  N2  UNL     1       4.370  38.718  -1.488  1.00  0.00    -0.269 N
ATOM      5  H2  UNL     1       3.828  38.090  -2.081  1.00  0.00     0.201 HD
BRANCH   4   6
HETATM    6  N3  UNL     1       4.273  38.691  -0.108  1.00  0.00    -0.335 N
ATOM      7  H32 UNL     1       3.372  38.787   0.361  1.00  0.00     0.177 HD
ATOM      8  H31 UNL     1       5.151  38.571   0.397  1.00  0.00     0.177 HD
ENDBRANCH   4   6
ENDBRANCH   1   4
BRANCH   1   9
HETATM    9  C3  UNL     1       6.467  39.144  -2.504  1.00  0.00     0.113 A
HETATM   10  C4  UNL     1       7.693  39.900  -2.019  1.00  0.00     0.058 A
HETATM   11  C5  UNL     1       7.492  38.446  -1.724  1.00  0.00     0.204 A
BRANCH  11  12
HETATM   12  N4  UNL     1       8.393  37.547  -2.456  1.00  0.00    -0.073 N
ATOM     13  H43 UNL     1       7.870  36.737  -2.786  1.00  0.00     0.274 HD
ATOM     14  H42 UNL     1       8.656  37.977  -3.343  1.00  0.00     0.274 HD
ATOM     15  H41 UNL     1       9.233  37.233  -1.969  1.00  0.00     0.274 HD
ENDBRANCH  11  12
ENDBRANCH   1   9
TORSDOF 5
ENDMDL