MODEL 4
REMARK VINA RESULT: -2.801230410      1.156      1.498
REMARK  4 active torsions:
REMARK  status: ('A' for Active; 'I' for Inactive)
REMARK    1  A    between atoms: N1_2  and  C2_3
REMARK    2  A    between atoms: N1_2  and  C4_9
REMARK    3  A    between atoms: C2_3  and  C3_4
REMARK    4  A    between atoms: C3_4  and  N2_5
ROOT
HETATM    1  C1  UNL     1       5.168  38.157  -1.243  1.00  0.00     0.310 C
HETATM    2  N1  UNL     1       5.570  39.085  -2.388  1.00  0.00     0.093 N
ENDROOT
BRANCH   2   3
HETATM    3  C2  UNL     1       6.973  39.173  -2.293  1.00  0.00     0.299 C
BRANCH   3   4
HETATM    4  C3  UNL     1       7.765  37.957  -1.942  1.00  0.00     0.259 C
BRANCH   4   5
HETATM    5  N2  UNL     1       9.200  38.191  -2.146  1.00  0.00    -0.078 N
ATOM      6  H23 UNL     1       9.414  39.187  -2.203  1.00  0.00     0.274 HD
ATOM      7  H22 UNL     1       9.742  37.963  -1.313  1.00  0.00     0.274 HD
ATOM      8  H21 UNL     1       9.536  37.686  -2.965  1.00  0.00     0.274 HD
ENDBRANCH   4   5
ENDBRANCH   3   4
ENDBRANCH   2   3
BRANCH   2   9
HETATM    9  C4  UNL     1       4.747  40.204  -2.167  1.00  0.00     0.273 C
HETATM   10  C5  UNL     1       3.542  40.350  -3.087  1.00  0.00     0.269 C
HETATM   11  N3  UNL     1       2.649  40.444  -1.975  1.00  0.00    -0.071 N
HETATM   12  C6  UNL     1       3.813  40.444  -1.088  1.00  0.00     0.269 C
ATOM     13  H32 UNL     1       1.957  41.192  -1.925  1.00  0.00     0.277 HD
ATOM     14  H31 UNL     1       1.900  39.762  -1.851  1.00  0.00     0.277 HD
ENDBRANCH   2   9
TORSDOF 4
ENDMDL