MODEL 1
REMARK VINA RESULT: -4.113327320      0.000      0.000
REMARK  5 active torsions:
REMARK  status: ('A' for Active; 'I' for Inactive)
REMARK    1  A    between atoms: N1_1  and  N2_4
REMARK    2  A    between atoms: N2_4  and  C1_5
REMARK    3  A    between atoms: C1_5  and  C2_6
REMARK    4  A    between atoms: C2_6  and  C3_7
REMARK    5  A    between atoms: C3_7  and  C4_8
ROOT
HETATM    1  C4  UNL     1      10.900  31.975   2.080  1.00  0.00     0.025 A
HETATM    2  C5  UNL     1      10.922  33.201   2.675  1.00  0.00     0.113 A
HETATM    3  N3  UNL     1      12.223  33.600   2.748  1.00  0.00    -0.360 N
ATOM      4  H3  UNL     1      12.551  34.480   3.146  1.00  0.00     0.166 HD
HETATM    5  C6  UNL     1      12.996  32.657   2.214  1.00  0.00     0.180 A
HETATM    6  N4  UNL     1      12.183  31.660   1.805  1.00  0.00    -0.355 N
ATOM      7  H4  UNL     1      12.491  30.798   1.356  1.00  0.00     0.166 HD
ENDROOT
BRANCH   1   8
HETATM    8  C3  UNL     1       9.771  31.071   1.745  1.00  0.00     0.059 C
BRANCH   8   9
HETATM    9  C2  UNL     1       8.687  31.179   2.817  1.00  0.00     0.024 C
BRANCH   9  10
HETATM   10  C1  UNL     1       9.324  30.728   4.112  1.00  0.00     0.135 C
BRANCH  10  11
HETATM   11  N2  UNL     1       8.703  29.521   4.621  1.00  0.00    -0.148 NA
BRANCH  11  12
HETATM   12  N1  UNL     1       8.649  29.468   5.991  1.00  0.00    -0.348 N
ATOM     13  H12 UNL     1       9.270  30.020   6.583  1.00  0.00     0.172 HD
ATOM     14  H11 UNL     1       7.936  28.830   6.346  1.00  0.00     0.172 HD
ENDBRANCH  11  12
ENDBRANCH  10  11
ENDBRANCH   9  10
ENDBRANCH   8   9
ENDBRANCH   1   8
TORSDOF 5
ENDMDL