MODEL 2
REMARK VINA RESULT: -2.963014837      2.523      4.513
REMARK  4 active torsions:
REMARK  status: ('A' for Active; 'I' for Inactive)
REMARK    1  A    between atoms: O1_2  and  C2_3
REMARK    2  A    between atoms: C4_5  and  N1_6
REMARK    3  A    between atoms: N1_6  and  C5_8
REMARK    4  A    between atoms: C6_12  and  N3_13
ROOT
HETATM    1  C2  UNL     1       6.320  39.496  -1.777  1.00  0.00     0.076 A
HETATM    2  C3  UNL     1       5.720  40.066  -2.764  1.00  0.00     0.035 A
HETATM    3  C4  UNL     1       4.484  40.209  -2.027  1.00  0.00     0.144 A
HETATM    4  C6  UNL     1       5.169  39.564  -0.914  1.00  0.00     0.265 A
ENDROOT
BRANCH   3   5
HETATM    5  N1  UNL     1       3.325  39.544  -2.581  1.00  0.00    -0.376 N
ATOM      6  H1  UNL     1       3.216  38.539  -2.450  1.00  0.00     0.161 HD
BRANCH   5   7
HETATM    7  C5  UNL     1       2.348  40.257  -3.294  1.00  0.00     0.169 C
HETATM    8  N2  UNL     1       2.407  40.423  -4.580  1.00  0.00    -0.396 N
ATOM      9  H22 UNL     1       3.199  40.015  -5.075  1.00  0.00     0.156 HD
ATOM     10  H21 UNL     1       1.697  40.941  -5.098  1.00  0.00     0.156 HD
ENDBRANCH   5   7
ENDBRANCH   3   5
BRANCH   4  11
HETATM   11  N3  UNL     1       4.718  38.210  -0.571  1.00  0.00    -0.067 N
ATOM     12  H33 UNL     1       3.702  38.126  -0.604  1.00  0.00     0.275 HD
ATOM     13  H32 UNL     1       4.947  37.534  -1.301  1.00  0.00     0.275 HD
ATOM     14  H31 UNL     1       5.096  37.936   0.335  1.00  0.00     0.275 HD
ENDBRANCH   4  11
BRANCH   1  15
HETATM   15  O1  UNL     1       7.617  39.001  -1.620  1.00  0.00    -0.358 OA
HETATM   16  C1  UNL     1       8.013  37.780  -2.261  1.00  0.00     0.209 C
ENDBRANCH   1  15
TORSDOF 4
ENDMDL