MODEL 3
REMARK VINA RESULT: -2.874716276      0.971      3.556
REMARK  5 active torsions:
REMARK  status: ('A' for Active; 'I' for Inactive)
REMARK    1  A    between atoms: N1_1  and  C1_5
REMARK    2  A    between atoms: C1_5  and  C2_6
REMARK    3  A    between atoms: C2_6  and  C3_7
REMARK    4  A    between atoms: C3_7  and  C4_8
REMARK    5  A    between atoms: C4_8  and  N2_9
ROOT
HETATM    1  C3  UNL     1       4.985  39.598  -1.902  1.00  0.00     0.032 C
HETATM    2  C5  UNL     1       4.892  40.444  -0.660  1.00  0.00     0.245 C
HETATM    3  N3  UNL     1       4.188  39.415   0.062  1.00  0.00    -0.073 N
ATOM      4  H31 UNL     1       3.357  39.647   0.606  1.00  0.00     0.277 HD
ATOM      5  H32 UNL     1       4.606  38.992   0.890  1.00  0.00     0.277 HD
HETATM    6  C6  UNL     1       4.068  38.646  -1.178  1.00  0.00     0.245 C
ENDROOT
BRANCH   1   7
HETATM    7  C2  UNL     1       4.404  40.271  -3.104  1.00  0.00     0.041 C
BRANCH   7   8
HETATM    8  C1  UNL     1       2.904  40.369  -2.958  1.00  0.00     0.230 C
BRANCH   8   9
HETATM    9  N1  UNL     1       2.307  40.137  -4.254  1.00  0.00    -0.079 N
ATOM     10  H13 UNL     1       2.288  40.977  -4.834  1.00  0.00     0.274 HD
ATOM     11  H12 UNL     1       2.894  39.564  -4.861  1.00  0.00     0.274 HD
ATOM     12  H11 UNL     1       1.380  39.736  -4.112  1.00  0.00     0.274 HD
ENDBRANCH   8   9
ENDBRANCH   7   8
ENDBRANCH   1   7
BRANCH   1  13
HETATM   13  C4  UNL     1       6.340  38.987  -2.141  1.00  0.00     0.242 C
BRANCH  13  14
HETATM   14  N2  UNL     1       6.476  37.819  -1.259  1.00  0.00    -0.079 N
ATOM     15  H23 UNL     1       7.150  37.138  -1.610  1.00  0.00     0.274 HD
ATOM     16  H22 UNL     1       6.948  38.041  -0.383  1.00  0.00     0.274 HD
ATOM     17  H21 UNL     1       5.548  37.419  -1.117  1.00  0.00     0.274 HD
ENDBRANCH  13  14
ENDBRANCH   1  13
TORSDOF 5
ENDMDL