MODEL 4
REMARK VINA RESULT: -8.196365307      3.727      8.498
REMARK  10 active torsions:
REMARK  status: ('A' for Active; 'I' for Inactive)
REMARK    1  A    between atoms: N1_1  and  N2_4
REMARK    2  A    between atoms: N2_4  and  C1_6
REMARK    3  A    between atoms: C3_12  and  N4_13
REMARK    4  A    between atoms: N4_13  and  C4_15
REMARK    5  A    between atoms: C4_15  and  C5_16
REMARK    6  A    between atoms: C5_16  and  C6_17
REMARK    7  A    between atoms: C6_17  and  C7_18
REMARK    8  A    between atoms: C7_18  and  N5_19
REMARK    9  A    between atoms: N5_19  and  C8_21
REMARK   10  A    between atoms: N6_22  and  N7_24
ROOT
HETATM    1  N4  UNL     1      84.206 -29.756   0.368  1.00  0.00    -0.355 N
ATOM      2  H4  UNL     1      83.329 -29.610  -0.133  1.00  0.00     0.163 HD
ENDROOT
BRANCH   1   3
HETATM    3  C3  UNL     1      84.243 -29.731   1.655  1.00  0.00     0.242 A
HETATM    4  O2  UNL     1      83.573 -30.569   2.385  1.00  0.00    -0.227 OA
HETATM    5  C2  UNL     1      83.581 -30.579   3.692  1.00  0.00     0.386 A
HETATM    6  N3  UNL     1      84.347 -29.646   4.302  1.00  0.00    -0.133 N
HETATM    7  O1  UNL     1      82.901 -31.427   4.324  1.00  0.00    -0.237 OA
HETATM    8  C1  UNL     1      85.060 -28.758   3.576  1.00  0.00     0.704 A
ATOM      9  H3  UNL     1      84.387 -29.613   5.320  1.00  0.00     0.189 HD
HETATM   10  N10 UNL     1      85.024 -28.779   2.232  1.00  0.00    -0.153 N
ATOM     11  H10 UNL     1      85.557 -28.113   1.671  1.00  0.00     0.188 HD
BRANCH   8  12
HETATM   12  N2  UNL     1      85.793 -27.864   4.152  1.00  0.00    -0.138 N
ATOM     13  H2  UNL     1      86.391 -28.151   4.926  1.00  0.00     0.205 HD
BRANCH  12  14
HETATM   14  N1  UNL     1      85.804 -26.535   3.766  1.00  0.00    -0.331 N
ATOM     15  H12 UNL     1      86.439 -26.269   3.013  1.00  0.00     0.177 HD
ATOM     16  H11 UNL     1      85.212 -25.825   4.197  1.00  0.00     0.177 HD
ENDBRANCH  12  14
ENDBRANCH   8  12
ENDBRANCH   1   3
BRANCH   1  17
HETATM   17  C4  UNL     1      85.439 -29.995  -0.350  1.00  0.00     0.123 C
BRANCH  17  18
HETATM   18  C5  UNL     1      85.514 -29.161  -1.615  1.00  0.00     0.021 C
BRANCH  18  19
HETATM   19  C6  UNL     1      86.798 -28.385  -1.693  1.00  0.00     0.021 C
BRANCH  19  20
HETATM   20  C7  UNL     1      87.359 -28.330  -3.092  1.00  0.00     0.120 C
BRANCH  20  21
HETATM   21  N5  UNL     1      88.112 -29.545  -3.336  1.00  0.00    -0.385 N
ATOM     22  H5  UNL     1      88.399 -29.751  -4.293  1.00  0.00     0.160 HD
BRANCH  21  23
HETATM   23  C8  UNL     1      88.469 -30.457  -2.324  1.00  0.00     0.192 C
HETATM   24  N6  UNL     1      88.300 -31.708  -2.503  1.00  0.00    -0.294 N
ATOM     25  H6  UNL     1      88.564 -32.355  -1.759  1.00  0.00     0.187 HD
BRANCH  24  26
HETATM   26  N7  UNL     1      87.773 -32.212  -3.671  1.00  0.00    -0.275 N
HETATM   27  C9  UNL     1      87.778 -33.471  -3.942  1.00  0.00     0.215 C
HETATM   28  N8  UNL     1      88.346 -34.373  -3.007  1.00  0.00    -0.065 NA
HETATM   29  N9  UNL     1      87.228 -33.965  -5.153  1.00  0.00    -0.065 NA
ATOM     30  H7  UNL     1      87.364 -31.565  -4.345  1.00  0.00     0.189 HD
ENDBRANCH  24  26
ENDBRANCH  21  23
ENDBRANCH  20  21
ENDBRANCH  19  20
ENDBRANCH  18  19
ENDBRANCH  17  18
ENDBRANCH   1  17
TORSDOF 10
ENDMDL