MODEL 5
REMARK VINA RESULT: -6.916712913      1.918      2.325
REMARK  11 active torsions:
REMARK  status: ('A' for Active; 'I' for Inactive)
REMARK    1  A    between atoms: S1_2  and  C2_4
REMARK    2  A    between atoms: C2_4  and  C3_5
REMARK    3  A    between atoms: C3_5  and  C4_6
REMARK    4  A    between atoms: C4_6  and  N1_7
REMARK    5  A    between atoms: N1_7  and  C5_9
REMARK    6  A    between atoms: C6_12  and  N3_13
REMARK    7  A    between atoms: C7_18  and  N5_19
REMARK    8  A    between atoms: N5_19  and  O2_21
REMARK    9  A    between atoms: O2_21  and  C8_22
REMARK   10  A    between atoms: C8_22  and  C9_23
REMARK   11  A    between atoms: C9_23  and  O3_24
ROOT
HETATM    1  C5  UNL     1      84.973 -29.385  -0.152  1.00  0.00     0.707 A
HETATM    2  N2  UNL     1      83.711 -29.760   0.082  1.00  0.00    -0.022 N
ATOM      3  H2  UNL     1      83.055 -29.765  -0.698  1.00  0.00     0.203 HD
HETATM    4  C6  UNL     1      83.263 -30.130   1.296  1.00  0.00     0.705 A
HETATM    5  N4  UNL     1      84.127 -30.124   2.324  1.00  0.00    -0.020 N
ATOM      6  H4  UNL     1      83.811 -30.402   3.254  1.00  0.00     0.203 HD
HETATM    7  C7  UNL     1      85.423 -29.749   2.135  1.00  0.00     0.731 A
HETATM    8  N6  UNL     1      85.816 -29.391   0.909  1.00  0.00    -0.020 N
ATOM      9  H6  UNL     1      86.786 -29.111   0.766  1.00  0.00     0.203 HD
ENDROOT
BRANCH   1  10
HETATM   10  N1  UNL     1      85.447 -29.022  -1.293  1.00  0.00    -0.225 N
ATOM     11  H1  UNL     1      84.848 -28.883  -2.107  1.00  0.00     0.177 HD
BRANCH  10  12
HETATM   12  C4  UNL     1      86.899 -28.822  -1.357  1.00  0.00     0.139 C
BRANCH  12  13
HETATM   13  C3  UNL     1      87.487 -29.267  -2.634  1.00  0.00     0.033 C
BRANCH  13  14
HETATM   14  C2  UNL     1      88.367 -30.461  -2.501  1.00  0.00     0.110 C
BRANCH  14  15
HETATM   15  S1  UNL     1      87.569 -32.001  -2.391  1.00  0.00     0.010 S
HETATM   16  C1  UNL     1      87.727 -33.111  -3.709  1.00  0.00     0.127 C
HETATM   17  O1  UNL     1      85.997 -31.853  -1.876  1.00  0.00    -0.258 OA
ENDBRANCH  14  15
ENDBRANCH  13  14
ENDBRANCH  12  13
ENDBRANCH  10  12
ENDBRANCH   1  10
BRANCH   4  18
HETATM   18  N3  UNL     1      82.040 -30.484   1.479  1.00  0.00    -0.234 N
ATOM     19  H32 UNL     1      81.772 -31.465   1.400  1.00  0.00     0.174 HD
ATOM     20  H31 UNL     1      81.317 -29.801   1.706  1.00  0.00     0.174 HD
ENDBRANCH   4  18
BRANCH   7  21
HETATM   21  N5  UNL     1      86.205 -29.762   3.153  1.00  0.00    -0.095 N
ATOM     22  H5  UNL     1      86.638 -30.643   3.431  1.00  0.00     0.213 HD
BRANCH  21  23
HETATM   23  O2  UNL     1      86.474 -28.641   3.872  1.00  0.00    -0.264 OA
BRANCH  23  24
HETATM   24  C8  UNL     1      85.480 -27.660   4.065  1.00  0.00     0.227 C
BRANCH  24  25
HETATM   25  C9  UNL     1      85.900 -26.440   3.270  1.00  0.00     0.192 C
BRANCH  25  26
HETATM   26  O3  UNL     1      86.875 -26.756   2.326  1.00  0.00    -0.399 OA
ATOM     27  H3  UNL     1      87.472 -27.419   2.652  1.00  0.00     0.209 HD
ENDBRANCH  25  26
ENDBRANCH  24  25
ENDBRANCH  23  24
ENDBRANCH  21  23
ENDBRANCH   7  21
TORSDOF 11
ENDMDL