MODEL 1
REMARK VINA RESULT: -8.611198560      0.000      0.000
REMARK  7 active torsions:
REMARK  status: ('A' for Active; 'I' for Inactive)
REMARK    1  A    between atoms: N1_1  and  C1_4
REMARK    2  A    between atoms: C2_7  and  O1_8
REMARK    3  A    between atoms: O1_8  and  C3_9
REMARK    4  A    between atoms: C3_9  and  C4_10
REMARK    5  A    between atoms: C4_10  and  C5_11
REMARK    6  A    between atoms: C5_11  and  N3_12
REMARK       I    between atoms: C6_14  and  N5_16
REMARK    7  A    between atoms: N5_16  and  N6_18
ROOT
HETATM    1  C4  UNL     1      83.097 -31.112   0.614  1.00  0.00     0.071 C
ENDROOT
BRANCH   1   2
HETATM    2  C3  UNL     1      84.614 -31.192   0.407  1.00  0.00     0.182 C
BRANCH   2   3
HETATM    3  O1  UNL     1      84.969 -30.089  -0.404  1.00  0.00    -0.335 OA
BRANCH   3   4
HETATM    4  C2  UNL     1      86.118 -30.198  -1.203  1.00  0.00     0.162 A
HETATM    5  N2  UNL     1      86.550 -31.401  -1.621  1.00  0.00    -0.171 N
HETATM    6  C1  UNL     1      87.660 -31.515  -2.394  1.00  0.00     0.680 A
ATOM      7  H2  UNL     1      86.035 -32.240  -1.354  1.00  0.00     0.186 HD
HETATM    8  N11 UNL     1      88.354 -30.423  -2.760  1.00  0.00    -0.156 N
HETATM    9  C8  UNL     1      87.977 -29.190  -2.376  1.00  0.00     0.263 A
ATOM     10  H11 UNL     1      89.185 -30.532  -3.341  1.00  0.00     0.187 HD
HETATM   11  C7  UNL     1      86.847 -29.093  -1.591  1.00  0.00     0.131 A
HETATM   12  O2  UNL     1      88.642 -28.185  -2.729  1.00  0.00    -0.268 OA
BRANCH   6  13
HETATM   13  N1  UNL     1      88.082 -32.676  -2.802  1.00  0.00    -0.234 N
ATOM     14  H12 UNL     1      88.585 -33.266  -2.140  1.00  0.00     0.174 HD
ATOM     15  H11 UNL     1      87.918 -32.994  -3.758  1.00  0.00     0.174 HD
ENDBRANCH   6  13
ENDBRANCH   3   4
ENDBRANCH   2   3
ENDBRANCH   1   2
BRANCH   1  16
HETATM   16  C5  UNL     1      82.850 -30.280   1.846  1.00  0.00     0.065 C
BRANCH  16  17
HETATM   17  N3  UNL     1      83.822 -30.439   2.825  1.00  0.00    -0.343 N
HETATM   18  C6  UNL     1      84.549 -29.694   3.466  1.00  0.00     0.209 C
HETATM   19  N4  UNL     1      85.453 -30.311   4.428  1.00  0.00    -0.062 NA
HETATM   20  N5  UNL     1      84.595 -28.291   3.360  1.00  0.00    -0.237 N
ATOM     21  H5  UNL     1      83.820 -27.725   3.707  1.00  0.00     0.193 HD
ATOM     22  H3  UNL     1      83.965 -31.419   3.070  1.00  0.00     0.167 HD
BRANCH  20  23
HETATM   23  N6  UNL     1      85.713 -27.674   2.774  1.00  0.00    -0.099 N
HETATM   24  N7  UNL     1      86.323 -26.586   3.210  1.00  0.00     0.034 NA
HETATM   25  N8  UNL     1      87.336 -26.298   2.407  1.00  0.00     0.011 NA
HETATM   26  N9  UNL     1      87.342 -27.230   1.464  1.00  0.00    -0.211 N
HETATM   27  N10 UNL     1      86.360 -28.058   1.690  1.00  0.00    -0.195 N
ATOM     28  H9  UNL     1      88.004 -27.289   0.691  1.00  0.00     0.207 HD
ATOM     29  H10 UNL     1      86.128 -28.872   1.120  1.00  0.00     0.213 HD
ENDBRANCH  20  23
ENDBRANCH  16  17
ENDBRANCH   1  16
TORSDOF 7
ENDMDL