MODEL 4
REMARK VINA RESULT: -6.573994770      3.340      6.524
REMARK  12 active torsions:
REMARK  status: ('A' for Active; 'I' for Inactive)
REMARK    1  A    between atoms: N1_1  and  C1_4
REMARK    2  A    between atoms: C2_7  and  C3_8
REMARK    3  A    between atoms: C3_8  and  N3_9
REMARK    4  A    between atoms: N3_9  and  C4_10
REMARK    5  A    between atoms: N3_9  and  S1_14
REMARK    6  A    between atoms: C4_10  and  C5_11
REMARK    7  A    between atoms: C5_11  and  O1_12
REMARK    8  A    between atoms: S1_14  and  N4_15
REMARK    9  A    between atoms: C6_22  and  N6_23
REMARK   10  A    between atoms: N6_23  and  C7_25
REMARK   11  A    between atoms: C7_25  and  C8_26
REMARK   12  A    between atoms: C8_26  and  N7_27
ROOT
HETATM    1  C1  UNL     1      83.499 -31.647   0.027  1.00  0.00     0.691 A
HETATM    2  N2  UNL     1      84.697 -31.685  -0.607  1.00  0.00    -0.178 N
ATOM      3  H2  UNL     1      84.875 -32.394  -1.318  1.00  0.00     0.185 HD
HETATM    4  C2  UNL     1      85.650 -30.788  -0.297  1.00  0.00     0.127 A
HETATM    5  N5  UNL     1      85.360 -29.878   0.650  1.00  0.00    -0.178 N
ATOM      6  H5  UNL     1      86.071 -29.190   0.899  1.00  0.00     0.185 HD
HETATM    7  C6  UNL     1      84.172 -29.835   1.283  1.00  0.00     0.694 A
HETATM    8  N8  UNL     1      83.216 -30.730   0.976  1.00  0.00    -0.023 N
ATOM      9  H8  UNL     1      82.310 -30.715   1.444  1.00  0.00     0.203 HD
ENDROOT
BRANCH   4  10
HETATM   10  C3  UNL     1      86.988 -30.757  -0.940  1.00  0.00     0.186 C
BRANCH  10  11
HETATM   11  N3  UNL     1      86.971 -30.202  -2.250  1.00  0.00    -0.185 NA
BRANCH  11  12
HETATM   12  C4  UNL     1      87.967 -30.884  -3.057  1.00  0.00     0.135 C
BRANCH  12  13
HETATM   13  C5  UNL     1      87.987 -32.373  -2.752  1.00  0.00     0.179 C
BRANCH  13  14
HETATM   14  O1  UNL     1      87.398 -33.074  -3.813  1.00  0.00    -0.400 OA
ATOM     15  H1  UNL     1      87.590 -32.630  -4.630  1.00  0.00     0.209 HD
ENDBRANCH  13  14
ENDBRANCH  12  13
ENDBRANCH  11  12
BRANCH  11  16
HETATM   16  S1  UNL     1      87.240 -28.524  -2.326  1.00  0.00     0.297 S
HETATM   17  O2  UNL     1      87.252 -27.855  -0.988  1.00  0.00    -0.189 OA
HETATM   18  O3  UNL     1      86.129 -27.868  -3.127  1.00  0.00    -0.189 OA
BRANCH  16  19
HETATM   19  N4  UNL     1      88.719 -28.150  -3.127  1.00  0.00    -0.316 N
ATOM     20  H42 UNL     1      89.066 -28.670  -3.933  1.00  0.00     0.170 HD
ATOM     21  H41 UNL     1      89.192 -27.355  -2.696  1.00  0.00     0.170 HD
ENDBRANCH  16  19
ENDBRANCH  11  16
ENDBRANCH  10  11
ENDBRANCH   4  10
BRANCH   1  22
HETATM   22  N1  UNL     1      82.597 -32.519  -0.287  1.00  0.00    -0.234 N
ATOM     23  H12 UNL     1      82.886 -33.382  -0.749  1.00  0.00     0.174 HD
ATOM     24  H11 UNL     1      81.621 -32.322  -0.066  1.00  0.00     0.174 HD
ENDBRANCH   1  22
BRANCH   7  25
HETATM   25  N6  UNL     1      83.961 -28.919   2.195  1.00  0.00    -0.224 N
ATOM     26  H6  UNL     1      83.111 -28.355   2.154  1.00  0.00     0.177 HD
BRANCH  25  27
HETATM   27  C7  UNL     1      84.902 -28.698   3.245  1.00  0.00     0.165 C
BRANCH  27  28
HETATM   28  C8  UNL     1      85.547 -27.337   3.196  1.00  0.00     0.249 C
BRANCH  28  29
HETATM   29  N7  UNL     1      86.617 -27.239   2.259  1.00  0.00    -0.078 N
ATOM     30  H73 UNL     1      86.753 -28.127   1.775  1.00  0.00     0.274 HD
ATOM     31  H72 UNL     1      86.350 -26.651   1.469  1.00  0.00     0.274 HD
ATOM     32  H71 UNL     1      87.494 -26.916   2.666  1.00  0.00     0.274 HD
ENDBRANCH  28  29
ENDBRANCH  27  28
ENDBRANCH  25  27
ENDBRANCH   7  25
TORSDOF 12
ENDMDL