MODEL 3
REMARK VINA RESULT: -6.107233995      2.941      6.179
REMARK  11 active torsions:
REMARK  status: ('A' for Active; 'I' for Inactive)
REMARK    1  A    between atoms: C3_3  and  O1_4
REMARK    2  A    between atoms: C4_6  and  C5_7
REMARK    3  A    between atoms: C5_7  and  N1_8
REMARK    4  A    between atoms: N1_8  and  C6_10
REMARK    5  A    between atoms: C6_10  and  C7_11
REMARK    6  A    between atoms: C7_11  and  N2_12
REMARK    7  A    between atoms: N2_12  and  C8_14
REMARK    8  A    between atoms: C8_14  and  C9_15
REMARK    9  A    between atoms: C9_15  and  N3_16
REMARK   10  A    between atoms: C10_20  and  O2_21
REMARK   11  A    between atoms: C13_26  and  O4_27
ROOT
HETATM    1  C1  UNL     1      86.449 -27.502  -2.775  1.00  0.00     0.015 C
HETATM    2  C2  UNL     1      87.240 -28.403  -1.802  1.00  0.00     0.042 C
HETATM    3  C3  UNL     1      86.188 -29.036  -0.970  1.00  0.00     0.132 C
HETATM    4  C4  UNL     1      86.495 -30.298  -0.257  1.00  0.00     0.064 C
HETATM    5  C10 UNL     1      86.247 -31.546  -1.119  1.00  0.00     0.158 C
HETATM    6  C11 UNL     1      86.745 -31.235  -2.474  1.00  0.00     0.182 A
HETATM    7  O3  UNL     1      87.839 -31.752  -3.100  1.00  0.00    -0.370 OA
HETATM    8  C12 UNL     1      88.165 -30.708  -2.247  1.00  0.00     0.182 A
HETATM    9  C13 UNL     1      88.117 -29.274  -2.620  1.00  0.00     0.156 C
ENDROOT
BRANCH   4  10
HETATM   10  C5  UNL     1      85.765 -30.412   1.078  1.00  0.00     0.124 C
BRANCH  10  11
HETATM   11  N1  UNL     1      84.513 -29.734   1.101  1.00  0.00    -0.416 N
ATOM     12  H1  UNL     1      84.191 -29.156   0.324  1.00  0.00     0.153 HD
BRANCH  11  13
HETATM   13  C6  UNL     1      83.728 -29.922   2.309  1.00  0.00     0.158 C
BRANCH  13  14
HETATM   14  C7  UNL     1      84.533 -30.177   3.514  1.00  0.00     0.079 C
BRANCH  14  15
HETATM   15  N2  UNL     1      84.881 -29.068   4.267  1.00  0.00    -0.379 N
ATOM     16  H2  UNL     1      84.281 -28.866   5.067  1.00  0.00     0.164 HD
BRANCH  15  17
HETATM   17  C8  UNL     1      85.931 -28.208   4.074  1.00  0.00     0.087 C
BRANCH  17  18
HETATM   18  C9  UNL     1      85.824 -27.000   3.210  1.00  0.00     0.274 C
BRANCH  18  19
HETATM   19  N3  UNL     1      86.823 -27.153   2.113  1.00  0.00    -0.075 N
ATOM     20  H33 UNL     1      87.609 -26.509   2.195  1.00  0.00     0.274 HD
ATOM     21  H32 UNL     1      87.356 -28.020   2.176  1.00  0.00     0.274 HD
ATOM     22  H31 UNL     1      86.318 -27.058   1.231  1.00  0.00     0.274 HD
ENDBRANCH  18  19
ENDBRANCH  17  18
ENDBRANCH  15  17
ENDBRANCH  14  15
ENDBRANCH  13  14
ENDBRANCH  11  13
ENDBRANCH  10  11
ENDBRANCH   4  10
BRANCH   3  23
HETATM   23  O1  UNL     1      84.960 -29.146  -1.683  1.00  0.00    -0.395 OA
ATOM     24  H1  UNL     1      84.746 -30.053  -1.865  1.00  0.00     0.210 HD
ENDBRANCH   3  23
BRANCH   5  25
HETATM   25  O2  UNL     1      84.870 -31.732  -1.212  1.00  0.00    -0.392 OA
ATOM     26  H2  UNL     1      84.619 -32.372  -0.557  1.00  0.00     0.210 HD
ENDBRANCH   5  25
BRANCH   9  27
HETATM   27  O4  UNL     1      89.459 -28.813  -2.590  1.00  0.00    -0.392 OA
ATOM     28  H4  UNL     1      89.759 -28.701  -1.696  1.00  0.00     0.210 HD
ENDBRANCH   9  27
TORSDOF 11
ENDMDL