MODEL 2
REMARK VINA RESULT: -6.660335552      2.532      3.974
REMARK  12 active torsions:
REMARK  status: ('A' for Active; 'I' for Inactive)
REMARK    1  A    between atoms: C2_2  and  N1_3
REMARK    2  A    between atoms: C2_2  and  C3_7
REMARK    3  A    between atoms: C3_7  and  C4_8
REMARK    4  A    between atoms: C4_8  and  N2_9
REMARK    5  A    between atoms: C6_14  and  N4_15
REMARK    6  A    between atoms: N4_15  and  C7_17
REMARK    7  A    between atoms: C7_17  and  C8_18
REMARK    8  A    between atoms: C8_18  and  O1_19
REMARK    9  A    between atoms: C9_23  and  N6_24
REMARK   10  A    between atoms: N6_24  and  C10_26
REMARK   11  A    between atoms: C10_26  and  C11_27
REMARK   12  A    between atoms: C11_27  and  O2_28
ROOT
HETATM    1  N2  UNL     1      84.484 -31.067  -0.024  1.00  0.00    -0.225 N
ATOM      2  H2  UNL     1      84.212 -31.615  -0.840  1.00  0.00     0.177 HD
HETATM    3  C5  UNL     1      85.267 -30.057  -0.210  1.00  0.00     0.707 A
HETATM    4  N3  UNL     1      85.700 -29.759  -1.474  1.00  0.00    -0.022 N
ATOM      5  H3  UNL     1      85.397 -30.340  -2.256  1.00  0.00     0.203 HD
HETATM    6  C6  UNL     1      86.512 -28.718  -1.705  1.00  0.00     0.707 A
HETATM    7  N5  UNL     1      86.927 -27.930  -0.675  1.00  0.00    -0.022 N
ATOM      8  H5  UNL     1      87.545 -27.139  -0.859  1.00  0.00     0.203 HD
HETATM    9  C9  UNL     1      86.531 -28.184   0.564  1.00  0.00     0.707 A
HETATM   10  N7  UNL     1      85.701 -29.254   0.770  1.00  0.00    -0.022 N
ATOM     11  H7  UNL     1      85.396 -29.451   1.724  1.00  0.00     0.203 HD
ENDROOT
BRANCH   1  12
HETATM   12  C4  UNL     1      83.969 -31.471   1.261  1.00  0.00     0.140 C
BRANCH  12  13
HETATM   13  C3  UNL     1      83.001 -30.440   1.822  1.00  0.00     0.052 C
BRANCH  13  14
HETATM   14  C2  UNL     1      83.245 -30.309   3.319  1.00  0.00     0.181 C
HETATM   15  C1  UNL     1      84.635 -30.851   3.614  1.00  0.00     0.039 C
BRANCH  14  16
HETATM   16  N1  UNL     1      82.309 -30.960   4.120  1.00  0.00    -0.075 N
ATOM     17  H13 UNL     1      82.242 -31.954   3.902  1.00  0.00     0.274 HD
ATOM     18  H12 UNL     1      82.622 -31.043   5.086  1.00  0.00     0.274 HD
ATOM     19  H11 UNL     1      81.407 -30.488   4.046  1.00  0.00     0.274 HD
ENDBRANCH  14  16
ENDBRANCH  13  14
ENDBRANCH  12  13
ENDBRANCH   1  12
BRANCH   6  20
HETATM   20  N4  UNL     1      86.928 -28.425  -2.893  1.00  0.00    -0.223 N
ATOM     21  H4  UNL     1      86.322 -27.870  -3.496  1.00  0.00     0.177 HD
BRANCH  20  22
HETATM   22  C7  UNL     1      88.198 -28.844  -3.401  1.00  0.00     0.164 C
BRANCH  22  23
HETATM   23  C8  UNL     1      88.596 -30.103  -2.625  1.00  0.00     0.184 C
BRANCH  23  24
HETATM   24  O1  UNL     1      87.996 -31.170  -3.293  1.00  0.00    -0.399 OA
ATOM     25  H1  UNL     1      88.218 -31.947  -2.795  1.00  0.00     0.209 HD
ENDBRANCH  23  24
ENDBRANCH  22  23
ENDBRANCH  20  22
ENDBRANCH   6  20
BRANCH   9  26
HETATM   26  N6  UNL     1      86.878 -27.487   1.594  1.00  0.00    -0.223 N
ATOM     27  H6  UNL     1      87.506 -26.690   1.490  1.00  0.00     0.177 HD
BRANCH  26  28
HETATM   28  C10 UNL     1      86.368 -27.845   2.891  1.00  0.00     0.164 C
BRANCH  28  29
HETATM   29  C11 UNL     1      85.469 -26.708   3.356  1.00  0.00     0.184 C
BRANCH  29  30
HETATM   30  O2  UNL     1      84.844 -27.161   4.534  1.00  0.00    -0.399 OA
ATOM     31  H2  UNL     1      84.109 -27.694   4.255  1.00  0.00     0.209 HD
ENDBRANCH  29  30
ENDBRANCH  28  29
ENDBRANCH  26  28
ENDBRANCH   9  26
TORSDOF 12
ENDMDL