MODEL 5
REMARK VINA RESULT: -6.914827248      1.147      1.541
REMARK  9 active torsions:
REMARK  status: ('A' for Active; 'I' for Inactive)
REMARK    1  A    between atoms: C2_3  and  N2_4
REMARK    2  A    between atoms: C2_3  and  C3_8
REMARK    3  A    between atoms: C3_8  and  C4_9
REMARK    4  A    between atoms: C4_9  and  N3_10
REMARK       I    between atoms: N3_10  and  C5_12
REMARK    5  A    between atoms: C5_12  and  C6_14
REMARK    6  A    between atoms: C7_19  and  N6_20
REMARK       I    between atoms: N6_20  and  C8_22
REMARK    7  A    between atoms: N8_24  and  C9_26
REMARK    8  A    between atoms: C9_26  and  C10_27
REMARK    9  A    between atoms: C10_27  and  N9_28
ROOT
HETATM    1  N1  UNL     1      86.241 -29.918   4.946  1.00  0.00    -0.195 NA
HETATM    2  C1  UNL     1      85.994 -29.787   3.810  1.00  0.00     0.092 C
HETATM    3  C2  UNL     1      85.667 -29.640   2.392  1.00  0.00     0.290 C
ENDROOT
BRANCH   3   4
HETATM    4  N2  UNL     1      85.598 -28.253   2.019  1.00  0.00    -0.063 N
ATOM      5  H23 UNL     1      86.526 -27.856   1.873  1.00  0.00     0.275 HD
ATOM      6  H22 UNL     1      85.228 -28.135   1.076  1.00  0.00     0.275 HD
ATOM      7  H21 UNL     1      85.064 -27.716   2.703  1.00  0.00     0.275 HD
ENDBRANCH   3   4
BRANCH   3   8
HETATM    8  C3  UNL     1      84.369 -30.377   2.111  1.00  0.00     0.067 C
BRANCH   8   9
HETATM    9  C4  UNL     1      83.978 -30.275   0.662  1.00  0.00     0.126 C
BRANCH   9  10
HETATM   10  N3  UNL     1      85.004 -30.880  -0.149  1.00  0.00    -0.354 N
HETATM   11  C5  UNL     1      85.876 -30.178  -1.006  1.00  0.00     0.287 C
HETATM   12  O1  UNL     1      85.817 -28.948  -1.117  1.00  0.00    -0.264 OA
ATOM     13  H3  UNL     1      85.107 -31.893  -0.100  1.00  0.00     0.162 HD
BRANCH  11  14
HETATM   14  C6  UNL     1      86.864 -30.913  -1.776  1.00  0.00     0.204 A
HETATM   15  N4  UNL     1      88.078 -30.509  -2.200  1.00  0.00    -0.266 N
HETATM   16  N5  UNL     1      88.655 -31.492  -2.869  1.00  0.00    -0.130 N
ATOM     17  H4  UNL     1      88.486 -29.590  -2.031  1.00  0.00     0.189 HD
HETATM   18  C7  UNL     1      87.838 -32.559  -2.900  1.00  0.00     0.701 A
ATOM     19  H5  UNL     1      89.580 -31.447  -3.297  1.00  0.00     0.205 HD
HETATM   20  N10 UNL     1      86.740 -32.186  -2.222  1.00  0.00    -0.168 N
ATOM     21  H10 UNL     1      85.926 -32.780  -2.066  1.00  0.00     0.186 HD
BRANCH  18  22
HETATM   22  N6  UNL     1      88.060 -33.712  -3.466  1.00  0.00    -0.162 N
HETATM   23  C8  UNL     1      88.883 -34.694  -2.871  1.00  0.00     0.202 C
HETATM   24  N7  UNL     1      88.349 -35.419  -1.760  1.00  0.00    -0.063 NA
HETATM   25  N8  UNL     1      90.053 -34.923  -3.307  1.00  0.00    -0.362 N
ATOM     26  H8  UNL     1      90.398 -34.384  -4.101  1.00  0.00     0.162 HD
ATOM     27  H6  UNL     1      87.624 -33.912  -4.366  1.00  0.00     0.187 HD
BRANCH  25  28
HETATM   28  C9  UNL     1      90.915 -35.926  -2.713  1.00  0.00     0.149 C
BRANCH  28  29
HETATM   29  C10 UNL     1      92.344 -35.766  -3.186  1.00  0.00     0.249 C
BRANCH  29  30
HETATM   30  N9  UNL     1      93.236 -36.388  -2.244  1.00  0.00    -0.078 N
ATOM     31  H93 UNL     1      94.127 -35.896  -2.175  1.00  0.00     0.274 HD
ATOM     32  H92 UNL     1      92.926 -36.263  -1.279  1.00  0.00     0.274 HD
ATOM     33  H91 UNL     1      93.357 -37.372  -2.485  1.00  0.00     0.274 HD
ENDBRANCH  29  30
ENDBRANCH  28  29
ENDBRANCH  25  28
ENDBRANCH  18  22
ENDBRANCH  11  14
ENDBRANCH   9  10
ENDBRANCH   8   9
ENDBRANCH   3   8
TORSDOF 9
ENDMDL