MODEL 4
REMARK VINA RESULT: -8.009328737      1.190      1.711
REMARK  8 active torsions:
REMARK  status: ('A' for Active; 'I' for Inactive)
REMARK    1  A    between atoms: C1_2  and  C2_4
REMARK    2  A    between atoms: C5_9  and  N3_10
REMARK    3  A    between atoms: N3_10  and  S1_12
REMARK    4  A    between atoms: S1_12  and  N4_15
REMARK    5  A    between atoms: N4_15  and  N5_17
REMARK    6  A    between atoms: N5_17  and  C6_18
REMARK    7  A    between atoms: C6_18  and  N6_19
REMARK    8  A    between atoms: C6_18  and  C7_23
ROOT
HETATM    1  S1  UNL     1      84.344 -30.459   0.607  1.00  0.00     0.334 S
HETATM    2  O2  UNL     1      83.855 -31.799   0.224  1.00  0.00    -0.181 OA
HETATM    3  O3  UNL     1      83.154 -29.654   1.120  1.00  0.00    -0.181 OA
ENDROOT
BRANCH   1   4
HETATM    4  N3  UNL     1      84.996 -29.632  -0.738  1.00  0.00    -0.266 N
ATOM      5  H3  UNL     1      84.529 -28.785  -1.062  1.00  0.00     0.180 HD
BRANCH   4   6
HETATM    6  C5  UNL     1      86.158 -30.071  -1.424  1.00  0.00     0.060 A
HETATM    7  C4  UNL     1      87.088 -29.070  -1.734  1.00  0.00     0.117 A
HETATM    8  N2  UNL     1      88.203 -29.442  -2.374  1.00  0.00    -0.372 N
HETATM    9  C3  UNL     1      88.451 -30.737  -2.724  1.00  0.00     0.104 A
ATOM     10  H2  UNL     1      88.895 -28.730  -2.609  1.00  0.00     0.164 HD
HETATM   11  C2  UNL     1      87.560 -31.736  -2.434  1.00  0.00     0.046 A
HETATM   12  C8  UNL     1      86.403 -31.381  -1.776  1.00  0.00     0.049 A
BRANCH  11  13
HETATM   13  C1  UNL     1      87.846 -33.102  -2.815  1.00  0.00     0.266 C
HETATM   14  N1  UNL     1      87.608 -33.606  -4.123  1.00  0.00    -0.057 NA
HETATM   15  O1  UNL     1      88.326 -33.891  -1.966  1.00  0.00    -0.271 OA
ENDBRANCH  11  13
ENDBRANCH   4   6
ENDBRANCH   1   4
BRANCH   1  16
HETATM   16  N4  UNL     1      85.458 -30.509   1.926  1.00  0.00    -0.211 N
ATOM     17  H4  UNL     1      85.538 -31.297   2.567  1.00  0.00     0.197 HD
BRANCH  16  18
HETATM   18  N5  UNL     1      86.231 -29.363   2.019  1.00  0.00    -0.087 NA
BRANCH  18  19
HETATM   19  C6  UNL     1      85.836 -28.625   3.197  1.00  0.00     0.384 C
BRANCH  19  20
HETATM   20  N6  UNL     1      84.766 -27.694   2.906  1.00  0.00    -0.051 N
ATOM     21  H63 UNL     1      85.101 -26.896   2.368  1.00  0.00     0.276 HD
ATOM     22  H62 UNL     1      84.111 -28.079   2.225  1.00  0.00     0.276 HD
ATOM     23  H61 UNL     1      84.288 -27.396   3.756  1.00  0.00     0.276 HD
ENDBRANCH  19  20
BRANCH  19  24
HETATM   24  C7  UNL     1      85.357 -29.570   4.239  1.00  0.00     0.279 C
HETATM   25  N7  UNL     1      83.984 -29.910   4.361  1.00  0.00    -0.059 NA
HETATM   26  O4  UNL     1      86.157 -30.086   5.031  1.00  0.00    -0.273 OA
ENDBRANCH  19  24
ENDBRANCH  18  19
ENDBRANCH  16  18
ENDBRANCH   1  16
TORSDOF 8
ENDMDL