MODEL 3
REMARK VINA RESULT: -7.177189376      2.332      5.771
REMARK  8 active torsions:
REMARK  status: ('A' for Active; 'I' for Inactive)
REMARK    1  A    between atoms: C2_2  and  C3_3
REMARK    2  A    between atoms: C3_3  and  N1_4
REMARK    3  A    between atoms: N1_4  and  C4_6
REMARK    4  A    between atoms: C7_14  and  N4_15
REMARK    5  A    between atoms: N6_23  and  C10_24
REMARK    6  A    between atoms: C10_24  and  C11_25
REMARK    7  A    between atoms: C11_25  and  N7_26
REMARK    8  A    between atoms: N7_26  and  C12_28
ROOT
HETATM    1  C4  UNL     1      55.091  14.871  82.329  1.00  0.00     0.684 A
HETATM    2  N2  UNL     1      55.200  13.814  83.111  1.00  0.00    -0.154 N
ATOM      3  H2  UNL     1      55.984  13.716  83.755  1.00  0.00     0.187 HD
HETATM    4  C5  UNL     1      54.251  12.872  83.035  1.00  0.00     0.289 A
HETATM    5  O1  UNL     1      54.352  11.862  83.779  1.00  0.00    -0.265 OA
HETATM    6  C6  UNL     1      53.199  13.024  82.156  1.00  0.00     0.150 A
HETATM    7  N3  UNL     1      52.239  12.080  82.069  1.00  0.00    -0.184 N
ATOM      8  H3  UNL     1      52.292  11.251  82.660  1.00  0.00     0.184 HD
HETATM    9  C7  UNL     1      51.211  12.219  81.212  1.00  0.00     0.679 A
HETATM   10  N5  UNL     1      51.116  13.301  80.424  1.00  0.00    -0.154 N
ATOM     11  H5  UNL     1      50.326  13.382  79.783  1.00  0.00     0.187 HD
HETATM   12  C8  UNL     1      52.047  14.293  80.457  1.00  0.00     0.289 A
HETATM   13  O2  UNL     1      51.911  15.282  79.698  1.00  0.00    -0.265 OA
HETATM   14  C9  UNL     1      53.095  14.160  81.324  1.00  0.00     0.153 A
HETATM   15  N6  UNL     1      54.064  15.071  81.436  1.00  0.00    -0.174 N
ENDROOT
BRANCH  15  16
HETATM   16  C10 UNL     1      54.073  16.269  80.647  1.00  0.00     0.167 C
BRANCH  16  17
HETATM   17  C11 UNL     1      53.809  17.502  81.488  1.00  0.00     0.143 C
BRANCH  17  18
HETATM   18  N7  UNL     1      52.470  17.620  81.979  1.00  0.00    -0.367 N
ATOM     19  H7  UNL     1      51.804  18.191  81.459  1.00  0.00     0.161 HD
BRANCH  18  20
HETATM   20  C12 UNL     1      52.038  16.977  83.151  1.00  0.00     0.348 C
HETATM   21  O3  UNL     1      51.029  16.240  83.229  1.00  0.00    -0.284 OA
ENDBRANCH  18  20
ENDBRANCH  17  18
ENDBRANCH  16  17
ENDBRANCH  15  16
BRANCH   1  22
HETATM   22  N1  UNL     1      55.984  15.789  82.380  1.00  0.00    -0.226 N
ATOM     23  H1  UNL     1      55.944  16.501  81.651  1.00  0.00     0.177 HD
BRANCH  22  24
HETATM   24  C3  UNL     1      57.023  15.925  83.342  1.00  0.00     0.137 C
BRANCH  24  25
HETATM   25  C2  UNL     1      58.396  15.574  82.824  1.00  0.00     0.016 C
HETATM   26  C1  UNL     1      58.892  14.378  83.625  1.00  0.00     0.006 C
ENDBRANCH  24  25
ENDBRANCH  22  24
ENDBRANCH   1  22
BRANCH   9  27
HETATM   27  N4  UNL     1      50.304  11.301  81.148  1.00  0.00    -0.234 N
ATOM     28  H42 UNL     1      50.471  10.396  81.587  1.00  0.00     0.174 HD
ATOM     29  H41 UNL     1      49.429  11.489  80.658  1.00  0.00     0.174 HD
ENDBRANCH   9  27
TORSDOF 8
ENDMDL