MODEL 4
REMARK VINA RESULT: -7.004443105      5.759      8.122
REMARK  9 active torsions:
REMARK  status: ('A' for Active; 'I' for Inactive)
REMARK    1  A    between atoms: N1_1  and  C1_5
REMARK    2  A    between atoms: C1_5  and  C2_6
REMARK    3  A    between atoms: C2_6  and  N2_7
REMARK    4  A    between atoms: N2_7  and  C3_10
REMARK    5  A    between atoms: C3_10  and  C4_11
REMARK    6  A    between atoms: C4_11  and  C5_12
REMARK    7  A    between atoms: C5_12  and  N3_13
REMARK    8  A    between atoms: C8_19  and  N5_20
REMARK    9  A    between atoms: N5_20  and  N6_22
ROOT
HETATM    1  N3  UNL     1      53.572  14.595  81.179  1.00  0.00    -0.146 N
HETATM    2  C6  UNL     1      54.009  15.819  81.759  1.00  0.00     0.298 A
HETATM    3  O1  UNL     1      53.590  16.983  81.442  1.00  0.00    -0.267 OA
HETATM    4  C7  UNL     1      55.006  15.464  82.763  1.00  0.00     0.288 A
HETATM    5  N4  UNL     1      55.076  14.031  82.694  1.00  0.00    -0.179 N
ATOM      6  H4  UNL     1      55.691  13.468  83.282  1.00  0.00     0.181 HD
HETATM    7  C8  UNL     1      54.284  13.532  81.816  1.00  0.00     0.700 A
HETATM    8  N7  UNL     1      56.324  15.972  82.525  1.00  0.00    -0.300 N
ATOM      9  H7  UNL     1      56.712  16.227  81.617  1.00  0.00     0.167 HD
HETATM   10  C9  UNL     1      56.994  16.060  83.767  1.00  0.00     0.325 C
HETATM   11  O2  UNL     1      58.240  16.132  84.010  1.00  0.00    -0.247 OA
HETATM   12  N8  UNL     1      55.951  16.054  84.767  1.00  0.00    -0.275 N
ATOM     13  H8  UNL     1      56.095  16.105  85.776  1.00  0.00     0.173 HD
HETATM   14  C10 UNL     1      54.698  15.964  84.115  1.00  0.00     0.285 C
HETATM   15  O3  UNL     1      53.594  16.250  84.600  1.00  0.00    -0.268 OA
ENDROOT
BRANCH   1  16
HETATM   16  C5  UNL     1      52.602  14.436  80.138  1.00  0.00     0.152 C
BRANCH  16  17
HETATM   17  C4  UNL     1      51.260  13.955  80.576  1.00  0.00     0.048 C
BRANCH  17  18
HETATM   18  C3  UNL     1      50.899  12.613  80.005  1.00  0.00     0.234 C
BRANCH  18  19
HETATM   19  N2  UNL     1      50.590  11.657  81.027  1.00  0.00    -0.073 N
ATOM     20  H22 UNL     1      49.593  11.678  81.244  1.00  0.00     0.277 HD
ATOM     21  H21 UNL     1      50.969  11.960  81.924  1.00  0.00     0.277 HD
BRANCH  19  22
HETATM   22  C2  UNL     1      51.013  10.309  80.731  1.00  0.00     0.259 C
BRANCH  22  23
HETATM   23  C1  UNL     1      51.210  10.211  79.210  1.00  0.00     0.257 C
BRANCH  23  24
HETATM   24  N1  UNL     1      52.368   9.373  78.951  1.00  0.00    -0.078 N
ATOM     25  H13 UNL     1      52.334   8.931  78.032  1.00  0.00     0.274 HD
ATOM     26  H12 UNL     1      53.221   9.915  78.813  1.00  0.00     0.274 HD
ATOM     27  H11 UNL     1      52.451   8.696  79.708  1.00  0.00     0.274 HD
ENDBRANCH  23  24
ENDBRANCH  22  23
ENDBRANCH  19  22
ENDBRANCH  18  19
ENDBRANCH  17  18
ENDBRANCH  16  17
ENDBRANCH   1  16
BRANCH   7  28
HETATM   28  N5  UNL     1      54.100  12.144  81.481  1.00  0.00    -0.138 N
ATOM     29  H5  UNL     1      53.774  11.500  82.200  1.00  0.00     0.205 HD
BRANCH  28  30
HETATM   30  N6  UNL     1      54.355  11.658  80.199  1.00  0.00    -0.331 N
ATOM     31  H62 UNL     1      53.886  12.108  79.413  1.00  0.00     0.177 HD
ATOM     32  H61 UNL     1      54.989  10.875  80.037  1.00  0.00     0.177 HD
ENDBRANCH  28  30
ENDBRANCH   7  28
TORSDOF 9
ENDMDL