MODEL 1
REMARK VINA RESULT: -7.861617305      0.000      0.000
REMARK  9 active torsions:
REMARK  status: ('A' for Active; 'I' for Inactive)
REMARK    1  A    between atoms: N1_1  and  C1_5
REMARK    2  A    between atoms: C1_5  and  C2_6
REMARK    3  A    between atoms: C2_6  and  N2_7
REMARK       I    between atoms: N2_7  and  C3_9
REMARK    4  A    between atoms: C3_9  and  C4_11
REMARK    5  A    between atoms: C4_11  and  C5_12
REMARK    6  A    between atoms: C5_12  and  N3_13
REMARK       I    between atoms: N3_13  and  C6_15
REMARK    7  A    between atoms: C6_15  and  C7_17
REMARK    8  A    between atoms: C9_19  and  C10_20
REMARK       I    between atoms: C10_20  and  N4_22
REMARK    9  A    between atoms: N4_22  and  N5_24
ROOT
HETATM    1  N3  UNL     1      52.384  14.288  81.539  1.00  0.00    -0.355 N
ATOM      2  H3  UNL     1      53.195  13.696  81.361  1.00  0.00     0.162 HD
HETATM    3  C6  UNL     1      52.502  15.397  82.410  1.00  0.00     0.269 C
HETATM    4  O2  UNL     1      51.511  16.132  82.635  1.00  0.00    -0.266 OA
ENDROOT
BRANCH   3   5
HETATM    5  C7  UNL     1      53.794  15.679  83.047  1.00  0.00     0.118 A
HETATM    6  C8  UNL     1      55.055  15.485  82.513  1.00  0.00     0.073 A
HETATM    7  C9  UNL     1      56.014  15.874  83.425  1.00  0.00     0.119 A
HETATM    8  N6  UNL     1      55.325  16.298  84.499  1.00  0.00    -0.295 N
HETATM    9  N7  UNL     1      54.014  16.183  84.275  1.00  0.00    -0.295 N
ATOM     10  H6  UNL     1      55.742  16.656  85.358  1.00  0.00     0.187 HD
ATOM     11  H7  UNL     1      53.284  16.441  84.939  1.00  0.00     0.187 HD
BRANCH   7  12
HETATM   12  C10 UNL     1      57.461  15.839  83.276  1.00  0.00     0.287 C
HETATM   13  O3  UNL     1      58.205  16.587  83.959  1.00  0.00    -0.264 OA
HETATM   14  N4  UNL     1      58.080  14.963  82.357  1.00  0.00    -0.271 N
ATOM     15  H4  UNL     1      57.481  14.354  81.800  1.00  0.00     0.189 HD
BRANCH  14  16
HETATM   16  N5  UNL     1      59.450  14.878  82.165  1.00  0.00    -0.342 N
ATOM     17  H52 UNL     1      59.843  15.427  81.401  1.00  0.00     0.176 HD
ATOM     18  H51 UNL     1      60.074  14.308  82.737  1.00  0.00     0.176 HD
ENDBRANCH  14  16
ENDBRANCH   7  12
ENDBRANCH   3   5
BRANCH   1  19
HETATM   19  C5  UNL     1      51.131  13.990  80.904  1.00  0.00     0.132 C
BRANCH  19  20
HETATM   20  C4  UNL     1      50.327  13.022  81.749  1.00  0.00     0.122 C
BRANCH  20  21
HETATM   21  C3  UNL     1      50.528  11.618  81.281  1.00  0.00     0.219 C
HETATM   22  N2  UNL     1      50.904  11.329  79.947  1.00  0.00    -0.359 N
ATOM     23  H2  UNL     1      51.036  12.110  79.304  1.00  0.00     0.162 HD
HETATM   24  O1  UNL     1      50.367  10.647  82.063  1.00  0.00    -0.274 OA
BRANCH  22  25
HETATM   25  C2  UNL     1      51.111   9.998  79.446  1.00  0.00     0.150 C
BRANCH  25  26
HETATM   26  C1  UNL     1      52.417   9.771  78.762  1.00  0.00     0.249 C
BRANCH  26  27
HETATM   27  N1  UNL     1      53.445  10.387  79.614  1.00  0.00    -0.078 N
ATOM     28  H13 UNL     1      53.833  11.246  79.223  1.00  0.00     0.274 HD
ATOM     29  H12 UNL     1      53.071  10.796  80.470  1.00  0.00     0.274 HD
ATOM     30  H11 UNL     1      54.148   9.668  79.784  1.00  0.00     0.274 HD
ENDBRANCH  26  27
ENDBRANCH  25  26
ENDBRANCH  22  25
ENDBRANCH  20  21
ENDBRANCH  19  20
ENDBRANCH   1  19
TORSDOF 9
ENDMDL