MODEL 4
REMARK VINA RESULT: -7.286226104      2.590      3.382
REMARK  8 active torsions:
REMARK  status: ('A' for Active; 'I' for Inactive)
REMARK    1  A    between atoms: N1_2  and  C2_3
REMARK    2  A    between atoms: N1_2  and  C6_22
REMARK    3  A    between atoms: C2_3  and  C3_4
REMARK    4  A    between atoms: C3_4  and  N2_5
REMARK       I    between atoms: C4_7  and  N4_9
REMARK    5  A    between atoms: N4_9  and  N5_11
REMARK       I    between atoms: N5_11  and  C5_13
REMARK       I    between atoms: C5_13  and  N7_17
REMARK    6  A    between atoms: N7_17  and  N8_19
REMARK    7  A    between atoms: C6_22  and  C7_23
REMARK    8  A    between atoms: C7_23  and  S1_24
ROOT
HETATM    1  N2  UNL     1      58.968  13.810  83.252  1.00  0.00    -0.359 N
ATOM      2  H2  UNL     1      58.685  13.270  82.435  1.00  0.00     0.162 HD
HETATM    3  C4  UNL     1      59.867  13.322  84.032  1.00  0.00     0.203 C
HETATM    4  N3  UNL     1      60.333  14.001  85.210  1.00  0.00    -0.062 NA
HETATM    5  N4  UNL     1      60.476  12.070  83.772  1.00  0.00    -0.259 N
ATOM      6  H4  UNL     1      60.412  11.326  84.467  1.00  0.00     0.190 HD
ENDROOT
BRANCH   1   7
HETATM    7  C3  UNL     1      58.352  15.072  83.481  1.00  0.00     0.166 C
BRANCH   7   8
HETATM    8  C2  UNL     1      57.276  15.480  82.550  1.00  0.00     0.077 C
BRANCH   8   9
HETATM    9  N1  UNL     1      55.945  15.176  82.845  1.00  0.00    -0.395 N
HETATM   10  C1  UNL     1      55.502  15.073  84.171  1.00  0.00     0.148 C
BRANCH   9  11
HETATM   11  C6  UNL     1      55.259  14.418  81.849  1.00  0.00     0.136 C
BRANCH  11  12
HETATM   12  C7  UNL     1      53.759  14.514  81.918  1.00  0.00     0.159 C
BRANCH  12  13
HETATM   13  S1  UNL     1      53.143  15.910  81.013  1.00  0.00     0.142 S
HETATM   14  C8  UNL     1      52.995  17.270  82.139  1.00  0.00     0.161 C
HETATM   15  O1  UNL     1      54.145  16.256  79.946  1.00  0.00    -0.228 OA
HETATM   16  O2  UNL     1      51.834  15.613  80.330  1.00  0.00    -0.228 OA
ENDBRANCH  12  13
ENDBRANCH  11  12
ENDBRANCH   9  11
ENDBRANCH   8   9
ENDBRANCH   7   8
ENDBRANCH   1   7
BRANCH   5  17
HETATM   17  N5  UNL     1      61.158  11.841  82.589  1.00  0.00    -0.129 N
HETATM   18  C5  UNL     1      62.153  12.729  82.109  1.00  0.00     0.704 C
HETATM   19  N6  UNL     1      63.382  12.510  82.409  1.00  0.00    -0.232 N
HETATM   20  N7  UNL     1      61.744  13.822  81.312  1.00  0.00    -0.138 N
ATOM     21  H62 UNL     1      63.678  11.721  82.984  1.00  0.00     0.174 HD
ATOM     22  H61 UNL     1      64.098  13.149  82.063  1.00  0.00     0.174 HD
ATOM     23  H7  UNL     1      61.634  14.739  81.745  1.00  0.00     0.205 HD
ATOM     24  H5  UNL     1      60.938  11.007  82.045  1.00  0.00     0.205 HD
BRANCH  20  25
HETATM   25  N8  UNL     1      61.489  13.681  79.956  1.00  0.00    -0.331 N
ATOM     26  H82 UNL     1      61.868  14.383  79.320  1.00  0.00     0.177 HD
ATOM     27  H81 UNL     1      60.941  12.902  79.591  1.00  0.00     0.177 HD
ENDBRANCH  20  25
ENDBRANCH   5  17
TORSDOF 8
ENDMDL