MODEL 2
REMARK VINA RESULT: -7.548753643      2.721      3.532
REMARK  9 active torsions:
REMARK  status: ('A' for Active; 'I' for Inactive)
REMARK    1  A    between atoms: O1_2  and  C2_3
REMARK       I    between atoms: C2_3  and  N1_5
REMARK    2  A    between atoms: N1_5  and  N2_7
REMARK       I    between atoms: N2_7  and  C3_9
REMARK    3  A    between atoms: C3_9  and  C4_11
REMARK    4  A    between atoms: C4_11  and  C5_12
REMARK    5  A    between atoms: C4_11  and  N6_23
REMARK    6  A    between atoms: C5_12  and  C6_13
REMARK    7  A    between atoms: C6_13  and  C7_14
REMARK    8  A    between atoms: C7_14  and  O4_15
REMARK    9  A    between atoms: O4_15  and  N3_16
REMARK       I    between atoms: N3_16  and  C8_18
REMARK       I    between atoms: N6_23  and  C9_25
ROOT
HETATM    1  C4  UNL     1      55.358  16.055  82.702  1.00  0.00     0.181 C
ENDROOT
BRANCH   1   2
HETATM    2  C3  UNL     1      54.616  15.069  83.497  1.00  0.00     0.259 C
HETATM    3  N2  UNL     1      54.860  13.694  83.520  1.00  0.00    -0.264 N
ATOM      4  H2  UNL     1      55.626  13.369  82.929  1.00  0.00     0.190 HD
HETATM    5  O3  UNL     1      53.668  15.511  84.233  1.00  0.00    -0.269 OA
BRANCH   3   6
HETATM    6  N1  UNL     1      54.203  12.724  84.235  1.00  0.00    -0.243 N
HETATM    7  C2  UNL     1      54.653  12.174  85.460  1.00  0.00     0.379 C
HETATM    8  O2  UNL     1      55.749  12.621  85.917  1.00  0.00    -0.237 OA
ATOM      9  H1  UNL     1      53.324  12.374  83.856  1.00  0.00     0.192 HD
BRANCH   7  10
HETATM   10  O1  UNL     1      54.014  11.205  86.192  1.00  0.00    -0.308 OA
HETATM   11  C1  UNL     1      54.621  10.460  87.232  1.00  0.00     0.215 C
ENDBRANCH   7  10
ENDBRANCH   3   6
ENDBRANCH   1   2
BRANCH   1  12
HETATM   12  C5  UNL     1      54.480  16.607  81.627  1.00  0.00     0.037 C
BRANCH  12  13
HETATM   13  C6  UNL     1      53.945  15.543  80.687  1.00  0.00     0.031 C
BRANCH  13  14
HETATM   14  C7  UNL     1      52.437  15.789  80.634  1.00  0.00     0.201 C
BRANCH  14  15
HETATM   15  O4  UNL     1      51.785  14.845  81.415  1.00  0.00    -0.278 OA
BRANCH  15  16
HETATM   16  N3  UNL     1      51.752  13.708  80.687  1.00  0.00    -0.239 N
HETATM   17  C8  UNL     1      51.557  12.436  81.333  1.00  0.00     0.205 C
HETATM   18  N4  UNL     1      50.409  11.895  81.475  1.00  0.00    -0.372 N
HETATM   19  N5  UNL     1      52.746  11.794  81.820  1.00  0.00    -0.062 NA
ATOM     20  H42 UNL     1      49.565  12.351  81.129  1.00  0.00     0.158 HD
ATOM     21  H41 UNL     1      50.271  10.994  81.933  1.00  0.00     0.158 HD
ATOM     22  H3  UNL     1      51.866  13.750  79.674  1.00  0.00     0.197 HD
ENDBRANCH  15  16
ENDBRANCH  14  15
ENDBRANCH  13  14
ENDBRANCH  12  13
ENDBRANCH   1  12
BRANCH   1  23
HETATM   23  N6  UNL     1      56.615  15.562  82.243  1.00  0.00    -0.322 N
HETATM   24  C9  UNL     1      57.846  15.846  82.895  1.00  0.00     0.284 C
HETATM   25  O5  UNL     1      57.914  16.555  83.925  1.00  0.00    -0.630 OA
HETATM   26  O6  UNL     1      59.052  15.329  82.395  1.00  0.00    -0.630 OA
ATOM     27  H6  UNL     1      56.632  14.979  81.407  1.00  0.00     0.166 HD
ENDBRANCH   1  23
TORSDOF 9
ENDMDL