MODEL 5
REMARK VINA RESULT: -6.323554885      2.358      5.361
REMARK  10 active torsions:
REMARK  status: ('A' for Active; 'I' for Inactive)
REMARK    1  A    between atoms: O1_2  and  C2_3
REMARK    2  A    between atoms: C3_6  and  N2_7
REMARK    3  A    between atoms: N2_7  and  C4_9
REMARK    4  A    between atoms: C4_9  and  C5_10
REMARK    5  A    between atoms: C5_10  and  N3_11
REMARK    6  A    between atoms: C6_17  and  N5_18
REMARK    7  A    between atoms: N5_18  and  C7_20
REMARK    8  A    between atoms: C7_20  and  C8_21
REMARK    9  A    between atoms: C8_21  and  O2_22
REMARK   10  A    between atoms: O2_22  and  N6_23
REMARK       I    between atoms: N6_23  and  C9_25
ROOT
HETATM    1  C2  UNL     1      54.078  14.728  83.573  1.00  0.00     0.252 A
HETATM    2  N1  UNL     1      53.334  14.323  82.524  1.00  0.00    -0.154 N
ATOM      3  H1  UNL     1      52.491  14.836  82.266  1.00  0.00     0.188 HD
HETATM    4  C3  UNL     1      53.713  13.228  81.809  1.00  0.00     0.695 A
HETATM    5  N4  UNL     1      54.821  12.533  82.125  1.00  0.00    -0.022 N
ATOM      6  H4  UNL     1      55.091  11.714  81.579  1.00  0.00     0.203 HD
HETATM    7  C6  UNL     1      55.567  12.930  83.169  1.00  0.00     0.695 A
HETATM    8  N9  UNL     1      55.184  14.024  83.879  1.00  0.00    -0.154 N
ATOM      9  H9  UNL     1      55.754  14.321  84.672  1.00  0.00     0.188 HD
ENDROOT
BRANCH   7  10
HETATM   10  N5  UNL     1      56.639  12.335  83.549  1.00  0.00    -0.223 N
ATOM     11  H5  UNL     1      57.321  12.102  82.828  1.00  0.00     0.177 HD
BRANCH  10  12
HETATM   12  C7  UNL     1      56.960  11.973  84.890  1.00  0.00     0.166 C
BRANCH  12  13
HETATM   13  C8  UNL     1      58.245  12.694  85.286  1.00  0.00     0.221 C
BRANCH  13  14
HETATM   14  O2  UNL     1      59.018  12.976  84.153  1.00  0.00    -0.276 OA
BRANCH  14  15
HETATM   15  N6  UNL     1      59.319  14.294  84.206  1.00  0.00    -0.239 N
HETATM   16  C9  UNL     1      58.614  15.236  83.425  1.00  0.00     0.205 C
HETATM   17  N7  UNL     1      58.853  15.311  82.158  1.00  0.00    -0.372 N
HETATM   18  N8  UNL     1      57.662  16.085  84.011  1.00  0.00    -0.062 NA
ATOM     19  H72 UNL     1      59.545  14.694  81.733  1.00  0.00     0.158 HD
ATOM     20  H71 UNL     1      58.344  15.992  81.594  1.00  0.00     0.158 HD
ATOM     21  H6  UNL     1      60.068  14.612  84.820  1.00  0.00     0.197 HD
ENDBRANCH  14  15
ENDBRANCH  13  14
ENDBRANCH  12  13
ENDBRANCH  10  12
ENDBRANCH   7  10
BRANCH   4  22
HETATM   22  N2  UNL     1      52.961  12.904  80.831  1.00  0.00    -0.224 N
ATOM     23  H2  UNL     1      53.393  12.863  79.908  1.00  0.00     0.177 HD
BRANCH  22  24
HETATM   24  C4  UNL     1      51.557  12.592  80.910  1.00  0.00     0.165 C
BRANCH  24  25
HETATM   25  C5  UNL     1      51.314  11.270  81.654  1.00  0.00     0.249 C
BRANCH  25  26
HETATM   26  N3  UNL     1      49.968  10.845  81.317  1.00  0.00    -0.078 N
ATOM     27  H33 UNL     1      49.524  11.433  80.611  1.00  0.00     0.274 HD
ATOM     28  H32 UNL     1      49.941   9.971  80.790  1.00  0.00     0.274 HD
ATOM     29  H31 UNL     1      49.447  10.804  82.192  1.00  0.00     0.274 HD
ENDBRANCH  25  26
ENDBRANCH  24  25
ENDBRANCH  22  24
ENDBRANCH   4  22
BRANCH   1  30
HETATM   30  O1  UNL     1      53.728  15.851  84.340  1.00  0.00    -0.326 OA
HETATM   31  C1  UNL     1      53.353  17.023  83.649  1.00  0.00     0.213 C
ENDBRANCH   1  30
TORSDOF 10
ENDMDL