MODEL 3
REMARK VINA RESULT: -7.250760341      1.198      1.526
REMARK  13 active torsions:
REMARK  status: ('A' for Active; 'I' for Inactive)
REMARK    1  A    between atoms: N1_1  and  N2_4
REMARK    2  A    between atoms: C1_6  and  N3_7
REMARK    3  A    between atoms: C2_10  and  N5_11
REMARK    4  A    between atoms: N5_11  and  C3_13
REMARK    5  A    between atoms: C3_13  and  C4_14
REMARK    6  A    between atoms: C4_14  and  C5_15
REMARK    7  A    between atoms: C5_15  and  C6_16
REMARK    8  A    between atoms: C6_16  and  C7_17
REMARK    9  A    between atoms: C7_17  and  C8_18
REMARK   10  A    between atoms: C8_18  and  N6_19
REMARK   11  A    between atoms: C9_25  and  N8_26
REMARK   12  A    between atoms: C10_31  and  N10_32
REMARK   13  A    between atoms: N10_32  and  N11_34
ROOT
HETATM    1  N3  UNL     1      57.184  14.178  83.286  1.00  0.00    -0.064 N
HETATM    2  N4  UNL     1      56.297  13.425  82.592  1.00  0.00    -0.109 N
ATOM      3  H4  UNL     1      56.671  12.691  81.993  1.00  0.00     0.207 HD
HETATM    4  C2  UNL     1      54.937  13.576  82.635  1.00  0.00     0.711 C
HETATM    5  N7  UNL     1      54.220  14.561  83.207  1.00  0.00    -0.021 N
ATOM      6  H7  UNL     1      53.208  14.456  83.127  1.00  0.00     0.203 HD
HETATM    7  C9  UNL     1      54.628  15.672  83.875  1.00  0.00     0.705 C
HETATM    8  N9  UNL     1      55.890  16.081  84.087  1.00  0.00    -0.019 N
ATOM      9  H9  UNL     1      56.011  16.942  84.621  1.00  0.00     0.203 HD
HETATM   10  C10 UNL     1      57.038  15.453  83.653  1.00  0.00     0.733 C
ENDROOT
BRANCH   4  11
HETATM   11  N5  UNL     1      54.324  12.651  82.050  1.00  0.00    -0.204 N
ATOM     12  H5  UNL     1      54.262  11.783  82.582  1.00  0.00     0.183 HD
BRANCH  11  13
HETATM   13  C3  UNL     1      53.708  12.605  80.784  1.00  0.00     0.079 C
BRANCH  13  14
HETATM   14  C4  UNL     1      54.077  11.387  79.964  1.00  0.00     0.045 C
BRANCH  14  15
HETATM   15  C5  UNL     1      53.107  10.247  80.211  1.00  0.00     0.005 C
BRANCH  15  16
HETATM   16  C6  UNL     1      52.174  10.040  79.060  1.00  0.00     0.002 C
BRANCH  16  17
HETATM   17  C7  UNL     1      50.749  10.423  79.382  1.00  0.00     0.027 C
BRANCH  17  18
HETATM   18  C8  UNL     1      50.582  10.489  80.867  1.00  0.00     0.229 C
BRANCH  18  19
HETATM   19  N6  UNL     1      50.177  11.786  81.336  1.00  0.00    -0.079 N
ATOM     20  H63 UNL     1      50.272  12.485  80.599  1.00  0.00     0.274 HD
ATOM     21  H62 UNL     1      49.166  11.823  81.473  1.00  0.00     0.274 HD
ATOM     22  H61 UNL     1      50.667  12.082  82.181  1.00  0.00     0.274 HD
ENDBRANCH  18  19
ENDBRANCH  17  18
ENDBRANCH  16  17
ENDBRANCH  15  16
ENDBRANCH  14  15
ENDBRANCH  13  14
ENDBRANCH  11  13
ENDBRANCH   4  11
BRANCH   1  23
HETATM   23  C1  UNL     1      58.385  13.557  83.669  1.00  0.00     0.241 C
HETATM   24  N2  UNL     1      58.527  12.298  83.761  1.00  0.00    -0.300 N
ATOM     25  H2  UNL     1      58.693  12.193  84.761  1.00  0.00     0.187 HD
BRANCH  24  26
HETATM   26  N1  UNL     1      58.588  11.129  83.387  1.00  0.00    -0.344 N
ATOM     27  H12 UNL     1      58.147  11.245  82.475  1.00  0.00     0.176 HD
ATOM     28  H11 UNL     1      58.805  10.133  83.430  1.00  0.00     0.176 HD
ENDBRANCH  24  26
ENDBRANCH   1  23
BRANCH   7  29
HETATM   29  N8  UNL     1      53.714  16.425  84.365  1.00  0.00    -0.234 N
ATOM     30  H82 UNL     1      52.897  16.567  83.772  1.00  0.00     0.174 HD
ATOM     31  H81 UNL     1      53.881  16.812  85.295  1.00  0.00     0.174 HD
ENDBRANCH   7  29
BRANCH  10  32
HETATM   32  N10 UNL     1      58.067  16.188  83.582  1.00  0.00    -0.136 N
ATOM     33  H10 UNL     1      58.634  16.271  84.425  1.00  0.00     0.205 HD
BRANCH  32  34
HETATM   34  N11 UNL     1      58.492  16.886  82.474  1.00  0.00    -0.331 N
ATOM     35 2H11 UNL     1      58.475  17.903  82.558  1.00  0.00     0.177 HD
ATOM     36 1H11 UNL     1      58.815  16.483  81.595  1.00  0.00     0.177 HD
ENDBRANCH  32  34
ENDBRANCH  10  32
TORSDOF 13
ENDMDL