MODEL 1
REMARK VINA RESULT: -7.892500833      0.000      0.000
REMARK  9 active torsions:
REMARK  status: ('A' for Active; 'I' for Inactive)
REMARK    1  A    between atoms: C2_5  and  C3_7
REMARK    2  A    between atoms: C3_7  and  N4_8
REMARK    3  A    between atoms: N4_8  and  C4_10
REMARK    4  A    between atoms: C5_13  and  C6_14
REMARK    5  A    between atoms: C6_14  and  O1_15
REMARK    6  A    between atoms: C7_17  and  C8_18
REMARK    7  A    between atoms: C8_18  and  C9_19
REMARK    8  A    between atoms: C9_19  and  C10_20
REMARK    9  A    between atoms: C10_20  and  N6_21
ROOT
HETATM    1  N1  UNL     1      59.454   8.418  81.248  1.00  0.00    -0.172 NA
HETATM    2  C1  UNL     1      59.366   9.208  82.077  1.00  0.00     0.183 C
HETATM    3  N2  UNL     1      59.245  10.158  83.090  1.00  0.00    -0.284 N
ATOM      4  H2  UNL     1      58.371  10.198  83.616  1.00  0.00     0.179 HD
HETATM    5  C2  UNL     1      60.181  10.985  83.393  1.00  0.00     0.119 C
HETATM    6  N3  UNL     1      61.390  10.918  82.651  1.00  0.00    -0.085 NA
ENDROOT
BRANCH   5   7
HETATM    7  C3  UNL     1      60.001  11.970  84.474  1.00  0.00     0.196 C
BRANCH   7   8
HETATM    8  N4  UNL     1      59.467  13.213  83.971  1.00  0.00    -0.356 N
ATOM      9  H4  UNL     1      60.082  13.936  83.596  1.00  0.00     0.163 HD
BRANCH   8  10
HETATM   10  C4  UNL     1      58.048  13.398  84.015  1.00  0.00     0.172 C
HETATM   11  N5  UNL     1      57.346  13.911  84.965  1.00  0.00    -0.354 N
HETATM   12  C5  UNL     1      55.940  13.929  84.642  1.00  0.00     0.130 C
ATOM     13  H5  UNL     1      57.738  14.261  85.840  1.00  0.00     0.163 HD
HETATM   14  C7  UNL     1      55.860  12.969  83.508  1.00  0.00     0.109 C
HETATM   15  N9  UNL     1      57.180  13.021  82.954  1.00  0.00    -0.356 N
ATOM     16  H9  UNL     1      57.445  12.827  81.989  1.00  0.00     0.163 HD
BRANCH  12  17
HETATM   17  C6  UNL     1      55.453  15.308  84.338  1.00  0.00     0.191 C
BRANCH  17  18
HETATM   18  O1  UNL     1      56.101  16.303  85.023  1.00  0.00    -0.399 OA
ATOM     19  H1  UNL     1      56.237  17.101  84.524  1.00  0.00     0.209 HD
ENDBRANCH  17  18
ENDBRANCH  12  17
BRANCH  14  20
HETATM   20  C8  UNL     1      54.761  13.226  82.535  1.00  0.00     0.029 C
BRANCH  20  21
HETATM   21  C9  UNL     1      53.673  12.202  82.802  1.00  0.00     0.022 C
BRANCH  21  22
HETATM   22  C10 UNL     1      53.206  11.582  81.481  1.00  0.00     0.122 C
BRANCH  22  23
HETATM   23  N6  UNL     1      51.953  10.925  81.746  1.00  0.00    -0.367 N
HETATM   24  C11 UNL     1      50.858  11.510  81.467  1.00  0.00     0.196 C
HETATM   25  N7  UNL     1      49.632  10.864  81.727  1.00  0.00    -0.067 NA
HETATM   26  N8  UNL     1      50.860  12.797  80.899  1.00  0.00    -0.067 NA
ATOM     27  H6  UNL     1      51.943   9.993  82.158  1.00  0.00     0.161 HD
ENDBRANCH  22  23
ENDBRANCH  21  22
ENDBRANCH  20  21
ENDBRANCH  14  20
ENDBRANCH   8  10
ENDBRANCH   7   8
ENDBRANCH   5   7
TORSDOF 9
ENDMDL