MODEL 1
REMARK VINA RESULT: -7.424191809      0.000      0.000
REMARK  10 active torsions:
REMARK  status: ('A' for Active; 'I' for Inactive)
REMARK       I    between atoms: C2_2  and  N1_4
REMARK    1  A    between atoms: N1_4  and  C3_6
REMARK    2  A    between atoms: C3_6  and  C4_7
REMARK    3  A    between atoms: C3_6  and  N4_17
REMARK    4  A    between atoms: C4_7  and  C5_8
REMARK    5  A    between atoms: C5_8  and  C6_10
REMARK       I    between atoms: C6_10  and  N2_12
REMARK    6  A    between atoms: N2_12  and  N3_14
REMARK    7  A    between atoms: N4_17  and  N5_18
REMARK       I    between atoms: N5_18  and  C7_20
REMARK    8  A    between atoms: C7_20  and  C8_22
REMARK    9  A    between atoms: C8_22  and  C9_24
REMARK   10  A    between atoms: C9_24  and  N6_26
ROOT
HETATM    1  C3  UNL     1      52.825  12.940  81.158  1.00  0.00     0.206 C
ENDROOT
BRANCH   1   2
HETATM    2  N1  UNL     1      53.019  11.768  80.315  1.00  0.00    -0.341 N
HETATM    3  C2  UNL     1      51.918  11.043  79.809  1.00  0.00     0.214 C
HETATM    4  C1  UNL     1      52.116   9.856  78.955  1.00  0.00     0.117 C
HETATM    5  O1  UNL     1      50.752  11.402  80.083  1.00  0.00    -0.274 OA
ATOM      6  H1  UNL     1      53.966  11.465  80.087  1.00  0.00     0.164 HD
ENDBRANCH   1   2
BRANCH   1   7
HETATM    7  C4  UNL     1      53.643  14.088  80.604  1.00  0.00     0.133 C
BRANCH   7   8
HETATM    8  C5  UNL     1      52.984  15.386  80.959  1.00  0.00     0.221 C
HETATM    9  O2  UNL     1      51.993  15.805  80.340  1.00  0.00    -0.287 OA
BRANCH   8  10
HETATM   10  C6  UNL     1      53.524  16.166  82.059  1.00  0.00     0.305 C
HETATM   11  O3  UNL     1      54.206  17.181  81.818  1.00  0.00    -0.263 OA
HETATM   12  N2  UNL     1      53.278  15.776  83.393  1.00  0.00    -0.270 N
ATOM     13  H2  UNL     1      52.720  14.948  83.596  1.00  0.00     0.189 HD
BRANCH  12  14
HETATM   14  N3  UNL     1      53.813  16.544  84.430  1.00  0.00    -0.342 N
ATOM     15  H32 UNL     1      54.731  16.309  84.809  1.00  0.00     0.176 HD
ATOM     16  H31 UNL     1      53.271  17.330  84.790  1.00  0.00     0.176 HD
ENDBRANCH  12  14
ENDBRANCH   8  10
ENDBRANCH   7   8
ENDBRANCH   1   7
BRANCH   1  17
HETATM   17  N4  UNL     1      53.423  12.621  82.440  1.00  0.00    -0.112 NA
BRANCH  17  18
HETATM   18  N5  UNL     1      54.799  12.565  82.403  1.00  0.00    -0.265 N
HETATM   19  C7  UNL     1      55.480  13.072  83.578  1.00  0.00     0.305 C
HETATM   20  O4  UNL     1      54.795  13.521  84.549  1.00  0.00    -0.263 OA
ATOM     21  H5  UNL     1      55.306  12.191  81.600  1.00  0.00     0.185 HD
BRANCH  19  22
HETATM   22  C8  UNL     1      56.928  13.081  83.683  1.00  0.00     0.247 C
HETATM   23  O5  UNL     1      57.469  11.925  83.804  1.00  0.00    -0.285 OA
BRANCH  22  24
HETATM   24  C9  UNL     1      57.724  14.307  83.655  1.00  0.00     0.258 C
HETATM   25  C10 UNL     1      57.161  15.232  82.584  1.00  0.00     0.048 C
BRANCH  24  26
HETATM   26  N6  UNL     1      59.080  14.037  83.321  1.00  0.00    -0.068 N
ATOM     27  H63 UNL     1      59.444  13.245  83.850  1.00  0.00     0.275 HD
ATOM     28  H62 UNL     1      59.164  13.651  82.381  1.00  0.00     0.275 HD
ATOM     29  H61 UNL     1      59.663  14.865  83.438  1.00  0.00     0.275 HD
ENDBRANCH  24  26
ENDBRANCH  22  24
ENDBRANCH  19  22
ENDBRANCH  17  18
ENDBRANCH   1  17
TORSDOF 10
ENDMDL