MODEL 5
REMARK VINA RESULT: -8.486250545      2.463      3.546
REMARK  11 active torsions:
REMARK  status: ('A' for Active; 'I' for Inactive)
REMARK    1  A    between atoms: O1_2  and  N1_3
REMARK    2  A    between atoms: N1_3  and  C2_5
REMARK    3  A    between atoms: C4_8  and  C5_9
REMARK    4  A    between atoms: N2_12  and  C6_13
REMARK    5  A    between atoms: C6_13  and  C7_14
REMARK    6  A    between atoms: C6_13  and  C15_37
REMARK    7  A    between atoms: C7_14  and  N3_15
REMARK    8  A    between atoms: C13_28  and  N7_29
REMARK       I    between atoms: C15_37  and  N10_39
REMARK    9  A    between atoms: N10_39  and  C16_41
REMARK   10  A    between atoms: C18_43  and  O7_44
REMARK   11  A    between atoms: C19_46  and  C20_47
ROOT
HETATM    1  C6  UNL     1      19.119  -7.771 -11.895  1.00  0.00     0.195 C
ENDROOT
BRANCH   1   2
HETATM    2  N2  UNL     1      17.983  -6.999 -12.405  1.00  0.00    -0.353 N
HETATM    3  C2  UNL     1      17.846  -5.698 -11.991  1.00  0.00     0.267 C
HETATM    4  S1  UNL     1      18.176  -4.766 -13.552  1.00  0.00    -0.119 SA
HETATM    5  C3  UNL     1      17.561  -6.123 -14.630  1.00  0.00     0.113 C
HETATM    6  C4  UNL     1      17.654  -7.306 -13.734  1.00  0.00     0.193 C
BRANCH   3   7
HETATM    7  N1  UNL     1      16.578  -5.236 -11.497  1.00  0.00    -0.270 N
ATOM      8  H1  UNL     1      15.968  -4.634 -12.049  1.00  0.00     0.191 HD
BRANCH   7   9
HETATM    9  O1  UNL     1      16.253  -5.641 -10.279  1.00  0.00    -0.287 OA
HETATM   10  C1  UNL     1      15.752  -4.554  -9.566  1.00  0.00     0.237 C
ENDBRANCH   7   9
ENDBRANCH   3   7
BRANCH   6  11
HETATM   11  C5  UNL     1      16.525  -8.243 -13.918  1.00  0.00     0.197 C
HETATM   12  O2  UNL     1      16.450  -8.900 -14.974  1.00  0.00    -0.646 OA
HETATM   13  O3  UNL     1      15.561  -8.403 -12.951  1.00  0.00    -0.646 OA
ENDBRANCH   6  11
ENDBRANCH   1   2
BRANCH   1  14
HETATM   14  C7  UNL     1      18.938  -9.228 -12.206  1.00  0.00     0.186 C
BRANCH  14  15
HETATM   15  N3  UNL     1      18.673 -10.091 -11.112  1.00  0.00    -0.261 N
HETATM   16  C8  UNL     1      17.661  -9.823 -10.229  1.00  0.00     0.143 A
HETATM   17  N4  UNL     1      16.777  -8.800 -10.117  1.00  0.00    -0.336 N
HETATM   18  C11 UNL     1      17.618 -10.842  -9.325  1.00  0.00     0.124 A
HETATM   19  C9  UNL     1      15.860  -8.764  -9.140  1.00  0.00     0.185 A
ATOM     20  H4  UNL     1      16.811  -8.038 -10.794  1.00  0.00     0.168 HD
HETATM   21  N5  UNL     1      15.819  -9.758  -8.260  1.00  0.00    -0.319 N
HETATM   22  C10 UNL     1      16.675 -10.802  -8.321  1.00  0.00     0.264 A
ATOM     23  H5  UNL     1      15.122  -9.733  -7.517  1.00  0.00     0.169 HD
HETATM   24  O4  UNL     1      16.660 -11.751  -7.509  1.00  0.00    -0.267 OA
HETATM   25  C12 UNL     1      18.612 -11.729  -9.672  1.00  0.00     0.167 A
HETATM   26  N6  UNL     1      18.999 -12.916  -9.128  1.00  0.00    -0.174 N
HETATM   27  N9  UNL     1      19.253 -11.252 -10.778  1.00  0.00    -0.183 N
HETATM   28  C13 UNL     1      19.997 -13.635  -9.649  1.00  0.00     0.681 A
ATOM     29  H6  UNL     1      18.515 -13.265  -8.302  1.00  0.00     0.186 HD
HETATM   30  N8  UNL     1      20.613 -13.145 -10.739  1.00  0.00    -0.140 N
HETATM   31  C14 UNL     1      20.256 -11.973 -11.306  1.00  0.00     0.361 A
ATOM     32  H8  UNL     1      21.377 -13.678 -11.153  1.00  0.00     0.189 HD
HETATM   33  O5  UNL     1      20.859 -11.558 -12.324  1.00  0.00    -0.244 OA
BRANCH  28  34
HETATM   34  N7  UNL     1      20.337 -14.754  -9.107  1.00  0.00    -0.234 N
ATOM     35  H72 UNL     1      20.073 -15.003  -8.154  1.00  0.00     0.174 HD
ATOM     36  H71 UNL     1      20.890 -15.429  -9.634  1.00  0.00     0.174 HD
ENDBRANCH  28  34
ENDBRANCH  14  15
ENDBRANCH   1  14
BRANCH   1  37
HETATM   37  C15 UNL     1      20.349  -7.132 -12.338  1.00  0.00     0.242 C
HETATM   38  O6  UNL     1      20.710  -6.054 -11.722  1.00  0.00    -0.271 OA
HETATM   39  N10 UNL     1      21.205  -7.587 -13.391  1.00  0.00    -0.346 N
ATOM     40  H10 UNL     1      20.949  -8.435 -13.897  1.00  0.00     0.163 HD
BRANCH  39  41
HETATM   41  C16 UNL     1      22.407  -6.901 -13.763  1.00  0.00     0.179 C
HETATM   42  C17 UNL     1      23.589  -7.728 -13.280  1.00  0.00     0.069 C
HETATM   43  C18 UNL     1      24.722  -7.714 -14.271  1.00  0.00     0.152 C
HETATM   44  C19 UNL     1      24.283  -8.337 -15.598  1.00  0.00     0.202 C
HETATM   45  N12 UNL     1      23.191  -7.535 -16.091  1.00  0.00    -0.344 N
HETATM   46  C21 UNL     1      22.523  -6.622 -15.219  1.00  0.00     0.241 C
ATOM     47  H12 UNL     1      22.894  -7.620 -17.063  1.00  0.00     0.163 HD
HETATM   48  O9  UNL     1      22.029  -5.571 -15.692  1.00  0.00    -0.271 OA
BRANCH  43  49
HETATM   49  O7  UNL     1      25.727  -8.525 -13.765  1.00  0.00    -0.393 OA
ATOM     50  H7  UNL     1      26.354  -7.962 -13.326  1.00  0.00     0.210 HD
ENDBRANCH  43  49
BRANCH  44  51
HETATM   51  C20 UNL     1      25.462  -8.289 -16.501  1.00  0.00     0.256 C
HETATM   52  N11 UNL     1      26.490  -7.345 -16.316  1.00  0.00    -0.060 NA
HETATM   53  O8  UNL     1      25.551  -9.111 -17.457  1.00  0.00    -0.274 OA
ENDBRANCH  44  51
ENDBRANCH  39  41
ENDBRANCH   1  37
TORSDOF 11
ENDMDL