MODEL 4
REMARK VINA RESULT: -8.848824109      2.340      3.292
REMARK  12 active torsions:
REMARK  status: ('A' for Active; 'I' for Inactive)
REMARK    1  A    between atoms: C3_8  and  O1_9
REMARK    2  A    between atoms: C3_8  and  C4_11
REMARK    3  A    between atoms: C4_11  and  O2_12
REMARK    4  A    between atoms: O2_12  and  S1_13
REMARK    5  A    between atoms: S1_13  and  N3_16
REMARK    6  A    between atoms: N3_16  and  C5_18
REMARK    7  A    between atoms: C5_18  and  N4_19
REMARK    8  A    between atoms: C10_26  and  C11_27
REMARK    9  A    between atoms: C15_35  and  O6_36
REMARK   10  A    between atoms: C16_38  and  C17_39
REMARK   11  A    between atoms: C19_44  and  C20_46
REMARK   12  A    between atoms: C22_50  and  O11_51
ROOT
HETATM    1  N1  UNL     1      15.781  -8.309 -15.968  1.00  0.00    -0.365 N
ATOM      2  H11 UNL     1      16.065  -8.423 -16.940  1.00  0.00     0.159 HD
ATOM      3  H12 UNL     1      14.892  -8.799 -15.872  1.00  0.00     0.159 HD
HETATM    4  C1  UNL     1      16.376  -7.684 -14.996  1.00  0.00     0.216 C
HETATM    5  N2  UNL     1      15.983  -7.525 -13.648  1.00  0.00    -0.343 N
ATOM      6  H2  UNL     1      15.135  -7.917 -13.237  1.00  0.00     0.163 HD
HETATM    7  C2  UNL     1      16.954  -6.728 -12.935  1.00  0.00     0.189 C
HETATM    8  C3  UNL     1      17.842  -7.677 -12.166  1.00  0.00     0.124 C
HETATM    9  C13 UNL     1      19.126  -7.096 -11.816  1.00  0.00     0.021 C
HETATM   10  C14 UNL     1      19.719  -6.161 -12.543  1.00  0.00    -0.037 C
HETATM   11  C15 UNL     1      21.068  -5.634 -12.066  1.00  0.00     0.167 C
HETATM   12  C16 UNL     1      21.603  -4.695 -13.108  1.00  0.00     0.181 C
HETATM   13  C18 UNL     1      20.567  -3.683 -13.458  1.00  0.00     0.193 C
HETATM   14  O8  UNL     1      20.723  -2.501 -13.333  1.00  0.00    -0.293 OA
HETATM   15  C19 UNL     1      19.256  -4.168 -13.996  1.00  0.00     0.263 C
HETATM   16  F1  UNL     1      18.302  -3.436 -13.294  1.00  0.00    -0.222 F
HETATM   17  C21 UNL     1      19.098  -5.663 -13.773  1.00  0.00     0.141 C
HETATM   18  C22 UNL     1      17.703  -6.064 -14.056  1.00  0.00     0.206 C
HETATM   19  O12 UNL     1      17.598  -7.011 -15.128  1.00  0.00    -0.281 OA
ENDROOT
BRANCH   8  20
HETATM   20  O1  UNL     1      18.067  -8.823 -12.963  1.00  0.00    -0.381 OA
ATOM     21  H1  UNL     1      18.946  -8.772 -13.320  1.00  0.00     0.211 HD
ENDBRANCH   8  20
BRANCH   8  22
HETATM   22  C4  UNL     1      17.172  -8.187 -10.908  1.00  0.00     0.236 C
BRANCH  22  23
HETATM   23  O2  UNL     1      15.813  -8.096 -11.128  1.00  0.00    -0.256 OA
BRANCH  23  24
HETATM   24  S1  UNL     1      14.885  -7.864  -9.782  1.00  0.00     0.359 S
HETATM   25  O3  UNL     1      13.592  -7.208 -10.173  1.00  0.00    -0.176 OA
HETATM   26  O4  UNL     1      15.678  -6.947  -8.860  1.00  0.00    -0.176 OA
BRANCH  24  27
HETATM   27  N3  UNL     1      14.584  -9.316  -8.950  1.00  0.00    -0.280 N
ATOM     28  H3  UNL     1      13.801  -9.929  -9.179  1.00  0.00     0.176 HD
BRANCH  27  29
HETATM   29  C5  UNL     1      15.517  -9.613  -7.900  1.00  0.00     0.268 C
BRANCH  29  30
HETATM   30  N4  UNL     1      16.338 -10.766  -8.197  1.00  0.00    -0.310 N
HETATM   31  C6  UNL     1      17.351 -10.760  -9.076  1.00  0.00     0.186 A
HETATM   32  N5  UNL     1      17.870 -11.993  -9.083  1.00  0.00    -0.349 N
HETATM   33  C7  UNL     1      17.189 -12.764  -8.220  1.00  0.00     0.078 A
ATOM     34  H5  UNL     1      18.657 -12.300  -9.654  1.00  0.00     0.166 HD
HETATM   35  C8  UNL     1      17.273 -14.080  -7.822  1.00  0.00     0.036 A
HETATM   36  C12 UNL     1      16.194 -11.988  -7.636  1.00  0.00     0.137 A
HETATM   37  C9  UNL     1      16.404 -14.602  -6.885  1.00  0.00     0.037 A
HETATM   38  C10 UNL     1      15.427 -13.812  -6.322  1.00  0.00     0.099 A
HETATM   39  N7  UNL     1      15.364 -12.528  -6.725  1.00  0.00    -0.336 N
ATOM     40  H7  UNL     1      14.646 -11.931  -6.316  1.00  0.00     0.168 HD
BRANCH  38  41
HETATM   41  C11 UNL     1      14.507 -14.361  -5.329  1.00  0.00     0.281 C
HETATM   42  N6  UNL     1      13.897 -15.631  -5.472  1.00  0.00    -0.056 NA
HETATM   43  O5  UNL     1      14.241 -13.684  -4.307  1.00  0.00    -0.269 OA
ENDBRANCH  38  41
ENDBRANCH  29  30
ENDBRANCH  27  29
ENDBRANCH  24  27
ENDBRANCH  23  24
ENDBRANCH  22  23
ENDBRANCH   8  22
BRANCH  18  44
HETATM   44  O11 UNL     1      16.923  -4.979 -14.453  1.00  0.00    -0.363 OA
ATOM     45  H11 UNL     1      17.168  -4.794 -15.351  1.00  0.00     0.213 HD
ENDBRANCH  18  44
BRANCH  11  46
HETATM   46  O6  UNL     1      20.796  -4.992 -10.860  1.00  0.00    -0.390 OA
ATOM     47  H6  UNL     1      21.397  -5.381 -10.235  1.00  0.00     0.210 HD
ENDBRANCH  11  46
BRANCH  15  48
HETATM   48  C20 UNL     1      19.180  -3.911 -15.452  1.00  0.00     0.223 C
HETATM   49  O9  UNL     1      20.164  -4.169 -16.173  1.00  0.00    -0.645 OA
HETATM   50  O10 UNL     1      18.041  -3.389 -16.051  1.00  0.00    -0.645 OA
ENDBRANCH  15  48
BRANCH  12  51
HETATM   51  C17 UNL     1      22.873  -4.085 -12.721  1.00  0.00     0.245 C
HETATM   52  N8  UNL     1      23.192  -3.680 -11.392  1.00  0.00    -0.061 NA
HETATM   53  O7  UNL     1      23.768  -3.887 -13.586  1.00  0.00    -0.276 OA
ENDBRANCH  12  51
TORSDOF 12
ENDMDL