MODEL 3
REMARK VINA RESULT: -8.878020989      2.358      4.647
REMARK  15 active torsions:
REMARK  status: ('A' for Active; 'I' for Inactive)
REMARK    1  A    between atoms: C3_4  and  C4_5
REMARK    2  A    between atoms: C6_8  and  C7_9
REMARK    3  A    between atoms: C7_9  and  O2_10
REMARK    4  A    between atoms: C7_9  and  O3_12
REMARK    5  A    between atoms: C8_14  and  N2_15
REMARK    6  A    between atoms: C11_18  and  N3_19
REMARK    7  A    between atoms: C12_24  and  N7_25
REMARK    8  A    between atoms: C13_28  and  C14_29
REMARK    9  A    between atoms: C16_33  and  O6_34
REMARK   10  A    between atoms: C19_42  and  O9_43
REMARK   11  A    between atoms: C19_42  and  C20_45
REMARK   12  A    between atoms: C20_45  and  C21_46
REMARK   13  A    between atoms: C21_46  and  C22_47
REMARK   14  A    between atoms: C22_47  and  N9_48
REMARK   15  A    between atoms: C25_51  and  O10_52
ROOT
HETATM    1  N1  UNL     1      19.139  -3.913 -10.049  1.00  0.00    -0.191 NA
HETATM    2  C1  UNL     1      19.184  -4.680 -10.906  1.00  0.00     0.101 C
HETATM    3  C2  UNL     1      19.274  -5.609 -11.983  1.00  0.00     0.089 C
HETATM    4  C3  UNL     1      18.959  -6.843 -12.137  1.00  0.00     0.051 C
HETATM    5  N8  UNL     1      19.481  -7.301 -13.440  1.00  0.00    -0.325 N
ATOM      6  H8  UNL     1      19.378  -8.233 -13.844  1.00  0.00     0.168 HD
HETATM    7  C18 UNL     1      20.148  -6.207 -14.016  1.00  0.00     0.262 C
HETATM    8  O8  UNL     1      21.003  -6.385 -14.965  1.00  0.00    -0.269 OA
HETATM    9  C19 UNL     1      19.704  -4.991 -13.366  1.00  0.00     0.177 C
ENDROOT
BRANCH   4  10
HETATM   10  C4  UNL     1      18.354  -7.827 -11.277  1.00  0.00     0.184 C
HETATM   11  C5  UNL     1      19.007  -9.191 -11.428  1.00  0.00     0.179 C
HETATM   12  O1  UNL     1      19.896  -9.463 -12.230  1.00  0.00    -0.291 OA
HETATM   13  C6  UNL     1      18.503 -10.254 -10.518  1.00  0.00     0.069 C
HETATM   14  C8  UNL     1      17.421 -10.096  -9.800  1.00  0.00     0.066 C
HETATM   15  C16 UNL     1      16.586  -8.821  -9.834  1.00  0.00     0.239 C
HETATM   16  C17 UNL     1      16.963  -8.095 -11.132  1.00  0.00     0.178 C
HETATM   17  O7  UNL     1      16.059  -7.861 -11.840  1.00  0.00    -0.293 OA
BRANCH  13  18
HETATM   18  C7  UNL     1      19.320 -11.488 -10.508  1.00  0.00     0.294 C
BRANCH  18  19
HETATM   19  O2  UNL     1      18.927 -12.326 -11.576  1.00  0.00    -0.367 OA
ATOM     20  H2  UNL     1      18.277 -11.881 -12.107  1.00  0.00     0.213 HD
ENDBRANCH  18  19
BRANCH  18  21
HETATM   21  O3  UNL     1      20.642 -11.216 -10.713  1.00  0.00    -0.367 OA
ATOM     22  H3  UNL     1      21.200 -11.820 -10.237  1.00  0.00     0.213 HD
ENDBRANCH  18  21
ENDBRANCH  13  18
BRANCH  14  23
HETATM   23  N2  UNL     1      16.858 -11.063  -8.897  1.00  0.00    -0.332 N
HETATM   24  C9  UNL     1      17.596 -12.076  -8.376  1.00  0.00     0.099 A
HETATM   25  C10 UNL     1      17.115 -12.995  -7.483  1.00  0.00     0.050 A
HETATM   26  C11 UNL     1      15.775 -12.867  -7.095  1.00  0.00     0.092 A
HETATM   27  C13 UNL     1      14.985 -11.862  -7.592  1.00  0.00     0.085 A
HETATM   28  C15 UNL     1      15.578 -10.980  -8.496  1.00  0.00     0.117 A
BRANCH  26  29
HETATM   29  N3  UNL     1      15.263 -13.798  -6.166  1.00  0.00    -0.071 N
HETATM   30  N4  UNL     1      15.540 -13.862  -4.876  1.00  0.00     0.014 NA
HETATM   31  N5  UNL     1      14.862 -14.857  -4.316  1.00  0.00     0.007 NA
HETATM   32  N6  UNL     1      14.143 -15.427  -5.289  1.00  0.00    -0.117 N
HETATM   33  C12 UNL     1      14.383 -14.781  -6.437  1.00  0.00     0.708 A
ATOM     34  H6  UNL     1      13.515 -16.222  -5.175  1.00  0.00     0.202 HD
BRANCH  33  35
HETATM   35  N7  UNL     1      13.828 -15.103  -7.570  1.00  0.00    -0.232 N
ATOM     36  H72 UNL     1      14.342 -15.164  -8.449  1.00  0.00     0.174 HD
ATOM     37  H71 UNL     1      12.856 -15.337  -7.772  1.00  0.00     0.174 HD
ENDBRANCH  33  35
ENDBRANCH  26  29
BRANCH  27  38
HETATM   38  C14 UNL     1      13.568 -11.677  -7.234  1.00  0.00     0.213 C
HETATM   39  O4  UNL     1      12.697 -11.582  -8.138  1.00  0.00    -0.644 OA
HETATM   40  O5  UNL     1      13.150 -11.604  -5.927  1.00  0.00    -0.644 OA
ENDBRANCH  27  38
ENDBRANCH  14  23
BRANCH  15  41
HETATM   41  O6  UNL     1      17.014  -8.002  -8.799  1.00  0.00    -0.382 OA
ATOM     42  H6  UNL     1      17.393  -7.220  -9.182  1.00  0.00     0.211 HD
ENDBRANCH  15  41
ENDBRANCH   4  10
BRANCH   9  43
HETATM   43  O9  UNL     1      20.772  -4.137 -13.062  1.00  0.00    -0.374 OA
ATOM     44  H9  UNL     1      20.505  -3.286 -13.388  1.00  0.00     0.211 HD
ENDBRANCH   9  43
BRANCH   9  45
HETATM   45  C20 UNL     1      18.520  -4.272 -13.858  1.00  0.00     0.055 C
BRANCH  45  46
HETATM   46  C21 UNL     1      18.314  -4.110 -15.300  1.00  0.00     0.034 C
BRANCH  46  47
HETATM   47  C22 UNL     1      16.965  -4.324 -15.873  1.00  0.00     0.272 C
BRANCH  47  48
HETATM   48  N9  UNL     1      17.009  -5.374 -16.934  1.00  0.00     0.091 N
HETATM   49  C23 UNL     1      16.860  -4.623 -18.181  1.00  0.00     0.275 C
HETATM   50  C24 UNL     1      15.426  -4.153 -18.203  1.00  0.00     0.064 C
HETATM   51  C25 UNL     1      14.713  -5.229 -17.437  1.00  0.00     0.148 C
HETATM   52  C26 UNL     1      15.810  -6.154 -16.921  1.00  0.00     0.303 C
BRANCH  51  53
HETATM   53  O10 UNL     1      13.812  -5.934 -18.243  1.00  0.00    -0.394 OA
ATOM     54  H10 UNL     1      13.732  -6.841 -17.975  1.00  0.00     0.210 HD
ENDBRANCH  51  53
ENDBRANCH  47  48
ENDBRANCH  46  47
ENDBRANCH  45  46
ENDBRANCH   9  45
TORSDOF 15
ENDMDL