MODEL 2
REMARK VINA RESULT: -7.228668289      3.819      7.185
REMARK  15 active torsions:
REMARK  status: ('A' for Active; 'I' for Inactive)
REMARK    1  A    between atoms: N1_1  and  C1_4
REMARK    2  A    between atoms: C4_9  and  N3_10
REMARK    3  A    between atoms: C7_20  and  C8_21
REMARK    4  A    between atoms: C8_21  and  S1_22
REMARK    5  A    between atoms: S1_22  and  C9_25
REMARK    6  A    between atoms: C9_25  and  S2_26
REMARK    7  A    between atoms: S2_26  and  C10_27
REMARK    8  A    between atoms: C10_27  and  C11_28
REMARK       I    between atoms: C11_28  and  N6_30
REMARK    9  A    between atoms: N6_30  and  S3_32
REMARK   10  A    between atoms: C13_39  and  O9_40
REMARK   11  A    between atoms: C14_42  and  O10_43
REMARK   12  A    between atoms: O10_43  and  C15_44
REMARK   13  A    between atoms: C15_44  and  C16_46
REMARK   14  A    between atoms: C16_46  and  N8_47
REMARK   15  A    between atoms: C16_46  and  C17_51
ROOT
HETATM    1  C1  UNL     1      15.382  -7.797  -9.947  1.00  0.00     0.677 A
HETATM    2  N2  UNL     1      16.101  -7.968 -11.080  1.00  0.00    -0.191 N
ATOM      3  H2  UNL     1      16.091  -8.852 -11.590  1.00  0.00     0.184 HD
HETATM    4  C2  UNL     1      16.820  -6.933 -11.498  1.00  0.00     0.089 A
HETATM    5  C3  UNL     1      16.850  -5.727 -10.823  1.00  0.00     0.099 A
HETATM    6  C4  UNL     1      16.108  -5.588  -9.677  1.00  0.00     0.143 A
HETATM    7  N4  UNL     1      15.379  -6.636  -9.254  1.00  0.00    -0.175 N
ATOM      8  H4  UNL     1      14.821  -6.554  -8.403  1.00  0.00     0.186 HD
HETATM    9  N5  UNL     1      17.681  -4.686 -11.343  1.00  0.00    -0.373 N
ATOM     10  H5  UNL     1      17.372  -3.714 -11.312  1.00  0.00     0.160 HD
HETATM   11  C5  UNL     1      18.942  -5.022 -11.905  1.00  0.00     0.178 C
HETATM   12  C6  UNL     1      19.613  -4.151 -12.835  1.00  0.00     0.257 C
HETATM   13  O1  UNL     1      18.961  -3.383 -13.805  1.00  0.00    -0.339 OA
HETATM   14  C7  UNL     1      20.152  -3.633 -14.548  1.00  0.00     0.245 C
HETATM   15  N7  UNL     1      20.034  -4.962 -14.023  1.00  0.00    -0.292 N
HETATM   16  C12 UNL     1      19.935  -6.304 -13.558  1.00  0.00     0.264 C
HETATM   17  O8  UNL     1      20.650  -7.220 -14.098  1.00  0.00    -0.270 OA
HETATM   18  C13 UNL     1      18.971  -6.430 -12.464  1.00  0.00     0.195 C
HETATM   19  C14 UNL     1      17.629  -6.958 -12.792  1.00  0.00     0.230 C
ENDROOT
BRANCH  14  20
HETATM   20  C8  UNL     1      20.250  -3.293 -15.936  1.00  0.00     0.195 C
BRANCH  20  21
HETATM   21  S1  UNL     1      21.723  -3.303 -16.827  1.00  0.00     0.157 S
HETATM   22  O2  UNL     1      21.343  -3.485 -18.306  1.00  0.00    -0.227 OA
HETATM   23  O3  UNL     1      22.610  -4.482 -16.552  1.00  0.00    -0.227 OA
BRANCH  21  24
HETATM   24  C9  UNL     1      22.622  -1.776 -16.772  1.00  0.00     0.214 C
BRANCH  24  25
HETATM   25  S2  UNL     1      21.560  -0.351 -16.454  1.00  0.00    -0.145 SA
BRANCH  25  26
HETATM   26  C10 UNL     1      20.782   0.305 -17.946  1.00  0.00     0.178 C
BRANCH  26  27
HETATM   27  C11 UNL     1      19.405  -0.227 -18.112  1.00  0.00     0.242 C
HETATM   28  O4  UNL     1      18.424   0.523 -17.840  1.00  0.00    -0.272 OA
HETATM   29  N6  UNL     1      19.156  -1.546 -18.566  1.00  0.00    -0.235 N
ATOM     30  H6  UNL     1      19.947  -2.151 -18.785  1.00  0.00     0.184 HD
BRANCH  29  31
HETATM   31  S3  UNL     1      17.547  -2.160 -18.758  1.00  0.00     0.211 S
HETATM   32  O5  UNL     1      16.731  -1.961 -17.496  1.00  0.00    -0.578 OA
HETATM   33  O6  UNL     1      16.923  -1.447 -19.919  1.00  0.00    -0.578 OA
HETATM   34  O7  UNL     1      17.570  -3.823 -19.035  1.00  0.00    -0.578 OA
ENDBRANCH  29  31
ENDBRANCH  26  27
ENDBRANCH  25  26
ENDBRANCH  24  25
ENDBRANCH  21  24
ENDBRANCH  20  21
ENDBRANCH  14  20
BRANCH  18  35
HETATM   35  O9  UNL     1      19.541  -7.346 -11.539  1.00  0.00    -0.375 OA
ATOM     36  H9  UNL     1      19.119  -8.196 -11.585  1.00  0.00     0.211 HD
ENDBRANCH  18  35
BRANCH  19  37
HETATM   37  O10 UNL     1      16.842  -6.088 -13.627  1.00  0.00    -0.304 OA
BRANCH  37  38
HETATM   38  C15 UNL     1      16.395  -6.467 -14.874  1.00  0.00     0.297 C
HETATM   39  O11 UNL     1      15.626  -7.441 -14.966  1.00  0.00    -0.262 OA
BRANCH  38  40
HETATM   40  C16 UNL     1      16.788  -5.760 -16.121  1.00  0.00     0.342 C
BRANCH  40  41
HETATM   41  N8  UNL     1      16.927  -4.344 -15.821  1.00  0.00    -0.060 N
ATOM     42  H83 UNL     1      16.427  -4.071 -14.975  1.00  0.00     0.275 HD
ATOM     43  H82 UNL     1      17.867  -4.099 -15.511  1.00  0.00     0.275 HD
ATOM     44  H81 UNL     1      16.633  -3.812 -16.640  1.00  0.00     0.275 HD
ENDBRANCH  40  41
BRANCH  40  45
HETATM   45  C17 UNL     1      15.679  -5.902 -17.128  1.00  0.00     0.274 C
HETATM   46  O12 UNL     1      14.814  -5.049 -17.222  1.00  0.00    -0.304 OA
ENDBRANCH  40  45
ENDBRANCH  38  40
ENDBRANCH  37  38
ENDBRANCH  19  37
BRANCH   6  47
HETATM   47  N3  UNL     1      16.154  -4.442  -9.081  1.00  0.00    -0.383 N
ATOM     48  H32 UNL     1      16.009  -3.546  -9.544  1.00  0.00     0.157 HD
ATOM     49  H31 UNL     1      16.357  -4.446  -8.081  1.00  0.00     0.157 HD
ENDBRANCH   6  47
BRANCH   1  50
HETATM   50  N1  UNL     1      14.661  -8.802  -9.509  1.00  0.00    -0.234 N
ATOM     51  H12 UNL     1      14.439  -9.567 -10.146  1.00  0.00     0.174 HD
ATOM     52  H11 UNL     1      14.345  -8.785  -8.540  1.00  0.00     0.174 HD
ENDBRANCH   1  50
TORSDOF 15
ENDMDL