MODEL 2
REMARK VINA RESULT: -9.966964026      2.538      4.538
REMARK  12 active torsions:
REMARK  status: ('A' for Active; 'I' for Inactive)
REMARK    1  A    between atoms: N1_1  and  C1_5
REMARK    2  A    between atoms: C4_11  and  O2_12
REMARK    3  A    between atoms: C6_18  and  C7_19
REMARK    4  A    between atoms: C7_19  and  O3_20
REMARK    5  A    between atoms: O3_20  and  S1_21
REMARK    6  A    between atoms: S1_21  and  N4_24
REMARK       I    between atoms: N4_24  and  C8_26
REMARK    7  A    between atoms: C8_26  and  C9_28
REMARK    8  A    between atoms: C9_28  and  C10_29
REMARK    9  A    between atoms: C10_29  and  C11_30
REMARK   10  A    between atoms: C11_30  and  O8_32
REMARK   11  A    between atoms: O8_32  and  C12_33
REMARK   12  A    between atoms: C12_33  and  C13_34
ROOT
HETATM    1  S1  UNL     1      17.502  -4.283 -16.486  1.00  0.00     0.364 S
HETATM    2  O4  UNL     1      17.521  -4.294 -17.992  1.00  0.00    -0.175 OA
HETATM    3  O5  UNL     1      16.333  -3.441 -15.984  1.00  0.00    -0.175 OA
ENDROOT
BRANCH   1   4
HETATM    4  O3  UNL     1      18.944  -3.709 -15.928  1.00  0.00    -0.257 OA
BRANCH   4   5
HETATM    5  C7  UNL     1      19.014  -3.512 -14.572  1.00  0.00     0.225 C
BRANCH   5   6
HETATM    6  C6  UNL     1      20.310  -4.133 -14.011  1.00  0.00     0.219 C
HETATM    7  N3  UNL     1      20.773  -5.042 -15.012  1.00  0.00    -0.066 N
HETATM    8  C5  UNL     1      22.174  -4.840 -15.208  1.00  0.00     0.266 C
ATOM      9  H32 UNL     1      20.244  -4.968 -15.881  1.00  0.00     0.277 HD
ATOM     10  H31 UNL     1      20.547  -6.012 -14.791  1.00  0.00     0.277 HD
HETATM   11  C4  UNL     1      23.058  -5.799 -14.479  1.00  0.00     0.168 C
HETATM   12  C3  UNL     1      22.906  -5.794 -12.992  1.00  0.00     0.137 C
HETATM   13  N2  UNL     1      23.062  -4.461 -12.519  1.00  0.00    -0.350 N
HETATM   14  C21 UNL     1      21.805  -6.558 -12.397  1.00  0.00     0.143 C
HETATM   15  C2  UNL     1      22.224  -3.696 -11.679  1.00  0.00     0.249 C
ATOM     16  H2  UNL     1      23.908  -3.986 -12.836  1.00  0.00     0.163 HD
HETATM   17  C1  UNL     1      20.769  -3.691 -11.622  1.00  0.00     0.282 C
HETATM   18  O1  UNL     1      22.770  -2.904 -10.858  1.00  0.00    -0.271 OA
HETATM   19  C19 UNL     1      20.131  -4.639 -12.651  1.00  0.00     0.080 C
HETATM   20  C20 UNL     1      20.467  -6.008 -12.276  1.00  0.00     0.128 C
HETATM   21  N9  UNL     1      19.616  -7.052 -12.886  1.00  0.00    -0.123 NA
HETATM   22  N10 UNL     1      20.298  -8.246 -12.658  1.00  0.00    -0.039 NA
HETATM   23  N11 UNL     1      21.608  -7.862 -12.993  1.00  0.00    -0.121 NA
BRANCH  11  24
HETATM   24  O2  UNL     1      24.380  -5.330 -14.718  1.00  0.00    -0.392 OA
ATOM     25  H2  UNL     1      24.715  -5.879 -15.417  1.00  0.00     0.210 HD
ENDBRANCH  11  24
BRANCH  17  26
HETATM   26  N1  UNL     1      20.204  -3.893 -10.317  1.00  0.00    -0.066 N
ATOM     27  H13 UNL     1      20.947  -4.002  -9.627  1.00  0.00     0.275 HD
ATOM     28  H12 UNL     1      19.775  -3.030  -9.983  1.00  0.00     0.275 HD
ATOM     29  H11 UNL     1      19.542  -4.665 -10.243  1.00  0.00     0.275 HD
ENDBRANCH  17  26
ENDBRANCH   5   6
ENDBRANCH   4   5
ENDBRANCH   1   4
BRANCH   1  30
HETATM   30  N4  UNL     1      17.215  -5.877 -15.927  1.00  0.00    -0.231 N
HETATM   31  C8  UNL     1      16.001  -6.526 -16.284  1.00  0.00     0.233 C
HETATM   32  O6  UNL     1      15.167  -5.931 -17.002  1.00  0.00    -0.273 OA
ATOM     33  H4  UNL     1      17.905  -6.353 -15.348  1.00  0.00     0.183 HD
BRANCH  31  34
HETATM   34  C9  UNL     1      15.724  -7.903 -15.806  1.00  0.00     0.113 C
BRANCH  34  35
HETATM   35  C10 UNL     1      16.482  -8.142 -14.538  1.00  0.00     0.120 C
BRANCH  35  36
HETATM   36  C11 UNL     1      15.825  -7.528 -13.369  1.00  0.00     0.259 C
HETATM   37  O7  UNL     1      14.830  -8.101 -12.861  1.00  0.00    -0.265 OA
BRANCH  36  38
HETATM   38  O8  UNL     1      16.262  -6.358 -12.819  1.00  0.00    -0.315 OA
BRANCH  38  39
HETATM   39  C12 UNL     1      16.678  -6.131 -11.512  1.00  0.00     0.237 C
BRANCH  39  40
HETATM   40  C13 UNL     1      16.722  -7.330 -10.670  1.00  0.00     0.051 A
HETATM   41  C14 UNL     1      15.973  -7.442  -9.514  1.00  0.00     0.116 A
HETATM   42  N5  UNL     1      16.090  -8.584  -8.818  1.00  0.00    -0.356 N
HETATM   43  C15 UNL     1      16.892  -9.594  -9.201  1.00  0.00     0.145 A
ATOM     44  H5  UNL     1      15.547  -8.691  -7.961  1.00  0.00     0.165 HD
HETATM   45  C16 UNL     1      17.023 -10.768  -8.493  1.00  0.00     0.280 A
HETATM   46  C18 UNL     1      17.636  -9.467 -10.360  1.00  0.00     0.142 A
HETATM   47  O9  UNL     1      16.343 -10.884  -7.436  1.00  0.00    -0.265 OA
HETATM   48  N6  UNL     1      17.849 -11.750  -8.927  1.00  0.00    -0.273 N
HETATM   49  C17 UNL     1      18.569 -11.623 -10.052  1.00  0.00     0.328 A
ATOM     50  H6  UNL     1      17.926 -12.610  -8.384  1.00  0.00     0.173 HD
HETATM   51  O10 UNL     1      19.332 -12.540 -10.444  1.00  0.00    -0.247 OA
HETATM   52  N7  UNL     1      18.454 -10.483 -10.755  1.00  0.00    -0.292 N
ATOM     53  H7  UNL     1      18.996 -10.375 -11.612  1.00  0.00     0.172 HD
HETATM   54  N8  UNL     1      17.538  -8.337 -11.074  1.00  0.00    -0.341 N
ATOM     55  H8  UNL     1      18.081  -8.234 -11.931  1.00  0.00     0.167 HD
ENDBRANCH  39  40
ENDBRANCH  38  39
ENDBRANCH  36  38
ENDBRANCH  35  36
ENDBRANCH  34  35
ENDBRANCH  31  34
ENDBRANCH   1  30
TORSDOF 12
ENDMDL