MODEL 5
REMARK VINA RESULT: -9.848214975      1.566      2.503
REMARK  13 active torsions:
REMARK  status: ('A' for Active; 'I' for Inactive)
REMARK       I    between atoms: C1_2  and  N2_4
REMARK    1  A    between atoms: N2_4  and  N3_6
REMARK    2  A    between atoms: C2_8  and  C3_9
REMARK    3  A    between atoms: C2_8  and  C5_19
REMARK    4  A    between atoms: N4_11  and  N5_12
REMARK    5  A    between atoms: C5_19  and  N8_20
REMARK    6  A    between atoms: N8_20  and  N9_22
REMARK    7  A    between atoms: N9_22  and  C6_24
REMARK    8  A    between atoms: N11_32  and  C10_33
REMARK    9  A    between atoms: C13_36  and  S1_37
REMARK   10  A    between atoms: S1_37  and  N12_38
REMARK   11  A    between atoms: C17_47  and  O7_48
REMARK   12  A    between atoms: C17_47  and  C18_50
REMARK   13  A    between atoms: C19_51  and  O8_52
ROOT
HETATM    1  C5  UNL     1      17.544  -7.715 -11.132  1.00  0.00     0.113 C
HETATM    2  C17 UNL     1      16.746  -6.577 -10.802  1.00  0.00     0.116 C
ENDROOT
BRANCH   1   3
HETATM    3  C2  UNL     1      17.302  -8.962 -10.397  1.00  0.00     0.108 C
HETATM    4  N3  UNL     1      16.440  -8.940  -9.471  1.00  0.00    -0.292 N
ATOM      5  H3  UNL     1      15.944  -8.049  -9.442  1.00  0.00     0.187 HD
BRANCH   4   6
HETATM    6  N2  UNL     1      16.004  -9.779  -8.517  1.00  0.00    -0.254 N
HETATM    7  C1  UNL     1      14.626  -9.837  -8.078  1.00  0.00     0.347 C
HETATM    8  N1  UNL     1      14.253 -10.749  -7.061  1.00  0.00    -0.038 NA
HETATM    9  O1  UNL     1      13.797  -9.061  -8.628  1.00  0.00    -0.249 OA
ATOM     10  H2  UNL     1      16.678 -10.406  -8.079  1.00  0.00     0.191 HD
ENDBRANCH   4   6
BRANCH   3  11
HETATM   11  C3  UNL     1      18.130 -10.149 -10.618  1.00  0.00     0.099 A
HETATM   12  C4  UNL     1      19.395 -10.240 -11.068  1.00  0.00     0.170 A
HETATM   13  N4  UNL     1      19.750 -11.559 -11.081  1.00  0.00    -0.198 N
HETATM   14  N6  UNL     1      18.689 -12.214 -10.641  1.00  0.00    -0.222 N
HETATM   15  N7  UNL     1      17.711 -11.421 -10.356  1.00  0.00    -0.281 N
ATOM     16  H6  UNL     1      18.648 -13.228 -10.538  1.00  0.00     0.210 HD
ATOM     17  H7  UNL     1      16.794 -11.695 -10.002  1.00  0.00     0.188 HD
BRANCH  13  18
HETATM   18  N5  UNL     1      20.985 -12.070 -11.481  1.00  0.00    -0.323 N
ATOM     19  H52 UNL     1      21.740 -11.595 -11.977  1.00  0.00     0.179 HD
ATOM     20  H51 UNL     1      21.316 -13.022 -11.328  1.00  0.00     0.179 HD
ENDBRANCH  13  18
ENDBRANCH   3  11
ENDBRANCH   1   3
BRANCH   1  21
HETATM   21  N8  UNL     1      18.305  -7.807 -12.305  1.00  0.00    -0.296 N
ATOM     22  H8  UNL     1      18.209  -8.617 -12.917  1.00  0.00     0.187 HD
BRANCH  21  23
HETATM   23  N9  UNL     1      19.176  -6.809 -12.623  1.00  0.00    -0.309 N
ATOM     24  H9  UNL     1      20.019  -6.772 -12.050  1.00  0.00     0.186 HD
BRANCH  23  25
HETATM   25  C6  UNL     1      19.091  -5.826 -13.615  1.00  0.00     0.142 C
HETATM   26  C7  UNL     1      18.222  -5.822 -14.617  1.00  0.00     0.121 A
HETATM   27  N10 UNL     1      17.249  -6.837 -14.804  1.00  0.00    -0.313 N
HETATM   28  C16 UNL     1      18.276  -4.738 -15.602  1.00  0.00     0.283 A
HETATM   29  C8  UNL     1      16.362  -6.797 -15.913  1.00  0.00     0.315 A
ATOM     30  H10 UNL     1      17.185  -7.605 -14.134  1.00  0.00     0.169 HD
HETATM   31  O2  UNL     1      15.490  -7.717 -16.071  1.00  0.00    -0.262 OA
HETATM   32  C9  UNL     1      16.459  -5.702 -16.856  1.00  0.00     0.323 A
HETATM   33  O3  UNL     1      15.683  -5.635 -17.856  1.00  0.00    -0.261 OA
HETATM   34  N11 UNL     1      17.412  -4.651 -16.725  1.00  0.00    -0.239 N
HETATM   35  O6  UNL     1      19.146  -3.812 -15.450  1.00  0.00    -0.265 OA
BRANCH  34  36
HETATM   36  C10 UNL     1      17.473  -3.591 -17.695  1.00  0.00     0.046 A
HETATM   37  C11 UNL     1      16.743  -2.440 -17.591  1.00  0.00     0.032 A
HETATM   38  C12 UNL     1      16.864  -1.475 -18.569  1.00  0.00     0.027 A
HETATM   39  C13 UNL     1      17.690  -1.626 -19.641  1.00  0.00     0.079 A
HETATM   40  C14 UNL     1      18.434  -2.792 -19.750  1.00  0.00     0.027 A
HETATM   41  C15 UNL     1      18.303  -3.733 -18.779  1.00  0.00     0.032 A
BRANCH  39  42
HETATM   42  S1  UNL     1      17.873  -0.442 -20.905  1.00  0.00     0.256 S
HETATM   43  O4  UNL     1      19.098  -0.686 -21.745  1.00  0.00    -0.201 OA
HETATM   44  O5  UNL     1      16.623  -0.445 -21.731  1.00  0.00    -0.201 OA
BRANCH  42  45
HETATM   45  N12 UNL     1      17.978   1.115 -20.138  1.00  0.00    -0.324 N
ATOM     46 2H12 UNL     1      18.829   1.538 -19.767  1.00  0.00     0.169 HD
ATOM     47 1H12 UNL     1      17.039   1.512 -20.133  1.00  0.00     0.169 HD
ENDBRANCH  42  45
ENDBRANCH  39  42
ENDBRANCH  34  36
ENDBRANCH  23  25
ENDBRANCH  21  23
ENDBRANCH   1  21
BRANCH   2  48
HETATM   48  O7  UNL     1      17.397  -5.431 -10.824  1.00  0.00    -0.357 OA
ATOM     49  H7  UNL     1      17.504  -5.025  -9.972  1.00  0.00     0.217 HD
ENDBRANCH   2  48
BRANCH   2  50
HETATM   50  C18 UNL     1      15.368  -6.401 -10.451  1.00  0.00     0.121 A
HETATM   51  C19 UNL     1      14.853  -5.521  -9.483  1.00  0.00     0.173 A
HETATM   52  N13 UNL     1      13.512  -5.538  -9.504  1.00  0.00    -0.276 N
HETATM   53  N14 UNL     1      13.137  -6.380 -10.433  1.00  0.00    -0.264 N
ATOM     54  H13 UNL     1      12.894  -4.992  -8.903  1.00  0.00     0.189 HD
HETATM   55  C20 UNL     1      14.253  -6.923 -11.031  1.00  0.00     0.277 A
ATOM     56  H14 UNL     1      12.171  -6.600 -10.676  1.00  0.00     0.190 HD
HETATM   57  O9  UNL     1      14.086  -7.759 -11.964  1.00  0.00    -0.266 OA
BRANCH  51  58
HETATM   58  O8  UNL     1      15.606  -4.727  -8.607  1.00  0.00    -0.344 OA
ATOM     59  H8  UNL     1      15.258  -4.152  -7.936  1.00  0.00     0.219 HD
ENDBRANCH  51  58
ENDBRANCH   2  50
TORSDOF 13
ENDMDL