MODEL 5
REMARK VINA RESULT: -10.653670897      5.885     10.740
REMARK  12 active torsions:
REMARK  status: ('A' for Active; 'I' for Inactive)
REMARK    1  A    between atoms: N1_1  and  C1_4
REMARK       I    between atoms: N3_12  and  C5_13
REMARK    2  A    between atoms: C5_13  and  C6_15
REMARK    3  A    between atoms: C6_15  and  O4_16
REMARK    4  A    between atoms: O4_16  and  C7_17
REMARK    5  A    between atoms: C8_20  and  N5_21
REMARK    6  A    between atoms: N5_21  and  C9_23
REMARK    7  A    between atoms: C11_25  and  O5_26
REMARK    8  A    between atoms: C12_28  and  N6_29
REMARK    9  A    between atoms: C14_31  and  C15_32
REMARK   10  A    between atoms: C19_43  and  N9_44
REMARK   11  A    between atoms: N9_44  and  C20_46
REMARK   12  A    between atoms: C20_46  and  C21_47
ROOT
HETATM    1  C7  UNL     1      18.630  -6.456 -14.387  1.00  0.00     0.252 A
HETATM    2  N4  UNL     1      19.718  -5.748 -14.094  1.00  0.00    -0.154 N
ATOM      3  H4  UNL     1      20.448  -6.163 -13.516  1.00  0.00     0.188 HD
HETATM    4  C8  UNL     1      19.872  -4.465 -14.561  1.00  0.00     0.696 A
HETATM    5  N8  UNL     1      18.926  -3.903 -15.320  1.00  0.00    -0.022 N
ATOM      6  H8  UNL     1      19.042  -2.950 -15.665  1.00  0.00     0.203 HD
HETATM    7  C19 UNL     1      17.802  -4.615 -15.629  1.00  0.00     0.696 A
HETATM    8  N11 UNL     1      17.675  -5.868 -15.161  1.00  0.00    -0.154 N
ATOM      9  H11 UNL     1      16.835  -6.397 -15.394  1.00  0.00     0.188 HD
ENDROOT
BRANCH   1  10
HETATM   10  O4  UNL     1      18.420  -7.738 -13.953  1.00  0.00    -0.312 OA
BRANCH  10  11
HETATM   11  C6  UNL     1      17.978  -8.132 -12.694  1.00  0.00     0.282 C
BRANCH  11  12
HETATM   12  C5  UNL     1      16.518  -8.332 -12.624  1.00  0.00     0.256 C
HETATM   13  N3  UNL     1      15.638  -7.559 -11.815  1.00  0.00    -0.242 N
HETATM   14  C4  UNL     1      16.029  -6.549 -11.030  1.00  0.00     0.275 A
HETATM   15  C22 UNL     1      14.296  -7.817 -11.807  1.00  0.00     0.196 A
HETATM   16  C3  UNL     1      15.142  -5.803 -10.254  1.00  0.00     0.145 A
HETATM   17  O2  UNL     1      17.234  -6.230 -10.965  1.00  0.00    -0.266 OA
HETATM   18  C2  UNL     1      15.558  -4.770  -9.453  1.00  0.00     0.279 A
HETATM   19  C23 UNL     1      13.802  -6.111 -10.288  1.00  0.00     0.143 A
HETATM   20  N2  UNL     1      14.686  -4.046  -8.696  1.00  0.00    -0.155 N
HETATM   21  O1  UNL     1      16.779  -4.495  -9.427  1.00  0.00    -0.266 OA
HETATM   22  C1  UNL     1      13.381  -4.369  -8.750  1.00  0.00     0.680 A
ATOM     23  H2  UNL     1      15.013  -3.281  -8.107  1.00  0.00     0.187 HD
HETATM   24  N13 UNL     1      12.946  -5.384  -9.533  1.00  0.00    -0.176 N
ATOM     25  H13 UNL     1      11.950  -5.606  -9.554  1.00  0.00     0.186 HD
HETATM   26  N12 UNL     1      13.421  -7.115 -11.069  1.00  0.00    -0.337 N
ATOM     27  H12 UNL     1      12.432  -7.360 -11.110  1.00  0.00     0.168 HD
HETATM   28  O3  UNL     1      15.991  -9.262 -13.334  1.00  0.00    -0.270 OA
BRANCH  22  29
HETATM   29  N1  UNL     1      12.555  -3.678  -8.031  1.00  0.00    -0.234 N
ATOM     30  H12 UNL     1      12.584  -2.659  -8.030  1.00  0.00     0.174 HD
ATOM     31  H11 UNL     1      11.875  -4.186  -7.464  1.00  0.00     0.174 HD
ENDBRANCH  22  29
ENDBRANCH  11  12
ENDBRANCH  10  11
ENDBRANCH   1  10
BRANCH   4  32
HETATM   32  N5  UNL     1      20.929  -3.798 -14.262  1.00  0.00    -0.221 N
ATOM     33  H5  UNL     1      21.826  -4.156 -14.588  1.00  0.00     0.178 HD
BRANCH  32  34
HETATM   34  C9  UNL     1      20.931  -2.601 -13.510  1.00  0.00     0.103 C
HETATM   35  C10 UNL     1      22.004  -1.607 -13.941  1.00  0.00     0.059 C
HETATM   36  C11 UNL     1      22.190  -0.725 -12.708  1.00  0.00     0.143 C
HETATM   37  C12 UNL     1      21.512  -1.462 -11.560  1.00  0.00     0.124 C
HETATM   38  C18 UNL     1      21.408  -2.866 -12.062  1.00  0.00     0.054 C
BRANCH  36  39
HETATM   39  O5  UNL     1      21.573   0.506 -12.954  1.00  0.00    -0.393 OA
ATOM     40  H5  UNL     1      20.777   0.548 -12.438  1.00  0.00     0.210 HD
ENDBRANCH  36  39
BRANCH  37  41
HETATM   41  N6  UNL     1      22.245  -1.281 -10.350  1.00  0.00    -0.301 N
HETATM   42  C13 UNL     1      23.539  -0.879 -10.453  1.00  0.00     0.116 A
HETATM   43  C14 UNL     1      24.276  -0.691  -9.309  1.00  0.00     0.085 A
HETATM   44  C16 UNL     1      23.711  -0.907  -8.062  1.00  0.00     0.264 A
HETATM   45  O7  UNL     1      24.364  -0.742  -6.999  1.00  0.00    -0.267 OA
HETATM   46  N7  UNL     1      22.440  -1.300  -8.036  1.00  0.00    -0.275 N
HETATM   47  C17 UNL     1      21.701  -1.489  -9.163  1.00  0.00     0.329 A
ATOM     48  H7  UNL     1      22.000  -1.467  -7.130  1.00  0.00     0.173 HD
HETATM   49  O8  UNL     1      20.520  -1.860  -8.969  1.00  0.00    -0.246 OA
BRANCH  43  50
HETATM   50  C15 UNL     1      25.652  -0.263  -9.418  1.00  0.00     0.277 C
HETATM   51  O6  UNL     1      25.976   0.965  -9.336  1.00  0.00    -0.301 OA
ENDBRANCH  43  50
ENDBRANCH  37  41
ENDBRANCH  32  34
ENDBRANCH   4  32
BRANCH   7  52
HETATM   52  N9  UNL     1      16.917  -4.032 -16.360  1.00  0.00    -0.217 N
ATOM     53  H9  UNL     1      16.443  -3.193 -16.027  1.00  0.00     0.178 HD
BRANCH  52  54
HETATM   54  C20 UNL     1      16.603  -4.583 -17.657  1.00  0.00     0.237 C
BRANCH  54  55
HETATM   55  C21 UNL     1      15.288  -5.262 -17.629  1.00  0.00     0.249 C
HETATM   56  N10 UNL     1      15.081  -6.429 -16.861  1.00  0.00    -0.061 NA
HETATM   57  O9  UNL     1      14.345  -4.791 -18.297  1.00  0.00    -0.275 OA
ENDBRANCH  54  55
ENDBRANCH  52  54
ENDBRANCH   7  52
TORSDOF 12
ENDMDL