MODEL 4
REMARK VINA RESULT: -8.707352706      3.947     10.292
REMARK  14 active torsions:
REMARK  status: ('A' for Active; 'I' for Inactive)
REMARK    1  A    between atoms: C2_2  and  S1_3
REMARK    2  A    between atoms: S1_3  and  C3_4
REMARK    3  A    between atoms: C4_7  and  C5_8
REMARK    4  A    between atoms: C8_13  and  C9_14
REMARK    5  A    between atoms: C10_17  and  O3_18
REMARK    6  A    between atoms: C10_17  and  C11_20
REMARK    7  A    between atoms: C11_20  and  O4_21
REMARK    8  A    between atoms: N3_24  and  N4_26
REMARK       I    between atoms: N4_26  and  C13_28
REMARK    9  A    between atoms: C13_28  and  C14_30
REMARK   10  A    between atoms: C14_30  and  N5_31
REMARK   11  A    between atoms: N5_31  and  S3_33
REMARK   12  A    between atoms: N7_40  and  C16_42
REMARK   13  A    between atoms: C19_47  and  N9_48
REMARK   14  A    between atoms: N9_48  and  N10_50
ROOT
HETATM    1  C5  UNL     1      20.747  -4.696 -12.470  1.00  0.00     0.072 C
HETATM    2  C6  UNL     1      20.389  -5.938 -12.305  1.00  0.00     0.055 A
HETATM    3  S2  UNL     1      21.558  -7.228 -12.344  1.00  0.00     0.012 SA
HETATM    4  N2  UNL     1      20.102  -7.964 -12.072  1.00  0.00    -0.113 N
HETATM    5  C7  UNL     1      19.352  -6.815 -12.078  1.00  0.00     0.099 A
HETATM    6  C8  UNL     1      18.009  -6.739 -11.936  1.00  0.00     0.092 C
HETATM    7  C10 UNL     1      17.005  -7.821 -11.691  1.00  0.00     0.174 C
HETATM    8  C12 UNL     1      17.441  -8.989 -10.929  1.00  0.00     0.154 C
HETATM    9  N3  UNL     1      16.703  -9.322  -9.926  1.00  0.00    -0.283 N
ATOM     10  H3  UNL     1      15.868  -8.781  -9.700  1.00  0.00     0.188 HD
HETATM   11  N6  UNL     1      18.591  -9.806 -11.191  1.00  0.00    -0.175 N
ATOM     12  H6  UNL     1      18.579 -10.771 -10.863  1.00  0.00     0.185 HD
HETATM   13  C15 UNL     1      19.754  -9.345 -11.887  1.00  0.00     0.693 C
HETATM   14  N7  UNL     1      20.529 -10.259 -12.363  1.00  0.00    -0.220 N
ATOM     15  H7  UNL     1      21.370  -9.962 -12.858  1.00  0.00     0.178 HD
ENDROOT
BRANCH   1  16
HETATM   16  C4  UNL     1      22.203  -4.393 -12.699  1.00  0.00     0.124 A
HETATM   17  N1  UNL     1      22.937  -3.884 -11.693  1.00  0.00    -0.322 N
HETATM   18  C3  UNL     1      24.252  -3.602 -11.875  1.00  0.00     0.161 A
ATOM     19  H1  UNL     1      22.502  -3.709 -10.787  1.00  0.00     0.169 HD
HETATM   20  N11 UNL     1      24.737  -3.865 -13.099  1.00  0.00    -0.169 N
HETATM   21  C19 UNL     1      24.048  -4.364 -14.111  1.00  0.00     0.700 A
ATOM     22  H11 UNL     1      25.724  -3.663 -13.262  1.00  0.00     0.186 HD
HETATM   23  N8  UNL     1      22.726  -4.642 -13.907  1.00  0.00    -0.175 N
ATOM     24  H8  UNL     1      22.151  -5.029 -14.656  1.00  0.00     0.186 HD
BRANCH  18  25
HETATM   25  S1  UNL     1      25.325  -2.934 -10.644  1.00  0.00    -0.094 SA
BRANCH  25  26
HETATM   26  C2  UNL     1      24.865  -3.424  -8.969  1.00  0.00     0.078 C
HETATM   27  C1  UNL     1      24.482  -2.159  -8.219  1.00  0.00     0.016 C
ENDBRANCH  25  26
ENDBRANCH  18  25
BRANCH  21  28
HETATM   28  N9  UNL     1      24.497  -4.620 -15.280  1.00  0.00    -0.138 N
ATOM     29  H9  UNL     1      24.991  -3.887 -15.790  1.00  0.00     0.205 HD
BRANCH  28  30
HETATM   30  N10 UNL     1      24.336  -5.863 -15.878  1.00  0.00    -0.331 N
ATOM     31 2H10 UNL     1      23.463  -6.363 -15.712  1.00  0.00     0.177 HD
ATOM     32 1H10 UNL     1      25.056  -6.279 -16.468  1.00  0.00     0.177 HD
ENDBRANCH  28  30
ENDBRANCH  21  28
ENDBRANCH   1  16
BRANCH   6  33
HETATM   33  C9  UNL     1      17.372  -5.439 -12.032  1.00  0.00     0.211 C
HETATM   34  O1  UNL     1      17.196  -4.990 -13.246  1.00  0.00    -0.644 OA
HETATM   35  O2  UNL     1      16.933  -4.623 -11.061  1.00  0.00    -0.644 OA
ENDBRANCH   6  33
BRANCH   7  36
HETATM   36  O3  UNL     1      15.885  -7.296 -11.026  1.00  0.00    -0.374 OA
ATOM     37  H3  UNL     1      15.213  -7.962 -10.944  1.00  0.00     0.211 HD
ENDBRANCH   7  36
BRANCH   7  38
HETATM   38  C11 UNL     1      16.487  -8.335 -13.032  1.00  0.00     0.215 C
BRANCH  38  39
HETATM   39  O4  UNL     1      15.763  -9.506 -12.821  1.00  0.00    -0.397 OA
ATOM     40  H4  UNL     1      14.972  -9.298 -12.337  1.00  0.00     0.209 HD
ENDBRANCH  38  39
ENDBRANCH   7  38
BRANCH  14  41
HETATM   41  C16 UNL     1      20.283 -11.662 -12.241  1.00  0.00     0.099 A
HETATM   42  C17 UNL     1      21.360 -12.683 -12.303  1.00  0.00     0.028 A
HETATM   43  C18 UNL     1      20.767 -12.341 -10.986  1.00  0.00     0.028 A
ENDBRANCH  14  41
BRANCH   9  44
HETATM   44  N4  UNL     1      17.057 -10.425  -9.155  1.00  0.00    -0.267 N
HETATM   45  C13 UNL     1      16.327 -10.781  -7.992  1.00  0.00     0.254 C
HETATM   46  O5  UNL     1      15.334 -10.054  -7.676  1.00  0.00    -0.270 OA
ATOM     47  H4  UNL     1      17.860 -10.990  -9.432  1.00  0.00     0.190 HD
BRANCH  45  48
HETATM   48  C14 UNL     1      16.702 -11.957  -7.167  1.00  0.00     0.239 C
BRANCH  48  49
HETATM   49  N5  UNL     1      15.961 -13.141  -7.603  1.00  0.00    -0.292 N
ATOM     50  H5  UNL     1      16.080 -13.590  -8.511  1.00  0.00     0.175 HD
BRANCH  49  51
HETATM   51  S3  UNL     1      14.874 -13.675  -6.404  1.00  0.00     0.204 S
HETATM   52  O6  UNL     1      14.239 -14.986  -6.707  1.00  0.00    -0.578 OA
HETATM   53  O7  UNL     1      15.627 -13.798  -5.090  1.00  0.00    -0.578 OA
HETATM   54  O8  UNL     1      13.643 -12.555  -6.124  1.00  0.00    -0.578 OA
ENDBRANCH  49  51
ENDBRANCH  48  49
ENDBRANCH  45  48
ENDBRANCH   9  44
TORSDOF 14
ENDMDL