MODEL 1
REMARK VINA RESULT: -9.579035472      0.000      0.000
REMARK  13 active torsions:
REMARK  status: ('A' for Active; 'I' for Inactive)
REMARK    1  A    between atoms: N1_1  and  C1_4
REMARK    2  A    between atoms: N4_12  and  C5_13
REMARK    3  A    between atoms: C5_13  and  C6_14
REMARK       I    between atoms: C6_14  and  N5_16
REMARK       I    between atoms: N5_16  and  C7_18
REMARK    4  A    between atoms: C7_18  and  C8_20
REMARK    5  A    between atoms: N6_24  and  C12_25
REMARK    6  A    between atoms: C12_25  and  C13_26
REMARK    7  A    between atoms: C13_26  and  C14_28
REMARK    8  A    between atoms: C17_38  and  N10_39
REMARK    9  A    between atoms: C19_41  and  O4_42
REMARK   10  A    between atoms: C20_44  and  O5_45
REMARK   11  A    between atoms: O5_45  and  S1_46
REMARK   12  A    between atoms: S1_46  and  N11_47
REMARK   13  A    between atoms: C21_52  and  O8_53
ROOT
HETATM    1  C1  UNL     1      14.881  -5.405  -9.400  1.00  0.00     0.679 A
HETATM    2  N2  UNL     1      14.934  -6.570  -8.746  1.00  0.00    -0.174 N
ATOM      3  H2  UNL     1      14.479  -6.632  -7.835  1.00  0.00     0.186 HD
HETATM    4  C2  UNL     1      15.553  -7.663  -9.222  1.00  0.00     0.155 A
HETATM    5  C3  UNL     1      16.166  -7.532 -10.476  1.00  0.00     0.124 A
HETATM    6  N3  UNL     1      16.726  -8.719 -10.759  1.00  0.00    -0.346 N
ATOM      7  H3  UNL     1      17.247  -8.951 -11.604  1.00  0.00     0.167 HD
HETATM    8  C4  UNL     1      16.478  -9.545  -9.733  1.00  0.00     0.185 A
HETATM    9  N4  UNL     1      15.756  -8.915  -8.772  1.00  0.00    -0.318 N
HETATM   10  C17 UNL     1      16.123  -6.340 -11.166  1.00  0.00     0.165 A
HETATM   11  N13 UNL     1      15.482  -5.310 -10.607  1.00  0.00    -0.173 N
ATOM     12  H13 UNL     1      15.444  -4.422 -11.109  1.00  0.00     0.186 HD
ENDROOT
BRANCH   9  13
HETATM   13  C5  UNL     1      15.304  -9.483  -7.504  1.00  0.00     0.234 C
BRANCH  13  14
HETATM   14  C6  UNL     1      14.376 -10.608  -7.746  1.00  0.00     0.242 C
HETATM   15  O1  UNL     1      13.221 -10.319  -8.207  1.00  0.00    -0.271 OA
HETATM   16  N5  UNL     1      14.675 -11.973  -7.507  1.00  0.00    -0.294 N
HETATM   17  C7  UNL     1      15.882 -12.474  -6.976  1.00  0.00     0.258 C
ATOM     18  H5  UNL     1      13.952 -12.655  -7.740  1.00  0.00     0.171 HD
HETATM   19  O2  UNL     1      16.781 -11.666  -6.711  1.00  0.00    -0.271 OA
BRANCH  17  20
HETATM   20  C8  UNL     1      16.016 -13.929  -6.761  1.00  0.00     0.315 C
HETATM   21  C9  UNL     1      15.703 -14.289  -5.311  1.00  0.00     0.047 C
HETATM   22  C10 UNL     1      16.720 -15.352  -4.932  1.00  0.00     0.033 C
HETATM   23  C11 UNL     1      17.186 -15.793  -6.331  1.00  0.00     0.274 C
HETATM   24  N6  UNL     1      17.325 -14.459  -6.955  1.00  0.00     0.109 N
BRANCH  24  25
HETATM   25  C12 UNL     1      17.663 -14.617  -8.361  1.00  0.00     0.358 C
BRANCH  25  26
HETATM   26  C13 UNL     1      19.098 -14.463  -8.581  1.00  0.00     0.205 C
HETATM   27  O3  UNL     1      19.965 -15.136  -7.966  1.00  0.00    -0.289 OA
BRANCH  26  28
HETATM   28  C14 UNL     1      19.612 -13.501  -9.547  1.00  0.00     0.112 A
HETATM   29  C15 UNL     1      19.038 -12.281  -9.833  1.00  0.00     0.140 A
HETATM   30  N7  UNL     1      19.764 -11.640 -10.764  1.00  0.00    -0.200 N
HETATM   31  C16 UNL     1      20.802 -12.449 -11.073  1.00  0.00     0.676 A
ATOM     32  H7  UNL     1      19.569 -10.720 -11.162  1.00  0.00     0.183 HD
HETATM   33  N8  UNL     1      21.713 -12.158 -11.929  1.00  0.00    -0.234 N
HETATM   34  N9  UNL     1      20.704 -13.567 -10.337  1.00  0.00    -0.187 N
ATOM     35  H82 UNL     1      21.788 -11.308 -12.488  1.00  0.00     0.174 HD
ATOM     36  H81 UNL     1      22.497 -12.768 -12.161  1.00  0.00     0.174 HD
ATOM     37  H9  UNL     1      21.357 -14.349 -10.370  1.00  0.00     0.184 HD
ENDBRANCH  26  28
ENDBRANCH  25  26
ENDBRANCH  24  25
ENDBRANCH  17  20
ENDBRANCH  13  14
ENDBRANCH   9  13
BRANCH   1  38
HETATM   38  N1  UNL     1      14.278  -4.372  -8.931  1.00  0.00    -0.234 N
ATOM     39  H12 UNL     1      14.414  -4.132  -7.948  1.00  0.00     0.174 HD
ATOM     40  H11 UNL     1      13.673  -3.781  -9.501  1.00  0.00     0.174 HD
ENDBRANCH   1  38
BRANCH  10  41
HETATM   41  N10 UNL     1      16.756  -6.228 -12.460  1.00  0.00    -0.273 N
HETATM   42  C18 UNL     1      17.978  -5.513 -12.584  1.00  0.00     0.181 C
HETATM   43  C19 UNL     1      18.922  -6.059 -13.619  1.00  0.00     0.172 C
HETATM   44  C20 UNL     1      18.306  -7.104 -14.500  1.00  0.00     0.220 C
HETATM   45  C21 UNL     1      16.863  -6.655 -14.751  1.00  0.00     0.264 C
HETATM   46  N12 UNL     1      16.107  -6.804 -13.541  1.00  0.00    -0.102 NA
BRANCH  43  47
HETATM   47  O4  UNL     1      19.400  -4.983 -14.386  1.00  0.00    -0.391 OA
ATOM     48  H4  UNL     1      20.349  -5.004 -14.364  1.00  0.00     0.210 HD
ENDBRANCH  43  47
BRANCH  44  49
HETATM   49  O5  UNL     1      18.234  -8.329 -13.870  1.00  0.00    -0.247 OA
BRANCH  49  50
HETATM   50  S1  UNL     1      19.650  -8.826 -13.148  1.00  0.00     0.356 S
HETATM   51  O6  UNL     1      19.460  -8.682 -11.659  1.00  0.00    -0.176 OA
HETATM   52  O7  UNL     1      19.793 -10.307 -13.410  1.00  0.00    -0.176 OA
BRANCH  50  53
HETATM   53  N11 UNL     1      21.032  -7.973 -13.635  1.00  0.00    -0.306 N
ATOM     54 2H11 UNL     1      21.001  -7.282 -14.384  1.00  0.00     0.171 HD
ATOM     55 1H11 UNL     1      21.882  -8.209 -13.122  1.00  0.00     0.171 HD
ENDBRANCH  50  53
ENDBRANCH  49  50
ENDBRANCH  44  49
BRANCH  45  56
HETATM   56  O8  UNL     1      16.349  -7.427 -15.783  1.00  0.00    -0.375 OA
ATOM     57  H8  UNL     1      15.792  -8.094 -15.400  1.00  0.00     0.211 HD
ENDBRANCH  45  56
ENDBRANCH  10  41
TORSDOF 13
ENDMDL