MODEL 4
REMARK VINA RESULT: -6.324764321      3.382      5.397
REMARK  6 active torsions:
REMARK  status: ('A' for Active; 'I' for Inactive)
REMARK    1  A    between atoms: N1_1  and  N2_4
REMARK       I    between atoms: N2_4  and  C1_6
REMARK    2  A    between atoms: C1_6  and  C2_8
REMARK    3  A    between atoms: C2_8  and  C3_9
REMARK    4  A    between atoms: C2_8  and  N3_12
REMARK    5  A    between atoms: C5_17  and  C6_18
REMARK    6  A    between atoms: C8_22  and  N6_23
ROOT
HETATM    1  N3  UNL     1       3.175  22.426   4.918  1.00  0.00    -0.227 N
HETATM    2  C4  UNL     1       4.427  22.738   5.497  1.00  0.00     0.332 C
HETATM    3  O4  UNL     1       5.261  23.176   4.670  1.00  0.00    -0.246 OA
HETATM    4  N4  UNL     1       4.935  22.658   6.821  1.00  0.00    -0.304 N
ATOM      5  H4  UNL     1       5.913  22.947   6.861  1.00  0.00     0.171 HD
HETATM    6  C5  UNL     1       4.454  22.287   8.103  1.00  0.00     0.101 C
HETATM    7  C7  UNL     1       3.227  21.996   8.518  1.00  0.00     0.061 C
HETATM    8  C8  UNL     1       1.843  21.865   8.124  1.00  0.00     0.311 C
HETATM    9  N7  UNL     1       1.515  21.665   6.772  1.00  0.00    -0.311 N
ATOM     10  H7  UNL     1       0.581  21.257   6.729  1.00  0.00     0.166 HD
HETATM   11  C9  UNL     1       1.991  21.817   5.444  1.00  0.00     0.329 C
HETATM   12  O6  UNL     1       1.246  21.329   4.539  1.00  0.00    -0.247 OA
ENDROOT
BRANCH   1  13
HETATM   13  C2  UNL     1       3.041  22.783   3.510  1.00  0.00     0.293 C
BRANCH  13  14
HETATM   14  C1  UNL     1       2.971  24.229   3.306  1.00  0.00     0.269 C
HETATM   15  N2  UNL     1       3.188  24.929   2.118  1.00  0.00    -0.274 N
ATOM     16  H2  UNL     1       3.423  24.402   1.276  1.00  0.00     0.189 HD
HETATM   17  O1  UNL     1       2.678  24.950   4.327  1.00  0.00    -0.269 OA
BRANCH  15  18
HETATM   18  N1  UNL     1       3.097  26.332   2.032  1.00  0.00    -0.343 N
ATOM     19  H12 UNL     1       3.518  26.879   2.783  1.00  0.00     0.176 HD
ATOM     20  H11 UNL     1       2.633  26.809   1.259  1.00  0.00     0.176 HD
ENDBRANCH  15  18
ENDBRANCH  13  14
BRANCH  13  21
HETATM   21  C3  UNL     1       3.950  22.030   2.648  1.00  0.00     0.207 C
HETATM   22  O2  UNL     1       3.971  20.782   2.695  1.00  0.00    -0.646 OA
HETATM   23  O3  UNL     1       4.819  22.640   1.759  1.00  0.00    -0.646 OA
ENDBRANCH  13  21
ENDBRANCH   1  13
BRANCH   6  24
HETATM   24  C6  UNL     1       5.475  22.213   9.137  1.00  0.00     0.281 C
HETATM   25  N5  UNL     1       6.583  21.346   8.955  1.00  0.00    -0.056 NA
HETATM   26  O5  UNL     1       5.415  22.890  10.191  1.00  0.00    -0.269 OA
ENDBRANCH   6  24
BRANCH   8  27
HETATM   27  N6  UNL     1       1.270  20.737   8.883  1.00  0.00    -0.055 N
ATOM     28  H63 UNL     1       0.251  20.711   8.848  1.00  0.00     0.277 HD
ATOM     29  H62 UNL     1       1.441  19.833   8.443  1.00  0.00     0.277 HD
ATOM     30  H61 UNL     1       1.634  20.791   9.835  1.00  0.00     0.277 HD
ENDBRANCH   8  27
TORSDOF 6
ENDMDL