MODEL 3
REMARK VINA RESULT: -7.009470588      2.095      5.963
REMARK  7 active torsions:
REMARK  status: ('A' for Active; 'I' for Inactive)
REMARK    1  A    between atoms: C2_3  and  N2_4
REMARK    2  A    between atoms: N2_4  and  O1_6
REMARK       I    between atoms: N3_8  and  C3_9
REMARK       I    between atoms: C3_9  and  N4_11
REMARK    3  A    between atoms: N4_11  and  C4_13
REMARK    4  A    between atoms: C4_13  and  C5_14
REMARK    5  A    between atoms: C5_14  and  O3_15
REMARK    6  A    between atoms: C5_14  and  C6_17
REMARK    7  A    between atoms: C8_23  and  N7_24
ROOT
HETATM    1  C1  UNL     1       5.202  17.231   3.239  1.00  0.00     0.176 C
HETATM    2  N1  UNL     1       5.151  18.632   2.888  1.00  0.00    -0.176 N
HETATM    3  C2  UNL     1       4.213  19.499   3.234  1.00  0.00     0.716 A
HETATM    4  N3  UNL     1       4.498  20.753   2.714  1.00  0.00    -0.076 N
HETATM    5  C3  UNL     1       3.678  21.879   2.908  1.00  0.00     0.343 C
HETATM    6  O2  UNL     1       2.606  21.638   3.593  1.00  0.00    -0.246 OA
HETATM    7  N4  UNL     1       3.871  23.183   2.468  1.00  0.00    -0.339 N
ATOM      8  H4  UNL     1       4.730  23.372   1.952  1.00  0.00     0.164 HD
HETATM    9  C7  UNL     1       5.651  20.626   2.033  1.00  0.00     0.182 A
HETATM   10  N6  UNL     1       6.428  21.461   1.318  1.00  0.00    -0.173 N
ATOM     11  H6  UNL     1       6.175  22.443   1.206  1.00  0.00     0.186 HD
HETATM   12  C8  UNL     1       7.553  20.966   0.750  1.00  0.00     0.680 A
HETATM   13  N8  UNL     1       7.965  19.702   0.840  1.00  0.00    -0.154 N
ATOM     14  H8  UNL     1       8.825  19.397   0.385  1.00  0.00     0.187 HD
HETATM   15  C9  UNL     1       7.223  18.847   1.539  1.00  0.00     0.291 A
HETATM   16  O5  UNL     1       7.541  17.638   1.672  1.00  0.00    -0.265 OA
HETATM   17  C10 UNL     1       6.057  19.287   2.146  1.00  0.00     0.165 A
ENDROOT
BRANCH   3  18
HETATM   18  N2  UNL     1       3.095  19.172   4.018  1.00  0.00    -0.098 N
ATOM     19  H2  UNL     1       2.252  18.846   3.547  1.00  0.00     0.213 HD
BRANCH  18  20
HETATM   20  O1  UNL     1       3.082  19.263   5.275  1.00  0.00    -0.276 OA
ATOM     21  H1  UNL     1       2.358  19.638   5.763  1.00  0.00     0.245 HD
ENDBRANCH  18  20
ENDBRANCH   3  18
BRANCH   7  22
HETATM   22  C4  UNL     1       2.972  24.302   2.671  1.00  0.00     0.165 C
BRANCH  22  23
HETATM   23  C5  UNL     1       3.365  25.157   3.822  1.00  0.00     0.224 C
BRANCH  23  24
HETATM   24  O3  UNL     1       2.522  25.124   4.875  1.00  0.00    -0.385 OA
ATOM     25  H3  UNL     1       1.619  24.919   4.663  1.00  0.00     0.210 HD
ENDBRANCH  23  24
BRANCH  23  26
HETATM   26  C6  UNL     1       4.736  24.815   4.319  1.00  0.00     0.261 C
HETATM   27  N5  UNL     1       4.881  23.987   5.442  1.00  0.00    -0.060 NA
HETATM   28  O4  UNL     1       5.729  25.274   3.723  1.00  0.00    -0.274 OA
ENDBRANCH  23  26
ENDBRANCH  22  23
ENDBRANCH   7  22
BRANCH  12  29
HETATM   29  N7  UNL     1       8.305  21.774   0.059  1.00  0.00    -0.234 N
ATOM     30  H72 UNL     1       8.875  21.349  -0.672  1.00  0.00     0.174 HD
ATOM     31  H71 UNL     1       8.283  22.769   0.282  1.00  0.00     0.174 HD
ENDBRANCH  12  29
TORSDOF 7
ENDMDL