MODEL 2
REMARK VINA RESULT: -6.992675460      0.709      1.023
REMARK  6 active torsions:
REMARK  status: ('A' for Active; 'I' for Inactive)
REMARK    1  A    between atoms: N1_1  and  S1_4
REMARK    2  A    between atoms: S1_4  and  N2_7
REMARK       I    between atoms: N2_7  and  C1_9
REMARK       I    between atoms: C1_9  and  N3_11
REMARK    3  A    between atoms: N3_11  and  N4_13
REMARK    4  A    between atoms: N4_13  and  S2_15
REMARK    5  A    between atoms: S2_15  and  N5_18
REMARK    6  A    between atoms: N5_18  and  C2_20
ROOT
HETATM    1  N4  UNL     1       3.847  23.408   2.179  1.00  0.00    -0.205 N
ATOM      2  H4  UNL     1       3.480  23.465   1.229  1.00  0.00     0.202 HD
ENDROOT
BRANCH   1   3
HETATM    3  N3  UNL     1       4.241  22.211   2.742  1.00  0.00    -0.240 N
HETATM    4  C1  UNL     1       5.202  21.420   2.072  1.00  0.00     0.350 C
HETATM    5  N2  UNL     1       5.665  20.178   2.566  1.00  0.00    -0.218 N
HETATM    6  O3  UNL     1       5.663  21.858   0.972  1.00  0.00    -0.244 OA
ATOM      7  H2  UNL     1       5.300  19.823   3.449  1.00  0.00     0.185 HD
ATOM      8  H3  UNL     1       3.844  21.902   3.629  1.00  0.00     0.192 HD
BRANCH   5   9
HETATM    9  S1  UNL     1       6.825  19.262   1.709  1.00  0.00     0.320 S
HETATM   10  O1  UNL     1       6.161  18.504   0.565  1.00  0.00    -0.183 OA
HETATM   11  O2  UNL     1       7.527  18.269   2.555  1.00  0.00    -0.183 OA
BRANCH   9  12
HETATM   12  N1  UNL     1       8.003  20.315   0.996  1.00  0.00    -0.311 N
ATOM     13  H12 UNL     1       7.931  20.759   0.081  1.00  0.00     0.170 HD
ATOM     14  H11 UNL     1       8.769  20.396   1.664  1.00  0.00     0.170 HD
ENDBRANCH   9  12
ENDBRANCH   5   9
ENDBRANCH   1   3
BRANCH   1  15
HETATM   15  S2  UNL     1       4.013  24.792   3.178  1.00  0.00     0.350 S
HETATM   16  O4  UNL     1       5.433  24.995   3.550  1.00  0.00    -0.180 OA
HETATM   17  O5  UNL     1       3.450  25.972   2.377  1.00  0.00    -0.180 OA
BRANCH  15  18
HETATM   18  N5  UNL     1       2.989  24.507   4.564  1.00  0.00    -0.097 N
ATOM     19  H5  UNL     1       2.079  24.964   4.620  1.00  0.00     0.199 HD
BRANCH  18  20
HETATM   20  C2  UNL     1       3.402  23.658   5.601  1.00  0.00     0.711 A
HETATM   21  N6  UNL     1       2.663  23.044   6.532  1.00  0.00    -0.127 N
HETATM   22  N7  UNL     1       3.477  22.316   7.310  1.00  0.00    -0.237 N
ATOM     23  H6  UNL     1       1.651  23.117   6.633  1.00  0.00     0.205 HD
HETATM   24  C3  UNL     1       4.733  22.467   6.879  1.00  0.00     0.353 A
ATOM     25  H7  UNL     1       3.186  21.742   8.100  1.00  0.00     0.192 HD
HETATM   26  O6  UNL     1       5.783  21.916   7.385  1.00  0.00    -0.245 OA
HETATM   27  N8  UNL     1       4.698  23.293   5.828  1.00  0.00    -0.138 N
ATOM     28  H8  UNL     1       5.506  23.599   5.285  1.00  0.00     0.189 HD
ENDBRANCH  18  20
ENDBRANCH  15  18
ENDBRANCH   1  15
TORSDOF 6
ENDMDL