MODEL 2
REMARK VINA RESULT: -6.994417003      2.355      3.930
REMARK  6 active torsions:
REMARK  status: ('A' for Active; 'I' for Inactive)
REMARK    1  A    between atoms: N1_2  and  C2_5
REMARK    2  A    between atoms: C2_5  and  C3_6
REMARK    3  A    between atoms: C3_6  and  S1_7
REMARK    4  A    between atoms: S1_7  and  N2_8
REMARK    5  A    between atoms: S1_7  and  C4_12
REMARK    6  A    between atoms: C8_23  and  N6_24
REMARK       I    between atoms: N6_24  and  C9_26
ROOT
HETATM    1  C4  UNL     1       4.735  20.588   2.623  1.00  0.00     0.122 A
HETATM    2  C5  UNL     1       5.540  21.490   2.046  1.00  0.00     0.117 A
HETATM    3  N3  UNL     1       5.543  22.777   2.522  1.00  0.00    -0.345 N
ATOM      4  H3  UNL     1       6.144  23.486   2.103  1.00  0.00     0.167 HD
HETATM    5  C6  UNL     1       4.736  23.083   3.550  1.00  0.00     0.202 A
HETATM    6  C7  UNL     1       4.717  24.377   4.052  1.00  0.00     0.305 A
HETATM    7  O2  UNL     1       5.470  25.206   3.507  1.00  0.00    -0.263 OA
HETATM    8  N4  UNL     1       3.903  24.669   5.083  1.00  0.00    -0.249 N
ATOM      9  H4  UNL     1       3.896  25.622   5.446  1.00  0.00     0.191 HD
HETATM   10  N5  UNL     1       3.112  23.772   5.644  1.00  0.00    -0.128 N
ATOM     11  H5  UNL     1       2.506  24.023   6.425  1.00  0.00     0.205 HD
HETATM   12  C8  UNL     1       3.129  22.519   5.159  1.00  0.00     0.710 A
HETATM   13  N9  UNL     1       3.931  22.179   4.125  1.00  0.00    -0.087 N
HETATM   14  C10 UNL     1       3.932  20.899   3.649  1.00  0.00     0.289 A
HETATM   15  O3  UNL     1       3.167  20.108   4.220  1.00  0.00    -0.265 OA
ENDROOT
BRANCH   1  16
HETATM   16  S1  UNL     1       4.727  18.689   2.005  1.00  0.00     0.058 S
HETATM   17  O1  UNL     1       6.175  18.605   3.256  1.00  0.00    -0.245 OA
BRANCH  16  18
HETATM   18  C3  UNL     1       5.879  18.174   0.671  1.00  0.00     0.150 C
BRANCH  18  19
HETATM   19  C2  UNL     1       7.335  18.062   1.168  1.00  0.00     0.245 C
BRANCH  19  20
HETATM   20  N1  UNL     1       8.089  19.240   0.815  1.00  0.00    -0.078 N
HETATM   21  C1  UNL     1       8.848  18.930  -0.382  1.00  0.00     0.267 C
ATOM     22  H12 UNL     1       8.673  19.583   1.579  1.00  0.00     0.276 HD
ATOM     23  H11 UNL     1       7.506  20.070   0.712  1.00  0.00     0.276 HD
ENDBRANCH  19  20
ENDBRANCH  18  19
ENDBRANCH  16  18
BRANCH  16  24
HETATM   24  N2  UNL     1       3.923  17.490   3.192  1.00  0.00    -0.356 N
ATOM     25  H22 UNL     1       4.459  17.219   4.017  1.00  0.00     0.166 HD
ATOM     26  H21 UNL     1       2.990  17.102   3.053  1.00  0.00     0.166 HD
ENDBRANCH  16  24
ENDBRANCH   1  16
BRANCH  12  27
HETATM   27  N6  UNL     1       2.370  21.613   5.682  1.00  0.00    -0.162 N
HETATM   28  C9  UNL     1       2.387  21.278   7.050  1.00  0.00     0.200 C
HETATM   29  N7  UNL     1       3.316  20.505   7.508  1.00  0.00    -0.373 N
HETATM   30  N8  UNL     1       1.422  21.749   7.973  1.00  0.00    -0.063 NA
ATOM     31  H72 UNL     1       4.011  20.166   6.843  1.00  0.00     0.158 HD
ATOM     32  H71 UNL     1       3.328  20.263   8.499  1.00  0.00     0.158 HD
ATOM     33  H6  UNL     1       1.723  21.114   5.071  1.00  0.00     0.187 HD
ENDBRANCH  12  27
TORSDOF 6
ENDMDL