MODEL 1
REMARK VINA RESULT: -6.701851132      0.000      0.000
REMARK  8 active torsions:
REMARK  status: ('A' for Active; 'I' for Inactive)
REMARK    1  A    between atoms: N1_2  and  N2_4
REMARK    2  A    between atoms: C2_6  and  N3_7
REMARK    3  A    between atoms: C2_6  and  C3_12
REMARK    4  A    between atoms: N3_7  and  N4_9
REMARK       I    between atoms: C3_12  and  N5_14
REMARK    5  A    between atoms: N5_14  and  N6_16
REMARK       I    between atoms: N6_16  and  C4_18
REMARK    6  A    between atoms: C4_18  and  C5_20
REMARK    7  A    between atoms: C5_20  and  C6_21
REMARK    8  A    between atoms: C9_30  and  C10_31
ROOT
HETATM    1  N6  UNL     1       1.662  20.418   3.604  1.00  0.00    -0.267 N
ATOM      2  H6  UNL     1       2.635  20.193   3.815  1.00  0.00     0.190 HD
HETATM    3  C4  UNL     1       1.153  21.585   4.184  1.00  0.00     0.241 C
HETATM    4  O2  UNL     1      -0.034  21.958   3.994  1.00  0.00    -0.271 OA
ENDROOT
BRANCH   1   5
HETATM    5  N5  UNL     1       0.988  19.531   2.771  1.00  0.00    -0.261 N
HETATM    6  C3  UNL     1       1.637  18.801   1.741  1.00  0.00     0.306 C
HETATM    7  O1  UNL     1       2.871  18.980   1.595  1.00  0.00    -0.262 OA
ATOM      8  H5  UNL     1      -0.014  19.400   2.906  1.00  0.00     0.190 HD
BRANCH   6   9
HETATM    9  C2  UNL     1       0.916  17.878   0.884  1.00  0.00     0.204 C
HETATM   10  N2  UNL     1      -0.152  17.303   1.280  1.00  0.00    -0.285 N
ATOM     11  H2  UNL     1      -0.453  17.531   2.227  1.00  0.00     0.188 HD
BRANCH  10  12
HETATM   12  N1  UNL     1      -0.946  16.419   0.596  1.00  0.00    -0.339 N
HETATM   13  C1  UNL     1      -2.396  16.568   0.787  1.00  0.00     0.167 C
ATOM     14  H1  UNL     1      -0.554  15.699  -0.010  1.00  0.00     0.179 HD
ENDBRANCH  10  12
BRANCH   9  15
HETATM   15  N3  UNL     1       1.389  17.604  -0.426  1.00  0.00    -0.286 N
ATOM     16  H3  UNL     1       1.537  16.645  -0.740  1.00  0.00     0.188 HD
BRANCH  15  17
HETATM   17  N4  UNL     1       1.647  18.682  -1.273  1.00  0.00    -0.343 N
ATOM     18  H42 UNL     1       1.350  19.621  -1.008  1.00  0.00     0.176 HD
ATOM     19  H41 UNL     1       2.134  18.500  -2.150  1.00  0.00     0.176 HD
ENDBRANCH  15  17
ENDBRANCH   9  15
ENDBRANCH   6   9
ENDBRANCH   1   5
BRANCH   3  20
HETATM   20  C5  UNL     1       2.024  22.424   5.054  1.00  0.00     0.163 C
BRANCH  20  21
HETATM   21  C6  UNL     1       2.781  23.389   4.259  1.00  0.00     0.041 A
HETATM   22  N7  UNL     1       2.227  24.226   3.350  1.00  0.00    -0.311 N
HETATM   23  C7  UNL     1       2.998  25.087   2.674  1.00  0.00     0.327 A
ATOM     24  H7  UNL     1       1.222  24.199   3.179  1.00  0.00     0.170 HD
HETATM   25  O3  UNL     1       2.415  25.848   1.832  1.00  0.00    -0.247 OA
HETATM   26  N8  UNL     1       4.327  25.199   2.826  1.00  0.00    -0.275 N
HETATM   27  C8  UNL     1       4.912  24.385   3.720  1.00  0.00     0.264 A
ATOM     28  H8  UNL     1       4.869  25.872   2.286  1.00  0.00     0.173 HD
HETATM   29  O4  UNL     1       6.157  24.482   3.869  1.00  0.00    -0.267 OA
HETATM   30  C9  UNL     1       4.160  23.474   4.446  1.00  0.00     0.093 A
BRANCH  30  31
HETATM   31  C10 UNL     1       4.819  22.611   5.397  1.00  0.00     0.277 C
HETATM   32  O5  UNL     1       5.036  21.405   5.102  1.00  0.00    -0.301 OA
ENDBRANCH  30  31
ENDBRANCH  20  21
ENDBRANCH   3  20
TORSDOF 8
ENDMDL