MODEL 4
REMARK VINA RESULT: -6.702633001      1.901      6.774
REMARK  5 active torsions:
REMARK  status: ('A' for Active; 'I' for Inactive)
REMARK       I    between atoms: C1_2  and  N2_4
REMARK    1  A    between atoms: N2_4  and  N3_5
REMARK    2  A    between atoms: N3_5  and  C2_6
REMARK    3  A    between atoms: C2_6  and  C3_7
REMARK    4  A    between atoms: C2_6  and  C4_10
REMARK    5  A    between atoms: C3_7  and  O2_8
REMARK       I    between atoms: C4_10  and  N4_12
ROOT
HETATM    1  C4  UNL     1       5.813  19.864   1.585  1.00  0.00     0.247 C
HETATM    2  O3  UNL     1       6.627  20.733   1.088  1.00  0.00    -0.271 OA
HETATM    3  N4  UNL     1       4.841  20.213   2.444  1.00  0.00    -0.307 N
ATOM      4  H4  UNL     1       4.599  19.367   2.959  1.00  0.00     0.170 HD
HETATM    5  C5  UNL     1       4.122  21.090   2.878  1.00  0.00     0.179 C
HETATM    6  N5  UNL     1       4.266  22.341   2.326  1.00  0.00    -0.322 N
ATOM      7  H5  UNL     1       4.847  22.384   1.489  1.00  0.00     0.169 HD
HETATM    8  C6  UNL     1       3.752  23.519   2.731  1.00  0.00     0.140 A
HETATM    9  N6  UNL     1       3.750  24.670   2.012  1.00  0.00    -0.337 N
ATOM     10  H6  UNL     1       4.139  24.784   1.077  1.00  0.00     0.168 HD
HETATM   11  C7  UNL     1       3.141  25.652   2.745  1.00  0.00     0.182 A
HETATM   12  N7  UNL     1       2.766  25.115   3.911  1.00  0.00    -0.345 N
ATOM     13  H7  UNL     1       2.285  25.614   4.661  1.00  0.00     0.167 HD
HETATM   14  C8  UNL     1       3.120  23.821   3.944  1.00  0.00     0.146 A
HETATM   15  C9  UNL     1       2.883  22.932   4.937  1.00  0.00     0.279 C
HETATM   16  O4  UNL     1       2.664  23.511   6.067  1.00  0.00    -0.265 OA
HETATM   17  N8  UNL     1       2.845  21.587   4.934  1.00  0.00    -0.285 N
ATOM     18  H8  UNL     1       2.528  21.115   5.781  1.00  0.00     0.172 HD
HETATM   19  C10 UNL     1       3.209  20.806   3.851  1.00  0.00     0.292 C
HETATM   20  O5  UNL     1       2.623  19.697   3.755  1.00  0.00    -0.264 OA
ENDROOT
BRANCH   1  21
HETATM   21  C2  UNL     1       6.043  18.475   1.139  1.00  0.00     0.229 C
BRANCH  21  22
HETATM   22  N3  UNL     1       4.908  17.583   1.476  1.00  0.00    -0.041 NA
BRANCH  22  23
HETATM   23  N2  UNL     1       4.956  17.203   2.777  1.00  0.00    -0.276 NA
HETATM   24  C1  UNL     1       4.998  16.831   4.073  1.00  0.00     0.420 C
HETATM   25  N1  UNL     1       5.693  15.624   4.526  1.00  0.00    -0.024 NA
HETATM   26  O1  UNL     1       4.462  17.433   5.026  1.00  0.00    -0.233 OA
ENDBRANCH  22  23
ENDBRANCH  21  22
BRANCH  21  27
HETATM   27  C3  UNL     1       7.349  17.890   1.521  1.00  0.00     0.198 C
BRANCH  27  28
HETATM   28  O2  UNL     1       7.891  18.399   2.712  1.00  0.00    -0.399 OA
ATOM     29  H2  UNL     1       7.610  17.948   3.500  1.00  0.00     0.209 HD
ENDBRANCH  27  28
ENDBRANCH  21  27
ENDBRANCH   1  21
TORSDOF 5
ENDMDL