MODEL 3
REMARK VINA RESULT: -7.235550804      3.489      5.241
REMARK  7 active torsions:
REMARK  status: ('A' for Active; 'I' for Inactive)
REMARK    1  A    between atoms: N1_1  and  C1_5
REMARK    2  A    between atoms: C1_5  and  C2_6
REMARK       I    between atoms: C2_6  and  N2_8
REMARK    3  A    between atoms: N2_8  and  N3_9
REMARK    4  A    between atoms: N3_9  and  C3_11
REMARK    5  A    between atoms: C4_14  and  C5_15
REMARK    6  A    between atoms: C5_15  and  N5_16
REMARK       I    between atoms: N5_16  and  C6_18
REMARK       I    between atoms: C6_18  and  N6_20
REMARK    7  A    between atoms: N6_20  and  C7_22
ROOT
HETATM    1  C3  UNL     1       1.847  22.293   4.777  1.00  0.00     0.712 A
HETATM    2  N4  UNL     1       1.908  21.093   4.183  1.00  0.00    -0.176 N
ATOM      3  H4  UNL     1       1.767  21.020   3.176  1.00  0.00     0.185 HD
HETATM    4  C4  UNL     1       2.153  19.987   4.905  1.00  0.00     0.119 A
HETATM    5  N11 UNL     1       2.329  20.176   6.240  1.00  0.00    -0.296 N
ATOM      6  H11 UNL     1       2.519  19.357   6.818  1.00  0.00     0.172 HD
HETATM    7  C8  UNL     1       2.268  21.369   6.844  1.00  0.00     0.340 A
HETATM    8  O3  UNL     1       2.438  21.462   8.080  1.00  0.00    -0.246 OA
HETATM    9  N12 UNL     1       2.024  22.458   6.111  1.00  0.00    -0.139 N
ATOM     10  H12 UNL     1       1.972  23.381   6.539  1.00  0.00     0.189 HD
ENDROOT
BRANCH   4  11
HETATM   11  C5  UNL     1       2.256  18.604   4.312  1.00  0.00     0.201 C
BRANCH  11  12
HETATM   12  N5  UNL     1       3.654  18.434   3.929  1.00  0.00    -0.335 N
HETATM   13  C6  UNL     1       4.150  18.867   2.684  1.00  0.00     0.334 C
HETATM   14  O2  UNL     1       3.372  19.474   1.865  1.00  0.00    -0.246 OA
HETATM   15  N6  UNL     1       5.466  18.656   2.283  1.00  0.00    -0.139 N
ATOM     16  H6  UNL     1       5.804  17.704   2.419  1.00  0.00     0.189 HD
ATOM     17  H5  UNL     1       4.294  17.987   4.586  1.00  0.00     0.164 HD
BRANCH  15  18
HETATM   18  C7  UNL     1       6.310  19.447   1.781  1.00  0.00     0.717 A
HETATM   19  N7  UNL     1       7.626  19.334   1.499  1.00  0.00    -0.115 N
HETATM   20  N8  UNL     1       8.041  20.520   1.044  1.00  0.00    -0.213 N
ATOM     21  H7  UNL     1       8.197  18.497   1.611  1.00  0.00     0.207 HD
HETATM   22  N9  UNL     1       7.047  21.385   1.022  1.00  0.00    -0.213 N
ATOM     23  H8  UNL     1       8.996  20.728   0.755  1.00  0.00     0.210 HD
HETATM   24  N10 UNL     1       6.004  20.729   1.467  1.00  0.00    -0.115 N
ATOM     25  H9  UNL     1       7.081  22.359   0.721  1.00  0.00     0.210 HD
ATOM     26  H10 UNL     1       5.074  21.135   1.565  1.00  0.00     0.207 HD
ENDBRANCH  15  18
ENDBRANCH  11  12
ENDBRANCH   4  11
BRANCH   1  27
HETATM   27  N3  UNL     1       1.615  23.377   4.075  1.00  0.00    -0.061 N
ATOM     28  H3  UNL     1       0.666  23.582   3.762  1.00  0.00     0.221 HD
BRANCH  27  29
HETATM   29  N2  UNL     1       2.610  24.215   3.768  1.00  0.00    -0.270 NA
HETATM   30  C2  UNL     1       3.597  25.045   3.464  1.00  0.00     0.338 C
HETATM   31  O1  UNL     1       3.638  25.987   2.589  1.00  0.00    -0.253 OA
BRANCH  30  32
HETATM   32  C1  UNL     1       4.927  24.930   4.229  1.00  0.00     0.350 C
BRANCH  32  33
HETATM   33  N1  UNL     1       5.866  24.199   3.415  1.00  0.00    -0.070 N
ATOM     34  H13 UNL     1       5.584  24.157   2.436  1.00  0.00     0.274 HD
ATOM     35  H12 UNL     1       6.744  24.700   3.288  1.00  0.00     0.274 HD
ATOM     36  H11 UNL     1       5.999  23.274   3.823  1.00  0.00     0.274 HD
ENDBRANCH  32  33
ENDBRANCH  30  32
ENDBRANCH  27  29
ENDBRANCH   1  27
TORSDOF 7
ENDMDL