MODEL 2
REMARK VINA RESULT: -6.721623485      2.884      5.281
REMARK  8 active torsions:
REMARK  status: ('A' for Active; 'I' for Inactive)
REMARK    1  A    between atoms: C2_2  and  N1_3
REMARK    2  A    between atoms: C8_18  and  O3_19
REMARK    3  A    between atoms: C8_18  and  C9_21
REMARK    4  A    between atoms: C9_21  and  N4_22
REMARK    5  A    between atoms: C9_21  and  C10_26
REMARK    6  A    between atoms: C10_26  and  N5_27
REMARK    7  A    between atoms: C10_26  and  C11_31
REMARK    8  A    between atoms: C11_31  and  C12_33
ROOT
HETATM    1  C1  UNL     1       2.681  24.133   3.228  1.00  0.00     0.050 C
HETATM    2  C2  UNL     1       4.125  23.895   3.399  1.00  0.00     0.164 C
HETATM    3  C3  UNL     1       4.634  23.363   2.047  1.00  0.00     0.101 C
HETATM    4  C4  UNL     1       4.821  21.928   2.284  1.00  0.00     0.041 A
HETATM    5  N2  UNL     1       4.982  20.909   1.441  1.00  0.00    -0.321 N
ATOM      6  H2  UNL     1       4.979  21.101   0.439  1.00  0.00     0.169 HD
HETATM    7  C5  UNL     1       5.146  19.638   1.848  1.00  0.00     0.314 A
HETATM    8  O1  UNL     1       5.298  18.674   1.058  1.00  0.00    -0.262 OA
HETATM    9  C6  UNL     1       5.144  19.412   3.198  1.00  0.00     0.314 A
HETATM   10  O2  UNL     1       5.292  18.250   3.642  1.00  0.00    -0.262 OA
HETATM   11  N3  UNL     1       4.979  20.452   4.071  1.00  0.00    -0.318 N
ATOM     12  H3  UNL     1       4.979  20.270   5.075  1.00  0.00     0.169 HD
HETATM   13  C7  UNL     1       4.819  21.701   3.630  1.00  0.00     0.074 A
HETATM   14  C8  UNL     1       4.624  22.983   4.403  1.00  0.00     0.165 C
ENDROOT
BRANCH  14  15
HETATM   15  O3  UNL     1       5.945  23.324   4.793  1.00  0.00    -0.379 OA
ATOM     16  H3  UNL     1       6.408  22.567   5.132  1.00  0.00     0.211 HD
ENDBRANCH  14  15
BRANCH  14  17
HETATM   17  C9  UNL     1       3.883  22.684   5.634  1.00  0.00     0.264 C
BRANCH  17  18
HETATM   18  N4  UNL     1       3.025  23.677   6.158  1.00  0.00    -0.069 N
ATOM     19  H43 UNL     1       3.469  24.589   6.055  1.00  0.00     0.275 HD
ATOM     20  H42 UNL     1       2.220  23.781   5.540  1.00  0.00     0.275 HD
ATOM     21  H41 UNL     1       2.697  23.575   7.119  1.00  0.00     0.275 HD
ENDBRANCH  17  18
BRANCH  17  22
HETATM   22  C10 UNL     1       4.706  21.997   6.736  1.00  0.00     0.295 C
BRANCH  22  23
HETATM   23  N5  UNL     1       5.376  22.921   7.577  1.00  0.00    -0.066 N
ATOM     24  H53 UNL     1       5.748  22.458   8.405  1.00  0.00     0.275 HD
ATOM     25  H52 UNL     1       6.250  23.233   7.155  1.00  0.00     0.275 HD
ATOM     26  H51 UNL     1       4.790  23.716   7.835  1.00  0.00     0.275 HD
ENDBRANCH  22  23
BRANCH  22  27
HETATM   27  C11 UNL     1       3.840  21.157   7.599  1.00  0.00     0.246 C
HETATM   28  O4  UNL     1       2.676  20.887   7.139  1.00  0.00    -0.285 OA
BRANCH  27  29
HETATM   29  C12 UNL     1       4.211  20.632   8.901  1.00  0.00     0.302 C
HETATM   30  N6  UNL     1       3.913  21.376  10.054  1.00  0.00    -0.054 NA
HETATM   31  O5  UNL     1       4.789  19.522   8.958  1.00  0.00    -0.268 OA
ENDBRANCH  27  29
ENDBRANCH  22  27
ENDBRANCH  17  22
ENDBRANCH  14  17
BRANCH   2  32
HETATM   32  N1  UNL     1       4.760  25.200   3.527  1.00  0.00    -0.067 N
ATOM     33  H13 UNL     1       4.155  25.899   3.958  1.00  0.00     0.275 HD
ATOM     34  H12 UNL     1       5.500  25.219   4.229  1.00  0.00     0.275 HD
ATOM     35  H11 UNL     1       5.082  25.468   2.598  1.00  0.00     0.275 HD
ENDBRANCH   2  32
TORSDOF 8
ENDMDL