MODEL 3
REMARK VINA RESULT: -6.751224092      3.285      6.380
REMARK  2 active torsions:
REMARK  status: ('A' for Active; 'I' for Inactive)
REMARK    1  A    between atoms: N1_2  and  C3_5
REMARK    2  A    between atoms: C4_6  and  C5_7
REMARK       I    between atoms: N5_13  and  C7_15
REMARK       I    between atoms: N7_17  and  C8_19
REMARK       I    between atoms: C8_19  and  N8_20
REMARK       I    between atoms: C8_19  and  N9_24
ROOT
HETATM    1  C1  UNL     1       2.781  22.561   8.289  1.00  0.00     0.169 C
HETATM    2  N1  UNL     1       3.695  22.313   7.177  1.00  0.00    -0.282 N
HETATM    3  C2  UNL     1       5.027  22.069   7.631  1.00  0.00     0.184 C
HETATM    4  N2  UNL     1       6.113  21.877   8.034  1.00  0.00    -0.172 NA
ENDROOT
BRANCH   2   5
HETATM    5  C3  UNL     1       3.372  22.319   5.817  1.00  0.00     0.144 C
HETATM    6  C4  UNL     1       3.436  21.132   5.123  1.00  0.00     0.133 C
HETATM    7  N4  UNL     1       4.074  20.917   3.916  1.00  0.00    -0.332 N
HETATM    8  C6  UNL     1       4.319  21.847   2.966  1.00  0.00     0.178 C
ATOM      9  H4  UNL     1       4.390  19.966   3.725  1.00  0.00     0.168 HD
HETATM   10  N5  UNL     1       4.977  21.466   1.930  1.00  0.00    -0.312 N
HETATM   11  C9  UNL     1       3.951  23.172   2.961  1.00  0.00     0.292 C
HETATM   12  C7  UNL     1       5.432  20.130   1.776  1.00  0.00     0.192 C
ATOM     13  H5  UNL     1       5.177  22.144   1.195  1.00  0.00     0.170 HD
HETATM   14  N6  UNL     1       4.510  19.195   1.233  1.00  0.00    -0.063 NA
HETATM   15  N7  UNL     1       6.594  19.736   2.091  1.00  0.00    -0.315 N
HETATM   16  C8  UNL     1       7.093  18.404   1.953  1.00  0.00     0.482 C
ATOM     17  H7  UNL     1       7.231  20.432   2.478  1.00  0.00     0.166 HD
HETATM   18  N8  UNL     1       6.861  17.895   0.623  1.00  0.00    -0.033 N
HETATM   19  N9  UNL     1       6.473  17.477   2.887  1.00  0.00    -0.033 N
ATOM     20  H83 UNL     1       5.876  17.956   0.364  1.00  0.00     0.278 HD
ATOM     21  H82 UNL     1       7.247  18.516  -0.088  1.00  0.00     0.278 HD
ATOM     22  H81 UNL     1       7.216  16.945   0.524  1.00  0.00     0.278 HD
ATOM     23  H93 UNL     1       6.567  17.806   3.848  1.00  0.00     0.278 HD
ATOM     24  H92 UNL     1       5.457  17.498   2.806  1.00  0.00     0.278 HD
ATOM     25  H91 UNL     1       6.829  16.526   2.789  1.00  0.00     0.278 HD
HETATM   26  O2  UNL     1       4.190  23.774   1.897  1.00  0.00    -0.264 OA
HETATM   27  N10 UNL     1       3.372  23.922   3.929  1.00  0.00    -0.285 N
HETATM   28  C10 UNL     1       3.087  23.549   5.209  1.00  0.00     0.278 C
ATOM     29  H10 UNL     1       3.120  24.876   3.671  1.00  0.00     0.172 HD
HETATM   30  O3  UNL     1       2.512  24.377   5.934  1.00  0.00    -0.265 OA
BRANCH   6  31
HETATM   31  C5  UNL     1       2.719  20.024   5.694  1.00  0.00     0.284 C
HETATM   32  N3  UNL     1       3.450  18.915   6.202  1.00  0.00    -0.056 NA
HETATM   33  O1  UNL     1       1.485  19.982   5.770  1.00  0.00    -0.269 OA
ENDBRANCH   6  31
ENDBRANCH   2   5
TORSDOF 2
ENDMDL