MODEL 1
REMARK VINA RESULT: -7.150196422      0.000      0.000
REMARK  6 active torsions:
REMARK  status: ('A' for Active; 'I' for Inactive)
REMARK    1  A    between atoms: C2_3  and  C3_4
REMARK    2  A    between atoms: C3_4  and  C5_12
REMARK    3  A    between atoms: N2_5  and  N3_7
REMARK       I    between atoms: C5_12  and  N6_14
REMARK    4  A    between atoms: N6_14  and  C6_16
REMARK    5  A    between atoms: C6_16  and  C7_17
REMARK    6  A    between atoms: C8_20  and  O3_21
ROOT
HETATM    1  C3  UNL     1       3.495  22.082   4.737  1.00  0.00     0.146 C
HETATM    2  N2  UNL     1       3.168  23.233   4.421  1.00  0.00    -0.291 N
ATOM      3  H2  UNL     1       3.113  23.760   5.293  1.00  0.00     0.187 HD
ENDROOT
BRANCH   1   4
HETATM    4  C2  UNL     1       3.701  21.794   6.159  1.00  0.00     0.111 A
HETATM    5  N1  UNL     1       2.548  21.583   6.891  1.00  0.00    -0.299 N
HETATM    6  C1  UNL     1       1.254  21.356   6.301  1.00  0.00     0.161 C
HETATM    7  C10 UNL     1       2.647  21.602   8.246  1.00  0.00     0.329 A
HETATM    8  N8  UNL     1       3.799  21.814   8.892  1.00  0.00    -0.273 N
HETATM    9  O5  UNL     1       1.570  21.404   8.917  1.00  0.00    -0.246 OA
HETATM   10  C9  UNL     1       4.926  22.016   8.231  1.00  0.00     0.285 A
ATOM     11  H8  UNL     1       3.808  21.821   9.912  1.00  0.00     0.173 HD
HETATM   12  C8  UNL     1       4.878  22.001   6.830  1.00  0.00     0.164 A
HETATM   13  O4  UNL     1       6.030  22.220   8.843  1.00  0.00    -0.265 OA
BRANCH  12  14
HETATM   14  O3  UNL     1       6.102  22.175   6.215  1.00  0.00    -0.354 OA
ATOM     15  H3  UNL     1       6.468  23.021   5.983  1.00  0.00     0.218 HD
ENDBRANCH  12  14
ENDBRANCH   1   4
BRANCH   1  16
HETATM   16  C5  UNL     1       3.834  21.131   3.715  1.00  0.00     0.272 C
HETATM   17  O1  UNL     1       3.113  20.951   2.696  1.00  0.00    -0.266 OA
HETATM   18  N6  UNL     1       5.016  20.290   3.738  1.00  0.00    -0.347 N
ATOM     19  H6  UNL     1       5.662  20.374   4.523  1.00  0.00     0.163 HD
BRANCH  18  20
HETATM   20  C6  UNL     1       5.312  19.347   2.700  1.00  0.00     0.222 C
BRANCH  20  21
HETATM   21  C7  UNL     1       6.219  18.262   3.054  1.00  0.00     0.248 C
HETATM   22  N7  UNL     1       7.533  18.057   2.592  1.00  0.00    -0.061 NA
HETATM   23  O2  UNL     1       5.777  17.396   3.877  1.00  0.00    -0.275 OA
ENDBRANCH  20  21
ENDBRANCH  18  20
ENDBRANCH   1  16
BRANCH   2  24
HETATM   24  N3  UNL     1       2.860  24.075   3.469  1.00  0.00    -0.275 N
HETATM   25  C4  UNL     1       3.668  24.967   3.014  1.00  0.00     0.215 C
HETATM   26  N4  UNL     1       4.995  25.167   3.471  1.00  0.00    -0.065 NA
HETATM   27  N5  UNL     1       3.193  25.808   1.980  1.00  0.00    -0.065 NA
ATOM     28  H3  UNL     1       1.926  24.022   3.065  1.00  0.00     0.189 HD
ENDBRANCH   2  24
TORSDOF 6
ENDMDL