MODEL 1
REMARK VINA RESULT: -8.557252204      0.000      0.000
REMARK  6 active torsions:
REMARK  status: ('A' for Active; 'I' for Inactive)
REMARK    1  A    between atoms: C2_2  and  C3_4
REMARK    2  A    between atoms: C4_7  and  N2_8
REMARK    3  A    between atoms: N2_8  and  C5_10
REMARK    4  A    between atoms: C9_15  and  S1_16
REMARK    5  A    between atoms: S1_16  and  C10_19
REMARK    6  A    between atoms: C14_25  and  C15_26
ROOT
HETATM    1  C3  UNL     1      39.398  -2.734 -45.987  1.00  0.00     0.124 A
HETATM    2  N1  UNL     1      39.430  -3.486 -44.833  1.00  0.00    -0.186 N
ATOM      3  H1  UNL     1      40.251  -3.974 -44.475  1.00  0.00     0.184 HD
HETATM    4  C4  UNL     1      38.233  -3.481 -44.256  1.00  0.00     0.683 A
HETATM    5  N3  UNL     1      37.449  -2.731 -45.043  1.00  0.00    -0.187 N
ATOM      6  H3  UNL     1      36.464  -2.543 -44.855  1.00  0.00     0.184 HD
HETATM    7  C14 UNL     1      38.113  -2.255 -46.107  1.00  0.00     0.110 A
ENDROOT
BRANCH   4   8
HETATM    8  N2  UNL     1      37.911  -4.083 -43.164  1.00  0.00    -0.192 N
ATOM      9  H2  UNL     1      37.421  -4.976 -43.223  1.00  0.00     0.184 HD
BRANCH   8  10
HETATM   10  C5  UNL     1      38.212  -3.554 -41.878  1.00  0.00     0.050 A
HETATM   11  C6  UNL     1      38.674  -4.443 -40.910  1.00  0.00     0.032 A
HETATM   12  C7  UNL     1      38.970  -3.965 -39.667  1.00  0.00     0.028 A
HETATM   13  C8  UNL     1      38.807  -2.607 -39.383  1.00  0.00     0.055 A
HETATM   14 CL1  UNL     1      39.157  -2.165 -37.732  1.00  0.00    -0.083 Cl
HETATM   15  C9  UNL     1      38.363  -1.708 -40.291  1.00  0.00     0.083 A
HETATM   16  C13 UNL     1      38.065  -2.224 -41.562  1.00  0.00     0.055 A
BRANCH  15  17
HETATM   17  S1  UNL     1      38.201  -0.013 -40.044  1.00  0.00     0.180 S
HETATM   18  O2  UNL     1      37.921   0.661 -41.388  1.00  0.00    -0.222 OA
HETATM   19  O3  UNL     1      39.571   0.544 -39.652  1.00  0.00    -0.222 OA
BRANCH  17  20
HETATM   20  C10 UNL     1      37.070   0.517 -38.830  1.00  0.00     0.105 C
HETATM   21  C11 UNL     1      36.648   2.004 -39.149  1.00  0.00     0.026 C
HETATM   22  C12 UNL     1      35.772  -0.221 -38.881  1.00  0.00     0.026 C
ENDBRANCH  17  20
ENDBRANCH  15  17
ENDBRANCH   8  10
ENDBRANCH   4   8
BRANCH   1  23
HETATM   23  C2  UNL     1      40.564  -2.559 -46.829  1.00  0.00     0.174 C
HETATM   24  C1  UNL     1      41.793  -1.893 -46.233  1.00  0.00     0.098 C
HETATM   25  O1  UNL     1      40.695  -2.893 -48.014  1.00  0.00    -0.291 OA
ENDBRANCH   1  23
BRANCH   7  26
HETATM   26  C15 UNL     1      37.577  -1.408 -47.163  1.00  0.00     0.110 A
HETATM   27  N4  UNL     1      37.223  -0.092 -47.107  1.00  0.00    -0.256 N
HETATM   28  O4  UNL     1      36.783   0.335 -48.239  1.00  0.00    -0.223 OA
ATOM     29  H4  UNL     1      37.298   0.485 -46.268  1.00  0.00     0.195 HD
HETATM   30  C16 UNL     1      36.802  -0.616 -49.121  1.00  0.00     0.192 A
HETATM   31 CL2  UNL     1      36.327  -0.606 -50.800  1.00  0.00    -0.052 Cl
HETATM   32  C17 UNL     1      37.308  -1.758 -48.468  1.00  0.00     0.112 A
HETATM   33 CL3  UNL     1      37.533  -3.313 -49.219  1.00  0.00    -0.078 Cl
ENDBRANCH   7  26
TORSDOF 6
ENDMDL