MODEL 5
REMARK VINA RESULT: -7.822566699      1.450      3.195
REMARK  6 active torsions:
REMARK  status: ('A' for Active; 'I' for Inactive)
REMARK    1  A    between atoms: C3_3  and  N1_4
REMARK    2  A    between atoms: C5_7  and  C6_8
REMARK    3  A    between atoms: C6_8  and  S1_9
REMARK    4  A    between atoms: S1_9  and  C7_10
REMARK    5  A    between atoms: C11_16  and  O2_17
REMARK    6  A    between atoms: C14_21  and  O3_22
ROOT
HETATM    1  C1  UNL     1      37.036  -7.283 -40.531  1.00  0.00     0.014 C
HETATM    2  C2  UNL     1      38.090  -6.697 -40.479  1.00  0.00    -0.097 C
HETATM    3  C3  UNL     1      39.376  -5.965 -40.392  1.00  0.00     0.226 C
ENDROOT
BRANCH   3   4
HETATM    4  N1  UNL     1      39.282  -4.998 -39.320  1.00  0.00    -0.288 N
HETATM    5  C4  UNL     1      39.540  -5.356 -38.064  1.00  0.00     0.259 A
HETATM    6  O1  UNL     1      39.876  -6.552 -37.759  1.00  0.00    -0.267 OA
HETATM    7  C5  UNL     1      39.471  -4.478 -36.972  1.00  0.00     0.054 A
HETATM    8  C14 UNL     1      39.115  -3.192 -37.294  1.00  0.00     0.092 A
HETATM    9  C15 UNL     1      38.842  -2.821 -38.622  1.00  0.00     0.053 A
HETATM   10  C16 UNL     1      38.471  -1.638 -39.231  1.00  0.00     0.007 A
HETATM   11  C18 UNL     1      38.931  -3.744 -39.639  1.00  0.00     0.125 A
HETATM   12  C17 UNL     1      38.343  -1.867 -40.599  1.00  0.00     0.044 A
HETATM   13  C20 UNL     1      38.151  -0.205 -39.054  1.00  0.00     0.210 C
HETATM   14  N2  UNL     1      38.627  -3.159 -40.832  1.00  0.00    -0.342 N
HETATM   15  C19 UNL     1      37.939  -0.573 -41.214  1.00  0.00     0.225 C
ATOM     16  H2  UNL     1      38.616  -3.621 -41.741  1.00  0.00     0.167 HD
HETATM   17  O4  UNL     1      38.406   0.374 -40.309  1.00  0.00    -0.381 OA
BRANCH   7  18
HETATM   18  C6  UNL     1      39.867  -4.929 -35.632  1.00  0.00     0.126 C
BRANCH  18  19
HETATM   19  S1  UNL     1      38.646  -5.608 -34.556  1.00  0.00    -0.123 SA
BRANCH  19  20
HETATM   20  C7  UNL     1      37.682  -6.913 -35.318  1.00  0.00     0.027 A
HETATM   21  C8  UNL     1      36.546  -6.751 -36.039  1.00  0.00     0.046 A
HETATM   22  C9  UNL     1      35.832  -7.812 -36.618  1.00  0.00     0.059 A
HETATM   23 CL1  UNL     1      34.376  -7.489 -37.531  1.00  0.00    -0.082 Cl
HETATM   24  C10 UNL     1      36.296  -9.091 -36.454  1.00  0.00     0.090 A
HETATM   25 CL2  UNL     1      35.438 -10.422 -37.159  1.00  0.00    -0.079 Cl
HETATM   26  C11 UNL     1      37.452  -9.272 -35.722  1.00  0.00     0.114 A
HETATM   27  C13 UNL     1      38.148  -8.244 -35.158  1.00  0.00     0.086 A
HETATM   28 CL3  UNL     1      39.595  -8.529 -34.244  1.00  0.00    -0.080 Cl
BRANCH  26  29
HETATM   29  O2  UNL     1      37.901 -10.595 -35.571  1.00  0.00    -0.352 OA
HETATM   30  C12 UNL     1      37.448 -11.278 -34.411  1.00  0.00     0.210 C
ENDBRANCH  26  29
ENDBRANCH  19  20
ENDBRANCH  18  19
ENDBRANCH   7  18
BRANCH   8  31
HETATM   31  O3  UNL     1      39.024  -2.222 -36.320  1.00  0.00    -0.359 OA
ATOM     32  H3  UNL     1      39.805  -1.804 -35.978  1.00  0.00     0.217 HD
ENDBRANCH   8  31
ENDBRANCH   3   4
TORSDOF 6
ENDMDL