MODEL 3
REMARK VINA RESULT: -8.568008167      3.773      6.560
REMARK  5 active torsions:
REMARK  status: ('A' for Active; 'I' for Inactive)
REMARK    1  A    between atoms: C3_4  and  O1_5
REMARK    2  A    between atoms: C3_4  and  C4_7
REMARK    3  A    between atoms: C7_10  and  O2_11
REMARK    4  A    between atoms: C11_18  and  C12_19
REMARK    5  A    between atoms: C12_19  and  S1_20
ROOT
HETATM    1  C4  UNL     1      36.609  -8.498 -40.260  1.00  0.00     0.138 C
HETATM    2  C5  UNL     1      36.427  -7.234 -41.082  1.00  0.00     0.050 C
HETATM    3  C6  UNL     1      37.668  -6.853 -41.844  1.00  0.00     0.035 C
HETATM    4  C7  UNL     1      38.183  -7.913 -42.761  1.00  0.00     0.120 C
HETATM    5  C8  UNL     1      38.102  -9.317 -42.196  1.00  0.00     0.067 C
HETATM    6  C9  UNL     1      37.753  -9.261 -40.778  1.00  0.00     0.175 C
HETATM    7  O3  UNL     1      37.790 -10.519 -40.097  1.00  0.00    -0.310 OA
HETATM    8  C10 UNL     1      37.682 -10.341 -38.696  1.00  0.00     0.289 C
HETATM    9  O4  UNL     1      37.671 -11.329 -37.951  1.00  0.00    -0.262 OA
HETATM   10  C11 UNL     1      37.586  -8.953 -38.154  1.00  0.00     0.232 C
HETATM   11  O5  UNL     1      37.017  -8.041 -38.970  1.00  0.00    -0.354 OA
ENDROOT
BRANCH  10  12
HETATM   12  C12 UNL     1      38.956  -8.474 -37.725  1.00  0.00     0.121 C
BRANCH  12  13
HETATM   13  S1  UNL     1      39.241  -6.737 -37.759  1.00  0.00    -0.125 SA
HETATM   14  C13 UNL     1      38.878  -5.884 -36.142  1.00  0.00     0.084 C
HETATM   15  C14 UNL     1      37.358  -6.148 -36.043  1.00  0.00     0.027 C
HETATM   16  C15 UNL     1      39.092  -4.440 -36.495  1.00  0.00    -0.001 A
HETATM   17  C16 UNL     1      39.207  -3.517 -35.460  1.00  0.00     0.043 A
HETATM   18  C20 UNL     1      39.264  -4.028 -37.831  1.00  0.00     0.038 A
HETATM   19 CL2  UNL     1      38.942  -4.080 -33.815  1.00  0.00    -0.084 Cl
HETATM   20  C17 UNL     1      39.486  -2.213 -35.777  1.00  0.00     0.024 A
HETATM   21  C18 UNL     1      39.659  -1.799 -37.107  1.00  0.00     0.003 A
HETATM   22  C19 UNL     1      39.546  -2.712 -38.107  1.00  0.00     0.024 A
HETATM   23 CL3  UNL     1      39.168  -5.226 -39.114  1.00  0.00    -0.120 Cl
ENDBRANCH  12  13
ENDBRANCH  10  12
BRANCH   1  24
HETATM   24  C3  UNL     1      35.318  -9.173 -40.082  1.00  0.00     0.097 C
HETATM   25  C2  UNL     1      34.327  -8.948 -39.279  1.00  0.00     0.040 C
HETATM   26  C1  UNL     1      33.116  -9.841 -39.342  1.00  0.00     0.064 C
HETATM   27 CL1  UNL     1      34.282  -7.681 -38.111  1.00  0.00    -0.087 Cl
BRANCH  24  28
HETATM   28  O1  UNL     1      35.071 -10.295 -40.940  1.00  0.00    -0.360 OA
ATOM     29  H1  UNL     1      34.269 -10.193 -41.438  1.00  0.00     0.217 HD
ENDBRANCH  24  28
ENDBRANCH   1  24
BRANCH   4  30
HETATM   30  O2  UNL     1      37.598  -7.890 -44.031  1.00  0.00    -0.395 OA
ATOM     31  H2  UNL     1      38.192  -7.613 -44.719  1.00  0.00     0.210 HD
ENDBRANCH   4  30
TORSDOF 5
ENDMDL