MODEL 3
REMARK VINA RESULT: -7.571991516      1.229      1.992
REMARK  6 active torsions:
REMARK  status: ('A' for Active; 'I' for Inactive)
REMARK    1  A    between atoms: O1_2  and  C2_3
REMARK    2  A    between atoms: C4_5  and  C5_6
REMARK    3  A    between atoms: N2_13  and  C8_14
REMARK    4  A    between atoms: C12_19  and  C13_20
REMARK    5  A    between atoms: C13_20  and  N3_21
REMARK    6  A    between atoms: C20_31  and  O3_32
ROOT
HETATM    1  C5  UNL     1      38.699  -2.111 -41.863  1.00  0.00     0.036 C
HETATM    2  C6  UNL     1      38.411  -3.275 -42.363  1.00  0.00     0.077 C
HETATM    3  S1  UNL     1      38.210  -3.561 -44.159  1.00  0.00    -0.048 SA
HETATM    4  C7  UNL     1      37.204  -5.030 -43.948  1.00  0.00     0.153 C
HETATM    5  N1  UNL     1      36.384  -5.463 -44.814  1.00  0.00    -0.379 N
ATOM      6  H11 UNL     1      35.812  -6.299 -44.694  1.00  0.00     0.158 HD
ATOM      7  H12 UNL     1      36.130  -5.114 -45.739  1.00  0.00     0.158 HD
HETATM    8  N2  UNL     1      37.554  -5.510 -42.673  1.00  0.00    -0.256 N
HETATM    9  C17 UNL     1      38.189  -4.599 -41.831  1.00  0.00     0.271 C
HETATM   10  O2  UNL     1      38.569  -4.903 -40.641  1.00  0.00    -0.266 OA
ENDROOT
BRANCH   1  11
HETATM   11  C4  UNL     1      38.883  -1.728 -40.494  1.00  0.00    -0.030 A
HETATM   12  C3  UNL     1      40.126  -1.596 -39.936  1.00  0.00     0.051 A
HETATM   13  C2  UNL     1      40.299  -1.208 -38.607  1.00  0.00     0.103 A
HETATM   14  C20 UNL     1      39.192  -0.947 -37.823  1.00  0.00     0.121 A
HETATM   15  C19 UNL     1      37.925  -1.076 -38.372  1.00  0.00     0.070 A
HETATM   16  C18 UNL     1      37.788  -1.464 -39.699  1.00  0.00     0.038 A
HETATM   17 CL3  UNL     1      36.478  -0.754 -37.415  1.00  0.00    -0.081 Cl
BRANCH  13  18
HETATM   18  O1  UNL     1      41.562  -1.083 -38.069  1.00  0.00    -0.353 OA
HETATM   19  C1  UNL     1      42.367   0.003 -38.467  1.00  0.00     0.210 C
ENDBRANCH  13  18
BRANCH  14  20
HETATM   20  O3  UNL     1      39.313  -0.562 -36.511  1.00  0.00    -0.356 OA
ATOM     21  H3  UNL     1      40.158  -0.363 -36.125  1.00  0.00     0.218 HD
ENDBRANCH  14  20
ENDBRANCH   1  11
BRANCH   8  22
HETATM   22  C8  UNL     1      37.245  -6.874 -42.287  1.00  0.00     0.068 A
HETATM   23  C9  UNL     1      36.319  -7.086 -41.279  1.00  0.00     0.056 A
HETATM   24  C10 UNL     1      36.004  -8.365 -40.887  1.00  0.00     0.036 A
HETATM   25 CL1  UNL     1      34.848  -8.700 -39.622  1.00  0.00    -0.084 Cl
HETATM   26  C11 UNL     1      36.649  -9.414 -41.542  1.00  0.00     0.034 A
HETATM   27  C12 UNL     1      37.569  -9.237 -42.544  1.00  0.00    -0.004 A
HETATM   28  C16 UNL     1      37.865  -7.929 -42.916  1.00  0.00     0.069 A
HETATM   29 CL2  UNL     1      39.014  -7.640 -44.172  1.00  0.00    -0.081 Cl
BRANCH  27  30
HETATM   30  C13 UNL     1      38.278 -10.302 -43.249  1.00  0.00     0.311 C
BRANCH  30  31
HETATM   31  N3  UNL     1      37.582 -10.837 -44.397  1.00  0.00     0.084 N
HETATM   32  C14 UNL     1      36.898 -12.083 -44.017  1.00  0.00     0.309 C
HETATM   33  C15 UNL     1      38.535 -11.258 -45.426  1.00  0.00     0.309 C
ENDBRANCH  30  31
ENDBRANCH  27  30
ENDBRANCH   8  22
TORSDOF 6
ENDMDL