MODEL 1
REMARK VINA RESULT: -8.380962736      0.000      0.000
REMARK  7 active torsions:
REMARK  status: ('A' for Active; 'I' for Inactive)
REMARK    1  A    between atoms: C6_6  and  C8_8
REMARK    2  A    between atoms: C8_8  and  O1_9
REMARK    3  A    between atoms: O1_9  and  C9_10
REMARK    4  A    between atoms: C9_10  and  C10_12
REMARK    5  A    between atoms: C10_12  and  C11_13
REMARK    6  A    between atoms: C11_13  and  C12_14
REMARK    7  A    between atoms: C15_19  and  O4_20
ROOT
HETATM    1  C1  UNL     1      39.937  -6.428 -41.173  1.00  0.00     0.027 C
HETATM    2  C2  UNL     1      38.544  -6.093 -40.723  1.00  0.00     0.026 A
HETATM    3  C3  UNL     1      38.553  -4.575 -40.499  1.00  0.00     0.021 C
HETATM    4  C4  UNL     1      38.756  -3.773 -41.714  1.00  0.00     0.008 C
HETATM    5  C5  UNL     1      38.566  -4.436 -43.041  1.00  0.00     0.012 C
HETATM    6  C6  UNL     1      38.561  -3.523 -44.209  1.00  0.00    -0.017 C
HETATM    7  C7  UNL     1      39.980  -2.908 -44.257  1.00  0.00     0.018 C
HETATM    8  C13 UNL     1      38.436  -4.376 -45.470  1.00  0.00     0.014 C
HETATM    9  C14 UNL     1      38.641  -5.834 -45.241  1.00  0.00     0.034 C
HETATM   10  C15 UNL     1      37.775  -6.457 -44.176  1.00  0.00     0.132 C
HETATM   11  C16 UNL     1      37.498  -5.502 -43.044  1.00  0.00     0.028 C
HETATM   12  C17 UNL     1      36.107  -4.941 -43.345  1.00  0.00     0.025 C
HETATM   13  C18 UNL     1      37.482  -6.243 -41.736  1.00  0.00     0.028 A
HETATM   14  N1  UNL     1      36.426  -6.970 -41.575  1.00  0.00    -0.306 N
ATOM     15  H1  UNL     1      35.756  -7.010 -42.342  1.00  0.00     0.186 HD
HETATM   16  N2  UNL     1      36.138  -7.706 -40.423  1.00  0.00    -0.300 N
ATOM     17  H2  UNL     1      35.297  -8.276 -40.332  1.00  0.00     0.187 HD
HETATM   18  C19 UNL     1      37.110  -7.600 -39.385  1.00  0.00     0.055 A
HETATM   19  C20 UNL     1      36.902  -8.286 -38.181  1.00  0.00     0.034 A
HETATM   20  C21 UNL     1      37.791  -8.211 -37.132  1.00  0.00     0.044 A
HETATM   21  C22 UNL     1      38.911  -7.429 -37.299  1.00  0.00     0.117 A
HETATM   22  F1  UNL     1      39.830  -7.314 -36.297  1.00  0.00    -0.206 F
HETATM   23  C23 UNL     1      39.187  -6.726 -38.447  1.00  0.00     0.053 A
HETATM   24  C24 UNL     1      38.244  -6.840 -39.485  1.00  0.00    -0.013 A
ENDROOT
BRANCH   6  25
HETATM   25  C8  UNL     1      37.649  -2.396 -44.308  1.00  0.00     0.188 C
BRANCH  25  26
HETATM   26  O1  UNL     1      37.194  -2.351 -45.682  1.00  0.00    -0.321 OA
BRANCH  26  27
HETATM   27  C9  UNL     1      37.305  -1.212 -46.435  1.00  0.00     0.259 C
HETATM   28  O2  UNL     1      36.749  -0.166 -45.996  1.00  0.00    -0.265 OA
BRANCH  27  29
HETATM   29  C10 UNL     1      38.054  -1.250 -47.707  1.00  0.00     0.119 C
BRANCH  29  30
HETATM   30  C11 UNL     1      39.415  -0.585 -47.612  1.00  0.00     0.106 C
BRANCH  30  31
HETATM   31  C12 UNL     1      40.498  -1.612 -47.527  1.00  0.00     0.219 C
HETATM   32  O3  UNL     1      40.350  -2.703 -48.092  1.00  0.00    -0.280 OA
HETATM   33 CL1  UNL     1      41.979  -1.337 -46.658  1.00  0.00    -0.044 Cl
ENDBRANCH  30  31
ENDBRANCH  29  30
ENDBRANCH  27  29
ENDBRANCH  26  27
ENDBRANCH  25  26
ENDBRANCH   6  25
BRANCH  10  34
HETATM   34  O4  UNL     1      36.576  -6.956 -44.718  1.00  0.00    -0.394 OA
ATOM     35  H4  UNL     1      36.584  -7.904 -44.761  1.00  0.00     0.210 HD
ENDBRANCH  10  34
TORSDOF 7
ENDMDL