MODEL 1
REMARK VINA RESULT: -8.791828730      0.000      0.000
REMARK  7 active torsions:
REMARK  status: ('A' for Active; 'I' for Inactive)
REMARK    1  A    between atoms: C6_8  and  N3_9
REMARK    2  A    between atoms: N3_9  and  C7_11
REMARK    3  A    between atoms: C7_11  and  C8_12
REMARK    4  A    between atoms: C14_20  and  C15_21
REMARK    5  A    between atoms: N5_30  and  C20_31
REMARK    6  A    between atoms: C20_31  and  C21_32
REMARK    7  A    between atoms: C21_32  and  O2_33
ROOT
HETATM    1  C1  UNL     1      34.253   0.889 -47.504  1.00  0.00     0.148 C
HETATM    2  N1  UNL     1      35.593   1.019 -46.986  1.00  0.00    -0.392 N
HETATM    3  C2  UNL     1      36.597   1.111 -47.979  1.00  0.00     0.128 C
HETATM    4  C3  UNL     1      37.179  -0.225 -48.372  1.00  0.00     0.080 C
HETATM    5  C4  UNL     1      37.448  -1.063 -47.166  1.00  0.00     0.060 A
HETATM    6  C5  UNL     1      36.827  -0.811 -45.985  1.00  0.00     0.097 A
HETATM    7  N2  UNL     1      37.263  -1.716 -45.077  1.00  0.00    -0.127 N
HETATM    8  C6  UNL     1      37.127  -2.112 -43.742  1.00  0.00     0.156 A
HETATM    9  C14 UNL     1      37.944  -3.178 -43.571  1.00  0.00     0.128 A
HETATM   10  N4  UNL     1      38.573  -3.411 -44.804  1.00  0.00    -0.184 N
ATOM     11  H4  UNL     1      39.253  -4.147 -44.995  1.00  0.00     0.184 HD
HETATM   12  C19 UNL     1      38.133  -2.509 -45.683  1.00  0.00     0.694 A
HETATM   13  N5  UNL     1      38.242  -2.096 -46.982  1.00  0.00    -0.182 N
HETATM   14  C22 UNL     1      35.858   0.276 -45.822  1.00  0.00     0.118 C
ENDROOT
BRANCH   8  15
HETATM   15  N3  UNL     1      36.331  -1.374 -42.857  1.00  0.00    -0.369 N
ATOM     16  H3  UNL     1      35.398  -1.748 -42.686  1.00  0.00     0.161 HD
BRANCH  15  17
HETATM   17  C7  UNL     1      36.648  -0.180 -42.170  1.00  0.00     0.160 C
BRANCH  17  18
HETATM   18  C8  UNL     1      37.190  -0.470 -40.793  1.00  0.00    -0.039 A
HETATM   19  C9  UNL     1      36.414  -0.632 -39.679  1.00  0.00     0.010 A
HETATM   20  C10 UNL     1      36.963  -0.897 -38.432  1.00  0.00     0.026 A
HETATM   21  C11 UNL     1      38.325  -1.004 -38.295  1.00  0.00     0.055 A
HETATM   22 CL1  UNL     1      39.026  -1.339 -36.722  1.00  0.00    -0.083 Cl
HETATM   23  C12 UNL     1      39.121  -0.845 -39.404  1.00  0.00     0.056 A
HETATM   24 CL2  UNL     1      40.860  -0.982 -39.222  1.00  0.00    -0.083 Cl
HETATM   25  C13 UNL     1      38.550  -0.577 -40.657  1.00  0.00     0.034 A
ENDBRANCH  17  18
ENDBRANCH  15  17
ENDBRANCH   8  15
BRANCH   9  26
HETATM   26  C15 UNL     1      38.138  -4.118 -42.474  1.00  0.00     0.108 A
HETATM   27  C16 UNL     1      37.990  -5.449 -42.281  1.00  0.00     0.043 A
HETATM   28  C17 UNL     1      38.355  -5.775 -40.989  1.00  0.00     0.053 A
HETATM   29  C18 UNL     1      38.728  -4.588 -40.421  1.00  0.00     0.145 A
HETATM   30 CL3  UNL     1      39.291  -4.446 -38.752  1.00  0.00    -0.057 Cl
HETATM   31  O1  UNL     1      38.593  -3.665 -41.296  1.00  0.00    -0.296 OA
ENDBRANCH   9  26
BRANCH  13  32
HETATM   32  C20 UNL     1      39.115  -2.745 -47.937  1.00  0.00     0.173 C
BRANCH  32  33
HETATM   33  C21 UNL     1      40.575  -2.546 -47.594  1.00  0.00     0.185 C
BRANCH  33  34
HETATM   34  O2  UNL     1      41.073  -3.660 -46.908  1.00  0.00    -0.399 OA
ATOM     35  H2  UNL     1      40.497  -3.891 -46.188  1.00  0.00     0.209 HD
ENDBRANCH  33  34
ENDBRANCH  32  33
ENDBRANCH  13  32
TORSDOF 7
ENDMDL