MODEL 4
REMARK VINA RESULT: -9.304089861      1.462      2.416
REMARK  6 active torsions:
REMARK  status: ('A' for Active; 'I' for Inactive)
REMARK    1  A    between atoms: C4_4  and  C5_5
REMARK    2  A    between atoms: C6_9  and  C7_10
REMARK    3  A    between atoms: C13_19  and  N4_20
REMARK    4  A    between atoms: N4_20  and  C14_22
REMARK    5  A    between atoms: C14_22  and  C15_23
REMARK    6  A    between atoms: C21_32  and  O2_33
ROOT
HETATM    1  C1  UNL     1      36.368   1.741 -38.253  1.00  0.00     0.010 C
HETATM    2  C2  UNL     1      37.112   0.844 -39.260  1.00  0.00    -0.015 C
HETATM    3  C3  UNL     1      38.137   0.026 -38.598  1.00  0.00     0.016 C
HETATM    4  C4  UNL     1      37.965  -1.466 -38.600  1.00  0.00     0.056 C
HETATM    5  C11 UNL     1      38.627  -2.144 -39.748  1.00  0.00     0.014 C
HETATM    6  C12 UNL     1      38.611  -1.323 -41.012  1.00  0.00     0.028 C
HETATM    7  C13 UNL     1      37.228  -1.431 -41.678  1.00  0.00     0.105 C
HETATM    8  C21 UNL     1      36.633  -0.066 -41.555  1.00  0.00     0.140 C
HETATM    9  C22 UNL     1      36.117   0.183 -40.119  1.00  0.00     0.038 C
ENDROOT
BRANCH   4  10
HETATM   10  C5  UNL     1      38.718  -1.953 -37.375  1.00  0.00     0.108 A
HETATM   11  N1  UNL     1      39.285  -1.179 -36.436  1.00  0.00    -0.247 N
HETATM   12  O1  UNL     1      39.846  -1.966 -35.536  1.00  0.00    -0.222 OA
ATOM     13  H1  UNL     1      39.282  -0.159 -36.421  1.00  0.00     0.196 HD
HETATM   14  C6  UNL     1      39.654  -3.206 -35.861  1.00  0.00     0.155 A
HETATM   15  N3  UNL     1      38.948  -3.201 -37.010  1.00  0.00    -0.326 N
ATOM     16  H3  UNL     1      38.641  -4.031 -37.518  1.00  0.00     0.169 HD
BRANCH  14  17
HETATM   17  C7  UNL     1      40.112  -4.421 -35.131  1.00  0.00     0.119 C
HETATM   18  C8  UNL     1      39.108  -4.709 -33.986  1.00  0.00     0.286 C
HETATM   19  N2  UNL     1      38.308  -5.369 -34.990  1.00  0.00     0.085 N
HETATM   20  C9  UNL     1      37.629  -6.519 -34.461  1.00  0.00     0.309 C
HETATM   21  C10 UNL     1      39.575  -5.703 -35.657  1.00  0.00     0.286 C
ENDBRANCH  14  17
ENDBRANCH   4  10
BRANCH   7  22
HETATM   22  N4  UNL     1      37.333  -1.861 -43.015  1.00  0.00    -0.411 N
ATOM     23  H4  UNL     1      37.565  -1.207 -43.763  1.00  0.00     0.154 HD
BRANCH  22  24
HETATM   24  C14 UNL     1      37.106  -3.231 -43.282  1.00  0.00     0.158 C
BRANCH  24  25
HETATM   25  C15 UNL     1      38.323  -3.840 -43.911  1.00  0.00     0.021 A
HETATM   26  C16 UNL     1      38.670  -5.095 -43.475  1.00  0.00     0.045 A
HETATM   27 CL1  UNL     1      37.697  -6.045 -42.361  1.00  0.00    -0.084 Cl
HETATM   28  C17 UNL     1      39.824  -5.664 -43.953  1.00  0.00     0.026 A
HETATM   29  C18 UNL     1      40.660  -5.039 -44.857  1.00  0.00     0.029 A
HETATM   30  C19 UNL     1      40.300  -3.784 -45.281  1.00  0.00     0.073 A
HETATM   31 CL2  UNL     1      41.352  -2.934 -46.397  1.00  0.00    -0.081 Cl
HETATM   32  C20 UNL     1      39.127  -3.195 -44.802  1.00  0.00     0.147 A
HETATM   33  F1  UNL     1      38.805  -1.945 -45.267  1.00  0.00    -0.204 F
ENDBRANCH  24  25
ENDBRANCH  22  24
ENDBRANCH   7  22
BRANCH   8  34
HETATM   34  O2  UNL     1      37.599   0.921 -41.810  1.00  0.00    -0.394 OA
ATOM     35  H2  UNL     1      38.007   1.209 -41.002  1.00  0.00     0.210 HD
ENDBRANCH   8  34
TORSDOF 6
ENDMDL