MODEL 3
REMARK VINA RESULT: -8.194612131      4.818      6.520
REMARK  6 active torsions:
REMARK  status: ('A' for Active; 'I' for Inactive)
REMARK    1  A    between atoms: C2_2  and  C3_3
REMARK    2  A    between atoms: C4_4  and  N1_5
REMARK    3  A    between atoms: C7_8  and  C8_9
REMARK    4  A    between atoms: C9_12  and  C10_13
REMARK    5  A    between atoms: C11_15  and  C12_16
REMARK    6  A    between atoms: C25_37  and  N7_38
ROOT
HETATM    1  C12 UNL     1      39.066  -2.116 -37.959  1.00  0.00     0.071 A
HETATM    2  C13 UNL     1      40.251  -1.495 -38.389  1.00  0.00     0.133 A
HETATM    3  F2  UNL     1      41.382  -2.228 -38.325  1.00  0.00    -0.205 F
HETATM    4  C14 UNL     1      40.251  -0.218 -38.893  1.00  0.00     0.066 A
HETATM    5  C15 UNL     1      39.087   0.515 -39.000  1.00  0.00     0.056 A
HETATM    6  C16 UNL     1      39.080   1.851 -39.528  1.00  0.00     0.100 C
HETATM    7  N3  UNL     1      39.065   2.920 -39.970  1.00  0.00    -0.191 NA
HETATM    8  C17 UNL     1      37.911  -0.055 -38.591  1.00  0.00    -0.002 A
HETATM    9  C18 UNL     1      36.640   0.692 -38.692  1.00  0.00     0.053 C
HETATM   10  C19 UNL     1      37.938  -1.350 -38.083  1.00  0.00     0.139 A
HETATM   11  F3  UNL     1      36.748  -1.790 -37.631  1.00  0.00    -0.204 F
ENDROOT
BRANCH   1  12
HETATM   12  C11 UNL     1      39.123  -3.415 -37.327  1.00  0.00     0.077 A
HETATM   13  C9  UNL     1      39.349  -3.783 -36.035  1.00  0.00     0.067 A
HETATM   14  N2  UNL     1      39.408  -5.177 -35.989  1.00  0.00    -0.345 N
HETATM   15  C8  UNL     1      39.219  -5.640 -37.225  1.00  0.00     0.088 A
ATOM     16  H2  UNL     1      39.566  -5.742 -35.155  1.00  0.00     0.167 HD
HETATM   17  N4  UNL     1      39.052  -4.595 -38.019  1.00  0.00    -0.338 N
HETATM   18  C20 UNL     1      38.858  -4.677 -39.448  1.00  0.00     0.158 C
BRANCH  13  19
HETATM   19  C10 UNL     1      39.471  -2.951 -34.824  1.00  0.00     0.281 C
HETATM   20  F1  UNL     1      40.361  -3.350 -33.915  1.00  0.00    -0.249 F
ENDBRANCH  13  19
BRANCH  15  21
HETATM   21  C7  UNL     1      39.198  -7.077 -37.666  1.00  0.00     0.057 C
HETATM   22  C6  UNL     1      37.802  -7.526 -37.976  1.00  0.00     0.032 C
HETATM   23  C5  UNL     1      37.077  -8.074 -36.747  1.00  0.00     0.125 C
HETATM   24  N1  UNL     1      37.806  -9.174 -36.202  1.00  0.00    -0.367 N
HETATM   25  C22 UNL     1      39.186  -9.323 -36.690  1.00  0.00     0.125 C
HETATM   26  C21 UNL     1      39.774  -7.931 -36.563  1.00  0.00     0.032 C
BRANCH  24  27
HETATM   27  C4  UNL     1      37.304 -10.047 -35.253  1.00  0.00     0.114 A
HETATM   28  C3  UNL     1      37.934 -10.378 -34.091  1.00  0.00     0.029 A
HETATM   29  C25 UNL     1      37.351 -11.276 -33.176  1.00  0.00     0.110 A
HETATM   30  N6  UNL     1      36.143 -11.770 -33.532  1.00  0.00    -0.332 N
HETATM   31  C23 UNL     1      35.495 -11.473 -34.652  1.00  0.00     0.080 A
ATOM     32  H6  UNL     1      35.693 -12.421 -32.889  1.00  0.00     0.168 HD
HETATM   33  N5  UNL     1      36.077 -10.624 -35.493  1.00  0.00    -0.332 N
HETATM   34  C24 UNL     1      34.163 -12.083 -34.938  1.00  0.00     0.089 C
ATOM     35  H5  UNL     1      35.590 -10.387 -36.357  1.00  0.00     0.168 HD
BRANCH  28  36
HETATM   36  C2  UNL     1      39.259  -9.802 -33.771  1.00  0.00     0.042 C
HETATM   37  C1  UNL     1      39.074  -8.467 -33.103  1.00  0.00     0.010 C
ENDBRANCH  28  36
BRANCH  29  38
HETATM   38  N7  UNL     1      37.916 -11.624 -32.086  1.00  0.00    -0.385 N
ATOM     39  H72 UNL     1      38.870 -11.337 -31.867  1.00  0.00     0.157 HD
ATOM     40  H71 UNL     1      37.453 -12.190 -31.374  1.00  0.00     0.157 HD
ENDBRANCH  29  38
ENDBRANCH  24  27
ENDBRANCH  15  21
ENDBRANCH   1  12
TORSDOF 6
ENDMDL