MODEL 1
REMARK VINA RESULT: -7.672619638      0.000      0.000
REMARK  6 active torsions:
REMARK  status: ('A' for Active; 'I' for Inactive)
REMARK    1  A    between atoms: N1_2  and  C2_3
REMARK    2  A    between atoms: N1_2  and  C4_6
REMARK    3  A    between atoms: C2_3  and  C3_4
REMARK    4  A    between atoms: C7_9  and  C8_10
REMARK    5  A    between atoms: C8_10  and  C9_11
REMARK    6  A    between atoms: C16_23  and  O2_24
ROOT
HETATM    1  C9  UNL     1      34.293   5.813 -48.421  1.00  0.00     0.066 C
HETATM    2  C10 UNL     1      35.243   6.989 -48.361  1.00  0.00     0.033 C
HETATM    3  C11 UNL     1      34.261   5.288 -49.793  1.00  0.00     0.033 C
HETATM    4  C12 UNL     1      32.927   6.528 -48.323  1.00  0.00     0.070 C
HETATM    5  N2  UNL     1      31.902   7.066 -48.227  1.00  0.00    -0.196 NA
ENDROOT
BRANCH   1   6
HETATM    6  C8  UNL     1      34.356   4.898 -47.239  1.00  0.00     0.104 C
HETATM    7  C13 UNL     1      33.206   3.954 -47.474  1.00  0.00     0.138 C
HETATM    8  N3  UNL     1      31.934   4.200 -47.285  1.00  0.00    -0.382 N
HETATM    9  O1  UNL     1      33.711   2.773 -47.925  1.00  0.00    -0.294 OA
ATOM     10  H32 UNL     1      31.556   5.085 -46.947  1.00  0.00     0.158 HD
ATOM     11  H31 UNL     1      31.155   3.561 -47.444  1.00  0.00     0.158 HD
HETATM   12  C14 UNL     1      35.090   2.786 -47.878  1.00  0.00     0.110 A
HETATM   13  C15 UNL     1      35.516   3.990 -47.403  1.00  0.00     0.034 A
HETATM   14  C23 UNL     1      35.970   1.759 -48.228  1.00  0.00     0.090 A
HETATM   15  C16 UNL     1      36.886   4.247 -47.233  1.00  0.00     0.087 A
HETATM   16  C17 UNL     1      37.749   3.228 -47.579  1.00  0.00     0.009 A
HETATM   17  C18 UNL     1      39.115   3.382 -47.452  1.00  0.00     0.015 A
HETATM   18  C22 UNL     1      37.316   2.003 -48.069  1.00  0.00     0.000 A
HETATM   19  C19 UNL     1      40.016   2.380 -47.792  1.00  0.00     0.001 A
HETATM   20  C20 UNL     1      39.569   1.178 -48.273  1.00  0.00     0.001 A
HETATM   21  C21 UNL     1      38.210   1.010 -48.405  1.00  0.00     0.014 A
HETATM   22  C24 UNL     1      35.459   0.535 -48.721  1.00  0.00     0.103 C
HETATM   23  N4  UNL     1      35.053  -0.486 -49.124  1.00  0.00    -0.191 NA
BRANCH   6  24
HETATM   24  C7  UNL     1      34.255   5.489 -45.920  1.00  0.00    -0.032 A
HETATM   25  C6  UNL     1      34.331   6.813 -45.635  1.00  0.00     0.011 A
HETATM   26  C5  UNL     1      34.229   7.297 -44.322  1.00  0.00     0.033 A
HETATM   27  C4  UNL     1      34.047   6.409 -43.291  1.00  0.00     0.069 A
HETATM   28  C26 UNL     1      33.968   5.057 -43.580  1.00  0.00     0.143 A
HETATM   29  C25 UNL     1      34.067   4.582 -44.859  1.00  0.00     0.053 A
HETATM   30  F2  UNL     1      33.786   4.186 -42.529  1.00  0.00    -0.204 F
BRANCH  27  31
HETATM   31  N1  UNL     1      33.935   6.902 -41.962  1.00  0.00    -0.380 N
HETATM   32  C1  UNL     1      35.156   7.342 -41.310  1.00  0.00     0.150 C
BRANCH  31  33
HETATM   33  C2  UNL     1      32.732   7.017 -41.201  1.00  0.00     0.154 C
BRANCH  33  34
HETATM   34  C3  UNL     1      31.564   7.622 -41.899  1.00  0.00     0.241 C
HETATM   35  F1  UNL     1      31.979   8.903 -42.300  1.00  0.00    -0.254 F
ENDBRANCH  33  34
ENDBRANCH  31  33
ENDBRANCH  27  31
ENDBRANCH   6  24
BRANCH  15  36
HETATM   36  O2  UNL     1      37.330   5.455 -46.742  1.00  0.00    -0.359 OA
ATOM     37  H2  UNL     1      37.717   6.107 -47.315  1.00  0.00     0.217 HD
ENDBRANCH  15  36
ENDBRANCH   1   6
TORSDOF 6
ENDMDL