MODEL 1
REMARK VINA RESULT: -8.634719189      0.000      0.000
REMARK  5 active torsions:
REMARK  status: ('A' for Active; 'I' for Inactive)
REMARK    1  A    between atoms: C2_2  and  C3_3
REMARK    2  A    between atoms: C3_3  and  N1_4
REMARK    3  A    between atoms: C8_9  and  C9_10
REMARK    4  A    between atoms: N2_14  and  C11_15
REMARK    5  A    between atoms: C14_19  and  C15_20
ROOT
HETATM    1  C11 UNL     1      38.138  -6.142 -41.587  1.00  0.00     0.082 A
HETATM    2  C12 UNL     1      38.235  -4.751 -41.501  1.00  0.00     0.058 A
HETATM    3  C13 UNL     1      38.794  -4.040 -42.541  1.00  0.00     0.049 A
HETATM    4 CL1  UNL     1      38.841  -2.293 -42.423  1.00  0.00    -0.083 Cl
HETATM    5  C14 UNL     1      39.272  -4.630 -43.685  1.00  0.00     0.029 A
HETATM    6  C19 UNL     1      39.154  -6.027 -43.732  1.00  0.00     0.169 A
HETATM    7  F1  UNL     1      39.603  -6.693 -44.832  1.00  0.00    -0.202 F
HETATM    8  C20 UNL     1      38.601  -6.755 -42.708  1.00  0.00     0.182 A
HETATM    9  F2  UNL     1      38.503  -8.103 -42.788  1.00  0.00    -0.200 F
ENDROOT
BRANCH   1  10
HETATM   10  N2  UNL     1      37.545  -6.815 -40.473  1.00  0.00    -0.321 N
HETATM   11  C6  UNL     1      38.101  -7.039 -39.294  1.00  0.00     0.027 A
HETATM   12  C5  UNL     1      39.440  -6.696 -38.767  1.00  0.00     0.088 C
HETATM   13  C7  UNL     1      37.189  -7.709 -38.514  1.00  0.00     0.011 A
HETATM   14  C4  UNL     1      39.541  -6.600 -37.296  1.00  0.00     0.279 C
HETATM   15  N1  UNL     1      38.417  -7.025 -36.547  1.00  0.00     0.093 N
HETATM   16  C21 UNL     1      37.622  -8.053 -37.137  1.00  0.00     0.314 C
HETATM   17  C8  UNL     1      36.062  -7.885 -39.255  1.00  0.00     0.066 A
HETATM   18  C10 UNL     1      36.301  -7.320 -40.481  1.00  0.00     0.116 A
BRANCH  15  19
HETATM   19  C3  UNL     1      37.603  -5.987 -36.006  1.00  0.00     0.272 C
BRANCH  19  20
HETATM   20  C2  UNL     1      38.338  -4.722 -35.672  1.00  0.00     0.026 C
HETATM   21  C1  UNL     1      38.647  -4.583 -34.209  1.00  0.00     0.007 C
ENDBRANCH  19  20
ENDBRANCH  15  19
BRANCH  17  22
HETATM   22  C9  UNL     1      34.843  -8.559 -38.794  1.00  0.00     0.211 C
HETATM   23  O1  UNL     1      34.020  -7.845 -38.143  1.00  0.00    -0.644 OA
HETATM   24  O2  UNL     1      34.592  -9.876 -39.040  1.00  0.00    -0.644 OA
ENDBRANCH  17  22
ENDBRANCH   1  10
BRANCH   5  25
HETATM   25  C15 UNL     1      39.910  -3.969 -44.789  1.00  0.00     0.041 C
HETATM   26  C16 UNL     1      39.386  -3.256 -45.732  1.00  0.00     0.079 C
HETATM   27  S1  UNL     1      40.325  -2.471 -47.099  1.00  0.00    -0.024 SA
HETATM   28  C18 UNL     1      38.039  -2.795 -46.040  1.00  0.00     0.266 C
HETATM   29  C17 UNL     1      38.909  -2.599 -48.252  1.00  0.00     0.291 C
HETATM   30  O3  UNL     1      38.970  -2.769 -49.487  1.00  0.00    -0.260 OA
HETATM   31  N3  UNL     1      37.812  -2.457 -47.367  1.00  0.00    -0.283 N
ATOM     32  H3  UNL     1      36.904  -2.124 -47.688  1.00  0.00     0.172 HD
HETATM   33  O4  UNL     1      37.137  -2.711 -45.121  1.00  0.00    -0.267 OA
ENDBRANCH   5  25
TORSDOF 5
ENDMDL