MODEL 5
REMARK VINA RESULT: -5.980358828      3.090      5.594
REMARK  6 active torsions:
REMARK  status: ('A' for Active; 'I' for Inactive)
REMARK    1  A    between atoms: C2_2  and  C3_3
REMARK    2  A    between atoms: C3_3  and  C4_4
REMARK    3  A    between atoms: C15_18  and  C16_19
REMARK    4  A    between atoms: C19_23  and  N2_24
REMARK       I    between atoms: N2_24  and  C20_26
REMARK    5  A    between atoms: C20_26  and  C21_28
REMARK    6  A    between atoms: C22_29  and  C23_30
ROOT
HETATM    1  C4  UNL     1      -2.442  16.251  18.490  1.00  0.00     0.044 C
HETATM    2  C5  UNL     1      -2.768  17.005  19.754  1.00  0.00    -0.058 C
HETATM    3  C6  UNL     1      -2.804  16.383  20.877  1.00  0.00     0.019 C
HETATM    4  C7  UNL     1      -2.986  18.485  19.644  1.00  0.00    -0.066 C
HETATM    5  C8  UNL     1      -3.406  19.098  20.909  1.00  0.00     0.062 C
HETATM    6  C9  UNL     1      -2.308  19.366  21.917  1.00  0.00    -0.017 C
HETATM    7  C10 UNL     1      -1.262  20.237  21.882  1.00  0.00    -0.048 A
HETATM    8  C11 UNL     1      -0.177  21.231  21.709  1.00  0.00     0.128 A
HETATM    9  N1  UNL     1       0.721  21.126  20.521  1.00  0.00    -0.351 N
ATOM     10  H1  UNL     1       1.588  21.663  20.501  1.00  0.00     0.163 HD
HETATM   11  C12 UNL     1       0.386  20.277  19.394  1.00  0.00     0.223 C
HETATM   12  O1  UNL     1       1.188  19.997  18.518  1.00  0.00    -0.273 OA
HETATM   13  C13 UNL     1      -0.981  19.843  19.482  1.00  0.00     0.087 C
HETATM   14  C14 UNL     1      -1.618  21.169  19.759  1.00  0.00     0.032 C
HETATM   15  C15 UNL     1      -1.430  21.603  21.170  1.00  0.00     0.019 A
HETATM   16  C17 UNL     1      -1.954  19.125  18.738  1.00  0.00     0.030 C
HETATM   17  C18 UNL     1      -1.397  18.244  17.699  1.00  0.00     0.035 C
HETATM   18  C19 UNL     1      -1.104  16.817  18.099  1.00  0.00     0.094 C
ENDROOT
BRANCH  18  19
HETATM   19  N2  UNL     1      -0.442  16.124  17.032  1.00  0.00    -0.345 N
HETATM   20  C20 UNL     1      -1.021  15.692  15.841  1.00  0.00     0.297 C
HETATM   21  O2  UNL     1      -2.237  15.909  15.641  1.00  0.00    -0.258 OA
ATOM     22  H2  UNL     1       0.550  15.928  17.158  1.00  0.00     0.163 HD
BRANCH  20  23
HETATM   23  C21 UNL     1      -0.247  15.011  14.857  1.00  0.00    -0.001 C
HETATM   24  C22 UNL     1       0.415  14.446  14.020  1.00  0.00    -0.069 C
BRANCH  24  25
HETATM   25  C23 UNL     1       1.209  13.765  13.035  1.00  0.00     0.060 C
HETATM   26  C24 UNL     1       2.408  14.166  12.673  1.00  0.00    -0.022 C
HETATM   27  C25 UNL     1       3.059  15.377  13.257  1.00  0.00     0.036 C
ENDBRANCH  24  25
ENDBRANCH  20  23
ENDBRANCH  18  19
BRANCH   1  28
HETATM   28  C3  UNL     1      -2.574  14.810  18.621  1.00  0.00     0.037 C
BRANCH  28  29
HETATM   29  C2  UNL     1      -3.869  14.208  18.215  1.00  0.00    -0.036 C
HETATM   30  C1  UNL     1      -4.908  13.987  18.965  1.00  0.00     0.007 C
ENDBRANCH  28  29
ENDBRANCH   1  28
BRANCH  15  31
HETATM   31  C16 UNL     1      -2.357  22.619  21.778  1.00  0.00     0.101 C
HETATM   32 BR1  UNL     1      -3.776  22.899  20.496  1.00  0.00    -0.095 Br
ENDBRANCH  15  31
TORSDOF 6
ENDMDL