MODEL 5
REMARK VINA RESULT: -6.647043581      3.121      9.417
REMARK  5 active torsions:
REMARK  status: ('A' for Active; 'I' for Inactive)
REMARK    1  A    between atoms: C2_2  and  C3_4
REMARK    2  A    between atoms: C3_4  and  O1_5
REMARK    3  A    between atoms: C3_4  and  N1_7
REMARK    4  A    between atoms: C10_14  and  N2_15
REMARK       I    between atoms: N2_15  and  C11_17
REMARK       I    between atoms: C11_17  and  N3_19
REMARK    5  A    between atoms: N3_19  and  C12_21
ROOT
HETATM    1  N2  UNL     1     -11.649   8.919  15.213  1.00  0.00    -0.331 N
ATOM      2  H2  UNL     1     -10.637   8.803  15.156  1.00  0.00     0.165 HD
HETATM    3  C11 UNL     1     -12.453   8.462  14.140  1.00  0.00     0.317 C
HETATM    4  O2  UNL     1     -13.693   8.622  14.243  1.00  0.00    -0.247 OA
HETATM    5  N3  UNL     1     -11.921   7.855  12.998  1.00  0.00    -0.338 N
ATOM      6  H3  UNL     1     -10.907   7.751  12.967  1.00  0.00     0.164 HD
ENDROOT
BRANCH   1   7
HETATM    7  C10 UNL     1     -12.219   9.546  16.389  1.00  0.00     0.062 C
HETATM    8  C8  UNL     1     -12.893   8.633  17.352  1.00  0.00     0.021 C
HETATM    9  C7  UNL     1     -12.198   9.348  18.486  1.00  0.00     0.039 C
HETATM   10  C9  UNL     1     -12.401   7.216  17.256  1.00  0.00     0.013 C
HETATM   11  C6  UNL     1     -12.991  10.466  19.036  1.00  0.00    -0.021 C
HETATM   12  C24 UNL     1     -11.163   9.811  17.481  1.00  0.00     0.123 C
HETATM   13  C5  UNL     1     -13.037  11.658  18.450  1.00  0.00    -0.005 C
HETATM   14  C4  UNL     1     -12.244  11.803  17.203  1.00  0.00     0.112 C
HETATM   15  N1  UNL     1     -10.909  11.203  17.533  1.00  0.00    -0.345 N
HETATM   16  C23 UNL     1     -12.803  10.895  16.166  1.00  0.00     0.063 C
BRANCH  15  17
HETATM   17  C3  UNL     1      -9.758  11.967  17.800  1.00  0.00     0.156 C
BRANCH  17  18
HETATM   18  C2  UNL     1      -9.367  12.756  18.926  1.00  0.00     0.052 C
HETATM   19  C1  UNL     1      -8.650  13.844  18.971  1.00  0.00     0.036 C
HETATM   20 BR1  UNL     1      -9.980  12.179  20.707  1.00  0.00    -0.047 Br
ENDBRANCH  17  18
BRANCH  17  21
HETATM   21  O1  UNL     1      -8.891  11.944  16.825  1.00  0.00    -0.345 OA
ATOM     22  H1  UNL     1      -9.257  12.113  15.966  1.00  0.00     0.219 HD
ENDBRANCH  17  21
ENDBRANCH  15  17
ENDBRANCH   1   7
BRANCH   5  23
HETATM   23  C12 UNL     1     -12.648   7.366  11.871  1.00  0.00     0.091 C
HETATM   24  C13 UNL     1     -13.136   8.420  10.933  1.00  0.00     0.031 C
HETATM   25  C14 UNL     1     -13.362   7.659   9.629  1.00  0.00    -0.003 C
HETATM   26  C15 UNL     1     -12.349   8.252   8.636  1.00  0.00     0.014 C
HETATM   27  C20 UNL     1     -12.914   6.254   9.877  1.00  0.00    -0.034 C
HETATM   28  C16 UNL     1     -11.229   7.248   8.745  1.00  0.00    -0.043 C
HETATM   29  C17 UNL     1     -10.173   7.347   7.746  1.00  0.00     0.015 C
HETATM   30  C18 UNL     1     -10.789   7.215  10.185  1.00  0.00     0.016 C
HETATM   31  C22 UNL     1     -12.041   5.941   8.681  1.00  0.00     0.019 C
HETATM   32  C19 UNL     1     -11.855   6.467  10.961  1.00  0.00     0.018 C
HETATM   33  C21 UNL     1     -13.937   5.276  10.198  1.00  0.00     0.016 C
ENDBRANCH   5  23
TORSDOF 5
ENDMDL