MODEL 1
REMARK VINA RESULT: -6.798143754      0.000      0.000
REMARK  5 active torsions:
REMARK  status: ('A' for Active; 'I' for Inactive)
REMARK    1  A    between atoms: C2_2  and  C4_4
REMARK       I    between atoms: C4_4  and  N1_6
REMARK    2  A    between atoms: N1_6  and  C5_8
REMARK    3  A    between atoms: C8_11  and  C9_12
REMARK       I    between atoms: C9_12  and  N2_14
REMARK    4  A    between atoms: N2_14  and  C10_16
REMARK       I    between atoms: N4_24  and  C15_25
REMARK       I    between atoms: C15_25  and  N5_27
REMARK    5  A    between atoms: N5_27  and  C16_29
ROOT
HETATM    1  C5  UNL     1      -9.223  12.614  19.000  1.00  0.00     0.102 C
HETATM    2  C6  UNL     1      -8.535  13.909  18.714  1.00  0.00     0.029 C
HETATM    3  C7  UNL     1      -8.503  14.796  19.949  1.00  0.00     0.037 C
HETATM    4  C8  UNL     1      -7.611  14.038  20.946  1.00  0.00     0.181 C
HETATM    5  N4  UNL     1      -8.347  12.835  21.290  1.00  0.00    -0.319 N
HETATM    6  C15 UNL     1      -8.009  12.148  22.479  1.00  0.00     0.319 C
HETATM    7  O3  UNL     1      -8.653  11.115  22.768  1.00  0.00    -0.247 OA
HETATM    8  N5  UNL     1      -6.982  12.567  23.358  1.00  0.00    -0.334 N
ATOM      9  H5  UNL     1      -6.470  13.412  23.100  1.00  0.00     0.165 HD
HETATM   10  C26 UNL     1      -9.402  12.322  20.460  1.00  0.00     0.153 C
ENDROOT
BRANCH   4  11
HETATM   11  C9  UNL     1      -6.360  13.725  20.215  1.00  0.00     0.246 C
HETATM   12  O2  UNL     1      -5.797  12.631  20.451  1.00  0.00    -0.271 OA
HETATM   13  N2  UNL     1      -5.828  14.626  19.291  1.00  0.00    -0.311 N
ATOM     14  H2  UNL     1      -6.453  14.947  18.552  1.00  0.00     0.170 HD
BRANCH  13  15
HETATM   15  C10 UNL     1      -4.634  15.090  19.277  1.00  0.00     0.110 A
HETATM   16  C11 UNL     1      -3.755  14.627  18.309  1.00  0.00     0.090 A
HETATM   17  C12 UNL     1      -2.449  15.068  18.216  1.00  0.00     0.121 A
HETATM   18  F1  UNL     1      -1.587  14.617  17.271  1.00  0.00    -0.206 F
HETATM   19  C13 UNL     1      -1.976  16.010  19.113  1.00  0.00     0.059 A
HETATM   20  C14 UNL     1      -2.866  16.455  20.066  1.00  0.00     0.092 A
HETATM   21  N3  UNL     1      -4.149  16.003  20.134  1.00  0.00    -0.352 N
ATOM     22  H3  UNL     1      -4.762  16.371  20.862  1.00  0.00     0.166 HD
ENDBRANCH  13  15
ENDBRANCH   4  11
BRANCH   8  23
HETATM   23  C16 UNL     1      -6.588  11.919  24.582  1.00  0.00     0.035 C
HETATM   24  C17 UNL     1      -7.774  11.435  25.373  1.00  0.00     0.035 C
HETATM   25  C18 UNL     1      -7.303  10.838  26.689  1.00  0.00    -0.012 C
HETATM   26  C19 UNL     1      -6.557  11.834  27.517  1.00  0.00     0.009 C
HETATM   27  C23 UNL     1      -6.374   9.668  26.406  1.00  0.00     0.009 C
HETATM   28  C20 UNL     1      -5.365  12.322  26.719  1.00  0.00    -0.012 C
HETATM   29  C21 UNL     1      -4.411  11.221  26.378  1.00  0.00     0.009 C
HETATM   30  C25 UNL     1      -5.870  12.940  25.447  1.00  0.00     0.035 C
HETATM   31  C22 UNL     1      -5.183  10.172  25.620  1.00  0.00    -0.012 C
HETATM   32  C24 UNL     1      -5.694  10.721  24.310  1.00  0.00     0.035 C
ENDBRANCH   8  23
BRANCH   1  33
HETATM   33  N1  UNL     1     -10.487  12.572  18.293  1.00  0.00    -0.355 N
HETATM   34  C4  UNL     1     -10.599  12.083  16.962  1.00  0.00     0.221 C
HETATM   35  O1  UNL     1      -9.573  11.670  16.363  1.00  0.00    -0.273 OA
ATOM     36  H1  UNL     1     -11.327  12.906  18.767  1.00  0.00     0.162 HD
BRANCH  34  37
HETATM   37  C2  UNL     1     -11.912  12.063  16.293  1.00  0.00     0.070 C
HETATM   38  C1  UNL     1     -12.984  12.626  17.192  1.00  0.00     0.019 C
HETATM   39  C3  UNL     1     -12.306  10.707  15.799  1.00  0.00     0.019 C
ENDBRANCH  34  37
ENDBRANCH   1  33
TORSDOF 5
ENDMDL