MODEL 2
REMARK VINA RESULT: -6.368598605      5.698      8.185
REMARK  9 active torsions:
REMARK  status: ('A' for Active; 'I' for Inactive)
REMARK    1  A    between atoms: C2_2  and  C3_3
REMARK    2  A    between atoms: C3_3  and  C4_4
REMARK    3  A    between atoms: C4_4  and  C5_5
REMARK    4  A    between atoms: C8_10  and  C9_11
REMARK    5  A    between atoms: C9_11  and  C10_12
REMARK    6  A    between atoms: C10_12  and  N4_18
REMARK    7  A    between atoms: N2_13  and  N3_15
REMARK    8  A    between atoms: N4_18  and  C11_20
REMARK    9  A    between atoms: C20_30  and  C22_32
ROOT
HETATM    1  C10 UNL     1      -6.489  13.562  19.503  1.00  0.00     0.118 C
HETATM    2  N2  UNL     1      -5.892  12.841  20.285  1.00  0.00    -0.292 N
ATOM      3  H2  UNL     1      -5.031  13.307  20.568  1.00  0.00     0.188 HD
ENDROOT
BRANCH   1   4
HETATM    4  C9  UNL     1      -5.827  14.860  19.182  1.00  0.00     0.081 C
BRANCH   4   5
HETATM    5  C8  UNL     1      -4.579  15.093  19.011  1.00  0.00     0.059 A
HETATM    6  C6  UNL     1      -3.818  15.891  19.866  1.00  0.00     0.034 A
HETATM    7  N1  UNL     1      -2.569  15.881  19.379  1.00  0.00    -0.344 N
HETATM    8  C7  UNL     1      -4.264  16.643  21.086  1.00  0.00     0.070 C
HETATM    9  C5  UNL     1      -2.474  15.137  18.274  1.00  0.00     0.102 A
ATOM     10  H1  UNL     1      -1.787  16.381  19.801  1.00  0.00     0.167 HD
HETATM   11  N5  UNL     1      -3.742  14.658  18.066  1.00  0.00    -0.341 N
ATOM     12  H5  UNL     1      -4.009  14.049  17.293  1.00  0.00     0.167 HD
BRANCH   9  13
HETATM   13  C4  UNL     1      -1.407  14.897  17.536  1.00  0.00     0.022 C
BRANCH  13  14
HETATM   14  C3  UNL     1      -1.140  15.753  16.367  1.00  0.00     0.030 C
BRANCH  14  15
HETATM   15  C2  UNL     1      -1.529  15.076  15.068  1.00  0.00    -0.001 C
HETATM   16  C1  UNL     1      -0.396  15.038  14.088  1.00  0.00     0.005 C
ENDBRANCH  14  15
ENDBRANCH  13  14
ENDBRANCH   9  13
ENDBRANCH   4   5
ENDBRANCH   1   4
BRANCH   1  17
HETATM   17  N4  UNL     1      -7.740  13.355  18.851  1.00  0.00    -0.365 N
ATOM     18  H4  UNL     1      -7.706  12.758  18.024  1.00  0.00     0.162 HD
BRANCH  17  19
HETATM   19  C11 UNL     1      -9.021  13.855  19.181  1.00  0.00     0.041 C
HETATM   20  C12 UNL     1      -9.020  14.262  20.639  1.00  0.00     0.036 C
HETATM   21  C13 UNL     1     -10.426  14.544  21.121  1.00  0.00    -0.010 C
HETATM   22  C14 UNL     1     -10.829  15.845  20.412  1.00  0.00     0.014 C
HETATM   23  C19 UNL     1     -11.425  13.522  20.710  1.00  0.00     0.026 C
HETATM   24  C15 UNL     1     -10.766  15.568  18.918  1.00  0.00    -0.040 C
HETATM   25  C16 UNL     1     -11.174  16.887  18.246  1.00  0.00     0.015 C
HETATM   26  C17 UNL     1     -11.777  14.533  18.502  1.00  0.00     0.031 C
HETATM   27  C24 UNL     1      -9.398  15.128  18.450  1.00  0.00     0.041 C
HETATM   28  C18 UNL     1     -11.414  13.265  19.196  1.00  0.00     0.029 C
HETATM   29 BR1  UNL     1     -12.795  11.959  18.892  1.00  0.00    -0.085 Br
HETATM   30  C20 UNL     1     -10.042  12.748  18.874  1.00  0.00    -0.002 C
HETATM   31  C21 UNL     1      -9.786  11.554  19.756  1.00  0.00     0.019 C
BRANCH  30  32
HETATM   32  C22 UNL     1      -9.829  12.363  17.448  1.00  0.00     0.009 C
HETATM   33  C23 UNL     1      -9.697  10.917  17.146  1.00  0.00     0.006 C
ENDBRANCH  30  32
ENDBRANCH  17  19
ENDBRANCH   1  17
BRANCH   2  34
HETATM   34  N3  UNL     1      -5.965  11.657  20.907  1.00  0.00    -0.344 N
ATOM     35  H32 UNL     1      -5.313  11.690  21.691  1.00  0.00     0.176 HD
ATOM     36  H31 UNL     1      -6.434  10.751  20.872  1.00  0.00     0.176 HD
ENDBRANCH   2  34
TORSDOF 9
ENDMDL