MODEL 4
REMARK VINA RESULT: -5.383239576      3.063      5.782
REMARK  4 active torsions:
REMARK  status: ('A' for Active; 'I' for Inactive)
REMARK    1  A    between atoms: C2_2  and  C3_3
REMARK    2  A    between atoms: C3_3  and  C4_4
REMARK    3  A    between atoms: C18_20  and  N1_21
REMARK       I    between atoms: N1_21  and  C19_22
REMARK       I    between atoms: C19_22  and  N2_24
REMARK    4  A    between atoms: N2_24  and  N3_26
ROOT
HETATM    1  C4  UNL     1     -11.075  17.384  20.213  1.00  0.00     0.012 C
HETATM    2  C5  UNL     1     -11.010  18.847  20.155  1.00  0.00     0.063 C
HETATM    3 BR1  UNL     1     -12.359  19.714  19.048  1.00  0.00    -0.091 Br
HETATM    4  C6  UNL     1      -9.701  19.442  19.668  1.00  0.00     0.016 C
HETATM    5  C7  UNL     1      -8.588  18.537  20.082  1.00  0.00     0.007 C
HETATM    6  C8  UNL     1      -8.674  17.168  19.450  1.00  0.00    -0.001 C
HETATM    7  C9  UNL     1      -7.911  16.260  20.332  1.00  0.00     0.003 C
HETATM    8  C10 UNL     1      -6.521  16.730  20.684  1.00  0.00     0.013 C
HETATM    9  C11 UNL     1      -6.184  15.989  21.959  1.00  0.00     0.079 C
HETATM   10  C12 UNL     1      -6.879  14.722  22.091  1.00  0.00     0.136 C
HETATM   11  O1  UNL     1      -6.678  14.087  23.132  1.00  0.00    -0.297 OA
HETATM   12  C13 UNL     1      -7.829  14.053  21.120  1.00  0.00     0.027 C
HETATM   13  C14 UNL     1      -7.279  12.626  21.048  1.00  0.00     0.024 C
HETATM   14  C15 UNL     1      -9.226  14.082  21.666  1.00  0.00     0.018 C
HETATM   15  C16 UNL     1     -10.346  14.505  20.809  1.00  0.00     0.010 C
HETATM   16  C17 UNL     1     -10.130  15.147  19.538  1.00  0.00     0.031 C
HETATM   17  C18 UNL     1      -8.836  14.573  18.855  1.00  0.00     0.183 C
HETATM   18  C20 UNL     1      -7.759  14.815  19.853  1.00  0.00     0.007 C
HETATM   19  C21 UNL     1      -6.447  14.683  19.104  1.00  0.00     0.020 C
HETATM   20  C22 UNL     1     -10.095  16.626  19.356  1.00  0.00    -0.029 C
HETATM   21  C23 UNL     1     -10.471  16.946  17.902  1.00  0.00     0.016 C
ENDROOT
BRANCH  17  22
HETATM   22  N1  UNL     1      -9.044  13.355  18.278  1.00  0.00    -0.389 NA
HETATM   23  C19 UNL     1      -9.255  12.124  17.694  1.00  0.00     0.408 C
HETATM   24  O2  UNL     1      -9.637  11.963  16.481  1.00  0.00    -0.229 OA
HETATM   25  N2  UNL     1      -9.046  10.873  18.417  1.00  0.00    -0.226 N
ATOM     26  H2  UNL     1      -8.724  10.887  19.385  1.00  0.00     0.194 HD
BRANCH  25  27
HETATM   27  N3  UNL     1      -9.286   9.685  17.789  1.00  0.00    -0.245 N
HETATM   28  N4  UNL     1     -10.483   9.359  17.507  1.00  0.00    -0.331 N
ATOM     29  H42 UNL     1     -11.244   9.991  17.755  1.00  0.00     0.178 HD
ATOM     30  H41 UNL     1     -10.661   8.472  17.037  1.00  0.00     0.178 HD
ATOM     31  H3  UNL     1      -8.513   9.065  17.547  1.00  0.00     0.208 HD
ENDBRANCH  25  27
ENDBRANCH  17  22
BRANCH   1  32
HETATM   32  C3  UNL     1     -12.487  16.926  20.032  1.00  0.00     0.033 C
BRANCH  32  33
HETATM   33  C2  UNL     1     -13.262  16.804  21.289  1.00  0.00    -0.036 C
HETATM   34  C1  UNL     1     -12.642  16.706  22.447  1.00  0.00     0.007 C
ENDBRANCH  32  33
ENDBRANCH   1  32
TORSDOF 4
ENDMDL