MODEL 1
REMARK VINA RESULT: -5.655275489      0.000      0.000
REMARK  5 active torsions:
REMARK  status: ('A' for Active; 'I' for Inactive)
REMARK    1  A    between atoms: C2_2  and  C3_3
REMARK    2  A    between atoms: C8_8  and  C10_10
REMARK       I    between atoms: C10_10  and  N1_12
REMARK    3  A    between atoms: N1_12  and  C11_14
REMARK    4  A    between atoms: C11_14  and  C12_15
REMARK    5  A    between atoms: C19_23  and  O2_24
ROOT
HETATM    1  C3  UNL     1      -5.289  16.788  24.270  1.00  0.00     0.002 A
HETATM    2  C4  UNL     1      -4.374  17.923  24.095  1.00  0.00    -0.006 A
HETATM    3  C5  UNL     1      -3.857  18.214  22.950  1.00  0.00    -0.058 A
HETATM    4  C6  UNL     1      -2.917  19.289  22.527  1.00  0.00    -0.018 C
HETATM    5  C7  UNL     1      -2.207  18.856  21.516  1.00  0.00     0.047 C
HETATM    6  C8  UNL     1      -2.704  17.410  21.239  1.00  0.00     0.049 C
HETATM    7  C9  UNL     1      -1.787  16.521  22.006  1.00  0.00     0.026 C
HETATM    8  C13 UNL     1      -4.098  17.459  21.653  1.00  0.00     0.045 A
HETATM    9  C14 UNL     1      -5.112  16.423  21.708  1.00  0.00    -0.017 A
HETATM   10  C15 UNL     1      -6.293  16.585  20.723  1.00  0.00     0.022 A
HETATM   11  C16 UNL     1      -5.363  15.407  20.676  1.00  0.00    -0.031 A
HETATM   12  C17 UNL     1      -4.844  15.292  19.295  1.00  0.00     0.013 C
HETATM   13  C18 UNL     1      -5.648  14.333  18.404  1.00  0.00     0.032 C
HETATM   14  C19 UNL     1      -7.093  14.267  18.837  1.00  0.00     0.118 C
HETATM   15  C20 UNL     1      -7.112  13.622  20.188  1.00  0.00     0.032 C
HETATM   16  C21 UNL     1      -5.876  14.018  20.976  1.00  0.00     0.013 C
HETATM   17  C22 UNL     1      -5.716  16.090  23.057  1.00  0.00     0.037 A
HETATM   18  C23 UNL     1      -7.201  16.088  23.168  1.00  0.00     0.239 C
HETATM   19  N2  UNL     1      -7.780  17.430  23.266  1.00  0.00    -0.075 N
ATOM     20  H21 UNL     1      -8.774  17.436  23.039  1.00  0.00     0.277 HD
ATOM     21  H22 UNL     1      -7.455  18.042  22.518  1.00  0.00     0.277 HD
HETATM   22  C24 UNL     1      -7.519  17.979  24.564  1.00  0.00     0.233 C
HETATM   23  C25 UNL     1      -6.384  17.281  25.194  1.00  0.00     0.045 C
ENDROOT
BRANCH   6  24
HETATM   24  C10 UNL     1      -2.311  17.396  19.818  1.00  0.00     0.227 C
HETATM   25  O1  UNL     1      -2.729  18.259  18.977  1.00  0.00    -0.273 OA
HETATM   26  N1  UNL     1      -1.432  16.401  19.292  1.00  0.00    -0.360 N
ATOM     27  H1  UNL     1      -1.073  15.691  19.930  1.00  0.00     0.162 HD
BRANCH  26  28
HETATM   28  C11 UNL     1      -1.025  16.346  17.923  1.00  0.00     0.133 C
BRANCH  28  29
HETATM   29  C12 UNL     1      -1.387  15.052  17.278  1.00  0.00     0.104 C
HETATM   30 BR1  UNL     1      -1.628  15.243  15.371  1.00  0.00    -0.095 Br
ENDBRANCH  28  29
ENDBRANCH  26  28
ENDBRANCH   6  24
BRANCH   1  31
HETATM   31  C2  UNL     1      -4.566  15.808  25.203  1.00  0.00    -0.023 C
HETATM   32  C1  UNL     1      -3.332  16.102  25.543  1.00  0.00     0.008 C
ENDBRANCH   1  31
BRANCH  14  33
HETATM   33  O2  UNL     1      -7.733  13.393  17.956  1.00  0.00    -0.396 OA
ATOM     34  H2  UNL     1      -7.611  12.518  18.305  1.00  0.00     0.210 HD
ENDBRANCH  14  33
TORSDOF 5
ENDMDL