MODEL 5
REMARK VINA RESULT: -5.294233998      1.104      1.265
REMARK  4 active torsions:
REMARK  status: ('A' for Active; 'I' for Inactive)
REMARK    1  A    between atoms: C2_2  and  C3_3
REMARK    2  A    between atoms: C3_3  and  C4_4
REMARK    3  A    between atoms: C4_4  and  N1_5
REMARK    4  A    between atoms: C19_31  and  C21_33
ROOT
HETATM    1  N1  UNL     1      -6.465  15.074  20.357  1.00  0.00    -0.281 N
HETATM    2  C5  UNL     1      -5.217  14.849  19.672  1.00  0.00     0.334 C
HETATM    3  O1  UNL     1      -5.079  13.780  19.039  1.00  0.00    -0.246 OA
HETATM    4  N2  UNL     1      -4.030  15.656  19.575  1.00  0.00    -0.278 N
HETATM    5  C6  UNL     1      -2.980  15.532  18.660  1.00  0.00     0.136 A
HETATM    6  N3  UNL     1      -2.531  14.844  17.601  1.00  0.00    -0.283 N
ATOM      7  H3  UNL     1      -3.021  14.070  17.154  1.00  0.00     0.188 HD
HETATM    8  N4  UNL     1      -1.349  15.323  17.220  1.00  0.00    -0.284 N
ATOM      9  H4  UNL     1      -0.797  14.972  16.437  1.00  0.00     0.188 HD
HETATM   10  C7  UNL     1      -0.993  16.339  18.022  1.00  0.00     0.123 A
HETATM   11  N5  UNL     1       0.065  17.060  17.988  1.00  0.00    -0.384 N
ATOM     12  H51 UNL     1       0.335  17.832  18.598  1.00  0.00     0.157 HD
ATOM     13  H52 UNL     1       0.823  16.956  17.312  1.00  0.00     0.157 HD
HETATM   14  C8  UNL     1      -2.034  16.482  18.950  1.00  0.00     0.034 A
HETATM   15  C9  UNL     1      -2.441  17.285  20.101  1.00  0.00     0.072 A
HETATM   16  C10 UNL     1      -3.780  16.784  20.500  1.00  0.00     0.101 A
HETATM   17  C11 UNL     1      -4.902  17.702  20.254  1.00  0.00     0.032 C
HETATM   18  C12 UNL     1      -6.166  17.546  21.071  1.00  0.00     0.060 C
HETATM   19  C13 UNL     1      -7.035  16.384  20.610  1.00  0.00     0.028 C
HETATM   20  C14 UNL     1      -8.178  16.666  20.198  1.00  0.00    -0.021 C
HETATM   21  C15 UNL     1      -8.999  15.751  19.374  1.00  0.00     0.014 C
HETATM   22  C16 UNL     1     -10.140  16.096  18.755  1.00  0.00     0.052 C
HETATM   23  C17 UNL     1     -10.631  17.458  18.871  1.00  0.00     0.165 C
HETATM   24  O2  UNL     1     -11.779  17.775  18.553  1.00  0.00    -0.292 OA
HETATM   25  C18 UNL     1      -9.605  18.438  19.416  1.00  0.00     0.148 C
HETATM   26 BR1  UNL     1     -10.208  20.172  19.720  1.00  0.00    -0.081 Br
HETATM   27  C19 UNL     1      -9.086  17.770  20.689  1.00  0.00     0.022 C
HETATM   28  C20 UNL     1      -8.736  18.731  21.714  1.00  0.00     0.026 C
ENDROOT
BRANCH   1  29
HETATM   29  C4  UNL     1      -7.033  13.969  21.019  1.00  0.00     0.078 C
BRANCH  29  30
HETATM   30  C3  UNL     1      -6.947  13.405  22.342  1.00  0.00     0.071 C
BRANCH  30  31
HETATM   31  C2  UNL     1      -7.078  14.264  23.525  1.00  0.00    -0.032 C
HETATM   32  C1  UNL     1      -8.189  14.942  23.754  1.00  0.00     0.007 C
ENDBRANCH  30  31
ENDBRANCH  29  30
ENDBRANCH   1  29
BRANCH  27  33
HETATM   33  C21 UNL     1     -10.336  17.079  21.265  1.00  0.00    -0.021 C
HETATM   34  C22 UNL     1     -10.810  17.238  22.447  1.00  0.00     0.008 C
ENDBRANCH  27  33
TORSDOF 4
ENDMDL