MODEL 2
REMARK VINA RESULT: -6.292329270      3.080      4.934
REMARK  9 active torsions:
REMARK  status: ('A' for Active; 'I' for Inactive)
REMARK       I    between atoms: C2_4  and  N2_5
REMARK       I    between atoms: C2_4  and  N7_31
REMARK    1  A    between atoms: N2_5  and  C3_7
REMARK    2  A    between atoms: C3_7  and  C4_8
REMARK    3  A    between atoms: C4_8  and  N3_9
REMARK    4  A    between atoms: N3_9  and  C5_10
REMARK    5  A    between atoms: C5_10  and  N4_12
REMARK    6  A    between atoms: C8_15  and  N5_16
REMARK    7  A    between atoms: N5_16  and  C9_18
REMARK    8  A    between atoms: C9_18  and  N6_20
REMARK    9  A    between atoms: N6_20  and  C10_22
ROOT
HETATM    1  N4  UNL     1      -7.804  15.037  19.209  1.00  0.00    -0.344 N
HETATM    2  C6  UNL     1      -6.616  14.474  18.692  1.00  0.00     0.128 C
HETATM    3  C7  UNL     1      -5.510  14.457  19.759  1.00  0.00     0.048 C
HETATM    4  C8  UNL     1      -5.344  15.857  20.214  1.00  0.00     0.126 C
HETATM    5  C15 UNL     1      -6.567  16.357  20.917  1.00  0.00     0.136 C
HETATM    6  C16 UNL     1      -6.603  17.898  20.878  1.00  0.00     0.055 C
HETATM    7  F1  UNL     1      -6.497  16.007  22.285  1.00  0.00    -0.239 F
HETATM    8  C17 UNL     1      -7.849  15.894  20.334  1.00  0.00     0.171 C
ENDROOT
BRANCH   1   9
HETATM    9  C5  UNL     1      -9.085  14.763  18.555  1.00  0.00     0.246 C
HETATM   10  S1  UNL     1     -10.088  16.079  18.362  1.00  0.00    -0.025 SA
BRANCH   9  11
HETATM   11  N3  UNL     1      -9.342  13.539  18.222  1.00  0.00    -0.392 NA
BRANCH  11  12
HETATM   12  C4  UNL     1      -9.586  12.441  17.933  1.00  0.00     0.178 C
BRANCH  12  13
HETATM   13  C3  UNL     1      -9.556  11.323  18.985  1.00  0.00     0.197 C
BRANCH  13  14
HETATM   14  N2  UNL     1      -8.191  11.363  19.442  1.00  0.00    -0.221 N
HETATM   15  C2  UNL     1      -7.985  11.299  20.868  1.00  0.00     0.671 C
HETATM   16  N1  UNL     1      -7.940  12.427  21.428  1.00  0.00    -0.231 N
HETATM   17  N7  UNL     1      -7.886  10.020  21.421  1.00  0.00    -0.218 N
HETATM   18  C1  UNL     1      -7.759  12.768  22.802  1.00  0.00     0.165 C
ATOM     19  H1  UNL     1      -8.049  13.222  20.799  1.00  0.00     0.177 HD
HETATM   20  C18 UNL     1      -6.717   9.558  22.193  1.00  0.00     0.141 C
HETATM   21  C22 UNL     1      -8.911   9.004  21.245  1.00  0.00     0.141 C
HETATM   22  C19 UNL     1      -7.186   9.133  23.548  1.00  0.00     0.020 C
HETATM   23  C20 UNL     1      -8.255   8.053  23.369  1.00  0.00     0.003 C
HETATM   24  C21 UNL     1      -9.431   8.719  22.655  1.00  0.00     0.020 C
ATOM     25  H2  UNL     1      -7.410  11.433  18.790  1.00  0.00     0.178 HD
ENDBRANCH  13  14
ENDBRANCH  12  13
ENDBRANCH  11  12
ENDBRANCH   9  11
ENDBRANCH   1   9
BRANCH   4  26
HETATM   26  N5  UNL     1      -4.119  16.163  20.857  1.00  0.00    -0.359 N
ATOM     27  H5  UNL     1      -4.013  15.848  21.822  1.00  0.00     0.162 HD
BRANCH  26  28
HETATM   28  C9  UNL     1      -3.048  16.852  20.298  1.00  0.00     0.168 C
HETATM   29  S2  UNL     1      -2.851  18.467  20.461  1.00  0.00    -0.041 SA
BRANCH  28  30
HETATM   30  N6  UNL     1      -2.071  16.177  19.563  1.00  0.00    -0.363 N
ATOM     31  H6  UNL     1      -1.331  15.702  20.080  1.00  0.00     0.162 HD
BRANCH  30  32
HETATM   32  C10 UNL     1      -2.036  16.108  18.144  1.00  0.00     0.083 C
HETATM   33  C11 UNL     1      -0.717  15.962  17.473  1.00  0.00     0.025 C
HETATM   34  C12 UNL     1      -1.093  15.412  16.101  1.00  0.00     0.002 C
HETATM   35  C13 UNL     1      -2.572  15.038  16.187  1.00  0.00     0.002 C
HETATM   36  C14 UNL     1      -2.722  14.801  17.664  1.00  0.00     0.025 C
ENDBRANCH  30  32
ENDBRANCH  28  30
ENDBRANCH  26  28
ENDBRANCH   4  26
TORSDOF 9
ENDMDL