MODEL 2
REMARK VINA RESULT: -6.612828301      1.062      1.749
REMARK  5 active torsions:
REMARK  status: ('A' for Active; 'I' for Inactive)
REMARK       I    between atoms: C1_2  and  N2_4
REMARK    1  A    between atoms: C4_7  and  C5_8
REMARK    2  A    between atoms: C5_8  and  C6_9
REMARK       I    between atoms: C6_9  and  N3_11
REMARK    3  A    between atoms: N3_11  and  C7_13
REMARK    4  A    between atoms: C8_18  and  C9_19
REMARK    5  A    between atoms: C20_31  and  C21_32
ROOT
HETATM    1  C7  UNL     1      -9.818  10.852  17.052  1.00  0.00     0.131 A
HETATM    2  N4  UNL     1      -9.050  10.017  17.713  1.00  0.00    -0.285 N
ATOM      3  H4  UNL     1      -8.865   9.047  17.459  1.00  0.00     0.188 HD
HETATM    4  N5  UNL     1      -8.555  10.650  18.770  1.00  0.00    -0.302 N
ATOM      5  H5  UNL     1      -7.925  10.230  19.453  1.00  0.00     0.186 HD
HETATM    6  C8  UNL     1      -8.998  11.926  18.816  1.00  0.00     0.045 A
HETATM    7  C20 UNL     1      -9.802  12.091  17.746  1.00  0.00     0.016 A
ENDROOT
BRANCH   1   8
HETATM    8  N3  UNL     1     -10.469  10.650  16.016  1.00  0.00    -0.312 N
HETATM    9  C6  UNL     1     -11.150   9.619  15.425  1.00  0.00     0.223 C
HETATM   10  O2  UNL     1     -11.440   8.524  15.939  1.00  0.00    -0.273 OA
ATOM     11  H3  UNL     1     -10.509  11.492  15.441  1.00  0.00     0.170 HD
BRANCH   9  12
HETATM   12  C5  UNL     1     -11.582   9.870  13.991  1.00  0.00     0.108 C
BRANCH  12  13
HETATM   13  C4  UNL     1     -11.993   8.525  13.438  1.00  0.00    -0.003 C
HETATM   14  C3  UNL     1     -11.076   8.158  12.314  1.00  0.00     0.025 C
HETATM   15  C2  UNL     1     -11.858   7.591  11.136  1.00  0.00     0.127 C
HETATM   16  N2  UNL     1     -12.910   8.564  10.798  1.00  0.00    -0.337 N
HETATM   17  C1  UNL     1     -13.110   9.010   9.486  1.00  0.00     0.330 C
HETATM   18  C25 UNL     1     -13.787   9.095  11.843  1.00  0.00     0.127 C
HETATM   19  N1  UNL     1     -12.324   8.523   8.427  1.00  0.00    -0.040 NA
HETATM   20  O1  UNL     1     -13.993   9.860   9.198  1.00  0.00    -0.251 OA
HETATM   21  C24 UNL     1     -13.449   8.412  13.122  1.00  0.00     0.025 C
ENDBRANCH  12  13
ENDBRANCH   9  12
ENDBRANCH   1   8
BRANCH   7  22
HETATM   22  C21 UNL     1     -10.508  13.213  17.215  1.00  0.00     0.024 A
HETATM   23  C22 UNL     1     -10.873  14.530  17.675  1.00  0.00     0.010 A
HETATM   24  C23 UNL     1     -11.921  13.477  17.721  1.00  0.00     0.010 A
ENDBRANCH   7  22
BRANCH   6  25
HETATM   25  C9  UNL     1      -8.565  12.853  19.878  1.00  0.00     0.005 C
HETATM   26  C10 UNL     1      -9.660  13.480  20.628  1.00  0.00     0.020 C
HETATM   27  C11 UNL     1      -9.283  14.667  21.491  1.00  0.00    -0.012 C
HETATM   28  C12 UNL     1      -8.451  15.676  20.793  1.00  0.00     0.009 C
HETATM   29  C18 UNL     1      -8.769  14.256  22.829  1.00  0.00     0.025 C
HETATM   30  C13 UNL     1      -7.356  15.070  20.011  1.00  0.00    -0.013 C
HETATM   31  C14 UNL     1      -6.298  14.532  20.945  1.00  0.00     0.011 C
HETATM   32  C19 UNL     1      -7.881  14.028  19.098  1.00  0.00     0.020 C
HETATM   33  C15 UNL     1      -6.772  13.260  21.620  1.00  0.00     0.005 C
HETATM   34  C16 UNL     1      -7.454  12.298  20.675  1.00  0.00     0.022 C
HETATM   35  C17 UNL     1      -7.505  13.517  22.878  1.00  0.00     0.086 C
HETATM   36 CL1  UNL     1      -7.589  11.989  23.830  1.00  0.00    -0.125 Cl
ENDBRANCH   6  25
TORSDOF 5
ENDMDL