MODEL 4
REMARK VINA RESULT: -6.600845187      2.351      3.471
REMARK  6 active torsions:
REMARK  status: ('A' for Active; 'I' for Inactive)
REMARK    1  A    between atoms: C9_16  and  C10_17
REMARK    2  A    between atoms: C10_17  and  C11_18
REMARK    3  A    between atoms: C11_18  and  C12_19
REMARK    4  A    between atoms: N3_22  and  C15_23
REMARK    5  A    between atoms: C15_23  and  C16_24
REMARK    6  A    between atoms: C17_25  and  C18_26
ROOT
HETATM    1  C1  UNL     1      -4.840  16.560  23.359  1.00  0.00     0.089 C
HETATM    2  C2  UNL     1      -5.948  16.336  22.399  1.00  0.00     0.076 C
HETATM    3  N1  UNL     1      -6.803  17.283  22.197  1.00  0.00    -0.316 N
ATOM      4  H1  UNL     1      -6.641  18.136  22.732  1.00  0.00     0.170 HD
HETATM    5  C3  UNL     1      -7.941  17.311  21.335  1.00  0.00     0.241 C
HETATM    6  O1  UNL     1      -8.863  18.109  21.643  1.00  0.00    -0.271 OA
HETATM    7  C4  UNL     1      -8.067  16.468  20.140  1.00  0.00     0.181 C
HETATM    8 CL1  UNL     1      -9.615  16.924  19.347  1.00  0.00    -0.115 Cl
HETATM    9  C5  UNL     1      -8.058  15.016  20.319  1.00  0.00     0.045 C
HETATM   10  C6  UNL     1      -9.391  14.602  20.994  1.00  0.00     0.024 C
HETATM   11  C7  UNL     1      -9.041  13.145  21.262  1.00  0.00     0.084 C
HETATM   12  C8  UNL     1      -8.637  12.549  19.947  1.00  0.00     0.222 C
HETATM   13  O2  UNL     1      -9.392  12.254  19.022  1.00  0.00    -0.273 OA
HETATM   14  N2  UNL     1      -7.201  12.307  19.787  1.00  0.00    -0.354 N
ATOM     15  H2  UNL     1      -6.861  11.403  19.460  1.00  0.00     0.163 HD
HETATM   16  C9  UNL     1      -6.283  13.359  20.098  1.00  0.00     0.113 C
HETATM   17  C24 UNL     1      -7.021  14.332  21.086  1.00  0.00     0.061 C
HETATM   18  N4  UNL     1      -6.005  15.056  21.742  1.00  0.00    -0.368 N
ATOM     19  H4  UNL     1      -5.112  14.562  21.755  1.00  0.00     0.161 HD
HETATM   20  C25 UNL     1      -7.733  13.334  22.011  1.00  0.00     0.025 C
HETATM   21  C26 UNL     1      -7.925  13.823  23.392  1.00  0.00     0.013 C
ENDROOT
BRANCH  16  22
HETATM   22  C10 UNL     1      -5.683  14.087  19.003  1.00  0.00     0.032 C
BRANCH  22  23
HETATM   23  C11 UNL     1      -4.287  13.877  18.632  1.00  0.00     0.041 C
BRANCH  23  24
HETATM   24  C12 UNL     1      -3.354  14.996  18.598  1.00  0.00    -0.056 A
HETATM   25  C13 UNL     1      -2.288  15.119  17.713  1.00  0.00     0.024 A
HETATM   26  C14 UNL     1      -1.464  16.219  17.764  1.00  0.00     0.092 A
HETATM   27  N3  UNL     1      -1.640  17.207  18.650  1.00  0.00    -0.356 N
HETATM   28  C22 UNL     1      -2.661  17.109  19.511  1.00  0.00     0.092 A
HETATM   29  C23 UNL     1      -3.520  16.034  19.510  1.00  0.00     0.024 A
BRANCH  27  30
HETATM   30  C15 UNL     1      -0.770  18.344  18.684  1.00  0.00     0.221 C
BRANCH  30  31
HETATM   31  C16 UNL     1      -1.427  19.520  18.066  1.00  0.00    -0.086 C
HETATM   32  C17 UNL     1      -1.970  20.465  17.551  1.00  0.00    -0.096 C
BRANCH  32  33
HETATM   33  C18 UNL     1      -2.641  21.590  16.921  1.00  0.00     0.013 C
HETATM   34  C19 UNL     1      -3.827  21.103  16.090  1.00  0.00     0.028 C
HETATM   35  C20 UNL     1      -3.090  22.594  17.952  1.00  0.00     0.028 C
HETATM   36  C21 UNL     1      -1.712  22.327  15.959  1.00  0.00     0.028 C
ENDBRANCH  32  33
ENDBRANCH  30  31
ENDBRANCH  27  30
ENDBRANCH  23  24
ENDBRANCH  22  23
ENDBRANCH  16  22
TORSDOF 6
ENDMDL