MODEL 2
REMARK VINA RESULT: -5.683715899      1.328      1.673
REMARK  2 active torsions:
REMARK  status: ('A' for Active; 'I' for Inactive)
REMARK    1  A    between atoms: C2_3  and  C3_4
REMARK    2  A    between atoms: C5_7  and  C6_8
ROOT
HETATM    1  N1  UNL     1      41.399  79.024  41.829  1.00  0.00    -0.197 NA
HETATM    2  C1  UNL     1      41.860  79.600  40.955  1.00  0.00     0.059 C
HETATM    3  C2  UNL     1      42.451  80.341  39.866  1.00  0.00     0.130 C
ENDROOT
BRANCH   3   4
HETATM    4  C3  UNL     1      42.419  79.561  38.589  1.00  0.00     0.025 C
HETATM    5  C4  UNL     1      43.068  78.218  38.679  1.00  0.00     0.173 C
HETATM    6  O1  UNL     1      43.708  77.966  37.478  1.00  0.00    -0.385 OA
HETATM    7  C5  UNL     1      43.421  78.974  36.603  1.00  0.00     0.132 C
HETATM    8  C7  UNL     1      43.245  80.207  37.494  1.00  0.00     0.040 C
BRANCH   7   9
HETATM    9  C6  UNL     1      44.475  79.242  35.580  1.00  0.00     0.118 C
HETATM   10  S1  UNL     1      44.834  77.790  34.578  1.00  0.00    -0.095 SA
ENDBRANCH   7   9
ENDBRANCH   3   4
TORSDOF 2
ENDMDL