MODEL 1
REMARK VINA RESULT: -5.688734806      0.000      0.000
REMARK  3 active torsions:
REMARK  status: ('A' for Active; 'I' for Inactive)
REMARK    1  A    between atoms: C5_5  and  C6_6
REMARK    2  A    between atoms: C6_6  and  S1_7
REMARK    3  A    between atoms: S1_7  and  O1_8
ROOT
HETATM    1  C1  UNL     1      43.861  78.561  34.831  1.00  0.00     0.032 C
HETATM    2  C2  UNL     1      44.483  78.709  36.219  1.00  0.00     0.076 C
HETATM    3  C3  UNL     1      43.803  77.744  37.130  1.00  0.00     0.025 C
HETATM    4  C4  UNL     1      42.707  78.349  37.968  1.00  0.00     0.013 C
HETATM    5  C5  UNL     1      43.174  79.637  38.584  1.00  0.00     0.035 C
HETATM    6  C7  UNL     1      43.524  80.563  37.441  1.00  0.00     0.061 C
HETATM    7  N1  UNL     1      44.501  80.054  36.578  1.00  0.00    -0.398 N
ATOM      8  H1  UNL     1      45.227  80.669  36.211  1.00  0.00     0.159 HD
ENDROOT
BRANCH   5   9
HETATM    9  C6  UNL     1      42.113  80.235  39.467  1.00  0.00     0.114 C
BRANCH   9  10
HETATM   10  S1  UNL     1      42.294  79.812  41.176  1.00  0.00    -0.015 SA
BRANCH  10  11
HETATM   11  O1  UNL     1      42.685  80.985  42.042  1.00  0.00    -0.330 OA
ATOM     12  H1  UNL     1      42.362  80.918  42.933  1.00  0.00     0.227 HD
ENDBRANCH  10  11
ENDBRANCH   9  10
ENDBRANCH   5   9
TORSDOF 3
ENDMDL