MODEL 4
REMARK VINA RESULT: -3.597476081      2.221      4.591
REMARK  2 active torsions:
REMARK  status: ('A' for Active; 'I' for Inactive)
REMARK    1  A    between atoms: C2_2  and  C3_3
REMARK    2  A    between atoms: C3_3  and  N1_4
ROOT
HETATM    1  N1  UNL     1      42.747  79.841  38.355  1.00  0.00    -0.363 N
HETATM    2  C4  UNL     1      41.935  78.706  38.447  1.00  0.00     0.074 C
HETATM    3  C5  UNL     1      42.562  77.452  37.881  1.00  0.00     0.125 C
HETATM    4  S1  UNL     1      44.207  77.896  37.182  1.00  0.00    -0.106 SA
HETATM    5  C6  UNL     1      43.911  79.457  36.356  1.00  0.00     0.079 C
HETATM    6  N2  UNL     1      44.423  79.680  35.225  1.00  0.00    -0.393 N
ATOM      7  H21 UNL     1      44.255  80.569  34.756  1.00  0.00     0.156 HD
ATOM      8  H22 UNL     1      45.020  79.029  34.713  1.00  0.00     0.156 HD
HETATM    9  C7  UNL     1      43.043  80.404  37.103  1.00  0.00     0.126 C
ENDROOT
BRANCH   1  10
HETATM   10  C3  UNL     1      42.905  80.638  39.520  1.00  0.00     0.154 C
BRANCH  10  11
HETATM   11  C2  UNL     1      42.476  79.976  40.774  1.00  0.00    -0.017 C
HETATM   12  C1  UNL     1      42.906  80.339  41.967  1.00  0.00     0.008 C
ENDBRANCH  10  11
ENDBRANCH   1  10
TORSDOF 2
ENDMDL