MODEL 5
REMARK VINA RESULT: -4.955382987      1.793      2.139
REMARK  3 active torsions:
REMARK  status: ('A' for Active; 'I' for Inactive)
REMARK    1  A    between atoms: S1_3  and  C2_4
REMARK    2  A    between atoms: C2_4  and  C3_5
REMARK    3  A    between atoms: C3_5  and  N2_6
ROOT
HETATM    1  N1  UNL     1      40.337  78.515  41.987  1.00  0.00    -0.184 NA
HETATM    2  C1  UNL     1      41.268  79.107  41.572  1.00  0.00     0.133 C
HETATM    3  S1  UNL     1      42.646  80.009  40.990  1.00  0.00    -0.048 SA
ENDROOT
BRANCH   3   4
HETATM    4  C2  UNL     1      42.476  80.511  39.288  1.00  0.00     0.128 C
BRANCH   4   5
HETATM    5  C3  UNL     1      42.760  79.474  38.284  1.00  0.00     0.133 C
HETATM    6  C4  UNL     1      43.860  79.948  37.308  1.00  0.00     0.039 C
HETATM    7  C5  UNL     1      43.872  78.741  36.400  1.00  0.00     0.002 C
HETATM    8  C6  UNL     1      43.882  77.595  37.384  1.00  0.00     0.002 C
HETATM    9  C7  UNL     1      43.294  78.155  38.698  1.00  0.00     0.039 C
BRANCH   5  10
HETATM   10  N2  UNL     1      41.593  79.215  37.424  1.00  0.00    -0.070 N
ATOM     11  H23 UNL     1      41.612  79.796  36.585  1.00  0.00     0.275 HD
ATOM     12  H22 UNL     1      41.651  78.297  36.983  1.00  0.00     0.275 HD
ATOM     13  H21 UNL     1      40.717  79.327  37.934  1.00  0.00     0.275 HD
ENDBRANCH   5  10
ENDBRANCH   4   5
ENDBRANCH   3   4
TORSDOF 3
ENDMDL