MODEL 1
REMARK VINA RESULT: -4.676689688      0.000      0.000
REMARK  4 active torsions:
REMARK  status: ('A' for Active; 'I' for Inactive)
REMARK    1  A    between atoms: N1_1  and  C1_5
REMARK    2  A    between atoms: C1_5  and  C2_6
REMARK    3  A    between atoms: C2_6  and  S1_7
REMARK    4  A    between atoms: S1_7  and  C3_8
ROOT
HETATM    1  C2  UNL     1      44.533  78.066  34.312  1.00  0.00     0.101 C
ENDROOT
BRANCH   1   2
HETATM    2  C1  UNL     1      46.015  78.098  33.953  1.00  0.00     0.239 C
BRANCH   2   3
HETATM    3  N1  UNL     1      46.231  78.375  32.559  1.00  0.00    -0.079 N
ATOM      4  H13 UNL     1      47.073  77.911  32.217  1.00  0.00     0.274 HD
ATOM      5  H12 UNL     1      45.539  77.904  31.978  1.00  0.00     0.274 HD
ATOM      6  H11 UNL     1      46.257  79.376  32.364  1.00  0.00     0.274 HD
ENDBRANCH   2   3
ENDBRANCH   1   2
BRANCH   1   7
HETATM    7  S1  UNL     1      44.365  78.892  35.903  1.00  0.00    -0.163 SA
BRANCH   7   8
HETATM    8  C3  UNL     1      43.005  78.243  36.891  1.00  0.00     0.047 C
HETATM    9  C4  UNL     1      43.518  77.713  38.224  1.00  0.00     0.015 C
HETATM   10  C5  UNL     1      43.958  78.969  38.928  1.00  0.00     0.001 C
HETATM   11  C6  UNL     1      43.402  80.141  38.143  1.00  0.00     0.001 C
HETATM   12  C7  UNL     1      42.249  79.467  37.402  1.00  0.00     0.015 C
ENDBRANCH   7   8
ENDBRANCH   1   7
TORSDOF 4
ENDMDL