MODEL 4
REMARK VINA RESULT: -5.154732897      1.072      1.671
REMARK  2 active torsions:
REMARK  status: ('A' for Active; 'I' for Inactive)
REMARK    1  A    between atoms: C2_5  and  N3_6
REMARK    2  A    between atoms: N3_6  and  C3_8
ROOT
HETATM    1  N1  UNL     1      40.016  78.467  42.371  1.00  0.00    -0.172 NA
HETATM    2  C1  UNL     1      40.874  78.811  41.661  1.00  0.00     0.182 C
HETATM    3  N2  UNL     1      41.914  79.203  40.819  1.00  0.00    -0.290 N
ATOM      4  H2  UNL     1      42.861  78.878  41.013  1.00  0.00     0.178 HD
HETATM    5  C2  UNL     1      41.709  79.965  39.807  1.00  0.00     0.188 C
ENDROOT
BRANCH   5   6
HETATM    6  N3  UNL     1      42.731  80.391  38.923  1.00  0.00    -0.359 N
ATOM      7  H3  UNL     1      42.758  81.378  38.669  1.00  0.00     0.162 HD
BRANCH   6   8
HETATM    8  C3  UNL     1      43.724  79.534  38.364  1.00  0.00     0.221 C
HETATM    9  C4  UNL     1      43.177  78.230  37.843  1.00  0.00     0.054 C
HETATM   10  C5  UNL     1      44.123  77.728  36.773  1.00  0.00     0.006 C
HETATM   11  C6  UNL     1      44.052  78.696  35.615  1.00  0.00     0.026 C
HETATM   12  C7  UNL     1      44.059  80.108  36.144  1.00  0.00     0.170 C
HETATM   13  O1  UNL     1      44.490  80.205  37.450  1.00  0.00    -0.367 OA
ENDBRANCH   6   8
ENDBRANCH   5   6
TORSDOF 2
ENDMDL