MODEL 5
REMARK VINA RESULT: -6.193501036      4.068      6.667
REMARK  2 active torsions:
REMARK  status: ('A' for Active; 'I' for Inactive)
REMARK    1  A    between atoms: C2_3  and  N3_6
REMARK    2  A    between atoms: N3_6  and  C4_8
ROOT
HETATM    1  N1  UNL     1      43.774  78.900  31.565  1.00  0.00    -0.194 NA
HETATM    2  C1  UNL     1      44.178  78.641  32.614  1.00  0.00     0.099 C
HETATM    3  C2  UNL     1      44.698  78.341  33.943  1.00  0.00     0.293 C
HETATM    4  C3  UNL     1      46.163  78.124  33.905  1.00  0.00     0.099 C
HETATM    5  N2  UNL     1      47.317  77.973  33.873  1.00  0.00    -0.194 NA
ENDROOT
BRANCH   3   6
HETATM    6  N3  UNL     1      44.403  79.205  34.945  1.00  0.00    -0.391 N
ATOM      7  H3  UNL     1      44.154  80.143  34.632  1.00  0.00     0.155 HD
BRANCH   6   8
HETATM    8  C4  UNL     1      44.381  79.038  36.309  1.00  0.00     0.078 C
HETATM    9  C5  UNL     1      43.401  78.051  36.882  1.00  0.00     0.024 C
HETATM   10  C6  UNL     1      43.408  78.305  38.381  1.00  0.00     0.002 C
HETATM   11  C7  UNL     1      42.497  79.494  38.546  1.00  0.00     0.000 C
HETATM   12  C8  UNL     1      43.194  80.660  37.910  1.00  0.00     0.002 C
HETATM   13  C9  UNL     1      44.263  80.394  36.962  1.00  0.00     0.024 C
ENDBRANCH   6   8
ENDBRANCH   3   6
TORSDOF 2
ENDMDL