MODEL 1
REMARK VINA RESULT: -4.851773036      0.000      0.000
REMARK  3 active torsions:
REMARK  status: ('A' for Active; 'I' for Inactive)
REMARK    1  A    between atoms: N1_1  and  C1_5
REMARK    2  A    between atoms: C1_5  and  C2_6
REMARK    3  A    between atoms: C2_6  and  N2_7
ROOT
HETATM    1  C2  UNL     1      43.192  79.647  38.284  1.00  0.00     0.120 C
HETATM    2  C3  UNL     1      44.341  80.118  37.421  1.00  0.00     0.039 C
HETATM    3  C4  UNL     1      44.104  79.849  35.953  1.00  0.00     0.003 C
HETATM    4  C5  UNL     1      44.302  78.345  35.758  1.00  0.00     0.000 C
HETATM    5  C6  UNL     1      43.626  77.603  36.892  1.00  0.00     0.003 C
HETATM    6  C7  UNL     1      42.582  78.459  37.576  1.00  0.00     0.039 C
ENDROOT
BRANCH   1   7
HETATM    7  C1  UNL     1      43.766  79.266  39.629  1.00  0.00     0.267 C
BRANCH   7   8
HETATM    8  N1  UNL     1      43.051  79.965  40.679  1.00  0.00    -0.077 N
ATOM      9  H13 UNL     1      43.578  79.987  41.553  1.00  0.00     0.274 HD
ATOM     10  H12 UNL     1      43.005  80.970  40.510  1.00  0.00     0.274 HD
ATOM     11  H11 UNL     1      42.126  79.552  40.799  1.00  0.00     0.274 HD
ENDBRANCH   7   8
ENDBRANCH   1   7
BRANCH   1  12
HETATM   12  N2  UNL     1      42.175  80.626  38.455  1.00  0.00    -0.143 N
HETATM   13  O1  UNL     1      42.417  81.802  38.132  1.00  0.00    -0.536 OA
HETATM   14  O2  UNL     1      40.921  80.375  38.958  1.00  0.00    -0.536 OA
ENDBRANCH   1  12
TORSDOF 3
ENDMDL