MODEL 4
REMARK VINA RESULT: -4.972685166      1.048      1.834
REMARK  2 active torsions:
REMARK  status: ('A' for Active; 'I' for Inactive)
REMARK    1  A    between atoms: C1_2  and  C2_3
REMARK    2  A    between atoms: C2_3  and  C3_4
ROOT
HETATM    1  C3  UNL     1      43.544  78.945  38.371  1.00  0.00     0.122 C
HETATM    2  C4  UNL     1      43.454  77.702  37.533  1.00  0.00     0.032 C
HETATM    3  C5  UNL     1      44.024  77.823  36.174  1.00  0.00     0.004 C
HETATM    4  C6  UNL     1      44.359  79.192  35.716  1.00  0.00     0.026 C
HETATM    5  C7  UNL     1      43.994  80.296  36.627  1.00  0.00     0.168 C
HETATM    6  O1  UNL     1      43.059  79.996  37.588  1.00  0.00    -0.386 OA
ENDROOT
BRANCH   1   7
HETATM    7  C2  UNL     1      42.661  78.825  39.567  1.00  0.00     0.043 C
BRANCH   7   8
HETATM    8  C1  UNL     1      42.227  80.160  40.127  1.00  0.00     0.088 C
HETATM    9  S1  UNL     1      42.860  80.327  41.820  1.00  0.00    -0.098 SA
ENDBRANCH   7   8
ENDBRANCH   1   7
TORSDOF 2
ENDMDL