MODEL 3
REMARK VINA RESULT: -4.609594262      1.786      2.630
REMARK  3 active torsions:
REMARK  status: ('A' for Active; 'I' for Inactive)
REMARK    1  A    between atoms: S1_3  and  C2_4
REMARK    2  A    between atoms: C2_4  and  C3_5
REMARK    3  A    between atoms: C3_5  and  N2_6
ROOT
HETATM    1  N1  UNL     1      42.971  80.720  42.205  1.00  0.00    -0.184 NA
HETATM    2  C1  UNL     1      42.510  80.438  41.157  1.00  0.00     0.134 C
HETATM    3  S1  UNL     1      41.832  80.042  39.563  1.00  0.00    -0.039 SA
ENDROOT
BRANCH   3   4
HETATM    4  C2  UNL     1      43.127  79.376  38.485  1.00  0.00     0.046 C
HETATM    5  C4  UNL     1      42.603  79.309  37.092  1.00  0.00     0.023 C
HETATM    6  C5  UNL     1      43.331  80.356  36.287  1.00  0.00     0.002 C
HETATM    7  C6  UNL     1      44.531  80.798  37.088  1.00  0.00     0.002 C
HETATM    8  C7  UNL     1      44.347  80.274  38.486  1.00  0.00     0.023 C
BRANCH   4   9
HETATM    9  C3  UNL     1      43.472  77.991  39.018  1.00  0.00     0.251 C
BRANCH   9  10
HETATM   10  N2  UNL     1      42.962  76.956  38.133  1.00  0.00    -0.078 N
ATOM     11  H23 UNL     1      42.380  76.285  38.633  1.00  0.00     0.274 HD
ATOM     12  H22 UNL     1      42.259  77.322  37.491  1.00  0.00     0.274 HD
ATOM     13  H21 UNL     1      43.726  76.498  37.636  1.00  0.00     0.274 HD
ENDBRANCH   9  10
ENDBRANCH   4   9
ENDBRANCH   3   4
TORSDOF 3
ENDMDL