MODEL 5
REMARK VINA RESULT: -5.247053202      1.312      1.697
REMARK  4 active torsions:
REMARK  status: ('A' for Active; 'I' for Inactive)
REMARK    1  A    between atoms: N1_2  and  C3_4
REMARK    2  A    between atoms: N3_8  and  C5_9
REMARK    3  A    between atoms: C11_15  and  C12_16
REMARK    4  A    between atoms: C12_16  and  C13_17
ROOT
HETATM    1  C3  UNL     1      41.116  37.284  86.115  1.00  0.00     0.126 A
HETATM    2  N2  UNL     1      40.634  37.783  87.275  1.00  0.00    -0.337 N
ATOM      3  H2  UNL     1      39.645  37.952  87.456  1.00  0.00     0.168 HD
HETATM    4  C4  UNL     1      41.605  38.029  88.155  1.00  0.00     0.185 A
HETATM    5  N3  UNL     1      42.768  37.685  87.570  1.00  0.00    -0.338 N
HETATM    6  C11 UNL     1      42.489  37.224  86.315  1.00  0.00     0.059 A
ENDROOT
BRANCH   6   7
HETATM    7  C12 UNL     1      43.442  36.736  85.310  1.00  0.00     0.094 C
BRANCH   7   8
HETATM    8  C13 UNL     1      43.911  35.329  85.553  1.00  0.00     0.137 C
HETATM    9  O1  UNL     1      43.077  34.559  86.363  1.00  0.00    -0.384 OA
HETATM   10  C14 UNL     1      42.464  34.045  85.223  1.00  0.00     0.179 C
HETATM   11  C15 UNL     1      43.707  34.358  84.448  1.00  0.00     0.000 C
HETATM   12  C16 UNL     1      44.689  33.208  84.474  1.00  0.00     0.020 C
HETATM   13  C17 UNL     1      43.521  34.901  83.070  1.00  0.00     0.020 C
ENDBRANCH   7   8
ENDBRANCH   6   7
BRANCH   1  14
HETATM   14  N1  UNL     1      40.381  36.908  84.959  1.00  0.00    -0.374 N
HETATM   15  C1  UNL     1      40.588  37.558  83.709  1.00  0.00     0.150 C
HETATM   16  C2  UNL     1      39.411  35.844  85.071  1.00  0.00     0.150 C
ENDBRANCH   1  14
BRANCH   5  17
HETATM   17  C5  UNL     1      44.085  37.788  88.179  1.00  0.00     0.091 C
HETATM   18  C6  UNL     1      43.947  37.986  89.661  1.00  0.00     0.026 C
HETATM   19  C7  UNL     1      45.198  38.452  90.327  1.00  0.00     0.002 C
HETATM   20  C8  UNL     1      45.769  39.649  89.626  1.00  0.00     0.000 C
HETATM   21  C9  UNL     1      46.172  39.172  88.223  1.00  0.00     0.002 C
HETATM   22  C10 UNL     1      44.837  38.899  87.515  1.00  0.00     0.026 C
ENDBRANCH   5  17
TORSDOF 4
ENDMDL