MODEL 4
REMARK VINA RESULT: -6.421922073      2.098      3.971
REMARK  4 active torsions:
REMARK  status: ('A' for Active; 'I' for Inactive)
REMARK    1  A    between atoms: C2_2  and  C4_4
REMARK    2  A    between atoms: C4_4  and  N1_5
REMARK    3  A    between atoms: C13_14  and  C14_15
REMARK    4  A    between atoms: C14_15  and  N2_16
ROOT
HETATM    1  N1  UNL     1      42.003  35.601  84.747  1.00  0.00     0.102 N
HETATM    2  C5  UNL     1      40.558  35.513  84.890  1.00  0.00     0.283 C
HETATM    3  C6  UNL     1      40.281  35.929  86.356  1.00  0.00    -0.012 C
HETATM    4  C7  UNL     1      39.892  34.771  87.212  1.00  0.00     0.011 C
HETATM    5  C8  UNL     1      38.905  35.191  88.293  1.00  0.00     0.001 C
HETATM    6  C9  UNL     1      37.683  35.805  87.744  1.00  0.00     0.000 C
HETATM    7  C10 UNL     1      37.910  36.331  86.336  1.00  0.00     0.001 C
HETATM    8  C11 UNL     1      39.289  37.033  86.401  1.00  0.00     0.011 C
HETATM    9  C12 UNL     1      41.705  36.380  86.808  1.00  0.00     0.052 C
HETATM   10  C13 UNL     1      42.503  35.385  86.046  1.00  0.00     0.266 C
ENDROOT
BRANCH  10  11
HETATM   11  C14 UNL     1      43.933  35.203  86.181  1.00  0.00     0.145 C
BRANCH  11  12
HETATM   12  N2  UNL     1      44.566  34.084  85.575  1.00  0.00    -0.210 N
HETATM   13  N3  UNL     1      44.124  33.408  84.509  1.00  0.00    -0.290 N
HETATM   14  C15 UNL     1      45.143  32.554  84.094  1.00  0.00     0.135 A
ATOM     15  H3  UNL     1      43.205  33.502  84.077  1.00  0.00     0.188 HD
HETATM   16  C16 UNL     1      46.186  32.764  84.943  1.00  0.00     0.040 A
HETATM   17  C17 UNL     1      47.576  32.213  84.881  1.00  0.00     0.071 C
HETATM   18  N4  UNL     1      45.816  33.677  85.827  1.00  0.00    -0.283 N
ATOM     19  H4  UNL     1      46.399  34.022  86.590  1.00  0.00     0.188 HD
ENDBRANCH  11  12
ENDBRANCH  10  11
BRANCH   1  20
HETATM   20  C4  UNL     1      42.476  36.749  84.090  1.00  0.00     0.306 C
BRANCH  20  21
HETATM   21  C2  UNL     1      43.304  36.459  82.801  1.00  0.00    -0.065 C
HETATM   22  C1  UNL     1      42.856  36.057  81.773  1.00  0.00     0.015 C
HETATM   23  C3  UNL     1      44.783  36.868  83.050  1.00  0.00     0.044 C
ENDBRANCH  20  21
ENDBRANCH   1  20
TORSDOF 4
ENDMDL