MODEL 1
REMARK VINA RESULT: -6.369888998      0.000      0.000
REMARK  4 active torsions:
REMARK  status: ('A' for Active; 'I' for Inactive)
REMARK    1  A    between atoms: C2_2  and  C3_3
REMARK    2  A    between atoms: C2_2  and  C16_19
REMARK    3  A    between atoms: C4_4  and  C5_5
REMARK    4  A    between atoms: C7_7  and  C8_8
ROOT
HETATM    1  C8  UNL     1      43.801  36.117  85.836  1.00  0.00     0.155 C
HETATM    2  C9  UNL     1      44.507  37.369  85.430  1.00  0.00     0.042 C
HETATM    3  C10 UNL     1      44.834  38.325  86.516  1.00  0.00     0.002 C
HETATM    4  C11 UNL     1      45.382  37.729  87.766  1.00  0.00     0.011 C
HETATM    5  C12 UNL     1      43.676  39.265  86.744  1.00  0.00     0.106 C
HETATM    6  C13 UNL     1      44.195  40.442  87.479  1.00  0.00     0.065 C
HETATM    7  N1  UNL     1      44.606  41.370  88.035  1.00  0.00    -0.197 NA
HETATM    8  C14 UNL     1      42.474  38.685  87.356  1.00  0.00     0.130 C
HETATM    9  C15 UNL     1      42.464  37.259  87.620  1.00  0.00     0.260 C
HETATM   10  O1  UNL     1      41.670  36.901  88.555  1.00  0.00    -0.265 OA
HETATM   11  O2  UNL     1      43.140  36.208  87.066  1.00  0.00    -0.312 OA
ENDROOT
BRANCH   1  12
HETATM   12  C7  UNL     1      44.703  34.936  85.839  1.00  0.00     0.012 C
HETATM   13  C5  UNL     1      44.805  34.069  84.864  1.00  0.00    -0.063 C
HETATM   14  C6  UNL     1      43.990  34.214  83.640  1.00  0.00     0.048 C
BRANCH  13  15
HETATM   15  C4  UNL     1      45.733  32.935  84.974  1.00  0.00     0.007 C
HETATM   16  C3  UNL     1      46.985  33.025  84.630  1.00  0.00     0.007 C
BRANCH  16  17
HETATM   17  C2  UNL     1      47.976  31.977  84.701  1.00  0.00    -0.064 C
HETATM   18  C1  UNL     1      47.695  30.864  85.376  1.00  0.00     0.019 C
BRANCH  17  19
HETATM   19  C16 UNL     1      49.311  32.092  84.051  1.00  0.00     0.009 C
HETATM   20  C17 UNL     1      49.873  33.483  84.169  1.00  0.00     0.014 C
HETATM   21  C18 UNL     1      50.300  31.068  84.511  1.00  0.00     0.014 C
ENDBRANCH  17  19
ENDBRANCH  16  17
ENDBRANCH  13  15
ENDBRANCH   1  12
TORSDOF 4
ENDMDL