MODEL 1
REMARK VINA RESULT: -7.207499344      0.000      0.000
REMARK  5 active torsions:
REMARK  status: ('A' for Active; 'I' for Inactive)
REMARK    1  A    between atoms: C2_2  and  C3_3
REMARK    2  A    between atoms: C3_3  and  C4_4
REMARK    3  A    between atoms: C7_7  and  C8_8
REMARK    4  A    between atoms: C9_9  and  C10_10
REMARK    5  A    between atoms: C18_20  and  O3_21
ROOT
HETATM    1  C4  UNL     1      44.342  34.063  83.563  1.00  0.00    -0.016 C
HETATM    2  C5  UNL     1      44.014  35.197  84.129  1.00  0.00    -0.023 C
HETATM    3  C6  UNL     1      44.212  35.515  85.534  1.00  0.00     0.027 C
HETATM    4  C7  UNL     1      44.353  36.799  85.999  1.00  0.00     0.039 C
HETATM    5  C15 UNL     1      44.282  37.785  84.949  1.00  0.00     0.294 C
HETATM    6  O1  UNL     1      44.398  38.997  85.242  1.00  0.00    -0.259 OA
HETATM    7  O2  UNL     1      44.087  37.470  83.586  1.00  0.00    -0.298 OA
HETATM    8  C16 UNL     1      43.402  36.274  83.297  1.00  0.00     0.126 A
HETATM    9  C17 UNL     1      42.836  36.044  81.978  1.00  0.00     0.081 A
HETATM   10  C18 UNL     1      41.938  36.411  83.160  1.00  0.00     0.161 A
ENDROOT
BRANCH   4  11
HETATM   11  C8  UNL     1      44.543  37.001  87.407  1.00  0.00     0.014 C
HETATM   12  C9  UNL     1      45.119  37.679  88.276  1.00  0.00    -0.021 C
BRANCH  12  13
HETATM   13  C10 UNL     1      45.990  38.726  88.702  1.00  0.00     0.008 C
HETATM   14  C11 UNL     1      45.496  39.348  90.041  1.00  0.00     0.008 C
HETATM   15  C12 UNL     1      46.662  40.261  90.354  1.00  0.00     0.001 C
HETATM   16  C13 UNL     1      47.241  40.661  89.003  1.00  0.00     0.001 C
HETATM   17  C14 UNL     1      46.345  39.939  87.970  1.00  0.00     0.008 C
ENDBRANCH  12  13
ENDBRANCH   4  11
BRANCH   1  18
HETATM   18  C3  UNL     1      44.966  32.941  84.297  1.00  0.00     0.027 C
BRANCH  18  19
HETATM   19  C2  UNL     1      46.466  33.028  84.350  1.00  0.00    -0.001 C
HETATM   20  C1  UNL     1      47.087  31.921  85.158  1.00  0.00     0.005 C
ENDBRANCH  18  19
ENDBRANCH   1  18
BRANCH  10  21
HETATM   21  O3  UNL     1      41.362  37.695  83.138  1.00  0.00    -0.392 OA
ATOM     22  H3  UNL     1      40.418  37.782  83.080  1.00  0.00     0.210 HD
ENDBRANCH  10  21
TORSDOF 5
ENDMDL