MODEL 2
REMARK VINA RESULT: -5.881352394      2.130      4.842
REMARK  5 active torsions:
REMARK  status: ('A' for Active; 'I' for Inactive)
REMARK    1  A    between atoms: C2_2  and  C3_3
REMARK    2  A    between atoms: C3_3  and  C4_4
REMARK    3  A    between atoms: C6_8  and  N2_9
REMARK    4  A    between atoms: N2_9  and  C8_11
REMARK    5  A    between atoms: N3_13  and  C10_14
ROOT
HETATM    1  C4  UNL     1      44.402  37.788  87.891  1.00  0.00     0.009 C
HETATM    2  C5  UNL     1      43.758  36.968  87.060  1.00  0.00     0.114 A
HETATM    3  N1  UNL     1      44.264  36.265  85.953  1.00  0.00    -0.186 N
ATOM      4  H1  UNL     1      45.233  36.300  85.637  1.00  0.00     0.184 HD
HETATM    5  C6  UNL     1      43.334  35.571  85.392  1.00  0.00     0.686 A
HETATM    6  N3  UNL     1      42.094  35.734  86.065  1.00  0.00    -0.141 N
HETATM    7  C17 UNL     1      42.344  36.629  87.142  1.00  0.00     0.289 A
HETATM    8  O1  UNL     1      41.568  37.075  88.013  1.00  0.00    -0.265 OA
ENDROOT
BRANCH   6   9
HETATM    9  C10 UNL     1      40.791  35.143  85.773  1.00  0.00     0.111 C
HETATM   10  C11 UNL     1      39.900  36.220  85.259  1.00  0.00     0.026 C
HETATM   11  C12 UNL     1      38.692  35.684  84.501  1.00  0.00     0.002 C
HETATM   12  C13 UNL     1      38.103  34.468  85.166  1.00  0.00     0.000 C
HETATM   13  C14 UNL     1      37.810  34.829  86.597  1.00  0.00     0.000 C
HETATM   14  C15 UNL     1      38.985  34.772  87.505  1.00  0.00     0.002 C
HETATM   15  C16 UNL     1      40.258  34.328  86.886  1.00  0.00     0.026 C
ENDBRANCH   6   9
BRANCH   5  16
HETATM   16  N2  UNL     1      43.549  34.763  84.257  1.00  0.00    -0.222 N
HETATM   17  C7  UNL     1      43.249  35.281  82.940  1.00  0.00     0.168 C
BRANCH  16  18
HETATM   18  C8  UNL     1      44.068  33.419  84.394  1.00  0.00     0.136 C
HETATM   19  C9  UNL     1      45.543  33.354  84.044  1.00  0.00     0.027 C
ENDBRANCH  16  18
ENDBRANCH   5  16
BRANCH   1  20
HETATM   20  C3  UNL     1      45.826  38.108  87.779  1.00  0.00     0.029 C
BRANCH  20  21
HETATM   21  C2  UNL     1      46.150  39.529  88.206  1.00  0.00    -0.001 C
HETATM   22  C1  UNL     1      46.191  39.706  89.691  1.00  0.00     0.005 C
ENDBRANCH  20  21
ENDBRANCH   1  20
TORSDOF 5
ENDMDL