MODEL 4
REMARK VINA RESULT: -6.213153657      1.898      6.318
REMARK  4 active torsions:
REMARK  status: ('A' for Active; 'I' for Inactive)
REMARK    1  A    between atoms: C2_2  and  C4_4
REMARK    2  A    between atoms: C4_4  and  C5_5
REMARK    3  A    between atoms: C5_5  and  C8_8
REMARK    4  A    between atoms: C9_11  and  C10_12
ROOT
HETATM    1  C5  UNL     1      44.247  39.064  87.325  1.00  0.00     0.028 C
HETATM    2  C6  UNL     1      42.889  39.410  86.787  1.00  0.00     0.025 C
HETATM    3  C7  UNL     1      45.197  39.954  86.566  1.00  0.00     0.025 C
ENDROOT
BRANCH   1   4
HETATM    4  C4  UNL     1      44.430  39.208  88.826  1.00  0.00    -0.020 C
HETATM    5  C14 UNL     1      43.674  40.459  89.210  1.00  0.00     0.041 C
HETATM    6  C15 UNL     1      44.449  41.705  89.344  1.00  0.00     0.272 C
HETATM    7  N3  UNL     1      45.736  41.636  89.896  1.00  0.00     0.084 N
HETATM    8  C16 UNL     1      46.556  42.733  89.406  1.00  0.00     0.309 C
HETATM    9  C17 UNL     1      46.416  40.406  89.929  1.00  0.00     0.272 C
HETATM   10  C18 UNL     1      45.924  39.313  89.042  1.00  0.00     0.041 C
BRANCH   4  11
HETATM   11  C2  UNL     1      43.972  38.019  89.600  1.00  0.00    -0.013 C
HETATM   12  C1  UNL     1      44.766  37.731  90.850  1.00  0.00     0.010 C
HETATM   13  C3  UNL     1      42.545  37.913  90.022  1.00  0.00     0.010 C
ENDBRANCH   4  11
ENDBRANCH   1   4
BRANCH   1  14
HETATM   14  C8  UNL     1      44.532  37.667  86.870  1.00  0.00     0.157 A
HETATM   15  N1  UNL     1      43.538  36.897  86.341  1.00  0.00    -0.326 N
HETATM   16  C9  UNL     1      44.056  35.699  86.016  1.00  0.00     0.108 A
ATOM     17  H1  UNL     1      42.567  37.180  86.213  1.00  0.00     0.169 HD
HETATM   18  N2  UNL     1      45.338  35.772  86.351  1.00  0.00    -0.247 N
HETATM   19  O1  UNL     1      45.580  36.934  86.848  1.00  0.00    -0.222 OA
ATOM     20  H2  UNL     1      46.023  35.025  86.234  1.00  0.00     0.196 HD
BRANCH  16  21
HETATM   21  C10 UNL     1      43.289  34.565  85.432  1.00  0.00     0.055 C
HETATM   22  C11 UNL     1      42.402  35.030  84.254  1.00  0.00     0.012 C
HETATM   23  C12 UNL     1      43.615  34.786  83.381  1.00  0.00     0.002 C
HETATM   24  C13 UNL     1      44.051  33.743  84.428  1.00  0.00     0.012 C
ENDBRANCH  16  21
ENDBRANCH   1  14
TORSDOF 4
ENDMDL