MODEL 1
REMARK VINA RESULT: -7.133673832      0.000      0.000
REMARK  4 active torsions:
REMARK  status: ('A' for Active; 'I' for Inactive)
REMARK    1  A    between atoms: C3_4  and  C4_5
REMARK    2  A    between atoms: C4_5  and  C5_6
REMARK    3  A    between atoms: C5_6  and  C6_7
REMARK    4  A    between atoms: C7_10  and  C8_11
ROOT
HETATM    1  C6  UNL     1      44.895  36.259  86.831  1.00  0.00     0.148 A
HETATM    2  N2  UNL     1      43.724  36.021  86.202  1.00  0.00    -0.327 N
ATOM      3  H2  UNL     1      42.806  36.282  86.561  1.00  0.00     0.169 HD
HETATM    4  C7  UNL     1      43.942  35.390  85.036  1.00  0.00     0.108 A
HETATM    5  N3  UNL     1      45.290  35.250  84.970  1.00  0.00    -0.247 N
ATOM      6  H3  UNL     1      45.803  34.808  84.208  1.00  0.00     0.196 HD
HETATM    7  O1  UNL     1      45.815  35.764  86.026  1.00  0.00    -0.223 OA
ENDROOT
BRANCH   1   8
HETATM    8  C5  UNL     1      45.132  36.928  88.137  1.00  0.00     0.087 C
BRANCH   8   9
HETATM    9  C4  UNL     1      45.521  38.355  87.896  1.00  0.00     0.015 C
BRANCH   9  10
HETATM   10  C3  UNL     1      45.065  39.257  89.013  1.00  0.00     0.020 C
HETATM   11  C2  UNL     1      45.059  38.569  90.352  1.00  0.00     0.277 C
HETATM   12  N1  UNL     1      45.029  39.700  91.263  1.00  0.00     0.089 N
HETATM   13  C1  UNL     1      43.683  40.218  91.351  1.00  0.00     0.310 C
HETATM   14  C18 UNL     1      45.941  40.691  90.719  1.00  0.00     0.227 C
HETATM   15  C13 UNL     1      45.985  40.411  89.248  1.00  0.00     0.025 C
HETATM   16  C17 UNL     1      47.255  40.533  91.418  1.00  0.00     0.036 C
HETATM   17  C14 UNL     1      47.381  40.191  88.729  1.00  0.00     0.007 C
HETATM   18  C15 UNL     1      48.224  41.354  89.250  1.00  0.00     0.001 C
HETATM   19  C16 UNL     1      48.412  41.150  90.713  1.00  0.00     0.002 C
ENDBRANCH   9  10
ENDBRANCH   8   9
ENDBRANCH   1   8
BRANCH   4  20
HETATM   20  C8  UNL     1      42.928  34.951  84.047  1.00  0.00     0.055 C
HETATM   21  C9  UNL     1      43.297  35.357  82.644  1.00  0.00     0.012 C
HETATM   22  C10 UNL     1      42.073  36.094  82.121  1.00  0.00     0.001 C
HETATM   23  C11 UNL     1      41.623  36.821  83.393  1.00  0.00     0.001 C
HETATM   24  C12 UNL     1      41.633  35.655  84.383  1.00  0.00     0.012 C
ENDBRANCH   4  20
TORSDOF 4
ENDMDL