MODEL 2
REMARK VINA RESULT: -5.586836690      7.273     10.329
REMARK  4 active torsions:
REMARK  status: ('A' for Active; 'I' for Inactive)
REMARK    1  A    between atoms: N1_2  and  C2_3
REMARK    2  A    between atoms: N1_2  and  C8_13
REMARK    3  A    between atoms: C2_3  and  C3_4
REMARK    4  A    between atoms: C8_13  and  C9_14
ROOT
HETATM    1  C1  UNL     1      43.087  35.402  86.331  1.00  0.00     0.310 C
HETATM    2  N1  UNL     1      44.327  35.810  85.733  1.00  0.00     0.090 N
ENDROOT
BRANCH   2   3
HETATM    3  C2  UNL     1      44.491  35.073  84.492  1.00  0.00     0.330 C
BRANCH   3   4
HETATM    4  C3  UNL     1      45.637  34.163  84.524  1.00  0.00     0.055 A
HETATM    5  C4  UNL     1      45.582  32.853  84.943  1.00  0.00     0.119 A
HETATM    6  N2  UNL     1      46.811  32.271  84.859  1.00  0.00    -0.335 N
HETATM    7  C5  UNL     1      47.605  33.225  84.392  1.00  0.00     0.146 A
HETATM    8  C7  UNL     1      47.393  30.998  85.112  1.00  0.00     0.141 C
HETATM    9  N3  UNL     1      46.938  34.359  84.184  1.00  0.00    -0.337 N
HETATM   10  S1  UNL     1      49.239  32.516  84.284  1.00  0.00    -0.092 SA
ATOM     11  H3  UNL     1      47.336  35.228  83.828  1.00  0.00     0.168 HD
HETATM   12  C6  UNL     1      48.857  31.134  85.463  1.00  0.00     0.102 C
ENDBRANCH   3   4
ENDBRANCH   2   3
BRANCH   2  13
HETATM   13  C8  UNL     1      44.346  37.206  85.361  1.00  0.00     0.277 C
BRANCH  13  14
HETATM   14  C9  UNL     1      44.491  38.150  86.539  1.00  0.00     0.014 C
HETATM   15  C10 UNL     1      45.568  37.678  87.441  1.00  0.00     0.006 C
HETATM   16  C11 UNL     1      45.173  37.586  88.901  1.00  0.00     0.000 C
HETATM   17  C12 UNL     1      44.527  38.819  89.441  1.00  0.00     0.000 C
HETATM   18  C13 UNL     1      45.359  40.063  89.255  1.00  0.00     0.000 C
HETATM   19  C14 UNL     1      44.752  40.836  88.108  1.00  0.00     0.000 C
HETATM   20  C15 UNL     1      45.387  40.498  86.788  1.00  0.00     0.000 C
HETATM   21  C16 UNL     1      44.624  39.523  85.979  1.00  0.00     0.006 C
ENDBRANCH  13  14
ENDBRANCH   2  13
TORSDOF 4
ENDMDL