MODEL 3
REMARK VINA RESULT: -6.839776539      1.310      7.152
REMARK  5 active torsions:
REMARK  status: ('A' for Active; 'I' for Inactive)
REMARK    1  A    between atoms: C2_2  and  C3_3
REMARK    2  A    between atoms: C3_3  and  C4_4
REMARK    3  A    between atoms: C3_3  and  C6_6
REMARK    4  A    between atoms: C6_6  and  O2_8
REMARK    5  A    between atoms: O2_8  and  C7_9
ROOT
HETATM    1  C7  UNL     1      44.738  36.818  87.216  1.00  0.00     0.296 C
HETATM    2  C8  UNL     1      43.912  37.976  86.705  1.00  0.00     0.232 C
HETATM    3  O3  UNL     1      44.635  39.113  86.973  1.00  0.00    -0.350 OA
HETATM    4  C9  UNL     1      45.360  38.752  88.129  1.00  0.00     0.171 C
HETATM    5  C10 UNL     1      46.534  39.688  88.220  1.00  0.00     0.073 C
HETATM    6  C11 UNL     1      46.854  40.078  89.643  1.00  0.00    -0.013 C
HETATM    7  C12 UNL     1      48.067  41.017  89.562  1.00  0.00     0.010 C
HETATM    8  C13 UNL     1      45.698  40.832  90.234  1.00  0.00     0.009 C
HETATM    9  C14 UNL     1      44.389  40.336  89.704  1.00  0.00    -0.009 C
HETATM   10  C15 UNL     1      43.238  40.617  90.641  1.00  0.00     0.010 C
HETATM   11  C16 UNL     1      44.430  38.879  89.290  1.00  0.00     0.048 C
HETATM   12  C17 UNL     1      44.806  38.003  90.459  1.00  0.00     0.016 C
HETATM   13  O4  UNL     1      45.774  37.446  87.895  1.00  0.00    -0.322 OA
ENDROOT
BRANCH   1  14
HETATM   14  O2  UNL     1      45.188  36.096  86.083  1.00  0.00    -0.287 OA
BRANCH  14  15
HETATM   15  C6  UNL     1      44.513  34.999  85.609  1.00  0.00     0.265 C
HETATM   16  O1  UNL     1      43.708  34.448  86.434  1.00  0.00    -0.265 OA
BRANCH  15  17
HETATM   17  C3  UNL     1      44.638  34.427  84.267  1.00  0.00     0.085 C
BRANCH  17  18
HETATM   18  C2  UNL     1      44.880  32.931  84.292  1.00  0.00     0.010 C
HETATM   19  C1  UNL     1      46.209  32.560  84.852  1.00  0.00     0.006 C
ENDBRANCH  17  18
BRANCH  17  20
HETATM   20  C4  UNL     1      43.393  34.659  83.432  1.00  0.00     0.010 C
HETATM   21  C5  UNL     1      43.467  35.977  82.688  1.00  0.00     0.006 C
ENDBRANCH  17  20
ENDBRANCH  15  17
ENDBRANCH  14  15
ENDBRANCH   1  14
TORSDOF 5
ENDMDL