MODEL 5
REMARK VINA RESULT: -5.696075129      4.267      7.837
REMARK  4 active torsions:
REMARK  status: ('A' for Active; 'I' for Inactive)
REMARK    1  A    between atoms: C6_8  and  S1_9
REMARK    2  A    between atoms: S1_9  and  C7_10
REMARK    3  A    between atoms: C7_10  and  C8_11
REMARK    4  A    between atoms: C8_11  and  N2_12
ROOT
HETATM    1  C1  UNL     1      47.104  41.863  91.805  1.00  0.00     0.010 C
HETATM    2  C2  UNL     1      47.139  40.569  91.014  1.00  0.00    -0.013 C
HETATM    3  C3  UNL     1      47.814  40.752  89.692  1.00  0.00     0.010 C
HETATM    4  C4  UNL     1      46.866  40.719  88.517  1.00  0.00     0.058 C
HETATM    5  C5  UNL     1      46.120  39.400  88.536  1.00  0.00     0.023 A
HETATM    6  N1  UNL     1      45.943  38.545  87.583  1.00  0.00    -0.348 N
ATOM      7  H1  UNL     1      46.338  38.726  86.660  1.00  0.00     0.167 HD
HETATM    8  C6  UNL     1      45.256  37.438  87.796  1.00  0.00     0.112 A
HETATM    9  S2  UNL     1      44.820  37.593  89.439  1.00  0.00    -0.068 SA
HETATM   10  C14 UNL     1      45.570  39.113  89.762  1.00  0.00     0.008 A
HETATM   11  C15 UNL     1      45.729  40.041  90.928  1.00  0.00     0.052 C
ENDROOT
BRANCH   8  12
HETATM   12  S1  UNL     1      44.856  36.061  86.723  1.00  0.00    -0.103 SA
BRANCH  12  13
HETATM   13  C7  UNL     1      43.090  35.906  86.469  1.00  0.00     0.111 C
BRANCH  13  14
HETATM   14  C8  UNL     1      42.730  34.686  85.662  1.00  0.00     0.283 C
BRANCH  14  15
HETATM   15  N2  UNL     1      42.467  34.967  84.297  1.00  0.00     0.089 N
HETATM   16  C9  UNL     1      43.630  34.841  83.480  1.00  0.00     0.272 C
HETATM   17  C10 UNL     1      43.821  36.079  82.598  1.00  0.00     0.030 C
HETATM   18  C11 UNL     1      42.578  36.111  81.699  1.00  0.00     0.003 C
HETATM   19  C12 UNL     1      41.370  36.229  82.561  1.00  0.00     0.030 C
HETATM   20  C13 UNL     1      41.650  36.105  84.049  1.00  0.00     0.272 C
ENDBRANCH  14  15
ENDBRANCH  13  14
ENDBRANCH  12  13
ENDBRANCH   8  12
TORSDOF 4
ENDMDL