MODEL 2
REMARK VINA RESULT: -6.572507595      1.208      3.796
REMARK  7 active torsions:
REMARK  status: ('A' for Active; 'I' for Inactive)
REMARK    1  A    between atoms: C2_2  and  C3_3
REMARK    2  A    between atoms: C3_3  and  O2_5
REMARK    3  A    between atoms: O2_5  and  C4_6
REMARK    4  A    between atoms: C4_6  and  C5_7
REMARK    5  A    between atoms: C4_6  and  C11_20
REMARK    6  A    between atoms: C5_7  and  C6_8
REMARK    7  A    between atoms: C9_13  and  N2_14
ROOT
HETATM    1  C5  UNL     1      44.044  35.011  86.685  1.00  0.00     0.065 C
ENDROOT
BRANCH   1   2
HETATM    2  C4  UNL     1      42.919  35.975  86.810  1.00  0.00     0.138 C
BRANCH   2   3
HETATM    3  O2  UNL     1      42.178  36.314  85.725  1.00  0.00    -0.316 OA
BRANCH   3   4
HETATM    4  C3  UNL     1      40.828  36.125  85.494  1.00  0.00     0.258 C
HETATM    5  O1  UNL     1      40.562  36.115  84.261  1.00  0.00    -0.265 OA
BRANCH   4   6
HETATM    6  C2  UNL     1      39.829  35.958  86.557  1.00  0.00     0.106 C
HETATM    7  C1  UNL     1      39.737  34.517  87.024  1.00  0.00     0.015 C
ENDBRANCH   4   6
ENDBRANCH   3   4
ENDBRANCH   2   3
BRANCH   2   8
HETATM    8  C11 UNL     1      43.454  37.241  87.461  1.00  0.00     0.015 C
HETATM    9  C12 UNL     1      42.460  37.860  88.383  1.00  0.00     0.007 C
HETATM   10  C13 UNL     1      43.078  38.973  89.162  1.00  0.00     0.000 C
HETATM   11  C14 UNL     1      44.220  38.439  89.975  1.00  0.00     0.000 C
HETATM   12  C15 UNL     1      45.289  37.985  88.995  1.00  0.00     0.000 C
HETATM   13  C16 UNL     1      44.767  36.882  88.105  1.00  0.00     0.007 C
ENDBRANCH   2   8
ENDBRANCH   1   2
BRANCH   1  14
HETATM   14  C6  UNL     1      44.147  34.434  85.269  1.00  0.00     0.138 C
HETATM   15  C7  UNL     1      45.374  35.033  84.637  1.00  0.00     0.093 C
HETATM   16  C8  UNL     1      46.504  34.088  84.990  1.00  0.00     0.054 A
HETATM   17  N1  UNL     1      47.815  34.126  85.009  1.00  0.00    -0.337 N
HETATM   18  C10 UNL     1      45.887  32.934  85.369  1.00  0.00     0.136 A
HETATM   19  C9  UNL     1      48.471  33.035  85.397  1.00  0.00     0.145 A
ATOM     20  H1  UNL     1      48.318  34.969  84.734  1.00  0.00     0.168 HD
HETATM   21  S1  UNL     1      47.219  31.933  85.743  1.00  0.00    -0.028 SA
HETATM   22  O3  UNL     1      44.478  33.066  85.289  1.00  0.00    -0.336 OA
BRANCH  19  23
HETATM   23  N2  UNL     1      49.766  32.836  85.496  1.00  0.00    -0.380 N
ATOM     24  H22 UNL     1      50.452  32.805  84.741  1.00  0.00     0.158 HD
ATOM     25  H21 UNL     1      50.332  32.677  86.330  1.00  0.00     0.158 HD
ENDBRANCH  19  23
ENDBRANCH   1  14
TORSDOF 7
ENDMDL