MODEL 2
REMARK VINA RESULT: -6.187971222      0.949      1.094
REMARK  5 active torsions:
REMARK  status: ('A' for Active; 'I' for Inactive)
REMARK    1  A    between atoms: O1_2  and  C2_3
REMARK    2  A    between atoms: C4_5  and  C5_6
REMARK    3  A    between atoms: C6_7  and  C7_8
REMARK    4  A    between atoms: C9_15  and  N3_16
REMARK    5  A    between atoms: C12_19  and  N4_20
ROOT
HETATM    1  C7  UNL     1      41.344  36.522  85.004  1.00  0.00     0.071 A
HETATM    2  N1  UNL     1      40.937  36.479  83.731  1.00  0.00    -0.331 N
ATOM      3  H1  UNL     1      41.513  36.019  83.026  1.00  0.00     0.168 HD
HETATM    4  C8  UNL     1      39.785  37.035  83.385  1.00  0.00     0.178 A
HETATM    5  S1  UNL     1      39.298  36.973  81.810  1.00  0.00    -0.040 SA
HETATM    6  N2  UNL     1      39.056  37.628  84.321  1.00  0.00    -0.317 N
ATOM      7  H2  UNL     1      38.171  38.053  84.044  1.00  0.00     0.170 HD
HETATM    8  C9  UNL     1      39.426  37.699  85.641  1.00  0.00     0.140 A
HETATM    9  C12 UNL     1      40.603  37.136  86.019  1.00  0.00     0.173 A
ENDROOT
BRANCH   1  10
HETATM   10  C6  UNL     1      42.624  35.906  85.357  1.00  0.00     0.033 C
HETATM   11  C5  UNL     1      43.249  35.095  84.498  1.00  0.00     0.015 C
BRANCH  11  12
HETATM   12  C4  UNL     1      44.517  34.481  84.836  1.00  0.00    -0.017 A
HETATM   13  C3  UNL     1      44.781  33.156  85.061  1.00  0.00     0.068 A
HETATM   14  C2  UNL     1      46.142  33.043  85.331  1.00  0.00     0.142 A
HETATM   15  N5  UNL     1      46.705  34.261  85.276  1.00  0.00    -0.346 N
HETATM   16  C13 UNL     1      45.720  35.150  84.974  1.00  0.00     0.101 A
ATOM     17  H5  UNL     1      47.689  34.480  85.431  1.00  0.00     0.167 HD
BRANCH  14  18
HETATM   18  O1  UNL     1      46.808  31.849  85.615  1.00  0.00    -0.341 OA
HETATM   19  C1  UNL     1      48.221  31.797  85.727  1.00  0.00     0.211 C
ENDBRANCH  14  18
ENDBRANCH  11  12
ENDBRANCH   1  10
BRANCH   9  20
HETATM   20  N4  UNL     1      41.112  37.150  87.339  1.00  0.00    -0.109 N
HETATM   21  O2  UNL     1      41.859  38.085  87.732  1.00  0.00    -0.532 OA
HETATM   22  O3  UNL     1      40.834  36.164  88.238  1.00  0.00    -0.532 OA
ENDBRANCH   9  20
BRANCH   8  23
HETATM   23  N3  UNL     1      38.550  38.329  86.548  1.00  0.00    -0.374 N
HETATM   24  C10 UNL     1      38.633  39.701  86.986  1.00  0.00     0.150 C
HETATM   25  C11 UNL     1      37.455  37.497  87.055  1.00  0.00     0.150 C
ENDBRANCH   8  23
TORSDOF 5
ENDMDL