MODEL 5
REMARK VINA RESULT: -5.871445333      2.317      3.740
REMARK  5 active torsions:
REMARK  status: ('A' for Active; 'I' for Inactive)
REMARK    1  A    between atoms: C2_2  and  C3_3
REMARK    2  A    between atoms: C3_3  and  C4_4
REMARK    3  A    between atoms: C4_4  and  C5_5
REMARK    4  A    between atoms: C5_5  and  C6_6
REMARK    5  A    between atoms: C8_12  and  N3_13
ROOT
HETATM    1  C6  UNL     1      43.891  35.518  86.481  1.00  0.00     0.005 A
HETATM    2  C7  UNL     1      45.034  35.805  87.218  1.00  0.00     0.118 A
HETATM    3  N1  UNL     1      44.726  36.743  88.131  1.00  0.00    -0.310 N
ATOM      4  H1  UNL     1      45.368  37.149  88.812  1.00  0.00     0.186 HD
HETATM    5  N2  UNL     1      43.461  37.043  87.994  1.00  0.00    -0.285 N
ATOM      6  H2  UNL     1      42.962  37.728  88.561  1.00  0.00     0.188 HD
HETATM    7  C8  UNL     1      42.901  36.310  86.983  1.00  0.00     0.139 A
ENDROOT
BRANCH   7   8
HETATM    8  N3  UNL     1      41.543  36.406  86.594  1.00  0.00    -0.236 N
HETATM    9  C9  UNL     1      41.126  37.415  85.795  1.00  0.00     0.189 A
HETATM   10  S1  UNL     1      42.264  38.506  85.303  1.00  0.00    -0.040 SA
HETATM   11  N4  UNL     1      39.874  37.577  85.389  1.00  0.00    -0.312 N
HETATM   12  C10 UNL     1      38.902  36.688  85.779  1.00  0.00     0.168 A
ATOM     13  H4  UNL     1      39.633  38.364  84.786  1.00  0.00     0.170 HD
HETATM   14  C11 UNL     1      39.322  35.666  86.588  1.00  0.00     0.122 A
HETATM   15  O2  UNL     1      37.595  36.717  85.451  1.00  0.00    -0.324 OA
HETATM   16  C12 UNL     1      40.620  35.515  86.997  1.00  0.00     0.277 A
HETATM   17  S2  UNL     1      37.800  34.729  86.899  1.00  0.00    -0.093 SA
HETATM   18  O1  UNL     1      40.903  34.556  87.730  1.00  0.00    -0.266 OA
HETATM   19  C13 UNL     1      36.706  36.120  86.366  1.00  0.00     0.257 C
ENDBRANCH   7   8
BRANCH   1  20
HETATM   20  C5  UNL     1      43.787  34.550  85.374  1.00  0.00     0.044 C
BRANCH  20  21
HETATM   21  C4  UNL     1      45.122  34.322  84.679  1.00  0.00     0.005 C
BRANCH  21  22
HETATM   22  C3  UNL     1      45.797  33.097  85.258  1.00  0.00    -0.000 C
BRANCH  22  23
HETATM   23  C2  UNL     1      47.296  33.211  85.201  1.00  0.00    -0.005 C
HETATM   24  C1  UNL     1      48.017  31.964  85.616  1.00  0.00     0.005 C
ENDBRANCH  22  23
ENDBRANCH  21  22
ENDBRANCH  20  21
ENDBRANCH   1  20
TORSDOF 5
ENDMDL