MODEL 5
REMARK VINA RESULT: -5.382092014      2.498      6.816
REMARK  5 active torsions:
REMARK  status: ('A' for Active; 'I' for Inactive)
REMARK    1  A    between atoms: C2_2  and  O1_3
REMARK    2  A    between atoms: O1_3  and  C3_4
REMARK    3  A    between atoms: C8_11  and  N2_12
REMARK    4  A    between atoms: N3_14  and  C9_16
REMARK    5  A    between atoms: N4_19  and  C12_20
ROOT
HETATM    1  N2  UNL     1      39.723  37.897  83.036  1.00  0.00    -0.295 N
ATOM      2  H2  UNL     1      39.743  38.417  83.914  1.00  0.00     0.187 HD
HETATM    3  N3  UNL     1      40.333  36.790  82.991  1.00  0.00    -0.293 N
ATOM      4  H3  UNL     1      40.337  36.238  82.132  1.00  0.00     0.187 HD
ENDROOT
BRANCH   3   5
HETATM    5  C9  UNL     1      41.012  36.321  84.152  1.00  0.00     0.139 A
HETATM    6  C10 UNL     1      42.367  36.041  84.132  1.00  0.00     0.046 A
HETATM    7  C11 UNL     1      43.164  36.217  82.915  1.00  0.00     0.071 C
HETATM    8  N4  UNL     1      42.982  35.598  85.245  1.00  0.00    -0.302 N
HETATM    9  C14 UNL     1      42.253  35.434  86.367  1.00  0.00     0.329 A
HETATM   10  O2  UNL     1      42.850  35.015  87.413  1.00  0.00    -0.246 OA
HETATM   11  N5  UNL     1      40.942  35.689  86.442  1.00  0.00    -0.273 N
HETATM   12  C15 UNL     1      40.312  36.135  85.331  1.00  0.00     0.279 A
ATOM     13  H5  UNL     1      40.431  35.550  87.314  1.00  0.00     0.173 HD
HETATM   14  O3  UNL     1      39.081  36.400  85.313  1.00  0.00    -0.265 OA
BRANCH   8  15
HETATM   15  C12 UNL     1      44.398  35.295  85.262  1.00  0.00     0.129 C
HETATM   16  C13 UNL     1      44.571  33.831  84.959  1.00  0.00     0.027 C
ENDBRANCH   8  15
ENDBRANCH   3   5
BRANCH   1  17
HETATM   17  C8  UNL     1      39.018  38.461  81.954  1.00  0.00     0.107 A
HETATM   18  C3  UNL     1      38.433  37.709  80.953  1.00  0.00     0.172 A
HETATM   19  N1  UNL     1      37.849  38.556  80.086  1.00  0.00    -0.338 N
HETATM   20  C4  UNL     1      38.056  39.831  80.525  1.00  0.00     0.015 A
ATOM     21  H1  UNL     1      37.338  38.291  79.245  1.00  0.00     0.168 HD
HETATM   22  C5  UNL     1      37.563  41.058  79.836  1.00  0.00     0.069 C
HETATM   23  C6  UNL     1      38.786  39.815  81.694  1.00  0.00    -0.007 A
HETATM   24  C7  UNL     1      39.251  40.937  82.534  1.00  0.00     0.052 C
BRANCH  18  25
HETATM   25  O1  UNL     1      38.444  36.326  80.854  1.00  0.00    -0.334 OA
BRANCH  25  26
HETATM   26  C2  UNL     1      37.303  35.522  81.065  1.00  0.00     0.173 C
HETATM   27  C1  UNL     1      37.267  35.054  82.491  1.00  0.00     0.034 C
ENDBRANCH  25  26
ENDBRANCH  18  25
ENDBRANCH   1  17
TORSDOF 5
ENDMDL