MODEL 4
REMARK VINA RESULT: -5.487448089      1.310      5.779
REMARK  6 active torsions:
REMARK  status: ('A' for Active; 'I' for Inactive)
REMARK    1  A    between atoms: C2_2  and  C3_3
REMARK    2  A    between atoms: C3_3  and  C4_4
REMARK    3  A    between atoms: C4_4  and  C5_5
REMARK    4  A    between atoms: C5_5  and  N1_6
REMARK    5  A    between atoms: C9_12  and  N3_13
REMARK    6  A    between atoms: C16_23  and  N6_24
ROOT
HETATM    1  N3  UNL     1      42.077  37.551  85.473  1.00  0.00    -0.348 N
HETATM    2  C10 UNL     1      40.919  37.419  84.628  1.00  0.00     0.126 C
HETATM    3  C11 UNL     1      41.094  36.401  83.533  1.00  0.00     0.020 C
HETATM    4  C12 UNL     1      42.545  36.198  83.175  1.00  0.00     0.004 C
HETATM    5  C13 UNL     1      43.375  35.782  84.358  1.00  0.00     0.040 C
HETATM    6  C14 UNL     1      42.949  36.413  85.643  1.00  0.00     0.193 C
HETATM    7  C15 UNL     1      42.327  35.457  86.561  1.00  0.00     0.084 C
HETATM    8  N4  UNL     1      41.840  34.712  87.305  1.00  0.00    -0.195 NA
ENDROOT
BRANCH   1   9
HETATM    9  C9  UNL     1      42.311  38.803  86.109  1.00  0.00     0.151 A
HETATM   10  C8  UNL     1      42.046  38.982  87.462  1.00  0.00     0.124 A
HETATM   11  N2  UNL     1      41.576  38.169  88.403  1.00  0.00    -0.340 N
HETATM   12  C17 UNL     1      42.264  40.182  88.095  1.00  0.00     0.155 A
HETATM   13  C6  UNL     1      41.497  38.838  89.603  1.00  0.00     0.081 A
ATOM     14  H2  UNL     1      41.312  37.194  88.258  1.00  0.00     0.167 HD
HETATM   15  N1  UNL     1      41.919  40.084  89.429  1.00  0.00    -0.321 N
HETATM   16  C7  UNL     1      41.023  38.149  90.842  1.00  0.00     0.089 C
HETATM   17  N7  UNL     1      42.750  41.197  87.354  1.00  0.00    -0.174 N
HETATM   18  C16 UNL     1      43.011  41.028  86.028  1.00  0.00     0.679 A
ATOM     19  H7  UNL     1      42.925  42.102  87.790  1.00  0.00     0.186 HD
HETATM   20  N5  UNL     1      42.800  39.862  85.409  1.00  0.00    -0.175 N
ATOM     21  H5  UNL     1      43.005  39.767  84.414  1.00  0.00     0.186 HD
BRANCH  15  22
HETATM   22  C5  UNL     1      42.016  41.193  90.346  1.00  0.00     0.132 C
BRANCH  22  23
HETATM   23  C4  UNL     1      43.042  41.106  91.391  1.00  0.00     0.020 C
BRANCH  23  24
HETATM   24  C3  UNL     1      44.413  40.675  91.092  1.00  0.00     0.001 C
BRANCH  24  25
HETATM   25  C2  UNL     1      44.766  39.256  91.379  1.00  0.00    -0.004 C
HETATM   26  C1  UNL     1      45.062  38.472  90.112  1.00  0.00     0.005 C
ENDBRANCH  24  25
ENDBRANCH  23  24
ENDBRANCH  22  23
ENDBRANCH  15  22
BRANCH  18  27
HETATM   27  N6  UNL     1      43.481  42.007  85.307  1.00  0.00    -0.234 N
ATOM     28  H62 UNL     1      44.028  41.824  84.464  1.00  0.00     0.174 HD
ATOM     29  H61 UNL     1      43.278  42.955  85.621  1.00  0.00     0.174 HD
ENDBRANCH  18  27
ENDBRANCH   1   9
TORSDOF 6
ENDMDL