MODEL 3
REMARK VINA RESULT: -5.705701713      2.913      7.171
REMARK  6 active torsions:
REMARK  status: ('A' for Active; 'I' for Inactive)
REMARK    1  A    between atoms: C2_2  and  C3_3
REMARK    2  A    between atoms: C3_3  and  C4_4
REMARK    3  A    between atoms: C4_4  and  N1_5
REMARK    4  A    between atoms: C6_10  and  O1_11
REMARK    5  A    between atoms: C7_13  and  C8_14
REMARK    6  A    between atoms: N3_15  and  N4_17
ROOT
HETATM    1  N1  UNL     1      43.570  38.899  91.050  1.00  0.00    -0.290 N
HETATM    2  C5  UNL     1      42.338  39.325  91.393  1.00  0.00     0.182 A
HETATM    3  S1  UNL     1      42.099  40.027  92.861  1.00  0.00    -0.040 SA
HETATM    4  N2  UNL     1      41.342  39.161  90.516  1.00  0.00    -0.313 N
ATOM      5  H2  UNL     1      40.401  39.476  90.752  1.00  0.00     0.170 HD
HETATM    6  C6  UNL     1      41.576  38.580  89.321  1.00  0.00     0.159 A
HETATM    7  C7  UNL     1      42.829  38.138  88.954  1.00  0.00     0.100 A
HETATM    8  C15 UNL     1      43.841  38.317  89.869  1.00  0.00     0.265 A
HETATM    9  O2  UNL     1      45.002  37.917  89.552  1.00  0.00    -0.267 OA
ENDROOT
BRANCH   7  10
HETATM   10  C8  UNL     1      43.126  37.508  87.677  1.00  0.00     0.128 C
HETATM   11  N3  UNL     1      42.434  36.450  87.377  1.00  0.00    -0.313 N
ATOM     12  H3  UNL     1      41.731  36.125  88.041  1.00  0.00     0.185 HD
BRANCH  11  13
HETATM   13  N4  UNL     1      42.609  35.742  86.192  1.00  0.00    -0.328 N
HETATM   14  C9  UNL     1      43.845  34.978  86.166  1.00  0.00     0.142 C
HETATM   15  C10 UNL     1      44.187  34.538  84.769  1.00  0.00     0.021 C
HETATM   16  C11 UNL     1      44.546  35.750  83.944  1.00  0.00     0.002 C
HETATM   17  C12 UNL     1      43.428  36.759  83.890  1.00  0.00     0.002 C
HETATM   18  C13 UNL     1      42.068  36.102  83.828  1.00  0.00     0.021 C
HETATM   19  C14 UNL     1      41.551  35.890  85.222  1.00  0.00     0.142 C
ENDBRANCH  11  13
ENDBRANCH   7  10
BRANCH   6  20
HETATM   20  O1  UNL     1      40.546  38.403  88.397  1.00  0.00    -0.345 OA
ATOM     21  H1  UNL     1      40.027  37.606  88.392  1.00  0.00     0.219 HD
ENDBRANCH   6  20
BRANCH   1  22
HETATM   22  C4  UNL     1      44.646  39.080  92.002  1.00  0.00     0.135 C
BRANCH  22  23
HETATM   23  C3  UNL     1      45.421  40.332  91.654  1.00  0.00     0.020 C
BRANCH  23  24
HETATM   24  C2  UNL     1      46.151  40.877  92.838  1.00  0.00    -0.003 C
HETATM   25  C1  UNL     1      47.549  41.273  92.400  1.00  0.00     0.005 C
ENDBRANCH  23  24
ENDBRANCH  22  23
ENDBRANCH   1  22
TORSDOF 6
ENDMDL