MODEL 4
REMARK VINA RESULT: -7.122173994      1.485      4.123
REMARK  6 active torsions:
REMARK  status: ('A' for Active; 'I' for Inactive)
REMARK    1  A    between atoms: C2_2  and  C3_3
REMARK    2  A    between atoms: C3_3  and  N1_4
REMARK    3  A    between atoms: N1_4  and  C4_6
REMARK    4  A    between atoms: C5_9  and  C6_10
REMARK    5  A    between atoms: C10_18  and  N5_19
REMARK    6  A    between atoms: N5_19  and  C11_21
ROOT
HETATM    1  C6  UNL     1      43.737  36.062  87.110  1.00  0.00     0.077 A
HETATM    2  C7  UNL     1      44.483  36.977  87.884  1.00  0.00     0.109 A
HETATM    3  N3  UNL     1      43.815  37.877  88.619  1.00  0.00    -0.355 N
ATOM      4  H3  UNL     1      44.347  38.542  89.181  1.00  0.00     0.166 HD
HETATM    5  C8  UNL     1      42.477  37.939  88.647  1.00  0.00     0.078 A
HETATM    6  C9  UNL     1      41.819  38.973  89.495  1.00  0.00     0.089 C
HETATM    7  N4  UNL     1      41.789  37.064  87.909  1.00  0.00    -0.332 N
ATOM      8  H4  UNL     1      40.771  37.110  87.930  1.00  0.00     0.168 HD
HETATM    9  C10 UNL     1      42.384  36.103  87.121  1.00  0.00     0.118 A
ENDROOT
BRANCH   1  10
HETATM   10  C5  UNL     1      44.496  35.103  86.326  1.00  0.00     0.201 A
HETATM   11  N2  UNL     1      45.793  34.875  86.148  1.00  0.00    -0.166 N
HETATM   12  C4  UNL     1      45.995  33.853  85.310  1.00  0.00     0.700 A
ATOM     13  H2  UNL     1      46.538  35.411  86.593  1.00  0.00     0.186 HD
HETATM   14  N6  UNL     1      44.760  33.456  84.977  1.00  0.00    -0.089 N
HETATM   15  O1  UNL     1      43.895  34.185  85.570  1.00  0.00    -0.203 OA
ATOM     16  H6  UNL     1      44.543  32.686  84.344  1.00  0.00     0.213 HD
BRANCH  12  17
HETATM   17  N1  UNL     1      47.144  33.372  84.922  1.00  0.00    -0.221 N
ATOM     18  H1  UNL     1      47.632  33.782  84.126  1.00  0.00     0.178 HD
BRANCH  17  19
HETATM   19  C3  UNL     1      47.726  32.239  85.643  1.00  0.00     0.164 C
BRANCH  19  20
HETATM   20  C2  UNL     1      49.183  32.314  85.714  1.00  0.00    -0.017 C
HETATM   21  C1  UNL     1      49.936  31.538  84.957  1.00  0.00     0.008 C
ENDBRANCH  19  20
ENDBRANCH  17  19
ENDBRANCH  12  17
ENDBRANCH   1  10
BRANCH   9  22
HETATM   22  N5  UNL     1      41.569  35.225  86.386  1.00  0.00    -0.371 N
ATOM     23  H5  UNL     1      41.537  34.241  86.652  1.00  0.00     0.161 HD
BRANCH  22  24
HETATM   24  C11 UNL     1      40.770  35.673  85.260  1.00  0.00     0.083 C
HETATM   25  C12 UNL     1      41.442  36.726  84.414  1.00  0.00     0.025 C
HETATM   26  C13 UNL     1      40.743  36.632  83.043  1.00  0.00     0.002 C
HETATM   27  C14 UNL     1      39.276  36.931  83.221  1.00  0.00     0.000 C
HETATM   28  C15 UNL     1      38.612  36.185  84.325  1.00  0.00     0.002 C
HETATM   29  C16 UNL     1      39.419  36.206  85.632  1.00  0.00     0.025 C
ENDBRANCH  22  24
ENDBRANCH   9  22
TORSDOF 6
ENDMDL