MODEL 5
REMARK VINA RESULT: -6.477345525      3.420      6.793
REMARK  4 active torsions:
REMARK  status: ('A' for Active; 'I' for Inactive)
REMARK    1  A    between atoms: O1_2  and  C2_3
REMARK    2  A    between atoms: C4_5  and  C5_6
REMARK    3  A    between atoms: C8_9  and  C9_10
REMARK    4  A    between atoms: C11_12  and  C12_13
ROOT
HETATM    1  C2  UNL     1      43.418  36.744  87.605  1.00  0.00     0.119 A
HETATM    2  C3  UNL     1      43.746  36.263  86.365  1.00  0.00     0.051 A
HETATM    3  C4  UNL     1      42.782  36.104  85.366  1.00  0.00    -0.023 A
HETATM    4  C8  UNL     1      41.510  36.430  85.619  1.00  0.00     0.069 A
HETATM    5  N4  UNL     1      41.210  36.912  86.874  1.00  0.00    -0.332 N
ATOM      6  H4  UNL     1      40.239  37.160  87.066  1.00  0.00     0.168 HD
HETATM    7  C16 UNL     1      42.090  37.079  87.852  1.00  0.00     0.176 A
HETATM    8  O2  UNL     1      41.736  37.551  89.017  1.00  0.00    -0.339 OA
HETATM    9  C17 UNL     1      41.384  38.011  90.151  1.00  0.00     0.211 C
ENDROOT
BRANCH   1  10
HETATM   10  O1  UNL     1      44.301  36.930  88.657  1.00  0.00    -0.352 OA
HETATM   11  C1  UNL     1      45.096  38.091  88.637  1.00  0.00     0.210 C
ENDBRANCH   1  10
BRANCH   4  12
HETATM   12  C9  UNL     1      40.428  36.357  84.660  1.00  0.00     0.077 A
HETATM   13  C10 UNL     1      40.265  36.626  83.342  1.00  0.00     0.061 A
HETATM   14  C11 UNL     1      38.931  36.491  82.989  1.00  0.00     0.058 A
HETATM   15  N2  UNL     1      38.310  36.136  84.107  1.00  0.00    -0.302 N
HETATM   16  N3  UNL     1      39.152  36.053  85.087  1.00  0.00    -0.298 N
ATOM     17  H2  UNL     1      37.310  35.955  84.184  1.00  0.00     0.186 HD
ATOM     18  H3  UNL     1      38.906  35.798  86.044  1.00  0.00     0.187 HD
BRANCH  14  19
HETATM   19  C12 UNL     1      38.287  36.769  81.678  1.00  0.00     0.236 C
HETATM   20  C13 UNL     1      37.508  35.502  81.257  1.00  0.00     0.041 C
HETATM   21  C14 UNL     1      37.381  35.772  79.779  1.00  0.00     0.030 C
HETATM   22  C15 UNL     1      38.722  36.362  79.422  1.00  0.00     0.233 C
HETATM   23  N1  UNL     1      39.238  36.937  80.637  1.00  0.00    -0.065 N
ATOM     24  H12 UNL     1      39.512  37.912  80.517  1.00  0.00     0.278 HD
ATOM     25  H11 UNL     1      40.153  36.559  80.885  1.00  0.00     0.278 HD
ENDBRANCH  14  19
ENDBRANCH   4  12
BRANCH   3  26
HETATM   26  C5  UNL     1      43.308  35.500  84.124  1.00  0.00     0.013 C
HETATM   27  C6  UNL     1      43.986  36.618  83.277  1.00  0.00     0.015 C
HETATM   28  C7  UNL     1      44.535  34.614  84.492  1.00  0.00     0.015 C
ENDBRANCH   3  26
TORSDOF 4
ENDMDL