MODEL 5
REMARK VINA RESULT: -6.005783452      1.625      2.992
REMARK  9 active torsions:
REMARK  status: ('A' for Active; 'I' for Inactive)
REMARK    1  A    between atoms: C2_2  and  C3_3
REMARK    2  A    between atoms: C3_3  and  N1_4
REMARK    3  A    between atoms: C4_6  and  C5_7
REMARK    4  A    between atoms: C5_7  and  C6_8
REMARK    5  A    between atoms: C6_8  and  N2_9
REMARK    6  A    between atoms: C7_10  and  O1_11
REMARK    7  A    between atoms: C8_13  and  C15_23
REMARK    8  A    between atoms: C9_14  and  C11_18
REMARK    9  A    between atoms: C10_15  and  O2_16
ROOT
HETATM    1  N2  UNL     1      43.314  36.232  85.907  1.00  0.00    -0.307 N
HETATM    2  C7  UNL     1      42.749  37.438  85.755  1.00  0.00     0.156 A
HETATM    3  C8  UNL     1      43.024  38.206  86.843  1.00  0.00     0.058 A
HETATM    4  C9  UNL     1      43.789  37.450  87.709  1.00  0.00     0.013 A
HETATM    5  C10 UNL     1      43.945  36.232  87.090  1.00  0.00     0.151 A
ENDROOT
BRANCH   1   6
HETATM    6  C6  UNL     1      43.275  35.114  84.996  1.00  0.00     0.138 C
BRANCH   6   7
HETATM    7  C5  UNL     1      44.539  35.024  84.162  1.00  0.00     0.064 C
BRANCH   7   8
HETATM    8  C4  UNL     1      45.295  33.802  84.528  1.00  0.00     0.057 C
HETATM    9  N1  UNL     1      46.361  33.871  85.215  1.00  0.00    -0.402 N
ATOM     10  H1  UNL     1      46.690  34.789  85.513  1.00  0.00     0.158 HD
BRANCH   9  11
HETATM   11  C3  UNL     1      47.124  32.715  85.591  1.00  0.00     0.118 C
BRANCH  11  12
HETATM   12  C2  UNL     1      48.478  32.803  84.928  1.00  0.00     0.015 C
HETATM   13  C1  UNL     1      49.329  31.682  85.505  1.00  0.00     0.006 C
ENDBRANCH  11  12
ENDBRANCH   9  11
ENDBRANCH   7   8
ENDBRANCH   6   7
ENDBRANCH   1   6
BRANCH   2  14
HETATM   14  O1  UNL     1      41.997  37.851  84.655  1.00  0.00    -0.345 OA
ATOM     15  H1  UNL     1      42.343  38.257  83.868  1.00  0.00     0.219 HD
ENDBRANCH   2  14
BRANCH   5  16
HETATM   16  O2  UNL     1      44.674  35.186  87.671  1.00  0.00    -0.345 OA
ATOM     17  H2  UNL     1      45.237  35.226  88.436  1.00  0.00     0.219 HD
ENDBRANCH   5  16
BRANCH   3  18
HETATM   18  C15 UNL     1      42.578  39.630  87.073  1.00  0.00     0.300 C
HETATM   19  O3  UNL     1      41.220  39.634  86.856  1.00  0.00    -0.346 OA
HETATM   20  C13 UNL     1      40.434  38.946  87.704  1.00  0.00     0.068 C
HETATM   21  C12 UNL     1      40.021  37.559  87.222  1.00  0.00     0.048 C
HETATM   22  C14 UNL     1      39.204  39.774  88.095  1.00  0.00     0.047 C
HETATM   23  C17 UNL     1      41.047  38.308  88.889  1.00  0.00     0.053 C
HETATM   24  C11 UNL     1      41.116  36.995  88.092  1.00  0.00     0.035 C
HETATM   25  C16 UNL     1      42.436  38.812  89.201  1.00  0.00     0.179 C
HETATM   26  O4  UNL     1      42.796  39.914  88.413  1.00  0.00    -0.356 OA
ENDBRANCH   3  18
TORSDOF 9
ENDMDL