MODEL 5
REMARK VINA RESULT: -5.248940624      3.528      5.644
REMARK  7 active torsions:
REMARK  status: ('A' for Active; 'I' for Inactive)
REMARK    1  A    between atoms: O1_2  and  C2_3
REMARK    2  A    between atoms: C5_6  and  O2_7
REMARK    3  A    between atoms: C7_9  and  C8_10
REMARK    4  A    between atoms: C8_10  and  C10_12
REMARK    5  A    between atoms: C10_12  and  O3_14
REMARK    6  A    between atoms: C13_17  and  O4_18
REMARK    7  A    between atoms: C17_24  and  O5_25
ROOT
HETATM    1  C2  UNL     1      38.477  36.837  90.518  1.00  0.00     0.103 A
HETATM    2  C3  UNL     1      39.636  36.900  89.811  1.00  0.00     0.055 A
HETATM    3  C4  UNL     1      39.732  36.309  88.567  1.00  0.00     0.015 A
HETATM    4  C5  UNL     1      40.925  36.398  87.857  1.00  0.00     0.086 A
HETATM    5  C7  UNL     1      41.076  35.843  86.609  1.00  0.00    -0.015 A
HETATM    6  C12 UNL     1      39.973  35.189  86.108  1.00  0.00     0.047 A
HETATM    7  C13 UNL     1      38.757  35.083  86.802  1.00  0.00     0.079 A
HETATM    8  C14 UNL     1      38.643  35.647  88.035  1.00  0.00     0.034 A
HETATM    9  C15 UNL     1      37.475  35.563  88.714  1.00  0.00     0.094 A
HETATM   10  C16 UNL     1      36.316  34.873  88.198  1.00  0.00     0.103 C
HETATM   11  N1  UNL     1      35.356  34.322  87.808  1.00  0.00    -0.191 NA
HETATM   12  C17 UNL     1      37.417  36.172  89.965  1.00  0.00     0.123 A
ENDROOT
BRANCH  12  13
HETATM   13  O5  UNL     1      36.215  36.107  90.697  1.00  0.00    -0.352 OA
HETATM   14  C18 UNL     1      36.156  35.007  91.607  1.00  0.00     0.210 C
ENDBRANCH  12  13
BRANCH   7  15
HETATM   15  O4  UNL     1      37.744  34.396  86.164  1.00  0.00    -0.360 OA
ATOM     16  H4  UNL     1      36.861  34.715  86.310  1.00  0.00     0.217 HD
ENDBRANCH   7  15
BRANCH   1  17
HETATM   17  O1  UNL     1      38.357  37.417  91.750  1.00  0.00    -0.353 OA
HETATM   18  C1  UNL     1      39.086  37.069  92.902  1.00  0.00     0.210 C
ENDBRANCH   1  17
BRANCH   4  19
HETATM   19  O2  UNL     1      41.964  37.067  88.455  1.00  0.00    -0.354 OA
HETATM   20  C6  UNL     1      42.130  38.452  88.179  1.00  0.00     0.210 C
ENDBRANCH   4  19
BRANCH   5  21
HETATM   21  C8  UNL     1      42.334  36.027  85.874  1.00  0.00     0.046 C
HETATM   22  C9  UNL     1      43.026  34.713  85.494  1.00  0.00     0.017 C
BRANCH  21  23
HETATM   23  C10 UNL     1      41.948  36.714  84.554  1.00  0.00     0.122 C
HETATM   24  C11 UNL     1      42.635  36.108  83.369  1.00  0.00     0.040 C
BRANCH  23  25
HETATM   25  O3  UNL     1      42.197  38.040  84.632  1.00  0.00    -0.395 OA
ATOM     26  H3  UNL     1      43.057  38.188  85.008  1.00  0.00     0.210 HD
ENDBRANCH  23  25
ENDBRANCH  21  23
ENDBRANCH   5  21
TORSDOF 7
ENDMDL