MODEL 2
REMARK VINA RESULT: -4.383883717      1.562      2.106
REMARK  3 active torsions:
REMARK  status: ('A' for Active; 'I' for Inactive)
REMARK    1  A    between atoms: C2_2  and  N1_3
REMARK    2  A    between atoms: N1_3  and  C3_4
REMARK    3  A    between atoms: N1_3  and  S1_13
ROOT
HETATM    1  C3  UNL     1      25.841  14.306  11.698  1.00  0.00     0.066 A
HETATM    2  C4  UNL     1      25.166  15.039  12.683  1.00  0.00     0.057 A
HETATM    3  C5  UNL     1      23.812  15.233  12.665  1.00  0.00     0.058 A
HETATM    4 CL1  UNL     1      23.036  16.166  13.939  1.00  0.00    -0.082 Cl
HETATM    5  C6  UNL     1      23.092  14.680  11.628  1.00  0.00     0.057 A
HETATM    6 CL2  UNL     1      21.360  14.931  11.608  1.00  0.00    -0.082 Cl
HETATM    7  C7  UNL     1      23.755  13.959  10.658  1.00  0.00     0.051 A
HETATM    8  C8  UNL     1      25.126  13.751  10.660  1.00  0.00     0.063 A
HETATM    9 CL3  UNL     1      25.920  12.820   9.412  1.00  0.00    -0.082 Cl
ENDROOT
BRANCH   1  10
HETATM   10  N1  UNL     1      27.258  14.178  11.819  1.00  0.00    -0.296 N
BRANCH  10  11
HETATM   11  C2  UNL     1      27.949  14.049  13.067  1.00  0.00     0.135 C
HETATM   12  C1  UNL     1      27.567  12.792  13.814  1.00  0.00     0.028 C
ENDBRANCH  10  11
BRANCH  10  13
HETATM   13  S1  UNL     1      28.152  14.183  10.320  1.00  0.00     0.112 S
HETATM   14  C9  UNL     1      29.710  13.355  10.428  1.00  0.00     0.152 C
HETATM   15  O1  UNL     1      28.202  15.532   9.665  1.00  0.00    -0.236 OA
ENDBRANCH  10  13
ENDBRANCH   1  10
TORSDOF 3
ENDMDL