MODEL 4
REMARK VINA RESULT: -4.606511745      4.001      5.193
REMARK  3 active torsions:
REMARK  status: ('A' for Active; 'I' for Inactive)
REMARK    1  A    between atoms: C1_2  and  N1_3
REMARK    2  A    between atoms: N1_3  and  C2_5
REMARK    3  A    between atoms: C2_5  and  C3_6
ROOT
HETATM    1  C3  UNL     1      27.630  15.059  11.193  1.00  0.00     0.025 A
HETATM    2  S1  UNL     1      28.503  14.956   9.735  1.00  0.00    -0.084 SA
HETATM    3  C4  UNL     1      29.474  13.601  10.084  1.00  0.00     0.053 A
HETATM    4 BR1  UNL     1      30.800  12.749   8.970  1.00  0.00    -0.043 Br
HETATM    5  C5  UNL     1      29.083  13.259  11.352  1.00  0.00     0.051 A
HETATM    6  C6  UNL     1      28.127  14.019  11.923  1.00  0.00     0.050 A
HETATM    7 CL2  UNL     1      27.527  13.685  13.570  1.00  0.00    -0.083 Cl
ENDROOT
BRANCH   1   8
HETATM    8  C2  UNL     1      26.578  16.057  11.564  1.00  0.00     0.193 C
BRANCH   8   9
HETATM    9  N1  UNL     1      25.325  15.342  11.626  1.00  0.00    -0.262 N
HETATM   10 CL1  UNL     1      24.982  14.146  10.422  1.00  0.00     0.016 Cl
BRANCH   9  11
HETATM   11  C1  UNL     1      24.420  15.648  12.675  1.00  0.00     0.366 C
HETATM   12  O1  UNL     1      23.997  14.704  13.421  1.00  0.00    -0.282 OA
ENDBRANCH   9  11
ENDBRANCH   8   9
ENDBRANCH   1   8
TORSDOF 3
ENDMDL