MODEL 1
REMARK VINA RESULT: -5.712264026      0.000      0.000
REMARK  3 active torsions:
REMARK  status: ('A' for Active; 'I' for Inactive)
REMARK    1  A    between atoms: O1_2  and  C2_3
REMARK    2  A    between atoms: C4_5  and  N1_6
REMARK    3  A    between atoms: C5_8  and  N2_9
ROOT
HETATM    1  C2  UNL     1      25.443  14.523  12.500  1.00  0.00     0.087 A
HETATM    2  C3  UNL     1      24.320  14.845  13.232  1.00  0.00     0.070 A
HETATM    3  C4  UNL     1      23.043  14.778  12.707  1.00  0.00     0.074 A
HETATM    4  C8  UNL     1      22.875  14.373  11.400  1.00  0.00     0.144 A
HETATM    5  F1  UNL     1      21.639  14.302  10.872  1.00  0.00    -0.204 F
HETATM    6  C9  UNL     1      24.016  14.049  10.667  1.00  0.00     0.066 A
HETATM    7  C10 UNL     1      25.283  14.124  11.212  1.00  0.00     0.047 A
HETATM    8 BR1  UNL     1      26.828  13.666  10.160  1.00  0.00    -0.048 Br
ENDROOT
BRANCH   3   9
HETATM    9  N1  UNL     1      21.940  15.121  13.505  1.00  0.00    -0.350 N
HETATM   10  C5  UNL     1      21.162  16.127  13.303  1.00  0.00     0.178 C
ATOM     11  H1  UNL     1      21.739  14.525  14.308  1.00  0.00     0.166 HD
BRANCH  10  12
HETATM   12  N2  UNL     1      20.096  16.323  14.207  1.00  0.00    -0.386 N
HETATM   13  C6  UNL     1      19.099  15.296  14.349  1.00  0.00     0.149 C
HETATM   14  C7  UNL     1      20.021  17.534  14.967  1.00  0.00     0.149 C
ENDBRANCH  10  12
ENDBRANCH   3   9
BRANCH   1  15
HETATM   15  O1  UNL     1      26.717  14.593  13.030  1.00  0.00    -0.355 OA
HETATM   16  C1  UNL     1      27.409  13.479  13.543  1.00  0.00     0.210 C
ENDBRANCH   1  15
TORSDOF 3
ENDMDL