MODEL 3
REMARK VINA RESULT: -4.037898238      2.812      4.165
REMARK  4 active torsions:
REMARK  status: ('A' for Active; 'I' for Inactive)
REMARK    1  A    between atoms: C2_2  and  N1_4
REMARK    2  A    between atoms: C6_7  and  N2_8
REMARK    3  A    between atoms: C9_11  and  C10_12
REMARK    4  A    between atoms: C11_13  and  C12_15
ROOT
HETATM    1  N1  UNL     1      31.106  24.152   7.798  1.00  0.00    -0.383 N
HETATM    2  C4  UNL     1      32.050  24.905   8.508  1.00  0.00     0.062 C
HETATM    3  C5  UNL     1      32.573  24.180   9.704  1.00  0.00     0.087 C
HETATM    4  C6  UNL     1      32.120  22.751   9.794  1.00  0.00     0.180 C
HETATM    5  C9  UNL     1      30.608  22.709   9.744  1.00  0.00     0.074 C
HETATM    6  C13 UNL     1      30.765  22.877   8.247  1.00  0.00     0.104 C
HETATM    7  C14 UNL     1      32.057  22.065   8.442  1.00  0.00     0.011 C
HETATM    8  C15 UNL     1      33.136  22.368   7.467  1.00  0.00     0.020 C
HETATM    9  C16 UNL     1      31.694  20.616   8.616  1.00  0.00     0.020 C
ENDROOT
BRANCH   5  10
HETATM   10  C10 UNL     1      29.893  23.724  10.483  1.00  0.00     0.026 C
HETATM   11  C11 UNL     1      28.589  23.732  10.617  1.00  0.00     0.154 C
HETATM   12  F1  UNL     1      28.003  24.757  11.349  1.00  0.00    -0.205 F
BRANCH  11  13
HETATM   13  C12 UNL     1      27.609  22.775  10.084  1.00  0.00     0.414 C
HETATM   14  F2  UNL     1      26.840  22.183  11.064  1.00  0.00    -0.207 F
HETATM   15  F3  UNL     1      26.681  23.414   9.242  1.00  0.00    -0.207 F
ENDBRANCH  11  13
ENDBRANCH   5  10
BRANCH   4  16
HETATM   16  N2  UNL     1      32.740  21.932  10.763  1.00  0.00     0.091 N
HETATM   17  C7  UNL     1      34.025  22.326  11.219  1.00  0.00     0.310 C
HETATM   18  C8  UNL     1      31.942  21.605  11.922  1.00  0.00     0.310 C
ENDBRANCH   4  16
BRANCH   1  19
HETATM   19  C2  UNL     1      30.369  24.750   6.765  1.00  0.00     0.075 C
HETATM   20  C1  UNL     1      28.865  24.792   7.028  1.00  0.00     0.032 C
HETATM   21  C3  UNL     1      30.592  24.192   5.390  1.00  0.00     0.032 C
ENDBRANCH   1  19
TORSDOF 4
ENDMDL