MODEL 4
REMARK VINA RESULT: -3.898782499      3.392      5.838
REMARK  4 active torsions:
REMARK  status: ('A' for Active; 'I' for Inactive)
REMARK    1  A    between atoms: C2_2  and  C3_3
REMARK    2  A    between atoms: C3_3  and  N1_4
REMARK    3  A    between atoms: C4_6  and  C5_7
REMARK    4  A    between atoms: C7_9  and  C8_10
ROOT
HETATM    1  C5  UNL     1      28.079  23.920   7.433  1.00  0.00     0.052 A
HETATM    2  C6  UNL     1      29.227  23.546   8.139  1.00  0.00     0.060 A
HETATM    3  C7  UNL     1      30.360  23.116   7.504  1.00  0.00     0.067 A
HETATM    4  N2  UNL     1      30.324  23.068   6.142  1.00  0.00    -0.346 N
ATOM      5  H2  UNL     1      31.149  22.753   5.634  1.00  0.00     0.167 HD
HETATM    6  C9  UNL     1      29.231  23.425   5.455  1.00  0.00     0.079 A
HETATM    7  C10 UNL     1      29.191  23.398   3.959  1.00  0.00     0.089 C
HETATM    8  N3  UNL     1      28.101  23.853   6.096  1.00  0.00    -0.340 N
HETATM    9  C11 UNL     1      26.953  24.228   5.331  1.00  0.00     0.158 C
ENDROOT
BRANCH   1  10
HETATM   10  C4  UNL     1      26.893  24.371   8.141  1.00  0.00     0.113 C
HETATM   11  N1  UNL     1      26.356  23.559   9.041  1.00  0.00    -0.397 N
ATOM     12  H1  UNL     1      26.772  22.645   9.223  1.00  0.00     0.158 HD
BRANCH  11  13
HETATM   13  C3  UNL     1      25.161  23.983   9.769  1.00  0.00     0.118 C
BRANCH  13  14
HETATM   14  C2  UNL     1      24.128  24.605   8.854  1.00  0.00     0.015 C
HETATM   15  C1  UNL     1      22.759  24.603   9.512  1.00  0.00     0.006 C
ENDBRANCH  13  14
ENDBRANCH  11  13
ENDBRANCH   1  10
BRANCH   3  16
HETATM   16  C8  UNL     1      31.587  22.719   8.235  1.00  0.00     0.231 C
HETATM   17 CL1  UNL     1      31.756  20.930   8.198  1.00  0.00    -0.077 Cl
HETATM   18 CL2  UNL     1      31.686  23.258   9.892  1.00  0.00    -0.077 Cl
HETATM   19 CL3  UNL     1      32.953  23.443   7.295  1.00  0.00    -0.077 Cl
ENDBRANCH   3  16
TORSDOF 4
ENDMDL