MODEL 5
REMARK VINA RESULT: -6.153716277      1.775      2.437
REMARK  4 active torsions:
REMARK  status: ('A' for Active; 'I' for Inactive)
REMARK    1  A    between atoms: C2_2  and  C11_15
REMARK    2  A    between atoms: N1_3  and  O1_5
REMARK    3  A    between atoms: O1_5  and  C3_6
REMARK    4  A    between atoms: C8_11  and  C9_12
ROOT
HETATM    1  C3  UNL     1      23.331  15.134  12.403  1.00  0.00     0.164 C
HETATM    2  C4  UNL     1      22.827  14.362  11.225  1.00  0.00     0.019 C
HETATM    3  C5  UNL     1      24.116  13.954  10.495  1.00  0.00     0.012 C
HETATM    4  C6  UNL     1      24.376  13.183  11.775  1.00  0.00    -0.003 C
HETATM    5  C7  UNL     1      22.877  12.921  11.738  1.00  0.00     0.012 C
HETATM    6  C8  UNL     1      24.569  14.309  12.755  1.00  0.00     0.044 C
ENDROOT
BRANCH   1   7
HETATM    7  O1  UNL     1      22.500  15.107  13.512  1.00  0.00    -0.274 OA
BRANCH   7   8
HETATM    8  N1  UNL     1      21.849  16.119  14.096  1.00  0.00    -0.269 N
HETATM    9  C2  UNL     1      20.643  16.503  13.886  1.00  0.00     0.070 C
HETATM   10  C1  UNL     1      19.822  15.797  12.902  1.00  0.00     0.071 C
ATOM     11  H1  UNL     1      22.373  16.649  14.792  1.00  0.00     0.194 HD
BRANCH   9  12
HETATM   12  C11 UNL     1      20.140  17.659  14.662  1.00  0.00     0.400 C
HETATM   13  F1  UNL     1      18.878  17.395  15.173  1.00  0.00    -0.208 F
HETATM   14  F2  UNL     1      20.066  18.728  13.756  1.00  0.00    -0.208 F
ENDBRANCH   9  12
ENDBRANCH   7   8
ENDBRANCH   1   7
BRANCH   6  15
HETATM   15  C9  UNL     1      25.816  15.079  12.520  1.00  0.00    -0.012 C
HETATM   16  C10 UNL     1      26.904  14.469  12.009  1.00  0.00     0.052 C
HETATM   17 BR1  UNL     1      28.532  15.395  11.683  1.00  0.00    -0.064 Br
ENDBRANCH   6  15
TORSDOF 4
ENDMDL