MODEL 4
REMARK VINA RESULT: -6.314927399      4.315      7.491
REMARK  5 active torsions:
REMARK  status: ('A' for Active; 'I' for Inactive)
REMARK    1  A    between atoms: C2_2  and  O1_3
REMARK    2  A    between atoms: O1_3  and  C3_4
REMARK    3  A    between atoms: C5_6  and  C7_8
REMARK       I    between atoms: N1_9  and  C8_11
REMARK    4  A    between atoms: C8_11  and  C9_13
REMARK    5  A    between atoms: C9_13  and  C10_14
ROOT
HETATM    1  C7  UNL     1      24.342  15.831  12.310  1.00  0.00     0.073 C
HETATM    2  N1  UNL     1      25.143  15.171  11.561  1.00  0.00    -0.340 N
ATOM      3  H1  UNL     1      24.938  14.186  11.390  1.00  0.00     0.167 HD
HETATM    4  C8  UNL     1      26.302  15.728  10.954  1.00  0.00     0.225 C
HETATM    5  O2  UNL     1      26.203  16.557  10.026  1.00  0.00    -0.273 OA
ENDROOT
BRANCH   1   6
HETATM    6  C5  UNL     1      23.162  15.209  12.912  1.00  0.00    -0.007 C
HETATM    7  C4  UNL     1      22.647  15.837  14.169  1.00  0.00     0.047 C
HETATM    8  C3  UNL     1      21.245  15.827  13.575  1.00  0.00     0.129 C
HETATM    9  C11 UNL     1      21.864  15.584  12.224  1.00  0.00     0.047 C
HETATM   10  C6  UNL     1      23.354  13.726  13.109  1.00  0.00     0.021 C
BRANCH   8  11
HETATM   11  O1  UNL     1      20.554  17.030  13.720  1.00  0.00    -0.358 OA
BRANCH  11  12
HETATM   12  C2  UNL     1      19.392  17.116  14.451  1.00  0.00     0.125 C
HETATM   13  C1  UNL     1      19.397  17.728  15.615  1.00  0.00     0.037 C
ENDBRANCH  11  12
ENDBRANCH   8  11
ENDBRANCH   1   6
BRANCH   4  14
HETATM   14  C9  UNL     1      27.617  15.308  11.438  1.00  0.00     0.162 C
BRANCH  14  15
HETATM   15  C10 UNL     1      28.220  14.191  10.620  1.00  0.00     0.196 C
HETATM   16 CL1  UNL     1      27.011  13.191   9.827  1.00  0.00    -0.083 Cl
HETATM   17 CL2  UNL     1      29.333  13.203  11.598  1.00  0.00    -0.083 Cl
HETATM   18 CL3  UNL     1      29.209  14.981   9.340  1.00  0.00    -0.083 Cl
ENDBRANCH  14  15
ENDBRANCH   4  14
TORSDOF 5
ENDMDL