MODEL 1
REMARK VINA RESULT: -3.672757944      0.000      0.000
REMARK  4 active torsions:
REMARK  status: ('A' for Active; 'I' for Inactive)
REMARK    1  A    between atoms: C2_2  and  C3_3
REMARK    2  A    between atoms: C3_3  and  N1_4
REMARK    3  A    between atoms: N1_4  and  C4_5
REMARK       I    between atoms: N2_12  and  C9_13
REMARK    4  A    between atoms: C9_13  and  C10_15
ROOT
HETATM    1  C4  UNL     1      29.972  23.510   9.118  1.00  0.00     0.223 C
HETATM    2  S1  UNL     1      31.687  23.221   9.659  1.00  0.00    -0.066 SA
HETATM    3  C5  UNL     1      32.103  22.292   8.120  1.00  0.00     0.044 C
HETATM    4  C6  UNL     1      33.561  22.353   7.821  1.00  0.00     0.030 C
HETATM    5  C7  UNL     1      31.565  20.896   8.317  1.00  0.00     0.030 C
HETATM    6  C8  UNL     1      31.251  23.045   7.151  1.00  0.00     0.211 C
HETATM    7 CL1  UNL     1      32.074  24.500   6.528  1.00  0.00    -0.100 Cl
HETATM    8  N2  UNL     1      30.020  23.417   7.701  1.00  0.00    -0.266 N
HETATM    9  C9  UNL     1      28.866  23.694   6.910  1.00  0.00     0.241 C
HETATM   10  O1  UNL     1      27.753  24.043   7.376  1.00  0.00    -0.272 OA
ENDROOT
BRANCH   1  11
HETATM   11  N1  UNL     1      29.072  23.713   9.854  1.00  0.00    -0.397 NA
BRANCH  11  12
HETATM   12  C3  UNL     1      28.054  23.944  10.688  1.00  0.00     0.157 C
BRANCH  12  13
HETATM   13  C2  UNL     1      27.164  22.718  10.906  1.00  0.00     0.055 C
HETATM   14  C1  UNL     1      25.914  22.873  10.047  1.00  0.00     0.011 C
ENDBRANCH  12  13
ENDBRANCH  11  12
ENDBRANCH   1  11
BRANCH   9  15
HETATM   15  C10 UNL     1      28.923  23.578   5.431  1.00  0.00     0.217 C
HETATM   16 CL2  UNL     1      27.331  23.890   4.706  1.00  0.00    -0.121 Cl
ENDBRANCH   9  15
TORSDOF 4
ENDMDL