MODEL 2
REMARK VINA RESULT: -4.343975578      3.484      4.755
REMARK  3 active torsions:
REMARK  status: ('A' for Active; 'I' for Inactive)
REMARK    1  A    between atoms: O1_2  and  C2_3
REMARK    2  A    between atoms: C2_3  and  C3_5
REMARK    3  A    between atoms: C6_8  and  C7_10
ROOT
HETATM    1  C3  UNL     1      27.774  14.387  10.899  1.00  0.00     0.070 C
HETATM    2  C4  UNL     1      28.189  15.509   9.997  1.00  0.00     0.031 C
HETATM    3  C5  UNL     1      27.373  14.844  12.282  1.00  0.00     0.058 C
HETATM    4  C6  UNL     1      25.912  15.147  12.090  1.00  0.00     0.098 C
HETATM    5 CL1  UNL     1      25.625  16.803  11.539  1.00  0.00    -0.111 Cl
HETATM    6  C8  UNL     1      25.483  14.138  11.117  1.00  0.00     0.018 C
HETATM    7 BR1  UNL     1      23.685  13.506  10.828  1.00  0.00    -0.053 Br
HETATM    8  C9  UNL     1      26.530  13.697  10.433  1.00  0.00    -0.050 C
HETATM    9  C10 UNL     1      26.480  12.668   9.358  1.00  0.00     0.046 C
ENDROOT
BRANCH   1  10
HETATM   10  C2  UNL     1      28.906  13.430  10.993  1.00  0.00     0.271 C
HETATM   11  O2  UNL     1      29.299  13.088  12.137  1.00  0.00    -0.264 OA
BRANCH  10  12
HETATM   12  O1  UNL     1      29.535  12.909   9.900  1.00  0.00    -0.326 OA
HETATM   13  C1  UNL     1      29.951  11.569   9.763  1.00  0.00     0.213 C
ENDBRANCH  10  12
ENDBRANCH   1  10
BRANCH   4  14
HETATM   14  C7  UNL     1      25.206  14.990  13.432  1.00  0.00     0.253 C
HETATM   15  F1  UNL     1      24.103  15.824  13.381  1.00  0.00    -0.253 F
ENDBRANCH   4  14
TORSDOF 3
ENDMDL