MODEL 2
REMARK VINA RESULT: -6.825904673      1.105      1.347
REMARK  9 active torsions:
REMARK  status: ('A' for Active; 'I' for Inactive)
REMARK    1  A    between atoms: C3_3  and  N1_4
REMARK    2  A    between atoms: C5_7  and  C6_8
REMARK    3  A    between atoms: C7_9  and  C8_10
REMARK    4  A    between atoms: C10_12  and  O2_13
REMARK    5  A    between atoms: C12_17  and  O4_18
REMARK    6  A    between atoms: C12_17  and  C13_20
REMARK    7  A    between atoms: C14_21  and  C15_22
REMARK    8  A    between atoms: C19_27  and  O6_28
REMARK    9  A    between atoms: C19_27  and  C20_30
ROOT
HETATM    1  C1  UNL     1      38.935  34.130  89.213  1.00  0.00     0.014 C
HETATM    2  C2  UNL     1      39.308  34.637  88.188  1.00  0.00    -0.097 C
HETATM    3  C3  UNL     1      39.761  35.225  86.942  1.00  0.00     0.224 C
ENDROOT
BRANCH   3   4
HETATM    4  N1  UNL     1      41.177  35.495  86.892  1.00  0.00    -0.283 N
HETATM    5  C4  UNL     1      41.749  36.689  87.419  1.00  0.00     0.257 C
HETATM    6  O1  UNL     1      41.110  37.582  88.081  1.00  0.00    -0.270 OA
HETATM    7  C5  UNL     1      43.163  36.666  87.049  1.00  0.00     0.241 C
HETATM    8  O5  UNL     1      43.445  35.344  86.848  1.00  0.00    -0.319 OA
HETATM    9  C19 UNL     1      42.283  34.747  86.390  1.00  0.00     0.255 C
BRANCH   7  10
HETATM   10  C6  UNL     1      44.047  37.305  88.069  1.00  0.00     0.011 C
HETATM   11  C7  UNL     1      44.295  36.805  89.240  1.00  0.00    -0.023 C
BRANCH  11  12
HETATM   12  C8  UNL     1      45.167  37.440  90.238  1.00  0.00     0.011 C
HETATM   13  C9  UNL     1      44.603  37.619  91.600  1.00  0.00     0.043 C
HETATM   14  C10 UNL     1      44.163  39.050  91.850  1.00  0.00     0.148 C
HETATM   15  C11 UNL     1      45.407  39.916  91.925  1.00  0.00     0.164 C
HETATM   16  O3  UNL     1      45.296  41.121  91.254  1.00  0.00    -0.343 OA
HETATM   17  C17 UNL     1      46.400  39.435  90.911  1.00  0.00     0.084 C
HETATM   18  C12 UNL     1      46.590  40.926  90.762  1.00  0.00     0.187 C
HETATM   19  C18 UNL     1      45.775  38.737  89.731  1.00  0.00     0.021 C
BRANCH  14  20
HETATM   20  O2  UNL     1      43.301  39.543  90.902  1.00  0.00    -0.393 OA
ATOM     21  H2  UNL     1      42.593  40.067  91.258  1.00  0.00     0.210 HD
ENDBRANCH  14  20
BRANCH  18  22
HETATM   22  O4  UNL     1      46.683  41.291  89.436  1.00  0.00    -0.362 OA
ATOM     23  H4  UNL     1      45.833  41.271  89.010  1.00  0.00     0.213 HD
ENDBRANCH  18  22
BRANCH  18  24
HETATM   24  C13 UNL     1      47.643  41.437  91.656  1.00  0.00     0.037 C
HETATM   25  C14 UNL     1      48.784  41.872  91.132  1.00  0.00    -0.026 C
BRANCH  25  26
HETATM   26  C15 UNL     1      49.856  42.391  92.040  1.00  0.00     0.022 C
HETATM   27  C16 UNL     1      50.317  41.303  92.971  1.00  0.00     0.009 C
ENDBRANCH  25  26
ENDBRANCH  18  24
ENDBRANCH  11  12
ENDBRANCH   7  10
BRANCH   9  28
HETATM   28  O6  UNL     1      42.196  33.467  87.010  1.00  0.00    -0.348 OA
ATOM     29  H6  UNL     1      42.947  32.977  86.695  1.00  0.00     0.215 HD
ENDBRANCH   9  28
BRANCH   9  30
HETATM   30  C20 UNL     1      42.336  34.551  84.906  1.00  0.00     0.063 C
HETATM   31  C21 UNL     1      43.667  34.178  84.350  1.00  0.00     0.017 C
HETATM   32  C22 UNL     1      41.687  35.692  84.163  1.00  0.00     0.017 C
ENDBRANCH   9  30
ENDBRANCH   3   4
TORSDOF 9
ENDMDL