MODEL 3
REMARK VINA RESULT: -7.175085547      1.786      2.306
REMARK  7 active torsions:
REMARK  status: ('A' for Active; 'I' for Inactive)
REMARK    1  A    between atoms: C5_6  and  C6_7
REMARK    2  A    between atoms: C6_7  and  N1_8
REMARK    3  A    between atoms: C13_18  and  N3_19
REMARK    4  A    between atoms: N3_19  and  C14_21
REMARK    5  A    between atoms: C14_21  and  C15_22
REMARK    6  A    between atoms: C15_22  and  C16_23
REMARK    7  A    between atoms: C16_23  and  N4_24
REMARK       I    between atoms: N4_24  and  C17_25
ROOT
HETATM    1  N1  UNL     1      41.134  37.787  87.401  1.00  0.00    -0.389 N
ATOM      2  H1  UNL     1      40.770  38.684  87.723  1.00  0.00     0.159 HD
HETATM    3  C7  UNL     1      41.311  37.681  86.165  1.00  0.00     0.024 C
HETATM    4  C8  UNL     1      40.958  38.889  85.350  1.00  0.00     0.058 C
HETATM    5  C9  UNL     1      39.967  38.437  84.266  1.00  0.00     0.006 C
HETATM    6  C10 UNL     1      40.759  37.640  83.281  1.00  0.00     0.006 C
HETATM    7  C11 UNL     1      40.647  36.162  83.433  1.00  0.00     0.058 C
HETATM    8  C12 UNL     1      41.594  35.690  84.542  1.00  0.00     0.030 A
HETATM    9  N2  UNL     1      42.224  34.545  84.390  1.00  0.00    -0.339 N
ATOM     10  H2  UNL     1      42.077  33.984  83.550  1.00  0.00     0.168 HD
HETATM   11  C13 UNL     1      43.052  34.127  85.339  1.00  0.00     0.145 A
HETATM   12  S1  UNL     1      42.956  35.380  86.501  1.00  0.00    -0.051 SA
HETATM   13  C18 UNL     1      41.842  36.394  85.700  1.00  0.00     0.053 A
ENDROOT
BRANCH   1  14
HETATM   14  C6  UNL     1      41.375  36.819  88.411  1.00  0.00     0.153 C
BRANCH  14  15
HETATM   15  C5  UNL     1      41.805  37.503  89.729  1.00  0.00     0.166 C
HETATM   16  C4  UNL     1      41.494  36.647  90.913  1.00  0.00     0.205 C
HETATM   17  O1  UNL     1      42.694  36.601  91.647  1.00  0.00    -0.353 OA
HETATM   18  C2  UNL     1      43.498  37.593  91.137  1.00  0.00     0.157 C
HETATM   19  C1  UNL     1      43.141  38.937  91.734  1.00  0.00     0.078 C
HETATM   20  C3  UNL     1      44.963  37.347  91.284  1.00  0.00     0.078 C
HETATM   21  O2  UNL     1      43.197  37.590  89.766  1.00  0.00    -0.347 OA
ENDBRANCH  14  15
ENDBRANCH   1  14
BRANCH  11  22
HETATM   22  N3  UNL     1      43.780  33.034  85.410  1.00  0.00    -0.370 N
ATOM     23  H3  UNL     1      43.381  32.112  85.235  1.00  0.00     0.161 HD
BRANCH  22  24
HETATM   24  C14 UNL     1      45.171  33.207  85.747  1.00  0.00     0.124 C
BRANCH  24  25
HETATM   25  C15 UNL     1      46.047  32.571  84.671  1.00  0.00     0.053 C
BRANCH  25  26
HETATM   26  C16 UNL     1      46.689  31.342  85.370  1.00  0.00     0.222 C
BRANCH  26  27
HETATM   27  N4  UNL     1      48.009  31.383  85.217  1.00  0.00    -0.421 NA
HETATM   28  C17 UNL     1      49.155  31.478  85.079  1.00  0.00     0.270 C
HETATM   29  N5  UNL     1      49.809  32.761  84.879  1.00  0.00    -0.053 NA
HETATM   30  N6  UNL     1      50.041  30.334  85.090  1.00  0.00    -0.053 NA
ENDBRANCH  26  27
ENDBRANCH  25  26
ENDBRANCH  24  25
ENDBRANCH  22  24
ENDBRANCH  11  22
TORSDOF 7
ENDMDL