MODEL 2
REMARK VINA RESULT: -5.793500171      1.839      3.315
REMARK  8 active torsions:
REMARK  status: ('A' for Active; 'I' for Inactive)
REMARK    1  A    between atoms: C2_2  and  C3_3
REMARK    2  A    between atoms: C3_3  and  C4_4
REMARK    3  A    between atoms: C4_4  and  C5_5
REMARK    4  A    between atoms: C5_5  and  O1_6
REMARK    5  A    between atoms: C5_5  and  C8_9
REMARK    6  A    between atoms: O1_6  and  C6_7
REMARK       I    between atoms: C8_9  and  N1_11
REMARK    7  A    between atoms: N1_11  and  C9_13
REMARK    8  A    between atoms: C11_15  and  C12_16
ROOT
HETATM    1  C5  UNL     1      42.115  36.374  85.231  1.00  0.00     0.240 C
ENDROOT
BRANCH   1   2
HETATM    2  C4  UNL     1      41.336  35.183  85.787  1.00  0.00     0.160 A
HETATM    3  C16 UNL     1      41.211  35.275  87.290  1.00  0.00     0.247 A
HETATM    4  O4  UNL     1      42.289  35.540  87.883  1.00  0.00    -0.272 OA
HETATM    5  N3  UNL     1      40.018  35.086  87.997  1.00  0.00    -0.278 N
HETATM    6  C17 UNL     1      38.814  34.850  87.310  1.00  0.00     0.329 A
ATOM      7  H3  UNL     1      40.023  35.119  89.017  1.00  0.00     0.173 HD
HETATM    8  O5  UNL     1      37.776  34.687  87.995  1.00  0.00    -0.247 OA
HETATM    9  N4  UNL     1      38.819  34.804  85.894  1.00  0.00    -0.278 N
HETATM   10  C18 UNL     1      40.020  34.996  85.160  1.00  0.00     0.247 A
ATOM     11  H4  UNL     1      37.947  34.630  85.394  1.00  0.00     0.173 HD
HETATM   12  O6  UNL     1      39.917  35.002  83.902  1.00  0.00    -0.272 OA
BRANCH   2  13
HETATM   13  C3  UNL     1      42.105  33.879  85.602  1.00  0.00     0.058 C
BRANCH  13  14
HETATM   14  C2  UNL     1      43.554  33.997  85.633  1.00  0.00    -0.035 C
HETATM   15  C1  UNL     1      44.335  33.022  85.163  1.00  0.00     0.007 C
ENDBRANCH  13  14
ENDBRANCH   2  13
ENDBRANCH   1   2
BRANCH   1  16
HETATM   16  O1  UNL     1      42.163  36.502  83.957  1.00  0.00    -0.375 OA
BRANCH  16  17
HETATM   17  C6  UNL     1      42.713  36.581  82.845  1.00  0.00     0.164 C
HETATM   18  C7  UNL     1      43.121  35.256  82.206  1.00  0.00     0.033 C
ENDBRANCH  16  17
ENDBRANCH   1  16
BRANCH   1  19
HETATM   19  C8  UNL     1      41.487  37.597  85.905  1.00  0.00     0.254 C
HETATM   20  O2  UNL     1      40.283  37.733  85.834  1.00  0.00    -0.270 OA
HETATM   21  N1  UNL     1      42.275  38.521  86.589  1.00  0.00    -0.309 N
ATOM     22  H1  UNL     1      42.651  39.281  86.023  1.00  0.00     0.170 HD
BRANCH  21  23
HETATM   23  C9  UNL     1      42.590  38.547  87.820  1.00  0.00     0.130 A
HETATM   24  C10 UNL     1      43.857  38.617  88.342  1.00  0.00     0.086 A
HETATM   25  C11 UNL     1      43.747  38.625  89.717  1.00  0.00     0.087 A
HETATM   26  O3  UNL     1      42.462  38.564  89.980  1.00  0.00    -0.240 OA
HETATM   27  N2  UNL     1      41.764  38.518  88.872  1.00  0.00    -0.245 N
ATOM     28  H2  UNL     1      40.747  38.468  88.820  1.00  0.00     0.196 HD
BRANCH  25  29
HETATM   29  C12 UNL     1      44.798  38.687  90.766  1.00  0.00     0.000 C
HETATM   30  C13 UNL     1      44.886  37.305  91.428  1.00  0.00     0.021 C
HETATM   31  C14 UNL     1      44.440  39.673  91.864  1.00  0.00     0.021 C
HETATM   32  C15 UNL     1      46.159  39.004  90.200  1.00  0.00     0.021 C
ENDBRANCH  25  29
ENDBRANCH  21  23
ENDBRANCH   1  19
TORSDOF 8
ENDMDL