MODEL 1
REMARK VINA RESULT: -5.881889442      0.000      0.000
REMARK  8 active torsions:
REMARK  status: ('A' for Active; 'I' for Inactive)
REMARK    1  A    between atoms: C2_2  and  C3_3
REMARK    2  A    between atoms: C4_4  and  S1_5
REMARK    3  A    between atoms: C6_7  and  S2_8
REMARK    4  A    between atoms: S2_8  and  C7_9
REMARK    5  A    between atoms: C11_13  and  C12_14
REMARK    6  A    between atoms: C14_20  and  N2_21
REMARK       I    between atoms: N2_21  and  C15_23
REMARK    7  A    between atoms: C15_23  and  C16_25
REMARK    8  A    between atoms: C16_25  and  N3_26
ROOT
HETATM    1  C3  UNL     1      42.245  35.160  83.248  1.00  0.00     0.052 C
HETATM    2  C4  UNL     1      41.255  36.306  83.164  1.00  0.00     0.098 C
HETATM    3  C6  UNL     1      39.934  35.841  83.739  1.00  0.00     0.027 C
HETATM    4  C11 UNL     1      39.961  35.040  84.784  1.00  0.00     0.129 C
HETATM    5  N1  UNL     1      41.206  34.646  85.314  1.00  0.00    -0.301 N
HETATM    6  C13 UNL     1      41.943  33.952  86.306  1.00  0.00     0.250 C
HETATM    7  O3  UNL     1      41.773  33.739  87.511  1.00  0.00    -0.271 OA
HETATM    8  C14 UNL     1      42.937  33.650  85.207  1.00  0.00     0.201 C
HETATM    9  C17 UNL     1      42.510  34.992  84.726  1.00  0.00     0.134 C
ENDROOT
BRANCH   8  10
HETATM   10  N2  UNL     1      44.248  33.539  85.782  1.00  0.00    -0.344 N
HETATM   11  C15 UNL     1      45.109  32.505  85.329  1.00  0.00     0.243 C
HETATM   12  O4  UNL     1      44.737  31.687  84.430  1.00  0.00    -0.272 OA
ATOM     13  H2  UNL     1      44.554  34.191  86.503  1.00  0.00     0.163 HD
BRANCH  11  14
HETATM   14  C16 UNL     1      46.479  32.315  85.866  1.00  0.00     0.332 C
BRANCH  14  15
HETATM   15  N3  UNL     1      47.421  32.362  84.761  1.00  0.00    -0.071 N
ATOM     16  H33 UNL     1      47.467  31.482  84.250  1.00  0.00     0.274 HD
ATOM     17  H32 UNL     1      47.095  32.953  83.996  1.00  0.00     0.274 HD
ATOM     18  H31 UNL     1      48.329  32.654  85.121  1.00  0.00     0.274 HD
ENDBRANCH  14  15
ENDBRANCH  11  14
ENDBRANCH   8  10
BRANCH   1  19
HETATM   19  C2  UNL     1      43.390  35.283  82.389  1.00  0.00    -0.029 C
HETATM   20  C1  UNL     1      43.234  35.548  81.089  1.00  0.00     0.007 C
ENDBRANCH   1  19
BRANCH   4  21
HETATM   21  C12 UNL     1      38.690  34.552  85.391  1.00  0.00     0.228 C
HETATM   22  O1  UNL     1      38.247  35.121  86.405  1.00  0.00    -0.643 OA
HETATM   23  O2  UNL     1      38.005  33.484  84.843  1.00  0.00    -0.643 OA
ENDBRANCH   4  21
BRANCH   2  24
HETATM   24  S1  UNL     1      41.879  37.647  84.207  1.00  0.00    -0.163 SA
HETATM   25  C5  UNL     1      40.786  39.063  84.180  1.00  0.00     0.090 C
ENDBRANCH   2  24
BRANCH   3  26
HETATM   26  S2  UNL     1      38.430  36.339  83.043  1.00  0.00    -0.122 SA
BRANCH  26  27
HETATM   27  C7  UNL     1      37.978  35.752  81.448  1.00  0.00     0.002 C
HETATM   28  C8  UNL     1      38.940  36.058  80.336  1.00  0.00     0.026 C
HETATM   29  C9  UNL     1      37.705  34.269  81.434  1.00  0.00     0.026 C
HETATM   30  C10 UNL     1      36.636  36.424  81.083  1.00  0.00     0.026 C
ENDBRANCH  26  27
ENDBRANCH   3  26
TORSDOF 8
ENDMDL