MODEL 3
REMARK VINA RESULT: -6.239191353      2.270      3.078
REMARK  11 active torsions:
REMARK  status: ('A' for Active; 'I' for Inactive)
REMARK    1  A    between atoms: C2_2  and  C3_3
REMARK    2  A    between atoms: C3_3  and  C4_4
REMARK    3  A    between atoms: C4_4  and  O1_5
REMARK    4  A    between atoms: C4_4  and  N1_7
REMARK    5  A    between atoms: N1_7  and  C5_9
REMARK    6  A    between atoms: C10_17  and  C11_18
REMARK       I    between atoms: C11_18  and  N2_20
REMARK    7  A    between atoms: N2_20  and  C12_22
REMARK    8  A    between atoms: C12_22  and  C13_23
REMARK    9  A    between atoms: C13_23  and  N3_24
REMARK       I    between atoms: N3_24  and  C14_26
REMARK   10  A    between atoms: C14_26  and  O7_28
REMARK   11  A    between atoms: O7_28  and  C15_29
ROOT
HETATM    1  C5  UNL     1      41.774  34.290  86.494  1.00  0.00     0.222 C
HETATM    2  C6  UNL     1      40.594  33.477  86.933  1.00  0.00     0.287 C
HETATM    3  O2  UNL     1      40.663  32.695  87.916  1.00  0.00    -0.263 OA
HETATM    4  O3  UNL     1      39.426  33.641  86.184  1.00  0.00    -0.282 OA
HETATM    5  C7  UNL     1      39.023  34.946  85.741  1.00  0.00     0.167 C
HETATM    6  C8  UNL     1      37.670  35.209  86.344  1.00  0.00     0.079 C
HETATM    7  C9  UNL     1      38.916  35.017  84.253  1.00  0.00     0.079 C
HETATM    8  O4  UNL     1      39.965  35.851  86.236  1.00  0.00    -0.338 OA
HETATM    9  C10 UNL     1      41.240  35.538  85.824  1.00  0.00     0.249 C
ENDROOT
BRANCH   9  10
HETATM   10  C11 UNL     1      42.139  36.691  86.109  1.00  0.00     0.249 C
HETATM   11  O5  UNL     1      43.166  36.568  86.817  1.00  0.00    -0.271 OA
HETATM   12  N2  UNL     1      41.826  37.957  85.571  1.00  0.00    -0.357 N
ATOM     13  H2  UNL     1      40.987  38.036  84.996  1.00  0.00     0.162 HD
BRANCH  12  14
HETATM   14  C12 UNL     1      42.612  39.144  85.780  1.00  0.00     0.142 C
BRANCH  14  15
HETATM   15  C13 UNL     1      42.106  39.894  86.983  1.00  0.00     0.144 C
BRANCH  15  16
HETATM   16  N3  UNL     1      42.538  39.297  88.222  1.00  0.00    -0.335 N
HETATM   17  C14 UNL     1      43.687  39.776  88.869  1.00  0.00     0.361 C
HETATM   18  O6  UNL     1      44.347  40.719  88.382  1.00  0.00    -0.238 OA
ATOM     19  H3  UNL     1      42.007  38.526  88.629  1.00  0.00     0.164 HD
BRANCH  17  20
HETATM   20  O7  UNL     1      44.107  39.210  90.056  1.00  0.00    -0.294 OA
BRANCH  20  21
HETATM   21  C15 UNL     1      45.218  38.375  90.169  1.00  0.00     0.061 C
HETATM   22  C16 UNL     1      44.924  37.423  91.337  1.00  0.00     0.046 C
HETATM   23  C17 UNL     1      45.489  37.532  88.967  1.00  0.00     0.046 C
HETATM   24  C18 UNL     1      46.418  39.185  90.613  1.00  0.00     0.046 C
ENDBRANCH  20  21
ENDBRANCH  17  20
ENDBRANCH  15  16
ENDBRANCH  14  15
ENDBRANCH  12  14
ENDBRANCH   9  10
BRANCH   1  25
HETATM   25  N1  UNL     1      42.552  33.516  85.498  1.00  0.00    -0.355 N
ATOM     26  H1  UNL     1      42.063  33.017  84.754  1.00  0.00     0.162 HD
BRANCH  25  27
HETATM   27  C4  UNL     1      43.952  33.459  85.564  1.00  0.00     0.136 C
BRANCH  27  28
HETATM   28  C3  UNL     1      44.894  33.060  84.577  1.00  0.00     0.051 C
BRANCH  28  29
HETATM   29  C2  UNL     1      46.152  32.727  84.653  1.00  0.00    -0.027 C
HETATM   30  C1  UNL     1      46.664  31.555  85.371  1.00  0.00     0.036 C
ENDBRANCH  28  29
ENDBRANCH  27  28
BRANCH  27  31
HETATM   31  O1  UNL     1      44.465  33.828  86.703  1.00  0.00    -0.346 OA
ATOM     32  H1  UNL     1      44.674  33.120  87.300  1.00  0.00     0.219 HD
ENDBRANCH  27  31
ENDBRANCH  25  27
ENDBRANCH   1  25
TORSDOF 11
ENDMDL