MODEL 4
REMARK VINA RESULT: -7.576772670      3.871      5.700
REMARK  7 active torsions:
REMARK  status: ('A' for Active; 'I' for Inactive)
REMARK    1  A    between atoms: C3_4  and  N1_5
REMARK       I    between atoms: N1_5  and  C4_7
REMARK    2  A    between atoms: C4_7  and  C5_9
REMARK    3  A    between atoms: C5_9  and  O3_10
REMARK    4  A    between atoms: O3_10  and  C6_11
REMARK    5  A    between atoms: C6_11  and  C7_13
REMARK    6  A    between atoms: C7_13  and  N2_14
REMARK       I    between atoms: N2_14  and  C8_16
REMARK    7  A    between atoms: C8_16  and  C9_18
ROOT
HETATM    1  C7  UNL     1      42.509  35.071  86.342  1.00  0.00     0.233 C
ENDROOT
BRANCH   1   2
HETATM    2  C6  UNL     1      42.803  34.350  85.045  1.00  0.00     0.277 C
HETATM    3  O4  UNL     1      42.191  34.675  84.041  1.00  0.00    -0.263 OA
BRANCH   2   4
HETATM    4  O3  UNL     1      43.738  33.381  85.075  1.00  0.00    -0.311 OA
BRANCH   4   5
HETATM    5  C5  UNL     1      44.771  33.044  84.191  1.00  0.00     0.281 C
BRANCH   5   6
HETATM    6  C4  UNL     1      45.941  32.791  85.119  1.00  0.00     0.243 C
HETATM    7  N1  UNL     1      47.123  32.204  84.595  1.00  0.00    -0.339 N
ATOM      8  H1  UNL     1      47.173  31.901  83.622  1.00  0.00     0.164 HD
HETATM    9  O2  UNL     1      45.865  33.126  86.342  1.00  0.00    -0.271 OA
BRANCH   7  10
HETATM   10  C3  UNL     1      48.237  32.051  85.469  1.00  0.00     0.207 C
HETATM   11  C2  UNL     1      48.669  30.634  85.621  1.00  0.00     0.148 C
HETATM   12  C1  UNL     1      49.977  30.555  84.864  1.00  0.00     0.236 C
HETATM   13  O1  UNL     1      50.806  29.643  84.844  1.00  0.00    -0.272 OA
HETATM   14  N4  UNL     1      50.043  31.808  84.150  1.00  0.00    -0.272 N
HETATM   15  N3  UNL     1      49.394  32.770  84.933  1.00  0.00    -0.113 NA
ATOM     16  H4  UNL     1      50.482  31.964  83.243  1.00  0.00     0.185 HD
ENDBRANCH   7  10
ENDBRANCH   5   6
ENDBRANCH   4   5
ENDBRANCH   2   4
ENDBRANCH   1   2
BRANCH   1  17
HETATM   17  N2  UNL     1      41.467  34.390  87.033  1.00  0.00    -0.351 N
HETATM   18  C8  UNL     1      40.296  34.817  87.638  1.00  0.00     0.222 C
HETATM   19  O5  UNL     1      39.980  35.992  87.600  1.00  0.00    -0.273 OA
ATOM     20  H2  UNL     1      41.612  33.383  87.096  1.00  0.00     0.163 HD
BRANCH  18  21
HETATM   21  C9  UNL     1      39.358  33.851  88.369  1.00  0.00     0.078 C
HETATM   22  C10 UNL     1      38.328  33.422  87.438  1.00  0.00     0.018 C
HETATM   23  C11 UNL     1      37.328  34.330  86.844  1.00  0.00     0.028 C
HETATM   24  C12 UNL     1      35.917  34.323  87.277  1.00  0.00    -0.027 C
HETATM   25  C13 UNL     1      35.167  33.136  87.590  1.00  0.00    -0.008 C
HETATM   26  C14 UNL     1      35.036  32.509  88.914  1.00  0.00    -0.027 C
HETATM   27  C15 UNL     1      34.895  33.269  90.145  1.00  0.00     0.027 C
HETATM   28  C16 UNL     1      35.998  33.066  91.228  1.00  0.00     0.004 C
HETATM   29  C17 UNL     1      37.172  33.529  90.519  1.00  0.00     0.000 C
HETATM   30  C18 UNL     1      38.569  33.530  90.776  1.00  0.00     0.001 C
HETATM   31  C19 UNL     1      39.127  34.454  89.687  1.00  0.00     0.014 C
ENDBRANCH  18  21
ENDBRANCH   1  17
TORSDOF 7
ENDMDL