MODEL 1
REMARK VINA RESULT: -6.356797608      0.000      0.000
REMARK  7 active torsions:
REMARK  status: ('A' for Active; 'I' for Inactive)
REMARK    1  A    between atoms: N1_2  and  C2_4
REMARK    2  A    between atoms: C2_4  and  C4_6
REMARK       I    between atoms: C4_6  and  N2_8
REMARK    3  A    between atoms: N2_8  and  C5_10
REMARK    4  A    between atoms: C9_14  and  S1_15
REMARK    5  A    between atoms: S1_15  and  N3_18
REMARK    6  A    between atoms: N3_18  and  C10_20
REMARK    7  A    between atoms: C16_29  and  O5_30
ROOT
HETATM    1  C5  UNL     1      43.335  38.644  89.001  1.00  0.00     0.069 A
HETATM    2  C6  UNL     1      43.159  38.790  87.653  1.00  0.00     0.040 A
HETATM    3  C7  UNL     1      42.274  37.971  86.925  1.00  0.00    -0.036 A
HETATM    4  C8  UNL     1      42.106  38.165  85.473  1.00  0.00     0.050 C
HETATM    5  C9  UNL     1      41.563  36.999  87.561  1.00  0.00     0.088 A
HETATM    6  C15 UNL     1      41.716  36.821  88.933  1.00  0.00     0.065 A
HETATM    7  C16 UNL     1      42.580  37.630  89.609  1.00  0.00     0.096 A
ENDROOT
BRANCH   5   8
HETATM    8  S1  UNL     1      40.447  35.944  86.665  1.00  0.00     0.265 S
HETATM    9  O2  UNL     1      39.684  35.177  87.754  1.00  0.00    -0.200 OA
HETATM   10  O3  UNL     1      39.406  36.824  86.001  1.00  0.00    -0.200 OA
BRANCH   8  11
HETATM   11  N3  UNL     1      41.321  34.998  85.659  1.00  0.00    -0.258 N
ATOM     12  H3  UNL     1      40.753  34.828  84.829  1.00  0.00     0.181 HD
BRANCH  11  13
HETATM   13  C10 UNL     1      42.386  34.410  85.501  1.00  0.00     0.187 A
HETATM   14  O4  UNL     1      42.923  33.716  86.538  1.00  0.00    -0.218 OA
HETATM   15  N4  UNL     1      44.016  33.178  86.194  1.00  0.00    -0.263 N
HETATM   16  C11 UNL     1      44.340  33.434  84.922  1.00  0.00     0.039 A
ATOM     17  H4  UNL     1      44.588  32.610  86.819  1.00  0.00     0.194 HD
HETATM   18  C12 UNL     1      45.528  32.988  84.142  1.00  0.00     0.071 C
HETATM   19  C13 UNL     1      43.278  34.237  84.469  1.00  0.00     0.016 A
HETATM   20  C14 UNL     1      43.165  34.773  83.114  1.00  0.00     0.055 C
ENDBRANCH  11  13
ENDBRANCH   8  11
ENDBRANCH   5   8
BRANCH   7  21
HETATM   21  O5  UNL     1      42.748  37.476  90.990  1.00  0.00    -0.354 OA
HETATM   22  C17 UNL     1      41.774  36.798  91.779  1.00  0.00     0.210 C
ENDBRANCH   7  21
BRANCH   1  23
HETATM   23  N2  UNL     1      44.232  39.392  89.808  1.00  0.00    -0.323 N
HETATM   24  C4  UNL     1      45.606  39.120  89.928  1.00  0.00     0.244 C
HETATM   25  O1  UNL     1      46.193  38.210  89.341  1.00  0.00    -0.271 OA
ATOM     26  H2  UNL     1      43.855  40.180  90.334  1.00  0.00     0.169 HD
BRANCH  24  27
HETATM   27  C2  UNL     1      46.368  40.042  90.854  1.00  0.00     0.165 C
HETATM   28  C3  UNL     1      45.798  39.831  92.246  1.00  0.00     0.042 C
BRANCH  27  29
HETATM   29  N1  UNL     1      47.745  39.821  90.738  1.00  0.00    -0.414 N
HETATM   30  C1  UNL     1      48.560  40.284  91.799  1.00  0.00     0.140 C
ATOM     31  H1  UNL     1      48.144  39.348  89.927  1.00  0.00     0.153 HD
ENDBRANCH  27  29
ENDBRANCH  24  27
ENDBRANCH   1  23
TORSDOF 7
ENDMDL