MODEL 3
REMARK VINA RESULT: -5.675579479      2.114      6.597
REMARK  9 active torsions:
REMARK  status: ('A' for Active; 'I' for Inactive)
REMARK    1  A    between atoms: C2_2  and  C3_3
REMARK    2  A    between atoms: C3_3  and  C4_4
REMARK    3  A    between atoms: C3_3  and  C5_7
REMARK    4  A    between atoms: C4_4  and  O1_5
REMARK    5  A    between atoms: C5_7  and  C7_9
REMARK    6  A    between atoms: C9_11  and  C10_12
REMARK    7  A    between atoms: C19_23  and  O4_24
REMARK    8  A    between atoms: C20_26  and  C21_27
REMARK    9  A    between atoms: C21_27  and  O5_28
ROOT
HETATM    1  C10 UNL     1      38.946  36.636  86.112  1.00  0.00     0.063 C
HETATM    2  C11 UNL     1      38.024  36.243  85.008  1.00  0.00    -0.008 C
HETATM    3  C12 UNL     1      36.908  35.641  85.369  1.00  0.00     0.042 C
HETATM    4  C13 UNL     1      36.701  35.423  86.809  1.00  0.00     0.292 C
HETATM    5  O2  UNL     1      35.457  35.705  87.340  1.00  0.00    -0.274 OA
HETATM    6  C14 UNL     1      35.400  34.952  88.536  1.00  0.00     0.265 C
HETATM    7  O3  UNL     1      34.732  35.175  89.578  1.00  0.00    -0.265 OA
HETATM    8  C15 UNL     1      36.318  33.757  88.374  1.00  0.00     0.091 C
HETATM    9  C16 UNL     1      35.425  32.540  88.566  1.00  0.00     0.021 C
HETATM   10  C17 UNL     1      36.707  33.890  86.955  1.00  0.00     0.072 C
HETATM   11  C18 UNL     1      38.007  33.370  86.506  1.00  0.00     0.045 C
HETATM   12  C19 UNL     1      39.200  34.172  86.889  1.00  0.00     0.161 C
HETATM   13  C20 UNL     1      39.057  35.592  87.194  1.00  0.00     0.226 C
HETATM   14  N1  UNL     1      37.739  35.999  87.637  1.00  0.00     0.145 N
HETATM   15  C22 UNL     1      38.071  37.325  87.162  1.00  0.00     0.298 C
ENDROOT
BRANCH   1  16
HETATM   16  C9  UNL     1      40.180  37.297  85.725  1.00  0.00    -0.006 C
HETATM   17  C7  UNL     1      41.130  36.825  84.966  1.00  0.00    -0.082 C
HETATM   18  C8  UNL     1      42.301  37.779  84.677  1.00  0.00     0.043 C
BRANCH  17  19
HETATM   19  C5  UNL     1      41.129  35.496  84.351  1.00  0.00     0.016 C
HETATM   20  C6  UNL     1      40.887  35.685  82.864  1.00  0.00     0.015 C
BRANCH  19  21
HETATM   21  C3  UNL     1      42.264  34.590  84.678  1.00  0.00     0.016 C
BRANCH  21  22
HETATM   22  C2  UNL     1      43.374  34.541  83.678  1.00  0.00     0.003 C
HETATM   23  C1  UNL     1      44.568  33.733  83.978  1.00  0.00     0.005 C
ENDBRANCH  21  22
BRANCH  21  24
HETATM   24  C4  UNL     1      42.820  34.660  86.069  1.00  0.00     0.169 C
BRANCH  24  25
HETATM   25  O1  UNL     1      42.505  33.583  86.878  1.00  0.00    -0.400 OA
ATOM     26  H1  UNL     1      42.973  33.553  87.704  1.00  0.00     0.209 HD
ENDBRANCH  24  25
ENDBRANCH  21  24
ENDBRANCH  19  21
ENDBRANCH  17  19
ENDBRANCH   1  16
BRANCH  13  27
HETATM   27  C21 UNL     1      40.059  36.000  88.248  1.00  0.00     0.210 C
BRANCH  27  28
HETATM   28  O5  UNL     1      39.628  35.808  89.552  1.00  0.00    -0.398 OA
ATOM     29  H5  UNL     1      39.575  36.604  90.068  1.00  0.00     0.209 HD
ENDBRANCH  27  28
ENDBRANCH  13  27
BRANCH  12  30
HETATM   30  O4  UNL     1      39.672  33.540  88.085  1.00  0.00    -0.393 OA
ATOM     31  H4  UNL     1      40.617  33.615  88.026  1.00  0.00     0.210 HD
ENDBRANCH  12  30
TORSDOF 9
ENDMDL