MODEL 3
REMARK VINA RESULT: -6.741347493      0.963      1.480
REMARK  9 active torsions:
REMARK  status: ('A' for Active; 'I' for Inactive)
REMARK    1  A    between atoms: C3_3  and  O1_4
REMARK    2  A    between atoms: O1_4  and  C4_5
REMARK    3  A    between atoms: C9_11  and  N2_12
REMARK    4  A    between atoms: N2_12  and  C10_14
REMARK    5  A    between atoms: N4_18  and  C12_20
REMARK    6  A    between atoms: C15_25  and  N6_26
REMARK    7  A    between atoms: N6_26  and  C16_28
REMARK    8  A    between atoms: C19_33  and  C20_34
REMARK    9  A    between atoms: C20_34  and  O2_35
ROOT
HETATM    1  C1  UNL     1      43.282  36.816  87.437  1.00  0.00     0.014 C
HETATM    2  C2  UNL     1      42.341  36.078  87.268  1.00  0.00    -0.091 C
HETATM    3  C3  UNL     1      41.203  35.158  87.059  1.00  0.00     0.268 C
ENDROOT
BRANCH   3   4
HETATM    4  O1  UNL     1      41.543  34.260  86.034  1.00  0.00    -0.337 OA
BRANCH   4   5
HETATM    5  C4  UNL     1      41.990  34.602  84.789  1.00  0.00     0.101 A
HETATM    6  C5  UNL     1      43.304  34.291  84.466  1.00  0.00     0.078 A
HETATM    7  C6  UNL     1      44.128  33.634  85.433  1.00  0.00     0.102 C
HETATM    8  C7  UNL     1      43.808  34.613  83.226  1.00  0.00     0.028 A
HETATM    9  N1  UNL     1      44.806  33.116  86.222  1.00  0.00    -0.191 NA
HETATM   10  C8  UNL     1      42.978  35.241  82.340  1.00  0.00     0.032 A
HETATM   11  C9  UNL     1      41.659  35.560  82.644  1.00  0.00     0.060 A
HETATM   12  C19 UNL     1      41.145  35.245  83.875  1.00  0.00     0.027 A
BRANCH  11  13
HETATM   13  N2  UNL     1      40.878  36.198  81.688  1.00  0.00    -0.190 N
ATOM     14  H2  UNL     1      40.658  37.179  81.855  1.00  0.00     0.184 HD
BRANCH  13  15
HETATM   15  C10 UNL     1      40.398  35.667  80.598  1.00  0.00     0.711 A
HETATM   16  N3  UNL     1      39.179  35.050  80.651  1.00  0.00    -0.021 N
HETATM   17  C11 UNL     1      38.611  34.473  79.585  1.00  0.00     0.707 A
ATOM     18  H3  UNL     1      38.682  35.029  81.541  1.00  0.00     0.203 HD
HETATM   19  N4  UNL     1      37.468  33.884  79.598  1.00  0.00    -0.221 N
HETATM   20  N5  UNL     1      39.324  34.533  78.416  1.00  0.00    -0.021 N
ATOM     21  H4  UNL     1      37.162  33.490  78.708  1.00  0.00     0.178 HD
HETATM   22  C15 UNL     1      40.517  35.123  78.314  1.00  0.00     0.707 A
ATOM     23  H5  UNL     1      38.922  34.104  77.582  1.00  0.00     0.203 HD
HETATM   24  N7  UNL     1      41.049  35.692  79.425  1.00  0.00    -0.021 N
ATOM     25  H7  UNL     1      41.960  36.148  79.368  1.00  0.00     0.203 HD
BRANCH  19  26
HETATM   26  C12 UNL     1      36.576  33.711  80.689  1.00  0.00     0.091 C
HETATM   27  C13 UNL     1      36.944  32.448  81.436  1.00  0.00     0.032 C
HETATM   28  C14 UNL     1      35.121  33.749  80.328  1.00  0.00     0.032 C
ENDBRANCH  19  26
BRANCH  22  29
HETATM   29  N6  UNL     1      41.174  35.172  77.215  1.00  0.00    -0.221 N
ATOM     30  H6  UNL     1      40.706  35.576  76.404  1.00  0.00     0.178 HD
BRANCH  29  31
HETATM   31  C16 UNL     1      42.512  34.705  77.038  1.00  0.00     0.091 C
HETATM   32  C17 UNL     1      42.544  33.905  75.736  1.00  0.00     0.032 C
HETATM   33  C18 UNL     1      43.481  35.869  76.976  1.00  0.00     0.032 C
ENDBRANCH  29  31
ENDBRANCH  22  29
ENDBRANCH  13  15
ENDBRANCH  11  13
BRANCH  12  34
HETATM   34  C20 UNL     1      39.752  35.574  84.222  1.00  0.00     0.208 C
BRANCH  34  35
HETATM   35  O2  UNL     1      38.870  34.715  83.614  1.00  0.00    -0.396 OA
ATOM     36  H2  UNL     1      38.908  34.792  82.668  1.00  0.00     0.209 HD
ENDBRANCH  34  35
ENDBRANCH  12  34
ENDBRANCH   4   5
ENDBRANCH   3   4
TORSDOF 9
ENDMDL