MODEL 5
REMARK VINA RESULT: -6.279941766      3.145      4.319
REMARK  7 active torsions:
REMARK  status: ('A' for Active; 'I' for Inactive)
REMARK    1  A    between atoms: C2_2  and  C3_3
REMARK    2  A    between atoms: C2_2  and  C4_6
REMARK    3  A    between atoms: C3_3  and  O1_4
REMARK    4  A    between atoms: C4_6  and  C6_8
REMARK    5  A    between atoms: C7_9  and  C8_10
REMARK    6  A    between atoms: C8_10  and  C10_12
REMARK    7  A    between atoms: C12_16  and  C13_17
ROOT
HETATM    1  C10 UNL     1      41.033  36.161  83.520  1.00  0.00     0.207 A
HETATM    2  O2  UNL     1      41.685  37.242  84.129  1.00  0.00    -0.279 OA
HETATM    3  C11 UNL     1      40.815  37.711  85.135  1.00  0.00     0.270 C
HETATM    4  O3  UNL     1      40.662  38.929  85.472  1.00  0.00    -0.265 OA
HETATM    5  C12 UNL     1      40.170  36.487  85.659  1.00  0.00     0.143 C
HETATM    6  C22 UNL     1      40.058  35.636  84.423  1.00  0.00     0.204 A
HETATM    7  O5  UNL     1      39.697  36.221  83.218  1.00  0.00    -0.340 OA
ENDROOT
BRANCH   5   8
HETATM    8  C13 UNL     1      38.843  36.838  86.268  1.00  0.00     0.100 C
HETATM    9  C14 UNL     1      38.972  36.742  87.764  1.00  0.00     0.044 C
HETATM   10  C15 UNL     1      37.813  36.117  88.467  1.00  0.00     0.029 C
HETATM   11  C16 UNL     1      36.656  37.046  88.616  1.00  0.00     0.024 C
HETATM   12  C17 UNL     1      38.287  35.721  89.825  1.00  0.00     0.136 C
HETATM   13  C20 UNL     1      37.434  34.765  87.900  1.00  0.00     0.068 C
HETATM   14  O4  UNL     1      38.367  36.500  90.752  1.00  0.00    -0.297 OA
HETATM   15  C18 UNL     1      38.631  34.273  89.857  1.00  0.00     0.080 C
HETATM   16  C19 UNL     1      38.532  33.885  88.393  1.00  0.00     0.021 C
HETATM   17  C21 UNL     1      37.351  34.884  86.425  1.00  0.00     0.076 C
HETATM   18  N1  UNL     1      36.891  33.882  85.764  1.00  0.00    -0.389 N
HETATM   19  N2  UNL     1      37.756  36.050  85.722  1.00  0.00    -0.374 N
ATOM     20  H12 UNL     1      36.600  33.044  86.268  1.00  0.00     0.157 HD
ATOM     21  H11 UNL     1      36.834  33.963  84.748  1.00  0.00     0.157 HD
ATOM     22  H2  UNL     1      37.293  36.327  84.857  1.00  0.00     0.161 HD
ENDBRANCH   5   8
BRANCH   1  23
HETATM   23  C8  UNL     1      41.852  35.335  82.545  1.00  0.00     0.070 C
HETATM   24  C9  UNL     1      41.478  35.737  81.178  1.00  0.00     0.020 C
BRANCH  23  25
HETATM   25  C7  UNL     1      43.256  35.244  82.917  1.00  0.00    -0.020 C
HETATM   26  C6  UNL     1      43.923  34.509  83.738  1.00  0.00    -0.022 C
BRANCH  26  27
HETATM   27  C4  UNL     1      43.543  33.436  84.657  1.00  0.00     0.034 C
HETATM   28  C5  UNL     1      44.820  32.674  85.100  1.00  0.00     0.019 C
BRANCH  27  29
HETATM   29  C2  UNL     1      42.942  33.943  85.920  1.00  0.00    -0.059 C
HETATM   30  C1  UNL     1      41.819  33.443  86.374  1.00  0.00     0.017 C
BRANCH  29  31
HETATM   31  C3  UNL     1      43.630  35.020  86.657  1.00  0.00     0.198 C
BRANCH  31  32
HETATM   32  O1  UNL     1      42.764  35.606  87.568  1.00  0.00    -0.397 OA
ATOM     33  H1  UNL     1      43.215  35.771  88.388  1.00  0.00     0.209 HD
ENDBRANCH  31  32
ENDBRANCH  29  31
ENDBRANCH  27  29
ENDBRANCH  26  27
ENDBRANCH  23  25
ENDBRANCH   1  23
TORSDOF 7
ENDMDL