MODEL 1
REMARK VINA RESULT: -6.708262871      0.000      0.000
REMARK  3 active torsions:
REMARK  status: ('A' for Active; 'I' for Inactive)
REMARK    1  A    between atoms: C1_2  and  C2_4
REMARK    2  A    between atoms: C8_10  and  N2_11
REMARK       I    between atoms: N2_11  and  C9_13
REMARK    3  A    between atoms: C9_13  and  C10_15
ROOT
HETATM    1  N2  UNL     1      -8.530  12.913  54.734  1.00  0.00    -0.355 N
ATOM      2  H2  UNL     1      -8.708  13.906  54.587  1.00  0.00     0.162 HD
HETATM    3  C9  UNL     1      -8.684  12.053  53.620  1.00  0.00     0.233 C
HETATM    4  O2  UNL     1      -8.459  10.830  53.822  1.00  0.00    -0.272 OA
ENDROOT
BRANCH   1   5
HETATM    5  C8  UNL     1      -8.147  12.506  56.041  1.00  0.00     0.092 C
HETATM    6  C6  UNL     1      -6.875  11.701  56.089  1.00  0.00     0.010 C
HETATM    7  C5  UNL     1      -5.644  12.523  55.912  1.00  0.00     0.011 C
HETATM    8  C7  UNL     1      -6.813  11.042  57.454  1.00  0.00     0.025 C
HETATM    9  C4  UNL     1      -5.574  13.607  56.982  1.00  0.00    -0.013 C
HETATM   10  C3  UNL     1      -5.505  12.923  58.308  1.00  0.00     0.023 C
HETATM   11  C20 UNL     1      -6.794  14.468  56.816  1.00  0.00     0.011 C
HETATM   12  C2  UNL     1      -6.772  12.116  58.513  1.00  0.00     0.040 C
HETATM   13  C21 UNL     1      -7.940  13.056  58.432  1.00  0.00     0.025 C
HETATM   14  C19 UNL     1      -8.029  13.628  57.024  1.00  0.00     0.010 C
BRANCH  12  15
HETATM   15  C1  UNL     1      -6.791  11.454  59.830  1.00  0.00     0.239 C
HETATM   16  N1  UNL     1      -7.625  10.318  59.993  1.00  0.00    -0.061 NA
HETATM   17  O1  UNL     1      -6.112  11.836  60.816  1.00  0.00    -0.276 OA
ENDBRANCH  12  15
ENDBRANCH   1   5
BRANCH   3  18
HETATM   18  C10 UNL     1      -9.077  12.493  52.290  1.00  0.00     0.091 C
HETATM   19  C11 UNL     1     -10.381  13.232  52.243  1.00  0.00     0.138 C
HETATM   20  N3  UNL     1     -10.681  13.688  50.936  1.00  0.00    -0.419 N
HETATM   21  C12 UNL     1     -10.355  12.822  49.864  1.00  0.00     0.123 C
ATOM     22  H3  UNL     1     -11.112  14.598  50.776  1.00  0.00     0.153 HD
HETATM   23  C13 UNL     1      -9.097  12.039  50.023  1.00  0.00     0.038 C
HETATM   24  C14 UNL     1      -9.163  11.309  51.344  1.00  0.00     0.037 C
HETATM   25  C15 UNL     1      -7.968  13.027  50.264  1.00  0.00    -0.037 A
HETATM   26  C16 UNL     1      -7.033  13.663  49.519  1.00  0.00     0.016 A
HETATM   27  C18 UNL     1      -7.980  13.279  51.604  1.00  0.00     0.009 A
HETATM   28  C17 UNL     1      -6.180  14.502  50.174  1.00  0.00     0.051 A
HETATM   29  S1  UNL     1      -6.696  14.386  51.791  1.00  0.00    -0.104 SA
ENDBRANCH   3  18
TORSDOF 3
ENDMDL