MODEL 1
REMARK VINA RESULT: -5.648886639      0.000      0.000
REMARK  7 active torsions:
REMARK  status: ('A' for Active; 'I' for Inactive)
REMARK    1  A    between atoms: C2_2  and  C4_4
REMARK    2  A    between atoms: C4_4  and  N1_5
REMARK    3  A    between atoms: C4_4  and  C7_12
REMARK       I    between atoms: N1_5  and  C5_7
REMARK    4  A    between atoms: C5_7  and  C6_9
REMARK    5  A    between atoms: C6_9  and  O2_10
REMARK    6  A    between atoms: C7_12  and  C8_18
REMARK    7  A    between atoms: N2_13  and  N3_15
ROOT
HETATM    1  C7  UNL     1     -12.781   9.781  47.492  1.00  0.00     0.031 C
HETATM    2  N2  UNL     1     -12.983  10.327  46.373  1.00  0.00    -0.313 N
ATOM      3  H2  UNL     1     -13.832   9.968  45.935  1.00  0.00     0.185 HD
ENDROOT
BRANCH   1   4
HETATM    4  C4  UNL     1     -11.632  10.124  48.315  1.00  0.00     0.135 C
BRANCH   4   5
HETATM    5  C2  UNL     1     -11.713  10.302  49.770  1.00  0.00     0.006 C
HETATM    6  C1  UNL     1     -10.464  10.637  50.480  1.00  0.00     0.012 C
HETATM    7  C3  UNL     1     -12.837  11.217  50.230  1.00  0.00     0.012 C
ENDBRANCH   4   5
BRANCH   4   8
HETATM    8  N1  UNL     1     -10.553   9.123  48.129  1.00  0.00    -0.349 N
HETATM    9  C5  UNL     1      -9.642   9.299  47.085  1.00  0.00     0.241 C
HETATM   10  O1  UNL     1      -9.708  10.293  46.285  1.00  0.00    -0.271 OA
ATOM     11  H1  UNL     1     -10.478   8.320  48.753  1.00  0.00     0.163 HD
BRANCH   9  12
HETATM   12  C6  UNL     1      -8.518   8.341  46.819  1.00  0.00     0.266 C
BRANCH  12  13
HETATM   13  O2  UNL     1      -8.938   7.217  46.126  1.00  0.00    -0.392 OA
ATOM     14  H2  UNL     1      -8.421   7.061  45.345  1.00  0.00     0.210 HD
ENDBRANCH  12  13
ENDBRANCH   9  12
ENDBRANCH   4   8
ENDBRANCH   1   4
BRANCH   1  15
HETATM   15  C8  UNL     1     -13.824   8.778  47.902  1.00  0.00     0.044 C
HETATM   16  C9  UNL     1     -15.142   9.051  47.128  1.00  0.00     0.017 C
HETATM   17  C10 UNL     1     -14.925   7.806  46.356  1.00  0.00     0.000 C
HETATM   18  C11 UNL     1     -16.049   6.796  46.412  1.00  0.00     0.002 C
HETATM   19  C21 UNL     1     -13.796   7.446  47.266  1.00  0.00    -0.025 C
HETATM   20  C12 UNL     1     -17.064   7.079  45.299  1.00  0.00     0.006 C
HETATM   21  C18 UNL     1     -15.523   5.384  46.280  1.00  0.00     0.067 C
HETATM   22  C13 UNL     1     -18.248   6.187  45.513  1.00  0.00     0.001 C
HETATM   23  C14 UNL     1     -17.984   5.084  46.505  1.00  0.00     0.010 C
HETATM   24  C15 UNL     1     -16.649   4.391  46.238  1.00  0.00    -0.037 C
HETATM   25  C16 UNL     1     -16.521   3.286  47.244  1.00  0.00     0.015 C
HETATM   26  C17 UNL     1     -16.760   3.761  44.866  1.00  0.00     0.015 C
HETATM   27  C19 UNL     1     -14.571   5.158  47.380  1.00  0.00     0.133 C
HETATM   28  O3  UNL     1     -14.027   4.127  47.656  1.00  0.00    -0.298 OA
HETATM   29  C20 UNL     1     -14.248   6.353  48.246  1.00  0.00     0.089 C
HETATM   30  C22 UNL     1     -12.554   6.988  46.541  1.00  0.00     0.016 C
ENDBRANCH   1  15
BRANCH   2  31
HETATM   31  N3  UNL     1     -12.395  11.245  45.602  1.00  0.00    -0.345 N
ATOM     32  H32 UNL     1     -12.217  12.089  46.146  1.00  0.00     0.176 HD
ATOM     33  H31 UNL     1     -12.081  11.328  44.635  1.00  0.00     0.176 HD
ENDBRANCH   2  31
TORSDOF 7
ENDMDL