MODEL 3
REMARK VINA RESULT: -5.399278889      6.518     12.641
REMARK  6 active torsions:
REMARK  status: ('A' for Active; 'I' for Inactive)
REMARK    1  A    between atoms: C2_2  and  O1_5
REMARK    2  A    between atoms: O1_5  and  C5_6
REMARK       I    between atoms: C5_6  and  N1_8
REMARK    3  A    between atoms: N1_8  and  C6_10
REMARK    4  A    between atoms: C6_10  and  C7_11
REMARK    5  A    between atoms: C6_10  and  C15_26
REMARK       I    between atoms: C7_11  and  N2_13
REMARK    6  A    between atoms: N2_13  and  C8_15
ROOT
HETATM    1  C6  UNL     1     -11.981  10.560  48.071  1.00  0.00     0.183 C
ENDROOT
BRANCH   1   2
HETATM    2  N1  UNL     1     -12.456   9.290  48.502  1.00  0.00    -0.323 N
HETATM    3  C5  UNL     1     -13.653   8.755  47.964  1.00  0.00     0.362 C
HETATM    4  O2  UNL     1     -14.328   9.395  47.085  1.00  0.00    -0.238 OA
ATOM      5  H1  UNL     1     -11.932   8.763  49.201  1.00  0.00     0.165 HD
BRANCH   3   6
HETATM    6  O1  UNL     1     -14.167   7.524  48.342  1.00  0.00    -0.294 OA
BRANCH   6   7
HETATM    7  C2  UNL     1     -14.008   6.400  47.501  1.00  0.00     0.061 C
HETATM    8  C1  UNL     1     -13.845   5.133  48.348  1.00  0.00     0.046 C
HETATM    9  C3  UNL     1     -12.836   6.542  46.586  1.00  0.00     0.046 C
HETATM   10  C4  UNL     1     -15.269   6.248  46.674  1.00  0.00     0.046 C
ENDBRANCH   6   7
ENDBRANCH   3   6
ENDBRANCH   1   2
BRANCH   1  11
HETATM   11  C7  UNL     1     -12.307  11.657  49.009  1.00  0.00     0.241 C
HETATM   12  O3  UNL     1     -13.471  12.142  48.937  1.00  0.00    -0.271 OA
HETATM   13  N2  UNL     1     -11.348  12.129  49.938  1.00  0.00    -0.340 N
ATOM     14  H2  UNL     1     -10.420  11.706  49.957  1.00  0.00     0.163 HD
BRANCH  13  15
HETATM   15  C8  UNL     1     -11.662  13.218  50.877  1.00  0.00     0.246 C
HETATM   16  C9  UNL     1     -10.418  14.013  51.129  1.00  0.00     0.158 C
HETATM   17  O4  UNL     1      -9.766  14.027  50.079  1.00  0.00    -0.295 OA
HETATM   18  C10 UNL     1      -9.716  14.762  52.162  1.00  0.00     0.081 C
HETATM   19  C11 UNL     1      -9.814  14.185  53.549  1.00  0.00     0.009 C
HETATM   20  C12 UNL     1      -9.051  12.898  53.702  1.00  0.00     0.020 C
HETATM   21  C13 UNL     1      -9.825  11.679  53.341  1.00  0.00     0.122 C
HETATM   22  N3  UNL     1     -11.247  11.938  53.180  1.00  0.00    -0.359 N
HETATM   23  C14 UNL     1     -12.031  12.552  52.154  1.00  0.00     0.247 C
ATOM     24  H3  UNL     1     -11.806  11.611  53.968  1.00  0.00     0.162 HD
HETATM   25  O5  UNL     1     -13.267  12.516  52.388  1.00  0.00    -0.271 OA
ENDBRANCH  13  15
ENDBRANCH   1  11
BRANCH   1  26
HETATM   26  C15 UNL     1     -10.485  10.594  47.857  1.00  0.00     0.018 C
HETATM   27  C16 UNL     1     -10.233  11.346  46.559  1.00  0.00     0.007 C
HETATM   28  C17 UNL     1      -8.722  11.304  46.331  1.00  0.00     0.000 C
HETATM   29  C18 UNL     1      -8.318   9.893  46.055  1.00  0.00     0.000 C
HETATM   30  C19 UNL     1      -9.320   8.867  46.497  1.00  0.00     0.000 C
HETATM   31  C20 UNL     1      -9.863   9.235  47.868  1.00  0.00     0.007 C
ENDBRANCH   1  26
TORSDOF 6
ENDMDL