MODEL 5
REMARK VINA RESULT: -6.915108958      2.445      4.085
REMARK  6 active torsions:
REMARK  status: ('A' for Active; 'I' for Inactive)
REMARK       I    between atoms: C1_2  and  N3_13
REMARK    1  A    between atoms: N2_3  and  O1_5
REMARK    2  A    between atoms: O1_5  and  C2_6
REMARK    3  A    between atoms: C2_6  and  C3_7
REMARK    4  A    between atoms: N3_13  and  C9_15
REMARK    5  A    between atoms: C9_15  and  C10_16
REMARK    6  A    between atoms: C23_30  and  N4_31
ROOT
HETATM    1  C10 UNL     1     -17.812  -3.158  53.094  1.00  0.00     0.034 C
HETATM    2  C11 UNL     1     -17.272  -1.753  53.153  1.00  0.00     0.175 C
HETATM    3  O2  UNL     1     -16.379  -1.462  52.115  1.00  0.00    -0.379 OA
HETATM    4  C12 UNL     1     -15.179  -0.876  52.636  1.00  0.00     0.261 C
HETATM    5  C13 UNL     1     -14.704  -1.798  53.619  1.00  0.00    -0.081 C
HETATM    6  C14 UNL     1     -14.402  -2.566  54.365  1.00  0.00    -0.104 C
HETATM    7  C15 UNL     1     -14.097  -3.582  55.293  1.00  0.00     0.099 C
HETATM    8  C16 UNL     1     -15.326  -4.397  55.676  1.00  0.00     0.002 C
HETATM    9  C17 UNL     1     -15.384  -5.766  55.090  1.00  0.00     0.012 C
HETATM   10  C18 UNL     1     -16.864  -6.187  55.105  1.00  0.00     0.017 C
HETATM   11  C19 UNL     1     -17.507  -5.624  56.384  1.00  0.00     0.007 C
HETATM   12  C20 UNL     1     -17.695  -4.161  56.174  1.00  0.00     0.006 C
HETATM   13  C21 UNL     1     -16.591  -3.690  55.213  1.00  0.00    -0.003 C
HETATM   14  C22 UNL     1     -16.942  -4.116  53.814  1.00  0.00     0.028 C
HETATM   15  C23 UNL     1     -17.537  -5.532  53.923  1.00  0.00     0.192 C
ENDROOT
BRANCH   1  16
HETATM   16  C9  UNL     1     -17.811  -3.489  51.585  1.00  0.00     0.129 C
BRANCH  16  17
HETATM   17  N3  UNL     1     -19.124  -3.115  51.051  1.00  0.00    -0.363 N
HETATM   18  C1  UNL     1     -19.461  -1.855  50.525  1.00  0.00     0.208 C
HETATM   19  N1  UNL     1     -20.763  -1.340  50.903  1.00  0.00    -0.062 NA
HETATM   20  N2  UNL     1     -18.726  -1.142  49.779  1.00  0.00    -0.238 N
ATOM     21  H2  UNL     1     -17.822  -1.550  49.542  1.00  0.00     0.197 HD
ATOM     22  H3  UNL     1     -19.853  -3.828  51.063  1.00  0.00     0.162 HD
BRANCH  20  23
HETATM   23  O1  UNL     1     -18.963   0.072  49.253  1.00  0.00    -0.273 OA
BRANCH  23  24
HETATM   24  C2  UNL     1     -18.274   0.700  48.229  1.00  0.00     0.240 C
BRANCH  24  25
HETATM   25  C3  UNL     1     -17.037   1.416  48.638  1.00  0.00    -0.032 A
HETATM   26  C4  UNL     1     -16.588   2.371  47.722  1.00  0.00     0.009 A
HETATM   27  C5  UNL     1     -15.462   3.114  47.966  1.00  0.00     0.001 A
HETATM   28  C6  UNL     1     -14.743   2.935  49.131  1.00  0.00     0.000 A
HETATM   29  C7  UNL     1     -15.188   1.994  50.031  1.00  0.00     0.001 A
HETATM   30  C8  UNL     1     -16.334   1.239  49.778  1.00  0.00     0.009 A
ENDBRANCH  24  25
ENDBRANCH  23  24
ENDBRANCH  20  23
ENDBRANCH  16  17
ENDBRANCH   1  16
BRANCH  15  31
HETATM   31  N4  UNL     1     -18.956  -5.552  53.939  1.00  0.00    -0.074 N
ATOM     32  H43 UNL     1     -19.306  -4.951  54.686  1.00  0.00     0.274 HD
ATOM     33  H42 UNL     1     -19.322  -5.058  53.125  1.00  0.00     0.274 HD
ATOM     34  H41 UNL     1     -19.382  -6.476  54.006  1.00  0.00     0.274 HD
ENDBRANCH  15  31
TORSDOF 6
ENDMDL