MODEL 4
REMARK VINA RESULT: -5.956732450      3.480      6.084
REMARK  7 active torsions:
REMARK  status: ('A' for Active; 'I' for Inactive)
REMARK    1  A    between atoms: C2_2  and  C4_4
REMARK    2  A    between atoms: C4_4  and  O1_5
REMARK    3  A    between atoms: C6_8  and  O2_9
REMARK    4  A    between atoms: C9_14  and  C10_15
REMARK       I    between atoms: N1_23  and  C18_24
REMARK    5  A    between atoms: C18_24  and  C19_26
REMARK    6  A    between atoms: C20_27  and  C21_28
REMARK    7  A    between atoms: C21_28  and  O5_29
ROOT
HETATM    1  C10 UNL     1     -11.091  12.594  50.910  1.00  0.00     0.006 C
HETATM    2  C11 UNL     1     -10.259  11.351  50.740  1.00  0.00     0.008 C
HETATM    3  C12 UNL     1     -10.857  10.191  50.093  1.00  0.00     0.026 C
HETATM    4  C13 UNL     1     -11.711  10.373  48.904  1.00  0.00     0.088 C
HETATM    5  C14 UNL     1     -11.373  11.541  48.029  1.00  0.00     0.027 C
HETATM    6  C15 UNL     1     -12.440  12.547  48.411  1.00  0.00     0.027 C
HETATM    7  C16 UNL     1     -13.154  11.976  49.590  1.00  0.00     0.088 C
HETATM    8  C17 UNL     1     -12.523  12.150  50.920  1.00  0.00     0.031 C
HETATM    9  N1  UNL     1     -13.125  10.547  49.236  1.00  0.00    -0.339 N
HETATM   10  C18 UNL     1     -14.180   9.625  49.231  1.00  0.00     0.243 C
HETATM   11  O4  UNL     1     -15.325  10.011  49.558  1.00  0.00    -0.268 OA
ENDROOT
BRANCH   1  12
HETATM   12  C9  UNL     1     -10.616  13.303  52.127  1.00  0.00     0.058 C
HETATM   13  C4  UNL     1      -9.887  12.568  53.163  1.00  0.00     0.078 C
HETATM   14  C5  UNL     1     -10.079  13.431  54.438  1.00  0.00     0.077 C
HETATM   15  C6  UNL     1     -11.064  14.455  54.024  1.00  0.00     0.068 C
HETATM   16  C7  UNL     1     -10.400  15.464  53.096  1.00  0.00     0.117 C
HETATM   17  C22 UNL     1     -11.857  13.688  52.974  1.00  0.00     0.059 C
HETATM   18  C8  UNL     1     -10.075  14.665  51.879  1.00  0.00     0.141 C
HETATM   19  O3  UNL     1      -9.477  15.151  50.938  1.00  0.00    -0.297 OA
BRANCH  13  20
HETATM   20  C2  UNL     1      -8.496  12.165  53.052  1.00  0.00     0.013 C
HETATM   21  C1  UNL     1      -7.434  13.209  53.235  1.00  0.00     0.012 C
HETATM   22  C3  UNL     1      -8.256  11.188  54.245  1.00  0.00     0.012 C
ENDBRANCH  13  20
BRANCH  13  23
HETATM   23  O1  UNL     1     -10.637  11.401  53.463  1.00  0.00    -0.388 OA
ATOM     24  H1  UNL     1     -11.407  11.413  52.907  1.00  0.00     0.210 HD
ENDBRANCH  13  23
BRANCH  15  25
HETATM   25  O2  UNL     1     -11.823  15.007  54.995  1.00  0.00    -0.389 OA
ATOM     26  H2  UNL     1     -12.134  15.893  54.851  1.00  0.00     0.210 HD
ENDBRANCH  15  25
ENDBRANCH   1  12
BRANCH  10  27
HETATM   27  C19 UNL     1     -13.953   8.238  48.851  1.00  0.00     0.072 C
HETATM   28  C20 UNL     1     -14.276   7.813  47.629  1.00  0.00     0.004 C
BRANCH  28  29
HETATM   29  C21 UNL     1     -14.070   6.428  47.190  1.00  0.00     0.191 C
BRANCH  29  30
HETATM   30  O5  UNL     1     -12.683   6.223  47.080  1.00  0.00    -0.397 OA
ATOM     31  H5  UNL     1     -12.547   5.314  46.837  1.00  0.00     0.209 HD
ENDBRANCH  29  30
ENDBRANCH  28  29
ENDBRANCH  10  27
TORSDOF 7
ENDMDL