MODEL 5
REMARK VINA RESULT: -5.258436872      2.145      3.814
REMARK  6 active torsions:
REMARK  status: ('A' for Active; 'I' for Inactive)
REMARK    1  A    between atoms: C2_2  and  C3_3
REMARK    2  A    between atoms: C3_3  and  C4_4
REMARK    3  A    between atoms: C6_7  and  C7_8
REMARK    4  A    between atoms: C9_12  and  O3_13
REMARK    5  A    between atoms: C15_20  and  C16_21
REMARK    6  A    between atoms: C16_21  and  O4_24
ROOT
HETATM    1  C4  UNL     1      -9.994  13.524  51.508  1.00  0.00     0.035 C
HETATM    2  C5  UNL     1      -9.341  13.526  50.157  1.00  0.00     0.149 C
HETATM    3  O1  UNL     1      -8.496  14.353  49.854  1.00  0.00    -0.296 OA
HETATM    4  C6  UNL     1      -9.802  12.450  49.236  1.00  0.00     0.147 C
HETATM    5  C8  UNL     1      -9.610  11.123  49.886  1.00  0.00     0.053 C
HETATM    6  C9  UNL     1     -10.060  11.020  51.290  1.00  0.00     0.125 C
HETATM    7  C10 UNL     1      -9.923  12.189  52.150  1.00  0.00     0.039 C
HETATM    8  C11 UNL     1      -8.546  12.568  52.637  1.00  0.00     0.028 C
HETATM    9  C12 UNL     1      -8.194  12.175  53.997  1.00  0.00    -0.070 C
HETATM   10  C13 UNL     1      -8.163  11.042  54.662  1.00  0.00    -0.022 C
HETATM   11  C14 UNL     1      -7.711  11.263  56.062  1.00  0.00     0.036 C
HETATM   12  C15 UNL     1      -7.165  12.634  56.041  1.00  0.00     0.035 C
HETATM   13  C19 UNL     1      -7.756  13.321  54.891  1.00  0.00    -0.014 C
HETATM   14  C20 UNL     1      -6.694  14.145  54.184  1.00  0.00     0.020 C
HETATM   15  C21 UNL     1      -9.018  14.092  55.103  1.00  0.00     0.014 C
HETATM   16  C22 UNL     1      -9.602  14.554  53.801  1.00  0.00     0.007 C
HETATM   17  C23 UNL     1      -9.027  14.012  52.561  1.00  0.00     0.011 C
ENDROOT
BRANCH  12  18
HETATM   18  C16 UNL     1      -7.107  13.342  57.348  1.00  0.00     0.055 C
HETATM   19  C17 UNL     1      -6.244  12.460  58.278  1.00  0.00     0.045 C
HETATM   20  C18 UNL     1      -8.364  13.599  58.068  1.00  0.00     0.045 C
BRANCH  18  21
HETATM   21  O4  UNL     1      -6.390  14.524  57.185  1.00  0.00    -0.390 OA
ATOM     22  H4  UNL     1      -6.607  15.113  57.898  1.00  0.00     0.210 HD
ENDBRANCH  18  21
ENDBRANCH  12  18
BRANCH   1  23
HETATM   23  C3  UNL     1     -11.340  14.193  51.453  1.00  0.00     0.044 C
BRANCH  23  24
HETATM   24  C2  UNL     1     -12.377  13.445  52.198  1.00  0.00    -0.036 C
HETATM   25  C1  UNL     1     -13.565  13.240  51.693  1.00  0.00     0.007 C
ENDBRANCH  23  24
ENDBRANCH   1  23
BRANCH   6  26
HETATM   26  O3  UNL     1     -11.412  10.606  51.295  1.00  0.00    -0.395 OA
ATOM     27  H3  UNL     1     -11.960  11.375  51.404  1.00  0.00     0.210 HD
ENDBRANCH   6  26
BRANCH   4  28
HETATM   28  C7  UNL     1      -8.994  12.474  47.974  1.00  0.00     0.242 C
HETATM   29  N1  UNL     1      -7.818  11.660  47.968  1.00  0.00    -0.061 NA
HETATM   30  O2  UNL     1      -9.306  13.153  46.975  1.00  0.00    -0.276 OA
ENDBRANCH   4  28
TORSDOF 6
ENDMDL