MODEL 1
REMARK VINA RESULT: -6.076232580      0.000      0.000
REMARK  6 active torsions:
REMARK  status: ('A' for Active; 'I' for Inactive)
REMARK    1  A    between atoms: C2_2  and  N1_3
REMARK    2  A    between atoms: N1_3  and  C3_4
REMARK       I    between atoms: N1_3  and  C5_6
REMARK    3  A    between atoms: C5_6  and  C6_8
REMARK    4  A    between atoms: C8_10  and  C9_11
REMARK    5  A    between atoms: C11_13  and  O2_14
REMARK    6  A    between atoms: C17_21  and  O3_22
ROOT
HETATM    1  C9  UNL     1      -8.275  12.890  55.195  1.00  0.00     0.019 C
HETATM    2  C10 UNL     1      -7.647  14.212  54.700  1.00  0.00     0.039 C
HETATM    3  C11 UNL     1      -6.685  14.668  55.764  1.00  0.00     0.124 C
HETATM    4  C12 UNL     1      -7.012  13.736  56.900  1.00  0.00     0.031 C
HETATM    5  C13 UNL     1      -6.239  13.873  58.110  1.00  0.00    -0.039 C
HETATM    6  C14 UNL     1      -7.092  14.388  59.296  1.00  0.00     0.015 C
HETATM    7  C15 UNL     1      -5.170  14.989  57.998  1.00  0.00     0.015 C
HETATM    8  C16 UNL     1      -5.477  12.726  58.681  1.00  0.00     0.041 C
HETATM    9  C17 UNL     1      -6.263  11.520  59.022  1.00  0.00     0.118 C
HETATM   10  C18 UNL     1      -6.709  10.708  57.856  1.00  0.00     0.032 C
HETATM   11  C19 UNL     1      -7.823  11.472  57.170  1.00  0.00     0.012 C
HETATM   12  C20 UNL     1      -7.231  12.436  56.209  1.00  0.00    -0.032 C
HETATM   13  C21 UNL     1      -6.099  11.886  55.425  1.00  0.00     0.016 C
ENDROOT
BRANCH   1  14
HETATM   14  C8  UNL     1      -8.476  12.018  54.030  1.00  0.00     0.090 C
HETATM   15  C7  UNL     1      -9.873  11.622  53.680  1.00  0.00     0.049 C
HETATM   16  C6  UNL     1      -9.785  11.348  52.157  1.00  0.00     0.171 C
HETATM   17  C22 UNL     1      -9.010  12.582  51.790  1.00  0.00     0.231 C
HETATM   18  N2  UNL     1      -8.021  12.742  52.831  1.00  0.00    -0.355 N
HETATM   19  O4  UNL     1      -9.101  13.367  50.843  1.00  0.00    -0.273 OA
ATOM     20  H2  UNL     1      -7.151  13.269  52.748  1.00  0.00     0.162 HD
BRANCH  16  21
HETATM   21  C5  UNL     1     -11.113  11.306  51.552  1.00  0.00     0.233 C
HETATM   22  N1  UNL     1     -11.436  10.684  50.332  1.00  0.00    -0.352 N
HETATM   23  O1  UNL     1     -12.048  11.889  52.197  1.00  0.00    -0.272 OA
BRANCH  22  24
HETATM   24  C2  UNL     1     -12.822  10.755  49.837  1.00  0.00     0.121 C
HETATM   25  C1  UNL     1     -13.382   9.372  49.611  1.00  0.00     0.026 C
ENDBRANCH  22  24
BRANCH  22  26
HETATM   26  C3  UNL     1     -10.437   9.975  49.592  1.00  0.00     0.121 C
HETATM   27  C4  UNL     1      -9.870  10.797  48.452  1.00  0.00     0.026 C
ENDBRANCH  22  26
ENDBRANCH  16  21
ENDBRANCH   1  14
BRANCH   3  28
HETATM   28  O2  UNL     1      -5.396  14.727  55.376  1.00  0.00    -0.395 OA
ATOM     29  H2  UNL     1      -5.059  13.930  54.982  1.00  0.00     0.210 HD
ENDBRANCH   3  28
BRANCH   9  30
HETATM   30  O3  UNL     1      -7.369  11.779  59.822  1.00  0.00    -0.396 OA
ATOM     31  H3  UNL     1      -7.547  11.100  60.463  1.00  0.00     0.210 HD
ENDBRANCH   9  30
TORSDOF 6
ENDMDL