MODEL 4
REMARK VINA RESULT: -6.195653625      5.847      7.937
REMARK  4 active torsions:
REMARK  status: ('A' for Active; 'I' for Inactive)
REMARK    1  A    between atoms: C1_2  and  C2_3
REMARK       I    between atoms: C1_2  and  N1_9
REMARK    2  A    between atoms: C2_3  and  C3_4
REMARK    3  A    between atoms: C3_4  and  S1_5
REMARK    4  A    between atoms: N1_9  and  C4_11
ROOT
HETATM    1  C4  UNL     1     -17.109   1.694  47.816  1.00  0.00     0.176 C
HETATM    2  C5  UNL     1     -16.417   2.867  47.212  1.00  0.00     0.035 C
HETATM    3  C6  UNL     1     -17.361   4.011  46.920  1.00  0.00     0.002 C
HETATM    4  C7  UNL     1     -16.637   5.168  46.316  1.00  0.00     0.000 C
HETATM    5  C8  UNL     1     -16.091   4.921  44.948  1.00  0.00     0.000 C
HETATM    6  C9  UNL     1     -17.131   5.205  43.858  1.00  0.00     0.000 C
HETATM    7  C10 UNL     1     -16.724   4.550  42.556  1.00  0.00     0.000 C
HETATM    8  C11 UNL     1     -17.714   3.482  42.230  1.00  0.00     0.000 C
HETATM    9  C12 UNL     1     -17.096   2.282  41.556  1.00  0.00     0.000 C
HETATM   10  C13 UNL     1     -18.026   1.110  41.699  1.00  0.00     0.000 C
HETATM   11  C14 UNL     1     -17.451   0.028  42.609  1.00  0.00     0.000 C
HETATM   12  C15 UNL     1     -18.520  -0.793  43.262  1.00  0.00     0.002 C
HETATM   13  C16 UNL     1     -18.466  -0.727  44.780  1.00  0.00     0.020 C
HETATM   14  C17 UNL     1     -18.524   0.720  45.174  1.00  0.00     0.122 C
HETATM   15  N2  UNL     1     -19.150   0.935  46.462  1.00  0.00    -0.359 N
ATOM     16  H2  UNL     1     -20.068   0.519  46.621  1.00  0.00     0.162 HD
HETATM   17  C18 UNL     1     -18.569   1.688  47.518  1.00  0.00     0.240 C
HETATM   18  O5  UNL     1     -19.291   2.403  48.266  1.00  0.00    -0.271 OA
ENDROOT
BRANCH   1  19
HETATM   19  N1  UNL     1     -16.906   1.712  49.269  1.00  0.00    -0.348 N
HETATM   20  C1  UNL     1     -15.702   1.262  49.853  1.00  0.00     0.219 C
HETATM   21  O1  UNL     1     -14.747   0.828  49.164  1.00  0.00    -0.274 OA
ATOM     22  H1  UNL     1     -17.653   2.058  49.872  1.00  0.00     0.163 HD
BRANCH  20  23
HETATM   23  C2  UNL     1     -15.549   1.301  51.317  1.00  0.00     0.120 C
BRANCH  23  24
HETATM   24  C3  UNL     1     -15.787  -0.017  51.976  1.00  0.00     0.174 C
BRANCH  24  25
HETATM   25  S1  UNL     1     -14.843  -0.020  53.505  1.00  0.00     0.102 S
HETATM   26  O2  UNL     1     -14.168   1.299  53.719  1.00  0.00    -0.595 OA
HETATM   27  O3  UNL     1     -15.798  -0.245  54.655  1.00  0.00    -0.595 OA
HETATM   28  O4  UNL     1     -13.762  -1.281  53.465  1.00  0.00    -0.595 OA
ENDBRANCH  24  25
ENDBRANCH  23  24
ENDBRANCH  20  23
ENDBRANCH   1  19
TORSDOF 4
ENDMDL