MODEL 1
REMARK VINA RESULT: -5.131571322      0.000      0.000
REMARK  6 active torsions:
REMARK  status: ('A' for Active; 'I' for Inactive)
REMARK    1  A    between atoms: C2_2  and  O1_4
REMARK    2  A    between atoms: C2_2  and  C4_6
REMARK    3  A    between atoms: C4_6  and  C5_7
REMARK    4  A    between atoms: C12_15  and  O2_16
REMARK    5  A    between atoms: C13_18  and  C15_20
REMARK    6  A    between atoms: C15_20  and  O3_21
ROOT
HETATM    1  C5  UNL     1      40.981  36.097  87.004  1.00  0.00    -0.008 C
HETATM    2  C6  UNL     1      41.086  34.697  86.398  1.00  0.00     0.006 C
HETATM    3  C7  UNL     1      42.379  34.561  85.581  1.00  0.00     0.018 C
HETATM    4  C8  UNL     1      42.507  35.763  84.641  1.00  0.00     0.022 A
HETATM    5  C9  UNL     1      41.163  36.318  84.544  1.00  0.00    -0.057 C
HETATM    6  C10 UNL     1      40.306  36.288  83.554  1.00  0.00     0.088 C
HETATM    7 CL1  UNL     1      38.719  37.067  83.731  1.00  0.00    -0.097 Cl
HETATM    8  C11 UNL     1      40.696  37.003  85.825  1.00  0.00     0.040 C
HETATM    9  C12 UNL     1      43.557  36.788  84.990  1.00  0.00     0.143 A
HETATM   10  C13 UNL     1      43.653  35.862  83.801  1.00  0.00     0.018 A
HETATM   11  C14 UNL     1      44.655  34.685  83.924  1.00  0.00     0.021 C
ENDROOT
BRANCH   9  12
HETATM   12  O2  UNL     1      44.411  36.637  86.050  1.00  0.00    -0.394 OA
ATOM     13  H2  UNL     1      45.140  37.225  86.207  1.00  0.00     0.210 HD
ENDBRANCH   9  12
BRANCH  10  14
HETATM   14  C15 UNL     1      43.845  36.571  82.507  1.00  0.00     0.177 C
BRANCH  14  15
HETATM   15  O3  UNL     1      42.985  36.210  81.486  1.00  0.00    -0.400 OA
ATOM     16  H3  UNL     1      43.063  36.709  80.681  1.00  0.00     0.209 HD
ENDBRANCH  14  15
ENDBRANCH  10  14
BRANCH   1  17
HETATM   17  C4  UNL     1      39.910  36.037  88.033  1.00  0.00     0.041 C
BRANCH  17  18
HETATM   18  C2  UNL     1      40.017  36.956  89.191  1.00  0.00     0.051 C
HETATM   19  C1  UNL     1      39.292  36.267  90.365  1.00  0.00     0.045 C
HETATM   20  C3  UNL     1      39.365  38.289  89.055  1.00  0.00     0.045 C
BRANCH  18  21
HETATM   21  O1  UNL     1      41.333  37.153  89.595  1.00  0.00    -0.391 OA
ATOM     22  H1  UNL     1      41.763  37.635  88.899  1.00  0.00     0.210 HD
ENDBRANCH  18  21
ENDBRANCH  17  18
ENDBRANCH   1  17
TORSDOF 6
ENDMDL