MODEL 1
REMARK VINA RESULT: -6.219456654      0.000      0.000
REMARK  6 active torsions:
REMARK  status: ('A' for Active; 'I' for Inactive)
REMARK    1  A    between atoms: C2_2  and  C4_5
REMARK    2  A    between atoms: C6_12  and  C7_13
REMARK    3  A    between atoms: C8_14  and  C9_15
REMARK    4  A    between atoms: C9_15  and  C10_16
REMARK    5  A    between atoms: C10_16  and  C11_17
REMARK    6  A    between atoms: C11_17  and  C12_18
ROOT
HETATM    1  C4  UNL     1      41.186  36.199  85.505  1.00  0.00     0.070 A
HETATM    2  N1  UNL     1      40.072  36.312  86.281  1.00  0.00    -0.332 N
ATOM      3  H1  UNL     1      39.411  37.088  86.243  1.00  0.00     0.168 HD
HETATM    4  C5  UNL     1      39.971  35.254  87.106  1.00  0.00     0.177 A
HETATM    5  S1  UNL     1      38.786  35.001  88.198  1.00  0.00    -0.040 SA
HETATM    6  N2  UNL     1      41.029  34.463  86.851  1.00  0.00    -0.324 N
ATOM      7  H2  UNL     1      41.229  33.580  87.321  1.00  0.00     0.169 HD
HETATM    8  C6  UNL     1      41.788  35.019  85.875  1.00  0.00     0.113 A
ENDROOT
BRANCH   8   9
HETATM    9  C7  UNL     1      43.002  34.505  85.304  1.00  0.00    -0.047 C
HETATM   10  C8  UNL     1      44.047  34.087  84.819  1.00  0.00    -0.100 C
BRANCH  10  11
HETATM   11  C9  UNL     1      45.294  33.569  84.257  1.00  0.00     0.095 C
BRANCH  11  12
HETATM   12  C10 UNL     1      46.281  33.198  85.349  1.00  0.00     0.021 C
BRANCH  12  13
HETATM   13  C11 UNL     1      47.646  32.914  84.806  1.00  0.00     0.100 C
BRANCH  13  14
HETATM   14  C12 UNL     1      48.075  31.571  85.251  1.00  0.00     0.231 C
HETATM   15  N3  UNL     1      49.452  31.239  85.379  1.00  0.00    -0.062 NA
HETATM   16  O1  UNL     1      47.205  30.711  85.519  1.00  0.00    -0.277 OA
ENDBRANCH  13  14
ENDBRANCH  12  13
ENDBRANCH  11  12
ENDBRANCH  10  11
ENDBRANCH   8   9
BRANCH   1  17
HETATM   17  C2  UNL     1      41.692  37.113  84.472  1.00  0.00     0.075 C
HETATM   18  C1  UNL     1      40.622  38.201  84.289  1.00  0.00     0.039 C
HETATM   19  C3  UNL     1      42.958  37.834  84.877  1.00  0.00     0.039 C
HETATM   20 CL1  UNL     1      41.887  36.320  82.897  1.00  0.00    -0.113 Cl
ENDBRANCH   1  17
TORSDOF 6
ENDMDL