MODEL 2
REMARK VINA RESULT: -6.191724598      2.986      3.401
REMARK  5 active torsions:
REMARK  status: ('A' for Active; 'I' for Inactive)
REMARK    1  A    between atoms: C9_12  and  C10_13
REMARK    2  A    between atoms: C10_13  and  C11_14
REMARK    3  A    between atoms: C11_14  and  O1_15
REMARK    4  A    between atoms: C11_14  and  C12_17
REMARK    5  A    between atoms: C12_17  and  O2_18
ROOT
HETATM    1  C1  UNL     1      42.941  37.861  88.508  1.00  0.00     0.016 C
HETATM    2  C2  UNL     1      43.872  38.303  87.379  1.00  0.00     0.033 C
HETATM    3  C3  UNL     1      43.104  39.295  86.566  1.00  0.00     0.030 C
HETATM    4  C4  UNL     1      42.013  38.606  85.740  1.00  0.00     0.087 C
HETATM    5 CL1  UNL     1      41.001  39.903  85.069  1.00  0.00    -0.125 Cl
HETATM    6  C5  UNL     1      42.672  37.796  84.654  1.00  0.00     0.063 C
HETATM    7  C6  UNL     1      43.666  36.883  85.294  1.00  0.00     0.002 A
HETATM    8  C7  UNL     1      44.213  37.105  86.520  1.00  0.00     0.022 A
HETATM    9  N1  UNL     1      45.068  36.075  86.765  1.00  0.00    -0.356 N
ATOM     10  H1  UNL     1      45.629  35.963  87.610  1.00  0.00     0.166 HD
HETATM   11  C8  UNL     1      45.058  35.229  85.726  1.00  0.00     0.075 A
HETATM   12  C9  UNL     1      45.567  34.040  85.181  1.00  0.00    -0.004 A
HETATM   13  C13 UNL     1      44.981  33.865  83.947  1.00  0.00     0.152 A
HETATM   14  O3  UNL     1      44.178  34.867  83.751  1.00  0.00    -0.319 OA
HETATM   15  C14 UNL     1      44.188  35.699  84.776  1.00  0.00     0.110 A
ENDROOT
BRANCH  12  16
HETATM   16  C10 UNL     1      46.552  33.203  85.901  1.00  0.00     0.076 C
BRANCH  16  17
HETATM   17  C11 UNL     1      47.575  32.688  84.920  1.00  0.00     0.146 C
BRANCH  17  18
HETATM   18  O1  UNL     1      48.398  33.758  84.567  1.00  0.00    -0.393 OA
ATOM     19  H1  UNL     1      49.260  33.407  84.381  1.00  0.00     0.210 HD
ENDBRANCH  17  18
BRANCH  17  20
HETATM   20  C12 UNL     1      48.375  31.531  85.460  1.00  0.00     0.196 C
BRANCH  20  21
HETATM   21  O2  UNL     1      47.533  30.448  85.620  1.00  0.00    -0.398 OA
ATOM     22  H2  UNL     1      48.026  29.653  85.456  1.00  0.00     0.209 HD
ENDBRANCH  20  21
ENDBRANCH  17  20
ENDBRANCH  16  17
ENDBRANCH  12  16
TORSDOF 5
ENDMDL