MODEL 1
REMARK VINA RESULT: -5.136174593      0.000      0.000
REMARK  6 active torsions:
REMARK  status: ('A' for Active; 'I' for Inactive)
REMARK    1  A    between atoms: C2_2  and  N1_5
REMARK       I    between atoms: N1_5  and  C4_7
REMARK    2  A    between atoms: C4_7  and  C5_9
REMARK    3  A    between atoms: C7_11  and  C8_12
REMARK    4  A    between atoms: C8_12  and  O2_13
REMARK    5  A    between atoms: C8_12  and  C9_15
REMARK    6  A    between atoms: C9_15  and  O3_16
ROOT
HETATM    1  C5  UNL     1      42.866  35.628  85.262  1.00  0.00     0.050 C
HETATM    2  C6  UNL     1      43.756  34.427  84.975  1.00  0.00     0.027 C
HETATM    3  C7  UNL     1      41.492  35.043  85.473  1.00  0.00     0.035 C
HETATM    4  C10 UNL     1      40.532  35.944  84.716  1.00  0.00     0.009 C
HETATM    5  C11 UNL     1      41.342  36.694  83.706  1.00  0.00     0.010 C
HETATM    6  C12 UNL     1      42.805  36.387  83.974  1.00  0.00    -0.031 C
HETATM    7  C13 UNL     1      43.547  37.688  83.968  1.00  0.00     0.016 C
HETATM    8  C14 UNL     1      43.314  35.597  82.785  1.00  0.00     0.016 C
ENDROOT
BRANCH   1   9
HETATM    9  C4  UNL     1      43.405  36.339  86.402  1.00  0.00     0.228 C
HETATM   10  N1  UNL     1      42.918  37.580  86.920  1.00  0.00    -0.339 N
ATOM     11  H1  UNL     1      42.120  38.009  86.451  1.00  0.00     0.164 HD
HETATM   12  O1  UNL     1      44.393  35.868  87.030  1.00  0.00    -0.273 OA
BRANCH  10  13
HETATM   13  C2  UNL     1      43.467  38.258  88.042  1.00  0.00     0.102 C
HETATM   14  C1  UNL     1      43.453  39.760  87.848  1.00  0.00     0.056 C
HETATM   15  C3  UNL     1      42.753  37.985  89.344  1.00  0.00     0.056 C
HETATM   16 CL1  UNL     1      45.188  37.822  88.323  1.00  0.00    -0.096 Cl
ENDBRANCH  10  13
ENDBRANCH   1   9
BRANCH   3  17
HETATM   17  C8  UNL     1      41.042  34.962  86.883  1.00  0.00     0.147 C
BRANCH  17  18
HETATM   18  O2  UNL     1      40.688  33.695  87.306  1.00  0.00    -0.393 OA
ATOM     19  H2  UNL     1      39.798  33.617  87.627  1.00  0.00     0.210 HD
ENDBRANCH  17  18
BRANCH  17  20
HETATM   20  C9  UNL     1      39.740  35.772  86.960  1.00  0.00     0.196 C
BRANCH  20  21
HETATM   21  O3  UNL     1      39.878  36.793  87.901  1.00  0.00    -0.398 OA
ATOM     22  H3  UNL     1      39.023  37.038  88.234  1.00  0.00     0.209 HD
ENDBRANCH  20  21
ENDBRANCH  17  20
ENDBRANCH   3  17
TORSDOF 6
ENDMDL