MODEL 3
REMARK VINA RESULT: -5.554724144      2.750      4.091
REMARK  4 active torsions:
REMARK  status: ('A' for Active; 'I' for Inactive)
REMARK    1  A    between atoms: C2_2  and  C3_3
REMARK    2  A    between atoms: C3_3  and  C4_4
REMARK    3  A    between atoms: C4_4  and  C5_5
REMARK    4  A    between atoms: C6_6  and  C7_7
ROOT
HETATM    1  C7  UNL     1      44.832  34.932  86.564  1.00  0.00     0.041 C
HETATM    2  C8  UNL     1      45.539  34.724  85.485  1.00  0.00     0.096 C
HETATM    3  C9  UNL     1      45.972  33.345  85.211  1.00  0.00     0.088 C
HETATM    4  N1  UNL     1      46.317  32.270  84.978  1.00  0.00    -0.192 NA
ENDROOT
BRANCH   1   5
HETATM    5  C6  UNL     1      44.353  36.251  86.929  1.00  0.00     0.043 A
HETATM    6  C5  UNL     1      43.052  36.633  86.597  1.00  0.00    -0.017 A
HETATM    7  C14 UNL     1      42.725  37.965  86.922  1.00  0.00     0.030 A
HETATM    8  C11 UNL     1      43.640  38.797  87.521  1.00  0.00     0.115 A
HETATM    9  C13 UNL     1      41.582  38.697  86.757  1.00  0.00     0.088 A
HETATM   10  C10 UNL     1      44.915  38.385  87.837  1.00  0.00     0.273 A
HETATM   11  N3  UNL     1      43.074  40.021  87.724  1.00  0.00    -0.338 N
HETATM   12  N2  UNL     1      45.227  37.119  87.527  1.00  0.00    -0.321 N
HETATM   13  O1  UNL     1      45.756  39.154  88.391  1.00  0.00    -0.266 OA
ATOM     14  H2  UNL     1      46.165  36.784  87.749  1.00  0.00     0.169 HD
HETATM   15  C12 UNL     1      41.821  39.984  87.267  1.00  0.00     0.139 A
ATOM     16  H3  UNL     1      43.531  40.826  88.152  1.00  0.00     0.167 HD
HETATM   17  N4  UNL     1      40.887  41.053  87.289  1.00  0.00    -0.081 NA
HETATM   18 CL1  UNL     1      40.063  38.239  86.062  1.00  0.00    -0.080 Cl
BRANCH   6  19
HETATM   19  C4  UNL     1      42.028  35.747  86.026  1.00  0.00     0.042 C
BRANCH  19  20
HETATM   20  C3  UNL     1      41.995  35.600  84.554  1.00  0.00     0.004 C
BRANCH  20  21
HETATM   21  C2  UNL     1      42.703  36.621  83.716  1.00  0.00    -0.004 C
HETATM   22  C1  UNL     1      43.283  35.971  82.454  1.00  0.00     0.005 C
ENDBRANCH  20  21
ENDBRANCH  19  20
ENDBRANCH   6  19
ENDBRANCH   1   5
TORSDOF 4
ENDMDL