MODEL 4
REMARK VINA RESULT: -6.835192970      1.999      2.263
REMARK  6 active torsions:
REMARK  status: ('A' for Active; 'I' for Inactive)
REMARK    1  A    between atoms: C2_2  and  O1_3
REMARK    2  A    between atoms: O1_3  and  C3_4
REMARK       I    between atoms: C3_4  and  N1_6
REMARK       I    between atoms: N1_6  and  C4_8
REMARK       I    between atoms: C4_8  and  N4_20
REMARK    3  A    between atoms: N2_9  and  C5_11
REMARK    4  A    between atoms: C5_11  and  C6_15
REMARK    5  A    between atoms: C6_15  and  C7_16
REMARK    6  A    between atoms: N4_20  and  C9_22
ROOT
HETATM    1  C3  UNL     1      46.117  33.260  84.928  1.00  0.00     0.379 C
HETATM    2  O2  UNL     1      45.099  32.593  84.710  1.00  0.00    -0.238 OA
HETATM    3  N1  UNL     1      46.195  34.531  85.538  1.00  0.00    -0.135 N
ATOM      4  H1  UNL     1      47.116  34.953  85.656  1.00  0.00     0.189 HD
HETATM    5  C4  UNL     1      45.039  35.270  86.005  1.00  0.00     0.684 C
HETATM    6  N2  UNL     1      45.251  36.384  86.563  1.00  0.00    -0.181 N
ATOM      7  H2  UNL     1      46.238  36.636  86.616  1.00  0.00     0.185 HD
HETATM    8  N4  UNL     1      43.735  34.757  85.821  1.00  0.00    -0.221 N
ATOM      9  H4  UNL     1      43.297  34.223  86.572  1.00  0.00     0.178 HD
ENDROOT
BRANCH   6  10
HETATM   10  C5  UNL     1      44.404  37.326  87.116  1.00  0.00     0.094 C
HETATM   11  N3  UNL     1      44.199  37.494  88.400  1.00  0.00    -0.388 N
ATOM     12  H32 UNL     1      44.713  36.861  89.014  1.00  0.00     0.157 HD
ATOM     13  H31 UNL     1      43.574  38.189  88.809  1.00  0.00     0.157 HD
BRANCH  10  14
HETATM   14  C6  UNL     1      43.652  38.254  86.218  1.00  0.00     0.109 C
BRANCH  14  15
HETATM   15  C7  UNL     1      43.922  39.632  86.718  1.00  0.00     0.055 C
HETATM   16  C8  UNL     1      44.112  40.638  85.884  1.00  0.00     0.263 C
HETATM   17  F1  UNL     1      44.059  40.406  84.554  1.00  0.00    -0.173 F
HETATM   18  F2  UNL     1      44.358  41.885  86.340  1.00  0.00    -0.173 F
ENDBRANCH  14  15
ENDBRANCH  10  14
ENDBRANCH   6  10
BRANCH   8  19
HETATM   19  C9  UNL     1      43.026  34.972  84.613  1.00  0.00     0.099 C
HETATM   20  C10 UNL     1      41.746  35.762  84.815  1.00  0.00     0.026 C
HETATM   21  C11 UNL     1      41.377  36.152  83.402  1.00  0.00     0.002 C
HETATM   22  C12 UNL     1      42.614  36.043  82.580  1.00  0.00     0.002 C
HETATM   23  C13 UNL     1      43.730  35.903  83.620  1.00  0.00     0.026 C
ENDBRANCH   8  19
BRANCH   1  24
HETATM   24  O1  UNL     1      47.337  32.687  84.523  1.00  0.00    -0.304 OA
BRANCH  24  25
HETATM   25  C2  UNL     1      48.047  31.824  85.416  1.00  0.00     0.176 C
HETATM   26  C1  UNL     1      49.463  31.651  84.985  1.00  0.00     0.034 C
ENDBRANCH  24  25
ENDBRANCH   1  24
TORSDOF 6
ENDMDL