MODEL 4
REMARK VINA RESULT: -5.125179221      1.842      2.907
REMARK  5 active torsions:
REMARK  status: ('A' for Active; 'I' for Inactive)
REMARK    1  A    between atoms: C9_9  and  C10_10
REMARK    2  A    between atoms: C9_9  and  C14_17
REMARK    3  A    between atoms: C10_10  and  C11_11
REMARK    4  A    between atoms: C14_17  and  O1_18
REMARK    5  A    between atoms: N2_20  and  O2_22
ROOT
HETATM    1  C1  UNL     1      40.147  38.896  84.315  1.00  0.00     0.011 C
HETATM    2  C2  UNL     1      41.040  38.232  85.341  1.00  0.00    -0.009 C
HETATM    3  C3  UNL     1      40.256  37.623  86.474  1.00  0.00    -0.010 C
HETATM    4  C4  UNL     1      39.261  36.607  86.022  1.00  0.00     0.009 C
HETATM    5  C5  UNL     1      40.004  35.548  85.238  1.00  0.00    -0.013 C
HETATM    6  C6  UNL     1      40.970  34.865  86.156  1.00  0.00     0.010 C
HETATM    7  C7  UNL     1      42.000  35.838  86.637  1.00  0.00     0.003 C
HETATM    8  C8  UNL     1      41.289  36.946  87.381  1.00  0.00     0.011 C
HETATM    9  C9  UNL     1      42.810  36.449  85.506  1.00  0.00     0.035 C
HETATM   10  C15 UNL     1      41.838  37.159  84.631  1.00  0.00     0.007 C
HETATM   11  C16 UNL     1      40.820  36.169  84.109  1.00  0.00     0.011 C
ENDROOT
BRANCH   9  12
HETATM   12  C10 UNL     1      43.572  35.471  84.700  1.00  0.00     0.026 C
BRANCH  12  13
HETATM   13  C11 UNL     1      44.681  34.724  85.410  1.00  0.00     0.038 C
HETATM   14  C12 UNL     1      44.792  33.343  84.743  1.00  0.00     0.238 C
HETATM   15  N1  UNL     1      45.936  33.711  83.981  1.00  0.00    -0.074 N
HETATM   16  C13 UNL     1      46.062  34.886  84.813  1.00  0.00     0.238 C
ATOM     17  H12 UNL     1      46.718  33.065  83.871  1.00  0.00     0.277 HD
ATOM     18  H11 UNL     1      45.880  33.795  82.966  1.00  0.00     0.277 HD
ENDBRANCH  12  13
ENDBRANCH   9  12
BRANCH   9  19
HETATM   19  C14 UNL     1      43.764  37.363  86.192  1.00  0.00     0.145 C
HETATM   20  N2  UNL     1      44.316  37.165  87.311  1.00  0.00    -0.250 N
ATOM     21  H2  UNL     1      44.108  36.304  87.817  1.00  0.00     0.196 HD
BRANCH  19  22
HETATM   22  O1  UNL     1      44.072  38.560  85.524  1.00  0.00    -0.347 OA
ATOM     23  H1  UNL     1      44.276  38.487  84.599  1.00  0.00     0.219 HD
ENDBRANCH  19  22
BRANCH  20  24
HETATM   24  O2  UNL     1      45.186  38.066  87.869  1.00  0.00    -0.288 OA
ATOM     25  H2  UNL     1      46.126  37.932  87.870  1.00  0.00     0.244 HD
ENDBRANCH  20  24
ENDBRANCH   9  19
TORSDOF 5
ENDMDL