MODEL 1
REMARK VINA RESULT: -6.724883780      0.000      0.000
REMARK  5 active torsions:
REMARK  status: ('A' for Active; 'I' for Inactive)
REMARK    1  A    between atoms: N1_1  and  C1_4
REMARK    2  A    between atoms: C4_10  and  C5_11
REMARK    3  A    between atoms: C5_11  and  O1_12
REMARK    4  A    between atoms: O1_12  and  C6_13
REMARK    5  A    between atoms: C16_23  and  O2_24
ROOT
HETATM    1  C1  UNL     1      48.849  33.497  84.721  1.00  0.00     0.102 A
HETATM    2  C2  UNL     1      49.170  32.204  85.062  1.00  0.00     0.160 A
HETATM    3  F1  UNL     1      50.474  31.811  85.076  1.00  0.00    -0.202 F
HETATM    4  C3  UNL     1      48.163  31.317  85.388  1.00  0.00     0.133 A
HETATM    5  N2  UNL     1      46.871  31.704  85.374  1.00  0.00    -0.362 N
ATOM      6  H2  UNL     1      46.151  31.026  85.619  1.00  0.00     0.165 HD
HETATM    7  C4  UNL     1      46.503  32.954  85.048  1.00  0.00     0.069 A
HETATM    8  C16 UNL     1      47.502  33.845  84.723  1.00  0.00     0.120 A
ENDROOT
BRANCH   7   9
HETATM    9  C5  UNL     1      45.059  33.373  85.036  1.00  0.00     0.228 C
BRANCH   9  10
HETATM   10  O1  UNL     1      44.830  34.433  85.872  1.00  0.00    -0.374 OA
BRANCH  10  11
HETATM   11  C6  UNL     1      43.831  35.240  85.404  1.00  0.00     0.062 C
HETATM   12  C7  UNL     1      42.451  34.716  85.760  1.00  0.00     0.043 C
HETATM   13  C8  UNL     1      41.400  35.734  85.429  1.00  0.00    -0.011 C
HETATM   14  C9  UNL     1      41.597  37.058  86.082  1.00  0.00     0.009 C
HETATM   15  C13 UNL     1      41.462  35.955  83.915  1.00  0.00     0.009 C
HETATM   16  C10 UNL     1      42.957  37.585  85.684  1.00  0.00    -0.011 C
HETATM   17  C11 UNL     1      43.016  37.812  84.193  1.00  0.00     0.009 C
HETATM   18  C15 UNL     1      43.980  36.575  86.149  1.00  0.00     0.043 C
HETATM   19  C12 UNL     1      42.811  36.472  83.530  1.00  0.00    -0.011 C
HETATM   20  C14 UNL     1      43.944  35.561  83.941  1.00  0.00     0.043 C
ENDBRANCH  10  11
ENDBRANCH   9  10
ENDBRANCH   7   9
BRANCH   8  21
HETATM   21  O2  UNL     1      47.170  35.133  84.383  1.00  0.00    -0.357 OA
ATOM     22  H2  UNL     1      46.562  35.260  83.665  1.00  0.00     0.218 HD
ENDBRANCH   8  21
BRANCH   1  23
HETATM   23  N1  UNL     1      49.772  34.348  84.412  1.00  0.00    -0.394 N
ATOM     24  H12 UNL     1      50.709  34.295  84.811  1.00  0.00     0.156 HD
ATOM     25  H11 UNL     1      49.585  35.104  83.753  1.00  0.00     0.156 HD
ENDBRANCH   1  23
TORSDOF 5
ENDMDL