MODEL 1
REMARK VINA RESULT: -5.999501031      0.000      0.000
REMARK  2 active torsions:
REMARK  status: ('A' for Active; 'I' for Inactive)
REMARK    1  A    between atoms: C2_2  and  O1_4
REMARK    2  A    between atoms: O1_4  and  C4_5
ROOT
HETATM    1  C4  UNL     1      43.765  35.979  84.856  1.00  0.00     0.128 C
HETATM    2  C5  UNL     1      42.740  36.445  83.809  1.00  0.00     0.039 C
HETATM    3  C6  UNL     1      41.510  35.877  84.397  1.00  0.00     0.020 C
HETATM    4  C7  UNL     1      40.222  36.303  83.822  1.00  0.00     0.049 C
HETATM    5  C8  UNL     1      39.144  35.702  84.688  1.00  0.00    -0.013 A
HETATM    6  C9  UNL     1      37.895  35.490  84.162  1.00  0.00     0.099 A
HETATM    7  N1  UNL     1      36.903  34.961  84.883  1.00  0.00    -0.350 N
ATOM      8  H1  UNL     1      35.985  34.817  84.461  1.00  0.00     0.166 HD
HETATM    9  C10 UNL     1      37.116  34.619  86.168  1.00  0.00     0.140 A
HETATM   10  N2  UNL     1      36.189  34.109  86.894  1.00  0.00    -0.383 N
ATOM     11  H21 UNL     1      36.350  33.850  87.867  1.00  0.00     0.157 HD
ATOM     12  H22 UNL     1      35.271  33.963  86.474  1.00  0.00     0.157 HD
HETATM   13  C11 UNL     1      38.358  34.817  86.737  1.00  0.00     0.186 A
HETATM   14  F1  UNL     1      38.607  34.480  88.039  1.00  0.00    -0.200 F
HETATM   15  C12 UNL     1      39.384  35.361  85.996  1.00  0.00     0.079 A
HETATM   16  N3  UNL     1      40.687  35.567  86.597  1.00  0.00    -0.377 N
ATOM     17  H3  UNL     1      40.947  35.157  87.493  1.00  0.00     0.160 HD
HETATM   18  C13 UNL     1      41.584  36.392  85.836  1.00  0.00     0.036 C
HETATM   19  C14 UNL     1      41.127  37.816  85.947  1.00  0.00     0.039 C
HETATM   20  C15 UNL     1      43.023  36.214  86.157  1.00  0.00     0.038 C
HETATM   21  C16 UNL     1      43.636  37.483  86.763  1.00  0.00     0.015 C
ENDROOT
BRANCH   1  22
HETATM   22  O1  UNL     1      43.954  34.604  84.752  1.00  0.00    -0.381 OA
BRANCH  22  23
HETATM   23  C2  UNL     1      45.167  34.248  84.219  1.00  0.00     0.113 C
HETATM   24  C1  UNL     1      46.270  35.194  84.707  1.00  0.00     0.039 C
HETATM   25  C3  UNL     1      45.527  32.869  84.733  1.00  0.00     0.039 C
ENDBRANCH  22  23
ENDBRANCH   1  22
TORSDOF 2
ENDMDL