MODEL 4
REMARK VINA RESULT: -5.921365246      1.832      2.301
REMARK  9 active torsions:
REMARK  status: ('A' for Active; 'I' for Inactive)
REMARK    1  A    between atoms: C2_2  and  C3_3
REMARK    2  A    between atoms: C3_3  and  C4_4
REMARK    3  A    between atoms: C11_13  and  C13_15
REMARK    4  A    between atoms: C13_15  and  O3_16
REMARK    5  A    between atoms: O3_16  and  C14_17
REMARK    6  A    between atoms: C16_20  and  O5_21
REMARK    7  A    between atoms: O5_21  and  C17_22
REMARK    8  A    between atoms: C23_29  and  O7_30
REMARK    9  A    between atoms: O7_30  and  C24_31
ROOT
HETATM    1  C4  UNL     1      16.081  11.003  77.865  1.00  0.00     0.123 A
HETATM    2  O1  UNL     1      16.236   9.593  77.954  1.00  0.00    -0.337 OA
HETATM    3  C5  UNL     1      16.533   9.244  79.234  1.00  0.00     0.164 A
HETATM    4  C6  UNL     1      15.635   8.123  79.814  1.00  0.00     0.079 C
HETATM    5  C7  UNL     1      17.897   8.536  79.385  1.00  0.00     0.079 C
HETATM    6  O2  UNL     1      16.529  10.350  79.990  1.00  0.00    -0.316 OA
HETATM    7  C8  UNL     1      16.298  11.531  79.204  1.00  0.00     0.086 A
HETATM    8  C9  UNL     1      17.116  12.586  79.726  1.00  0.00     0.040 C
HETATM    9  C10 UNL     1      17.874  13.665  79.014  1.00  0.00    -0.053 C
HETATM   10  C11 UNL     1      17.336  15.048  78.968  1.00  0.00     0.029 C
HETATM   11  C12 UNL     1      18.405  16.132  79.051  1.00  0.00     0.025 C
HETATM   12  C16 UNL     1      16.672  15.337  77.607  1.00  0.00     0.146 C
HETATM   13  C19 UNL     1      16.062  13.947  77.359  1.00  0.00     0.040 C
HETATM   14  C20 UNL     1      17.139  13.010  77.033  1.00  0.00     0.014 C
HETATM   15  C21 UNL     1      18.376  13.018  77.814  1.00  0.00     0.012 C
HETATM   16  C22 UNL     1      19.253  12.050  78.403  1.00  0.00     0.023 C
HETATM   17  C23 UNL     1      19.323  13.405  76.751  1.00  0.00     0.144 C
HETATM   18  C26 UNL     1      19.153  12.147  75.851  1.00  0.00     0.034 C
HETATM   19  C27 UNL     1      18.089  11.126  76.175  1.00  0.00     0.015 C
HETATM   20  C28 UNL     1      16.784  11.601  76.693  1.00  0.00    -0.001 C
HETATM   21  C29 UNL     1      15.905  11.688  75.415  1.00  0.00     0.019 C
ENDROOT
BRANCH  10  22
HETATM   22  C13 UNL     1      16.369  15.365  80.091  1.00  0.00     0.195 C
BRANCH  22  23
HETATM   23  O3  UNL     1      16.752  16.605  80.721  1.00  0.00    -0.321 OA
BRANCH  23  24
HETATM   24  C14 UNL     1      15.801  17.614  80.818  1.00  0.00     0.254 C
HETATM   25  C15 UNL     1      14.346  17.337  80.848  1.00  0.00     0.126 C
HETATM   26  O4  UNL     1      16.220  18.809  80.883  1.00  0.00    -0.266 OA
ENDBRANCH  23  24
ENDBRANCH  22  23
ENDBRANCH  10  22
BRANCH  12  27
HETATM   27  O5  UNL     1      15.645  16.305  77.711  1.00  0.00    -0.315 OA
BRANCH  27  28
HETATM   28  C17 UNL     1      15.717  17.542  77.083  1.00  0.00     0.255 C
HETATM   29  C18 UNL     1      16.723  17.888  76.046  1.00  0.00     0.126 C
HETATM   30  O6  UNL     1      14.876  18.413  77.423  1.00  0.00    -0.266 OA
ENDBRANCH  27  28
ENDBRANCH  12  27
BRANCH  17  31
HETATM   31  O7  UNL     1      20.684  13.516  77.129  1.00  0.00    -0.315 OA
BRANCH  31  32
HETATM   32  C24 UNL     1      21.545  14.485  76.702  1.00  0.00     0.255 C
HETATM   33  C25 UNL     1      21.905  15.646  77.585  1.00  0.00     0.126 C
HETATM   34  O8  UNL     1      22.036  14.396  75.558  1.00  0.00    -0.266 OA
ENDBRANCH  31  32
ENDBRANCH  17  31
BRANCH   1  35
HETATM   35  C3  UNL     1      14.605  11.106  77.472  1.00  0.00     0.072 C
BRANCH  35  36
HETATM   36  C2  UNL     1      13.581  11.266  78.493  1.00  0.00    -0.033 C
HETATM   37  C1  UNL     1      12.729  10.313  78.880  1.00  0.00     0.007 C
ENDBRANCH  35  36
ENDBRANCH   1  35
TORSDOF 9
ENDMDL