MODEL 1
REMARK VINA RESULT: -8.910067064      0.000      0.000
REMARK  9 active torsions:
REMARK  status: ('A' for Active; 'I' for Inactive)
REMARK    1  A    between atoms: C5_6  and  O2_7
REMARK    2  A    between atoms: O2_7  and  C6_8
REMARK    3  A    between atoms: C22_26  and  C23_27
REMARK    4  A    between atoms: C23_27  and  O5_28
REMARK    5  A    between atoms: O5_28  and  C24_29
REMARK    6  A    between atoms: C24_29  and  C25_31
REMARK    7  A    between atoms: C25_31  and  C26_32
REMARK    8  A    between atoms: C26_32  and  C27_33
REMARK    9  A    between atoms: C29_36  and  O8_37
ROOT
HETATM    1  C1  UNL     1      15.280  13.025  80.538  1.00  0.00     0.017 C
HETATM    2  C2  UNL     1      16.318  12.929  79.769  1.00  0.00    -0.056 C
HETATM    3  C3  UNL     1      17.567  12.446  80.437  1.00  0.00     0.097 C
HETATM    4  C4  UNL     1      18.145  11.230  79.676  1.00  0.00     0.268 C
HETATM    5  O1  UNL     1      16.908  10.573  79.377  1.00  0.00    -0.330 OA
HETATM    6  C5  UNL     1      17.078  10.301  77.997  1.00  0.00     0.272 C
HETATM    7  C16 UNL     1      17.178  11.466  77.153  1.00  0.00     0.019 C
HETATM    8  C17 UNL     1      16.141  11.354  76.022  1.00  0.00     0.021 C
HETATM    9  C18 UNL     1      17.150  12.855  77.558  1.00  0.00     0.032 C
HETATM   10  C19 UNL     1      17.763  13.467  76.358  1.00  0.00     0.016 C
HETATM   11  C20 UNL     1      19.093  12.660  76.504  1.00  0.00     0.031 A
HETATM   12  C21 UNL     1      18.564  11.343  76.477  1.00  0.00     0.043 A
HETATM   13  C22 UNL     1      19.447  11.846  77.674  1.00  0.00     0.095 A
HETATM   14  O7  UNL     1      19.009  11.357  78.760  1.00  0.00    -0.347 OA
HETATM   15  C29 UNL     1      16.025  13.335  78.348  1.00  0.00     0.151 C
ENDROOT
BRANCH   6  16
HETATM   16  O2  UNL     1      16.139   9.311  77.664  1.00  0.00    -0.352 OA
BRANCH  16  17
HETATM   17  C6  UNL     1      15.124   9.163  78.564  1.00  0.00     0.156 C
HETATM   18  C7  UNL     1      13.742   9.407  77.946  1.00  0.00     0.035 C
HETATM   19  C8  UNL     1      13.501   8.465  76.791  1.00  0.00     0.009 C
HETATM   20  C9  UNL     1      13.538   7.032  77.283  1.00  0.00     0.013 C
HETATM   21  C10 UNL     1      12.352   6.689  78.113  1.00  0.00     0.012 C
HETATM   22  C11 UNL     1      14.866   6.829  77.949  1.00  0.00     0.160 C
HETATM   23  O3  UNL     1      14.989   5.643  78.630  1.00  0.00    -0.348 OA
HETATM   24  C15 UNL     1      15.026   7.801  79.129  1.00  0.00     0.183 C
HETATM   25  C12 UNL     1      15.876   5.881  79.667  1.00  0.00     0.158 C
HETATM   26  C13 UNL     1      15.322   5.471  81.021  1.00  0.00     0.078 C
HETATM   27  C14 UNL     1      17.171   5.116  79.460  1.00  0.00     0.078 C
HETATM   28  O4  UNL     1      16.110   7.253  79.734  1.00  0.00    -0.345 OA
ENDBRANCH  16  17
ENDBRANCH   6  16
BRANCH  15  29
HETATM   29  O8  UNL     1      14.774  12.803  78.060  1.00  0.00    -0.391 OA
ATOM     30  H8  UNL     1      14.840  12.462  77.175  1.00  0.00     0.210 HD
ENDBRANCH  15  29
BRANCH  13  31
HETATM   31  C23 UNL     1      20.879  11.259  77.492  1.00  0.00     0.217 C
BRANCH  31  32
HETATM   32  O5  UNL     1      21.255  10.531  78.643  1.00  0.00    -0.318 OA
BRANCH  32  33
HETATM   33  C24 UNL     1      21.926   9.333  78.549  1.00  0.00     0.258 C
HETATM   34  O6  UNL     1      21.401   8.309  79.049  1.00  0.00    -0.265 OA
BRANCH  33  35
HETATM   35  C25 UNL     1      23.264   9.265  77.860  1.00  0.00     0.111 C
BRANCH  35  36
HETATM   36  C26 UNL     1      24.352   9.173  78.938  1.00  0.00     0.009 C
BRANCH  36  37
HETATM   37  C27 UNL     1      25.154  10.457  78.978  1.00  0.00    -0.004 C
HETATM   38  C28 UNL     1      24.704  11.323  77.826  1.00  0.00     0.005 C
ENDBRANCH  36  37
ENDBRANCH  35  36
ENDBRANCH  33  35
ENDBRANCH  32  33
ENDBRANCH  31  32
ENDBRANCH  13  31
TORSDOF 9
ENDMDL