MODEL 4
REMARK VINA RESULT: -7.408526773      1.090      1.242
REMARK  9 active torsions:
REMARK  status: ('A' for Active; 'I' for Inactive)
REMARK    1  A    between atoms: C11_13  and  C12_14
REMARK    2  A    between atoms: C12_14  and  C15_17
REMARK    3  A    between atoms: C15_17  and  O3_18
REMARK    4  A    between atoms: O3_18  and  C16_19
REMARK    5  A    between atoms: C20_24  and  O5_25
REMARK    6  A    between atoms: O5_25  and  C21_26
REMARK    7  A    between atoms: C21_26  and  C22_28
REMARK    8  A    between atoms: C28_34  and  O7_35
REMARK    9  A    between atoms: O7_35  and  C29_36
ROOT
HETATM    1  C1  UNL     1      14.217   6.185  80.766  1.00  0.00     0.025 C
HETATM    2  C2  UNL     1      14.247   7.083  79.832  1.00  0.00     0.015 C
HETATM    3  C3  UNL     1      13.522   7.078  78.580  1.00  0.00     0.289 C
HETATM    4  O1  UNL     1      12.778   6.196  78.083  1.00  0.00    -0.260 OA
HETATM    5  O2  UNL     1      13.765   8.301  77.908  1.00  0.00    -0.309 OA
HETATM    6  C4  UNL     1      14.230   9.172  78.899  1.00  0.00     0.171 C
HETATM    7  C5  UNL     1      15.047   8.334  79.840  1.00  0.00     0.056 C
HETATM    8  C6  UNL     1      16.365   7.984  79.264  1.00  0.00     0.018 C
HETATM    9  C7  UNL     1      17.101   9.124  78.708  1.00  0.00     0.004 C
HETATM   10  C8  UNL     1      17.803  10.022  79.691  1.00  0.00     0.002 C
HETATM   11  C9  UNL     1      19.077   9.372  80.144  1.00  0.00     0.006 C
HETATM   12  C10 UNL     1      19.980   9.633  78.968  1.00  0.00     0.007 C
HETATM   13  C11 UNL     1      19.650  11.102  78.727  1.00  0.00     0.006 C
HETATM   14  C18 UNL     1      18.233  11.232  78.834  1.00  0.00    -0.008 C
HETATM   15  C19 UNL     1      17.932  12.441  79.759  1.00  0.00     0.019 C
HETATM   16  C20 UNL     1      17.301  11.186  77.693  1.00  0.00     0.152 C
HETATM   17  C26 UNL     1      16.300  10.085  77.848  1.00  0.00     0.017 C
HETATM   18  C27 UNL     1      16.085   9.297  76.535  1.00  0.00     0.021 C
HETATM   19  C28 UNL     1      14.962  10.393  78.355  1.00  0.00     0.173 C
ENDROOT
BRANCH  13  20
HETATM   20  C12 UNL     1      20.521  11.631  77.666  1.00  0.00    -0.021 C
HETATM   21  C13 UNL     1      20.716  13.096  77.554  1.00  0.00     0.017 C
HETATM   22  C14 UNL     1      19.725  11.269  76.372  1.00  0.00     0.017 C
BRANCH  20  23
HETATM   23  C15 UNL     1      21.819  10.935  77.440  1.00  0.00     0.187 C
BRANCH  23  24
HETATM   24  O3  UNL     1      22.851  11.559  78.206  1.00  0.00    -0.321 OA
BRANCH  24  25
HETATM   25  C16 UNL     1      24.186  11.421  77.884  1.00  0.00     0.254 C
HETATM   26  C17 UNL     1      25.059  10.603  78.760  1.00  0.00     0.126 C
HETATM   27  O4  UNL     1      24.632  11.990  76.858  1.00  0.00    -0.266 OA
ENDBRANCH  24  25
ENDBRANCH  23  24
ENDBRANCH  20  23
ENDBRANCH  13  20
BRANCH  16  28
HETATM   28  O5  UNL     1      16.719  12.463  77.524  1.00  0.00    -0.311 OA
BRANCH  28  29
HETATM   29  C21 UNL     1      16.834  13.226  76.400  1.00  0.00     0.289 C
HETATM   30  O6  UNL     1      16.145  12.811  75.405  1.00  0.00    -0.260 OA
BRANCH  29  31
HETATM   31  C22 UNL     1      17.632  14.429  76.213  1.00  0.00     0.009 C
HETATM   32  C23 UNL     1      18.387  14.740  74.977  1.00  0.00     0.054 C
HETATM   33  C24 UNL     1      17.693  15.332  77.209  1.00  0.00    -0.018 C
HETATM   34  C25 UNL     1      18.461  16.570  77.129  1.00  0.00     0.036 C
ENDBRANCH  29  31
ENDBRANCH  28  29
ENDBRANCH  16  28
BRANCH  19  35
HETATM   35  O7  UNL     1      14.831  11.365  79.347  1.00  0.00    -0.313 OA
BRANCH  35  36
HETATM   36  C29 UNL     1      13.627  11.766  79.841  1.00  0.00     0.255 C
HETATM   37  C30 UNL     1      13.301  11.740  81.312  1.00  0.00     0.126 C
HETATM   38  O8  UNL     1      12.707  12.188  79.073  1.00  0.00    -0.266 OA
ENDBRANCH  35  36
ENDBRANCH  19  35
TORSDOF 9
ENDMDL