MODEL 3
REMARK VINA RESULT: -8.211936470      1.047      1.406
REMARK  10 active torsions:
REMARK  status: ('A' for Active; 'I' for Inactive)
REMARK    1  A    between atoms: C2_2  and  C3_3
REMARK    2  A    between atoms: C3_3  and  C4_5
REMARK    3  A    between atoms: C4_5  and  O3_7
REMARK    4  A    between atoms: O3_7  and  C5_8
REMARK    5  A    between atoms: C7_10  and  C8_11
REMARK    6  A    between atoms: C8_11  and  O5_13
REMARK    7  A    between atoms: C19_24  and  C20_25
REMARK    8  A    between atoms: C20_25  and  C21_27
REMARK    9  A    between atoms: C21_27  and  O7_28
REMARK   10  A    between atoms: O7_28  and  C22_29
ROOT
HETATM    1  C5  UNL     1      19.609  10.441  78.459  1.00  0.00     0.134 C
HETATM    2  C6  UNL     1      18.982  11.423  77.509  1.00  0.00     0.048 C
HETATM    3  C7  UNL     1      18.132  12.442  78.192  1.00  0.00     0.097 C
HETATM    4  C10 UNL     1      16.994  11.776  78.983  1.00  0.00    -0.024 C
HETATM    5  C11 UNL     1      16.510  12.897  79.926  1.00  0.00     0.016 C
HETATM    6  C12 UNL     1      15.940  11.450  77.971  1.00  0.00     0.011 C
HETATM    7  C13 UNL     1      14.799  10.648  78.519  1.00  0.00     0.010 C
HETATM    8  C14 UNL     1      15.299   9.398  79.134  1.00  0.00     0.024 C
HETATM    9  C15 UNL     1      16.737   9.353  79.437  1.00  0.00    -0.073 C
HETATM   10  C16 UNL     1      17.103   8.069  79.353  1.00  0.00    -0.012 C
HETATM   11  C17 UNL     1      15.950   7.186  78.994  1.00  0.00    -0.008 C
HETATM   12  C18 UNL     1      15.444   6.639  80.295  1.00  0.00     0.021 C
HETATM   13  C19 UNL     1      16.314   6.176  77.958  1.00  0.00     0.070 C
HETATM   14  C24 UNL     1      15.714   6.678  76.630  1.00  0.00     0.014 C
HETATM   15  C25 UNL     1      15.600   8.182  76.927  1.00  0.00     0.012 C
HETATM   16  C26 UNL     1      15.041   8.153  78.318  1.00  0.00    -0.025 C
HETATM   17  C27 UNL     1      13.599   7.854  78.301  1.00  0.00     0.017 C
HETATM   18  C28 UNL     1      17.456  10.616  79.765  1.00  0.00     0.026 C
HETATM   19  C29 UNL     1      18.942  10.385  79.790  1.00  0.00     0.042 C
ENDROOT
BRANCH   1  20
HETATM   20  O3  UNL     1      20.994  10.746  78.675  1.00  0.00    -0.310 OA
BRANCH  20  21
HETATM   21  C4  UNL     1      22.017  10.271  77.902  1.00  0.00     0.329 C
HETATM   22  O2  UNL     1      22.269  10.800  76.811  1.00  0.00    -0.256 OA
BRANCH  21  23
HETATM   23  C3  UNL     1      22.811   9.143  78.363  1.00  0.00     0.223 C
HETATM   24  O1  UNL     1      22.258   8.138  78.840  1.00  0.00    -0.287 OA
BRANCH  23  25
HETATM   25  C2  UNL     1      24.309   9.198  78.261  1.00  0.00     0.085 C
HETATM   26  C1  UNL     1      24.748  10.368  79.101  1.00  0.00     0.013 C
ENDBRANCH  23  25
ENDBRANCH  21  23
ENDBRANCH  20  21
ENDBRANCH   1  20
BRANCH   3  27
HETATM   27  C8  UNL     1      17.616  13.394  77.216  1.00  0.00     0.263 C
HETATM   28  O4  UNL     1      17.356  14.570  77.574  1.00  0.00    -0.265 OA
BRANCH  27  29
HETATM   29  O5  UNL     1      17.377  13.106  75.879  1.00  0.00    -0.326 OA
HETATM   30  C9  UNL     1      17.980  13.737  74.787  1.00  0.00     0.213 C
ENDBRANCH  27  29
ENDBRANCH   3  27
BRANCH  13  31
HETATM   31  C20 UNL     1      15.970   4.787  78.221  1.00  0.00     0.156 C
HETATM   32  O6  UNL     1      14.851   4.381  77.844  1.00  0.00    -0.295 OA
BRANCH  31  33
HETATM   33  C21 UNL     1      16.805   3.789  78.892  1.00  0.00     0.257 C
BRANCH  33  34
HETATM   34  O7  UNL     1      18.184   4.092  78.851  1.00  0.00    -0.314 OA
BRANCH  34  35
HETATM   35  C22 UNL     1      19.100   3.075  78.613  1.00  0.00     0.255 C
HETATM   36  C23 UNL     1      18.757   1.848  77.853  1.00  0.00     0.126 C
HETATM   37  O8  UNL     1      20.259   3.226  79.071  1.00  0.00    -0.266 OA
ENDBRANCH  34  35
ENDBRANCH  33  34
ENDBRANCH  31  33
ENDBRANCH  13  31
TORSDOF 10
ENDMDL