MODEL 5
REMARK VINA RESULT: -6.952940992      2.275      7.638
REMARK  9 active torsions:
REMARK  status: ('A' for Active; 'I' for Inactive)
REMARK    1  A    between atoms: O1_2  and  C2_3
REMARK    2  A    between atoms: C2_3  and  C3_5
REMARK    3  A    between atoms: C3_5  and  C4_7
REMARK    4  A    between atoms: C4_7  and  C5_8
REMARK    5  A    between atoms: C4_7  and  C7_11
REMARK    6  A    between atoms: C8_12  and  O5_13
REMARK    7  A    between atoms: O5_13  and  C9_14
REMARK    8  A    between atoms: C19_25  and  O7_26
REMARK    9  A    between atoms: O7_26  and  C20_27
ROOT
HETATM    1  C7  UNL     1      14.901  10.411  79.228  1.00  0.00     0.038 C
HETATM    2  C8  UNL     1      16.194   9.784  78.841  1.00  0.00     0.138 C
HETATM    3  C11 UNL     1      16.881  10.748  77.887  1.00  0.00     0.043 C
HETATM    4  C12 UNL     1      17.281  12.067  78.481  1.00  0.00    -0.025 C
HETATM    5  C13 UNL     1      17.939  11.794  79.867  1.00  0.00     0.016 C
HETATM    6  C14 UNL     1      16.015  12.730  78.975  1.00  0.00     0.002 C
HETATM    7  C15 UNL     1      15.534  13.844  78.062  1.00  0.00     0.033 C
HETATM    8  C16 UNL     1      16.717  14.769  77.990  1.00  0.00    -0.023 C
HETATM    9  C17 UNL     1      17.915  14.273  77.854  1.00  0.00    -0.071 C
HETATM   10  C18 UNL     1      19.069  15.208  77.783  1.00  0.00     0.067 C
HETATM   11  C19 UNL     1      19.447  15.115  76.309  1.00  0.00     0.136 C
HETATM   12  C22 UNL     1      18.867  14.000  75.559  1.00  0.00     0.042 C
HETATM   13  C23 UNL     1      18.539  12.679  76.249  1.00  0.00    -0.033 C
HETATM   14  C24 UNL     1      17.504  12.066  75.352  1.00  0.00     0.016 C
HETATM   15  C25 UNL     1      19.756  11.807  75.953  1.00  0.00     0.016 C
HETATM   16  C26 UNL     1      18.245  12.832  77.701  1.00  0.00    -0.006 C
HETATM   17  C27 UNL     1      19.638  12.664  78.340  1.00  0.00     0.021 C
HETATM   18  C28 UNL     1      14.900  11.893  79.397  1.00  0.00    -0.006 C
HETATM   19  C29 UNL     1      14.610  12.205  80.888  1.00  0.00     0.011 C
ENDROOT
BRANCH   1  20
HETATM   20  C4  UNL     1      13.793  10.094  78.241  1.00  0.00     0.142 C
BRANCH  20  21
HETATM   21  C3  UNL     1      12.484   9.766  78.833  1.00  0.00     0.235 C
HETATM   22  O3  UNL     1      11.397   9.923  78.174  1.00  0.00    -0.286 OA
BRANCH  21  23
HETATM   23  C2  UNL     1      12.332   9.260  80.182  1.00  0.00     0.329 C
HETATM   24  O2  UNL     1      11.967   9.921  81.184  1.00  0.00    -0.256 OA
BRANCH  23  25
HETATM   25  O1  UNL     1      12.610   7.908  80.420  1.00  0.00    -0.320 OA
HETATM   26  C1  UNL     1      11.673   6.891  80.043  1.00  0.00     0.213 C
ENDBRANCH  23  25
ENDBRANCH  21  23
ENDBRANCH  20  21
BRANCH  20  27
HETATM   27  C5  UNL     1      14.090   9.105  77.212  1.00  0.00     0.135 C
HETATM   28  C6  UNL     1      14.147   7.640  77.368  1.00  0.00     0.091 C
HETATM   29  O4  UNL     1      14.334   9.496  76.053  1.00  0.00    -0.298 OA
ENDBRANCH  20  27
ENDBRANCH   1  20
BRANCH   2  30
HETATM   30  O5  UNL     1      17.059   9.266  79.732  1.00  0.00    -0.316 OA
BRANCH  30  31
HETATM   31  C9  UNL     1      17.798   8.123  79.748  1.00  0.00     0.255 C
HETATM   32  C10 UNL     1      19.217   8.044  80.183  1.00  0.00     0.126 C
HETATM   33  O6  UNL     1      17.199   7.110  79.367  1.00  0.00    -0.266 OA
ENDBRANCH  30  31
ENDBRANCH   2  30
BRANCH  11  34
HETATM   34  O7  UNL     1      20.817  15.386  76.091  1.00  0.00    -0.316 OA
BRANCH  34  35
HETATM   35  C20 UNL     1      21.858  14.969  76.878  1.00  0.00     0.255 C
HETATM   36  C21 UNL     1      22.632  13.729  76.668  1.00  0.00     0.126 C
HETATM   37  O8  UNL     1      22.180  15.701  77.856  1.00  0.00    -0.266 OA
ENDBRANCH  34  35
ENDBRANCH  11  34
TORSDOF 9
ENDMDL