MODEL 4
REMARK VINA RESULT: -7.810300156      3.873      7.258
REMARK  9 active torsions:
REMARK  status: ('A' for Active; 'I' for Inactive)
REMARK    1  A    between atoms: C2_2  and  C3_3
REMARK    2  A    between atoms: C3_3  and  C5_5
REMARK    3  A    between atoms: C3_3  and  C8_10
REMARK    4  A    between atoms: C5_5  and  O1_6
REMARK    5  A    between atoms: O1_6  and  C6_7
REMARK    6  A    between atoms: C16_18  and  O3_19
REMARK    7  A    between atoms: O3_19  and  C17_20
REMARK    8  A    between atoms: C17_20  and  C18_22
REMARK    9  A    between atoms: C25_33  and  O9_34
ROOT
HETATM    1  C8  UNL     1      17.866  14.393  78.371  1.00  0.00     0.001 C
HETATM    2  C9  UNL     1      16.963  13.160  78.192  1.00  0.00     0.006 C
HETATM    3  C10 UNL     1      17.543  12.088  77.351  1.00  0.00     0.009 C
HETATM    4  C11 UNL     1      17.852  12.637  76.002  1.00  0.00    -0.043 C
HETATM    5  C12 UNL     1      18.612  11.584  75.229  1.00  0.00     0.015 C
HETATM    6  C13 UNL     1      16.651  13.015  75.210  1.00  0.00     0.015 C
HETATM    7  C14 UNL     1      18.812  13.812  76.232  1.00  0.00     0.003 C
HETATM    8  C15 UNL     1      20.039  13.242  76.818  1.00  0.00     0.067 C
HETATM    9  C16 UNL     1      21.210  14.223  76.935  1.00  0.00     0.273 C
HETATM   10  O7  UNL     1      20.834  15.140  77.878  1.00  0.00    -0.330 OA
HETATM   11  C23 UNL     1      20.247  16.277  77.468  1.00  0.00     0.277 C
HETATM   12  O8  UNL     1      20.845  16.765  76.287  1.00  0.00    -0.351 OA
HETATM   13  C24 UNL     1      19.663  16.498  75.659  1.00  0.00     0.171 A
HETATM   14  C25 UNL     1      18.439  17.256  75.885  1.00  0.00     0.167 A
HETATM   15  C27 UNL     1      18.898  16.187  76.871  1.00  0.00     0.071 A
HETATM   16  C28 UNL     1      18.145  14.919  77.052  1.00  0.00     0.014 C
ENDROOT
BRANCH   9  17
HETATM   17  O3  UNL     1      22.331  13.434  77.378  1.00  0.00    -0.287 OA
BRANCH  17  18
HETATM   18  C17 UNL     1      23.125  12.752  76.480  1.00  0.00     0.292 C
HETATM   19  O4  UNL     1      23.281  13.247  75.338  1.00  0.00    -0.262 OA
BRANCH  18  20
HETATM   20  C18 UNL     1      23.804  11.472  76.784  1.00  0.00     0.248 C
HETATM   21  C19 UNL     1      24.380  11.491  78.182  1.00  0.00     0.213 C
HETATM   22  O5  UNL     1      23.495  10.746  78.915  1.00  0.00    -0.353 OA
HETATM   23  C20 UNL     1      22.699  10.020  78.068  1.00  0.00     0.158 C
HETATM   24  C21 UNL     1      21.259  10.179  78.552  1.00  0.00     0.078 C
HETATM   25  C22 UNL     1      22.997   8.524  78.133  1.00  0.00     0.078 C
HETATM   26  O6  UNL     1      22.875  10.463  76.785  1.00  0.00    -0.339 OA
ENDBRANCH  18  20
ENDBRANCH  17  18
ENDBRANCH   9  17
BRANCH   1  27
HETATM   27  C3  UNL     1      17.226  15.126  79.468  1.00  0.00    -0.018 C
HETATM   28  C4  UNL     1      16.157  16.014  78.792  1.00  0.00     0.018 C
BRANCH  27  29
HETATM   29  C2  UNL     1      18.047  16.078  80.264  1.00  0.00     0.007 C
HETATM   30  C1  UNL     1      17.391  17.198  80.950  1.00  0.00     0.006 C
ENDBRANCH  27  29
BRANCH  27  31
HETATM   31  C5  UNL     1      16.422  14.308  80.449  1.00  0.00     0.188 C
BRANCH  31  32
HETATM   32  O1  UNL     1      15.074  14.698  80.215  1.00  0.00    -0.321 OA
BRANCH  32  33
HETATM   33  C6  UNL     1      13.992  13.911  80.538  1.00  0.00     0.254 C
HETATM   34  C7  UNL     1      14.202  12.491  80.874  1.00  0.00     0.126 C
HETATM   35  O2  UNL     1      12.862  14.470  80.527  1.00  0.00    -0.266 OA
ENDBRANCH  32  33
ENDBRANCH  31  32
ENDBRANCH  27  31
ENDBRANCH   1  27
BRANCH  14  36
HETATM   36  O9  UNL     1      17.351  16.924  75.123  1.00  0.00    -0.387 OA
HETATM   37  C26 UNL     1      16.528  18.064  74.961  1.00  0.00     0.202 C
ENDBRANCH  14  36
TORSDOF 9
ENDMDL