MODEL 2
REMARK VINA RESULT: -8.022479353      1.383      2.138
REMARK  10 active torsions:
REMARK  status: ('A' for Active; 'I' for Inactive)
REMARK    1  A    between atoms: O1_2  and  C2_3
REMARK    2  A    between atoms: C2_3  and  C3_5
REMARK    3  A    between atoms: C3_5  and  C4_6
REMARK    4  A    between atoms: C4_6  and  C5_7
REMARK    5  A    between atoms: C5_7  and  O4_9
REMARK    6  A    between atoms: O4_9  and  C6_10
REMARK    7  A    between atoms: C7_11  and  O5_12
REMARK    8  A    between atoms: O5_12  and  C8_13
REMARK    9  A    between atoms: C13_19  and  O7_20
REMARK   10  A    between atoms: O7_20  and  C14_21
ROOT
HETATM    1  C6  UNL     1      19.167  14.683  77.669  1.00  0.00     0.170 C
HETATM    2  C7  UNL     1      18.328  13.494  77.379  1.00  0.00     0.170 C
HETATM    3  C10 UNL     1      18.997  12.192  77.295  1.00  0.00    -0.008 C
HETATM    4  C11 UNL     1      18.431  11.485  76.047  1.00  0.00     0.018 C
HETATM    5  C12 UNL     1      18.567  11.254  78.438  1.00  0.00     0.045 C
HETATM    6  C13 UNL     1      19.833  10.369  78.526  1.00  0.00     0.137 C
HETATM    7  C16 UNL     1      20.834  11.489  78.544  1.00  0.00     0.022 C
HETATM    8  C17 UNL     1      22.198  11.242  78.950  1.00  0.00     0.021 C
HETATM    9  C18 UNL     1      23.241  10.652  78.127  1.00  0.00    -0.020 C
HETATM   10  C19 UNL     1      24.617  10.971  78.704  1.00  0.00     0.020 C
HETATM   11  C20 UNL     1      23.226   9.182  77.791  1.00  0.00     0.018 C
HETATM   12  C21 UNL     1      23.682   9.649  76.401  1.00  0.00     0.036 C
HETATM   13  C22 UNL     1      23.240  11.025  76.695  1.00  0.00    -0.075 C
HETATM   14  C23 UNL     1      22.945  12.136  76.055  1.00  0.00    -0.023 C
HETATM   15  C24 UNL     1      22.481  13.513  76.440  1.00  0.00     0.033 C
HETATM   16  C25 UNL     1      21.198  13.486  77.254  1.00  0.00     0.005 C
HETATM   17  C26 UNL     1      20.504  12.192  77.278  1.00  0.00     0.008 C
HETATM   18  C27 UNL     1      20.380  14.670  76.784  1.00  0.00    -0.014 C
HETATM   19  C28 UNL     1      20.067  14.653  75.333  1.00  0.00     0.018 C
HETATM   20  C29 UNL     1      21.194  15.919  77.160  1.00  0.00     0.018 C
ENDROOT
BRANCH   1  21
HETATM   21  O4  UNL     1      18.424  15.856  77.292  1.00  0.00    -0.312 OA
BRANCH  21  22
HETATM   22  C5  UNL     1      17.822  16.702  78.178  1.00  0.00     0.259 C
HETATM   23  O3  UNL     1      18.059  16.577  79.405  1.00  0.00    -0.265 OA
BRANCH  22  24
HETATM   24  C4  UNL     1      16.892  17.766  77.691  1.00  0.00     0.121 C
BRANCH  24  25
HETATM   25  C3  UNL     1      17.516  18.541  76.540  1.00  0.00     0.121 C
BRANCH  25  26
HETATM   26  C2  UNL     1      16.835  18.148  75.284  1.00  0.00     0.258 C
HETATM   27  O2  UNL     1      17.331  17.363  74.437  1.00  0.00    -0.265 OA
BRANCH  26  28
HETATM   28  O1  UNL     1      15.553  18.655  74.975  1.00  0.00    -0.326 OA
HETATM   29  C1  UNL     1      15.349  20.046  74.962  1.00  0.00     0.213 C
ENDBRANCH  26  28
ENDBRANCH  25  26
ENDBRANCH  24  25
ENDBRANCH  22  24
ENDBRANCH  21  22
ENDBRANCH   1  21
BRANCH   2  30
HETATM   30  O5  UNL     1      17.338  13.428  78.417  1.00  0.00    -0.313 OA
BRANCH  30  31
HETATM   31  C8  UNL     1      15.975  13.395  78.158  1.00  0.00     0.255 C
HETATM   32  C9  UNL     1      15.130  12.220  78.538  1.00  0.00     0.126 C
HETATM   33  O6  UNL     1      15.455  14.389  77.588  1.00  0.00    -0.266 OA
ENDBRANCH  30  31
ENDBRANCH   2  30
BRANCH   6  34
HETATM   34  O7  UNL     1      19.857   9.636  79.725  1.00  0.00    -0.316 OA
BRANCH  34  35
HETATM   35  C14 UNL     1      19.696   8.280  79.824  1.00  0.00     0.255 C
HETATM   36  C15 UNL     1      18.336   7.730  80.104  1.00  0.00     0.126 C
HETATM   37  O8  UNL     1      20.685   7.533  79.679  1.00  0.00    -0.266 OA
ENDBRANCH  34  35
ENDBRANCH   6  34
TORSDOF 10
ENDMDL