MODEL 5
REMARK VINA RESULT: -7.317791959      1.606      8.130
REMARK  9 active torsions:
REMARK  status: ('A' for Active; 'I' for Inactive)
REMARK    1  A    between atoms: C2_2  and  C3_3
REMARK    2  A    between atoms: C2_2  and  C5_7
REMARK    3  A    between atoms: C3_3  and  O2_5
REMARK    4  A    between atoms: C7_9  and  O3_10
REMARK    5  A    between atoms: O3_10  and  C8_11
REMARK    6  A    between atoms: C19_24  and  O6_25
REMARK    7  A    between atoms: O6_25  and  C20_26
REMARK    8  A    between atoms: C22_29  and  C23_30
REMARK    9  A    between atoms: C23_30  and  C24_31
ROOT
HETATM    1  C5  UNL     1      20.217  11.379  77.166  1.00  0.00     0.038 C
HETATM    2  C6  UNL     1      19.954  12.250  75.946  1.00  0.00     0.043 C
HETATM    3  C7  UNL     1      18.772  13.052  76.267  1.00  0.00     0.142 C
HETATM    4  C10 UNL     1      18.030  12.337  77.415  1.00  0.00    -0.002 C
HETATM    5  C11 UNL     1      17.390  13.414  78.203  1.00  0.00     0.019 C
HETATM    6  C12 UNL     1      19.186  11.745  78.206  1.00  0.00     0.075 C
HETATM    7  C13 UNL     1      18.808  10.528  78.951  1.00  0.00     0.133 C
HETATM    8  O5  UNL     1      19.739   9.772  79.179  1.00  0.00    -0.298 OA
HETATM    9  C14 UNL     1      17.518   9.995  79.506  1.00  0.00     0.085 C
HETATM   10  C15 UNL     1      16.734   9.465  78.334  1.00  0.00     0.014 C
HETATM   11  C16 UNL     1      15.857   8.354  78.723  1.00  0.00    -0.014 C
HETATM   12  C17 UNL     1      15.009   8.746  79.921  1.00  0.00     0.018 C
HETATM   13  C18 UNL     1      16.820   7.276  79.273  1.00  0.00     0.018 C
HETATM   14  C19 UNL     1      15.057   7.707  77.655  1.00  0.00     0.169 C
HETATM   15  C22 UNL     1      15.384   7.984  76.248  1.00  0.00     0.152 C
HETATM   16  O8  UNL     1      16.185   9.051  75.953  1.00  0.00    -0.377 OA
HETATM   17  C26 UNL     1      15.575  10.233  76.250  1.00  0.00     0.131 C
HETATM   18  C27 UNL     1      16.253  11.507  75.738  1.00  0.00     0.039 C
HETATM   19  C28 UNL     1      17.239  11.276  76.849  1.00  0.00     0.010 C
HETATM   20  C29 UNL     1      16.146  10.636  77.624  1.00  0.00    -0.009 C
HETATM   21  C30 UNL     1      15.115  11.436  78.292  1.00  0.00     0.018 C
ENDROOT
BRANCH   1  22
HETATM   22  C2  UNL     1      21.618  11.492  77.638  1.00  0.00     0.013 C
HETATM   23  C1  UNL     1      22.197  10.674  78.478  1.00  0.00     0.025 C
BRANCH  22  24
HETATM   24  C3  UNL     1      22.405  12.606  77.122  1.00  0.00     0.288 C
HETATM   25  O1  UNL     1      23.342  12.460  76.291  1.00  0.00    -0.260 OA
BRANCH  24  26
HETATM   26  O2  UNL     1      22.142  13.897  77.541  1.00  0.00    -0.323 OA
HETATM   27  C4  UNL     1      23.102  14.936  77.489  1.00  0.00     0.213 C
ENDBRANCH  24  26
ENDBRANCH  22  24
ENDBRANCH   1  22
BRANCH   3  28
HETATM   28  O3  UNL     1      18.936  14.407  76.515  1.00  0.00    -0.316 OA
BRANCH  28  29
HETATM   29  C8  UNL     1      19.227  15.397  75.655  1.00  0.00     0.255 C
HETATM   30  C9  UNL     1      18.484  15.614  74.412  1.00  0.00     0.126 C
HETATM   31  O4  UNL     1      20.171  16.136  75.962  1.00  0.00    -0.266 OA
ENDBRANCH  28  29
ENDBRANCH   3  28
BRANCH  14  32
HETATM   32  O6  UNL     1      13.686   8.056  77.884  1.00  0.00    -0.313 OA
BRANCH  32  33
HETATM   33  C20 UNL     1      12.704   7.186  78.259  1.00  0.00     0.255 C
HETATM   34  C21 UNL     1      12.951   5.731  78.315  1.00  0.00     0.126 C
HETATM   35  O7  UNL     1      11.568   7.689  78.558  1.00  0.00    -0.266 OA
ENDBRANCH  32  33
ENDBRANCH  14  32
BRANCH  15  36
HETATM   36  C23 UNL     1      14.083   7.997  75.426  1.00  0.00     0.034 C
BRANCH  36  37
HETATM   37  C24 UNL     1      13.851   6.667  74.763  1.00  0.00    -0.002 C
HETATM   38  C25 UNL     1      13.574   6.887  73.314  1.00  0.00     0.005 C
ENDBRANCH  36  37
ENDBRANCH  15  36
TORSDOF 9
ENDMDL