MODEL 4
REMARK VINA RESULT: -7.708853710      1.442      1.673
REMARK  10 active torsions:
REMARK  status: ('A' for Active; 'I' for Inactive)
REMARK    1  A    between atoms: C2_2  and  C3_3
REMARK    2  A    between atoms: C3_3  and  O2_5
REMARK    3  A    between atoms: O2_5  and  C4_6
REMARK    4  A    between atoms: C7_9  and  C8_10
REMARK    5  A    between atoms: C8_10  and  O3_11
REMARK    6  A    between atoms: O3_11  and  C9_12
REMARK    7  A    between atoms: C9_12  and  C10_14
REMARK       I    between atoms: C10_14  and  N1_16
REMARK    8  A    between atoms: C22_29  and  O6_30
REMARK    9  A    between atoms: O6_30  and  C23_31
REMARK   10  A    between atoms: C23_31  and  C24_33
ROOT
HETATM    1  C4  UNL     1      20.842  11.873  77.297  1.00  0.00     0.169 C
HETATM    2  C5  UNL     1      19.692  11.366  76.512  1.00  0.00     0.041 C
HETATM    3  C6  UNL     1      18.353  11.581  77.098  1.00  0.00     0.006 C
HETATM    4  C7  UNL     1      18.224  10.981  78.445  1.00  0.00     0.015 C
HETATM    5  C14 UNL     1      18.071  12.139  79.406  1.00  0.00     0.013 C
HETATM    6  C15 UNL     1      17.786  13.387  78.627  1.00  0.00     0.005 C
HETATM    7  C16 UNL     1      16.433  13.900  78.942  1.00  0.00    -0.043 C
HETATM    8  C17 UNL     1      15.734  13.287  80.133  1.00  0.00     0.015 C
HETATM    9  C18 UNL     1      16.440  15.396  79.258  1.00  0.00     0.015 C
HETATM   10  C19 UNL     1      15.590  13.614  77.740  1.00  0.00     0.010 C
HETATM   11  C20 UNL     1      16.476  13.023  76.711  1.00  0.00     0.014 C
HETATM   12  C21 UNL     1      17.913  13.043  77.186  1.00  0.00    -0.003 C
HETATM   13  C22 UNL     1      18.664  13.949  76.325  1.00  0.00     0.173 C
HETATM   14  C26 UNL     1      20.125  14.197  76.578  1.00  0.00     0.190 A
HETATM   15  O9  UNL     1      20.656  14.261  77.849  1.00  0.00    -0.364 OA
HETATM   16  C27 UNL     1      21.072  13.299  76.907  1.00  0.00     0.113 A
HETATM   17  C28 UNL     1      22.548  13.550  76.532  1.00  0.00     0.051 C
ENDROOT
BRANCH   4  18
HETATM   18  C8  UNL     1      17.053  10.020  78.566  1.00  0.00     0.184 C
BRANCH  18  19
HETATM   19  O3  UNL     1      17.168   9.157  79.648  1.00  0.00    -0.313 OA
BRANCH  19  20
HETATM   20  C9  UNL     1      16.982   7.789  79.408  1.00  0.00     0.351 C
HETATM   21  O4  UNL     1      17.814   6.961  79.898  1.00  0.00    -0.254 OA
BRANCH  20  22
HETATM   22  C10 UNL     1      15.866   7.311  78.619  1.00  0.00     0.321 C
HETATM   23  O5  UNL     1      16.042   6.568  77.626  1.00  0.00    -0.261 OA
HETATM   24  N1  UNL     1      14.552   7.686  78.966  1.00  0.00    -0.327 N
HETATM   25  C11 UNL     1      13.900   7.277  79.981  1.00  0.00    -0.018 C
ATOM     26  H1  UNL     1      14.080   8.345  78.346  1.00  0.00     0.168 HD
HETATM   27  C12 UNL     1      12.520   7.749  80.236  1.00  0.00     0.062 C
HETATM   28  C13 UNL     1      14.498   6.316  80.941  1.00  0.00     0.062 C
ENDBRANCH  20  22
ENDBRANCH  19  20
ENDBRANCH  18  19
ENDBRANCH   4  18
BRANCH   1  29
HETATM   29  O2  UNL     1      21.957  11.025  76.971  1.00  0.00    -0.313 OA
BRANCH  29  30
HETATM   30  C3  UNL     1      22.385  10.000  77.769  1.00  0.00     0.258 C
HETATM   31  O1  UNL     1      21.552   9.433  78.515  1.00  0.00    -0.265 OA
BRANCH  30  32
HETATM   32  C2  UNL     1      23.802   9.527  77.791  1.00  0.00     0.106 C
HETATM   33  C1  UNL     1      24.622  10.583  78.513  1.00  0.00     0.015 C
ENDBRANCH  30  32
ENDBRANCH  29  30
ENDBRANCH   1  29
BRANCH  13  34
HETATM   34  O6  UNL     1      17.974  15.170  76.145  1.00  0.00    -0.306 OA
BRANCH  34  35
HETATM   35  C23 UNL     1      18.321  16.050  75.158  1.00  0.00     0.329 C
HETATM   36  O7  UNL     1      18.214  15.666  73.989  1.00  0.00    -0.256 OA
BRANCH  35  37
HETATM   37  C24 UNL     1      18.802  17.397  75.382  1.00  0.00     0.220 C
HETATM   38  C25 UNL     1      17.931  18.592  75.400  1.00  0.00     0.103 C
HETATM   39  O8  UNL     1      20.029  17.561  75.572  1.00  0.00    -0.287 OA
ENDBRANCH  35  37
ENDBRANCH  34  35
ENDBRANCH  13  34
TORSDOF 10
ENDMDL