MODEL 5
REMARK VINA RESULT: -8.781979021      2.604      4.524
REMARK  17 active torsions:
REMARK  status: ('A' for Active; 'I' for Inactive)
REMARK    1  A    between atoms: N1_1  and  C1_4
REMARK    2  A    between atoms: C2_7  and  N3_8
REMARK    3  A    between atoms: N3_8  and  C3_10
REMARK    4  A    between atoms: C6_15  and  O3_16
REMARK    5  A    between atoms: C6_15  and  C7_18
REMARK    6  A    between atoms: C7_18  and  O4_19
REMARK    7  A    between atoms: N6_26  and  C9_27
REMARK    8  A    between atoms: C10_29  and  C11_30
REMARK    9  A    between atoms: C11_30  and  N7_31
REMARK   10  A    between atoms: C11_30  and  C12_35
REMARK   11  A    between atoms: C12_35  and  O6_36
REMARK   12  A    between atoms: C12_35  and  C13_38
REMARK   13  A    between atoms: C13_38  and  O7_39
REMARK   14  A    between atoms: C13_38  and  C14_41
REMARK   15  A    between atoms: C14_41  and  O8_42
REMARK   16  A    between atoms: C15_44  and  O9_45
REMARK   17  A    between atoms: C16_47  and  O10_48
ROOT
HETATM    1  C1  UNL     1      33.907  39.751  50.899  1.00  0.00     0.679 A
HETATM    2  N2  UNL     1      32.567  39.810  50.978  1.00  0.00    -0.175 N
ATOM      3  H2  UNL     1      32.119  40.702  50.767  1.00  0.00     0.186 HD
HETATM    4  C2  UNL     1      31.782  38.787  51.313  1.00  0.00     0.150 A
HETATM    5  C8  UNL     1      32.396  37.567  51.601  1.00  0.00     0.140 A
HETATM    6  N4  UNL     1      31.967  36.359  51.962  1.00  0.00    -0.279 N
ATOM      7  H4  UNL     1      30.995  36.085  52.107  1.00  0.00     0.189 HD
HETATM    8  N5  UNL     1      33.023  35.579  52.099  1.00  0.00    -0.236 N
ATOM      9  H5  UNL     1      32.979  34.597  52.370  1.00  0.00     0.208 HD
HETATM   10  N6  UNL     1      34.138  36.225  51.843  1.00  0.00    -0.227 N
HETATM   11  C17 UNL     1      33.763  37.496  51.523  1.00  0.00     0.173 A
HETATM   12  N8  UNL     1      34.494  38.574  51.177  1.00  0.00    -0.173 N
ATOM     13  H8  UNL     1      35.510  38.495  51.126  1.00  0.00     0.186 HD
ENDROOT
BRANCH  10  14
HETATM   14  C9  UNL     1      35.505  35.791  51.863  1.00  0.00     0.279 C
HETATM   15  O5  UNL     1      36.254  36.252  50.814  1.00  0.00    -0.352 OA
HETATM   16  C10 UNL     1      37.184  35.287  50.472  1.00  0.00     0.188 C
HETATM   17  C15 UNL     1      37.069  34.143  51.393  1.00  0.00     0.182 C
HETATM   18  C16 UNL     1      35.617  34.268  51.859  1.00  0.00     0.200 C
BRANCH  16  19
HETATM   19  C11 UNL     1      38.521  35.927  50.354  1.00  0.00     0.246 C
BRANCH  19  20
HETATM   20  N7  UNL     1      38.338  37.212  49.671  1.00  0.00    -0.070 N
ATOM     21  H73 UNL     1      37.488  37.245  49.108  1.00  0.00     0.274 HD
ATOM     22  H72 UNL     1      38.105  37.971  50.310  1.00  0.00     0.274 HD
ATOM     23  H71 UNL     1      39.181  37.394  49.127  1.00  0.00     0.274 HD
ENDBRANCH  19  20
BRANCH  19  24
HETATM   24  C12 UNL     1      39.539  35.158  49.582  1.00  0.00     0.181 C
BRANCH  24  25
HETATM   25  O6  UNL     1      39.661  35.642  48.282  1.00  0.00    -0.391 OA
ATOM     26  H6  UNL     1      39.956  34.963  47.686  1.00  0.00     0.210 HD
ENDBRANCH  24  25
BRANCH  24  27
HETATM   27  C13 UNL     1      40.883  35.357  50.252  1.00  0.00     0.172 C
BRANCH  27  28
HETATM   28  O7  UNL     1      40.870  36.472  51.108  1.00  0.00    -0.391 OA
ATOM     29  H7  UNL     1      40.030  36.564  51.543  1.00  0.00     0.210 HD
ENDBRANCH  27  28
BRANCH  27  30
HETATM   30  C14 UNL     1      41.261  34.165  51.106  1.00  0.00     0.198 C
BRANCH  30  31
HETATM   31  O8  UNL     1      40.368  33.103  50.832  1.00  0.00    -0.398 OA
ATOM     32  H8  UNL     1      40.394  32.485  51.554  1.00  0.00     0.209 HD
ENDBRANCH  30  31
ENDBRANCH  27  30
ENDBRANCH  24  27
ENDBRANCH  19  24
ENDBRANCH  16  19
BRANCH  17  33
HETATM   33  O9  UNL     1      37.842  34.192  52.523  1.00  0.00    -0.390 OA
ATOM     34  H9  UNL     1      38.776  34.304  52.391  1.00  0.00     0.210 HD
ENDBRANCH  17  33
BRANCH  18  35
HETATM   35  O10 UNL     1      34.760  33.773  50.883  1.00  0.00    -0.388 OA
ATOM     36  H10 UNL     1      35.077  32.918  50.616  1.00  0.00     0.210 HD
ENDBRANCH  18  35
ENDBRANCH  10  14
BRANCH   4  37
HETATM   37  N3  UNL     1      30.517  38.815  51.396  1.00  0.00    -0.357 N
ATOM     38  H3  UNL     1      30.012  38.345  50.644  1.00  0.00     0.162 HD
BRANCH  37  39
HETATM   39  C3  UNL     1      29.708  39.416  52.402  1.00  0.00     0.222 C
HETATM   40  C4  UNL     1      28.738  38.450  53.008  1.00  0.00     0.285 C
HETATM   41  O1  UNL     1      28.974  37.228  53.170  1.00  0.00    -0.263 OA
HETATM   42  O2  UNL     1      27.604  39.153  53.327  1.00  0.00    -0.317 OA
HETATM   43  C5  UNL     1      27.627  40.450  52.731  1.00  0.00     0.221 C
HETATM   44  C6  UNL     1      28.734  40.373  51.703  1.00  0.00     0.130 C
BRANCH  44  45
HETATM   45  O3  UNL     1      28.277  39.790  50.547  1.00  0.00    -0.383 OA
ATOM     46  H3  UNL     1      28.929  39.893  49.864  1.00  0.00     0.210 HD
ENDBRANCH  44  45
BRANCH  44  47
HETATM   47  C7  UNL     1      29.384  41.722  51.484  1.00  0.00     0.206 C
BRANCH  47  48
HETATM   48  O4  UNL     1      30.525  41.775  52.265  1.00  0.00    -0.398 OA
ATOM     49  H4  UNL     1      30.274  41.582  53.161  1.00  0.00     0.209 HD
ENDBRANCH  47  48
ENDBRANCH  44  47
ENDBRANCH  37  39
ENDBRANCH   4  37
BRANCH   1  50
HETATM   50  N1  UNL     1      34.581  40.799  50.565  1.00  0.00    -0.234 N
ATOM     51  H12 UNL     1      35.515  40.990  50.930  1.00  0.00     0.174 HD
ATOM     52  H11 UNL     1      34.184  41.475  49.913  1.00  0.00     0.174 HD
ENDBRANCH   1  50
TORSDOF 17
ENDMDL