MODEL 1
REMARK VINA RESULT: -8.976982140      0.000      0.000
REMARK  18 active torsions:
REMARK  status: ('A' for Active; 'I' for Inactive)
REMARK    1  A    between atoms: N1_2  and  C3_4
REMARK    2  A    between atoms: C3_4  and  C4_5
REMARK    3  A    between atoms: C5_7  and  N2_8
REMARK    4  A    between atoms: C7_13  and  N4_14
REMARK    5  A    between atoms: N4_14  and  C8_16
REMARK    6  A    between atoms: C8_16  and  O3_17
REMARK    7  A    between atoms: C8_16  and  C9_20
REMARK    8  A    between atoms: C8_16  and  C10_25
REMARK    9  A    between atoms: O3_17  and  O4_18
REMARK   10  A    between atoms: C9_20  and  O5_21
REMARK   11  A    between atoms: C9_20  and  O6_23
REMARK   12  A    between atoms: C10_25  and  O7_26
REMARK   13  A    between atoms: C10_25  and  C11_28
REMARK   14  A    between atoms: C11_28  and  O8_29
REMARK   15  A    between atoms: C11_28  and  O9_31
REMARK   16  A    between atoms: C13_34  and  N5_35
REMARK   17  A    between atoms: C16_44  and  O10_45
REMARK   18  A    between atoms: C17_47  and  O11_48
ROOT
HETATM    1  N2  UNL     1      34.865  37.444  51.245  1.00  0.00    -0.254 N
HETATM    2  C6  UNL     1      34.893  36.149  51.585  1.00  0.00     0.332 A
HETATM    3  O2  UNL     1      33.975  35.642  52.281  1.00  0.00    -0.246 OA
HETATM    4  N3  UNL     1      35.910  35.332  51.196  1.00  0.00    -0.293 N
ATOM      5  H3  UNL     1      35.921  34.347  51.460  1.00  0.00     0.172 HD
HETATM    6  C7  UNL     1      36.895  35.857  50.456  1.00  0.00     0.125 A
HETATM    7  C12 UNL     1      36.902  37.207  50.078  1.00  0.00     0.096 A
HETATM    8  C13 UNL     1      37.902  37.770  49.316  1.00  0.00     0.117 A
HETATM    9  N6  UNL     1      37.831  39.070  48.999  1.00  0.00    -0.338 N
ATOM     10  H6  UNL     1      38.561  39.506  48.436  1.00  0.00     0.168 HD
HETATM   11  C14 UNL     1      36.778  39.796  49.436  1.00  0.00     0.183 A
HETATM   12  N7  UNL     1      35.797  39.265  50.177  1.00  0.00    -0.337 N
ATOM     13  H7  UNL     1      35.018  39.847  50.487  1.00  0.00     0.168 HD
HETATM   14  C15 UNL     1      35.838  37.982  50.507  1.00  0.00     0.132 A
ENDROOT
BRANCH   6  15
HETATM   15  N4  UNL     1      37.885  35.186  50.055  1.00  0.00    -0.335 N
ATOM     16  H4  UNL     1      38.242  35.438  49.133  1.00  0.00     0.164 HD
BRANCH  15  17
HETATM   17  C8  UNL     1      38.593  34.095  50.727  1.00  0.00     0.249 C
BRANCH  17  18
HETATM   18  O3  UNL     1      38.861  34.417  52.025  1.00  0.00    -0.202 OA
BRANCH  18  19
HETATM   19  O4  UNL     1      39.795  35.218  52.315  1.00  0.00    -0.248 OA
ATOM     20  H4  UNL     1      40.256  35.151  53.143  1.00  0.00     0.253 HD
ENDBRANCH  18  19
ENDBRANCH  17  18
BRANCH  17  21
HETATM   21  C9  UNL     1      39.971  33.863  50.078  1.00  0.00     0.316 C
BRANCH  21  22
HETATM   22  O5  UNL     1      40.628  35.014  49.751  1.00  0.00    -0.367 OA
ATOM     23  H5  UNL     1      41.235  34.917  49.027  1.00  0.00     0.212 HD
ENDBRANCH  21  22
BRANCH  21  24
HETATM   24  O6  UNL     1      40.733  33.042  50.899  1.00  0.00    -0.367 OA
ATOM     25  H6  UNL     1      41.296  32.498  50.363  1.00  0.00     0.212 HD
ENDBRANCH  21  24
ENDBRANCH  17  21
BRANCH  17  26
HETATM   26  C10 UNL     1      37.738  32.887  50.455  1.00  0.00     0.236 C
BRANCH  26  27
HETATM   27  O7  UNL     1      38.440  32.171  49.429  1.00  0.00    -0.385 OA
ATOM     28  H7  UNL     1      39.294  31.991  49.804  1.00  0.00     0.210 HD
ENDBRANCH  26  27
BRANCH  26  29
HETATM   29  C11 UNL     1      37.505  31.932  51.554  1.00  0.00     0.287 C
BRANCH  29  30
HETATM   30  O8  UNL     1      38.576  31.623  52.365  1.00  0.00    -0.369 OA
ATOM     31  H8  UNL     1      38.394  31.430  53.277  1.00  0.00     0.212 HD
ENDBRANCH  29  30
BRANCH  29  32
HETATM   32  O9  UNL     1      36.519  32.515  52.396  1.00  0.00    -0.369 OA
ATOM     33  H9  UNL     1      36.695  32.202  53.276  1.00  0.00     0.212 HD
ENDBRANCH  29  32
ENDBRANCH  26  29
ENDBRANCH  17  26
ENDBRANCH  15  17
ENDBRANCH   6  15
BRANCH   8  34
HETATM   34  N5  UNL     1      38.878  37.040  48.930  1.00  0.00    -0.385 N
ATOM     35  H52 UNL     1      39.455  36.525  49.595  1.00  0.00     0.157 HD
ATOM     36  H51 UNL     1      39.083  36.969  47.933  1.00  0.00     0.157 HD
ENDBRANCH   8  34
BRANCH   1  37
HETATM   37  C5  UNL     1      33.750  38.256  51.709  1.00  0.00     0.266 C
HETATM   38  O1  UNL     1      33.714  39.480  51.066  1.00  0.00    -0.354 OA
HETATM   39  C4  UNL     1      33.049  40.307  51.984  1.00  0.00     0.183 C
HETATM   40  C17 UNL     1      33.765  40.028  53.261  1.00  0.00     0.182 C
HETATM   41  C16 UNL     1      33.799  38.479  53.186  1.00  0.00     0.198 C
BRANCH  39  42
HETATM   42  C3  UNL     1      32.951  41.708  51.521  1.00  0.00     0.305 C
BRANCH  42  43
HETATM   43  N1  UNL     1      33.814  42.675  52.108  1.00  0.00     0.082 N
HETATM   44  C1  UNL     1      34.482  43.345  50.961  1.00  0.00     0.309 C
HETATM   45  C2  UNL     1      33.073  43.745  52.740  1.00  0.00     0.309 C
ENDBRANCH  42  43
ENDBRANCH  39  42
BRANCH  40  46
HETATM   46  O11 UNL     1      33.041  40.399  54.404  1.00  0.00    -0.390 OA
ATOM     47  H11 UNL     1      32.890  39.682  55.009  1.00  0.00     0.210 HD
ENDBRANCH  40  46
BRANCH  41  48
HETATM   48  O10 UNL     1      32.609  38.049  53.749  1.00  0.00    -0.388 OA
ATOM     49  H10 UNL     1      32.490  38.475  54.589  1.00  0.00     0.210 HD
ENDBRANCH  41  48
ENDBRANCH   1  37
TORSDOF 18
ENDMDL