MODEL 1
REMARK VINA RESULT: -8.293753628      0.000      0.000
REMARK  17 active torsions:
REMARK  status: ('A' for Active; 'I' for Inactive)
REMARK    1  A    between atoms: N1_1  and  O1_4
REMARK    2  A    between atoms: O1_4  and  C1_5
REMARK    3  A    between atoms: C1_5  and  C2_7
REMARK    4  A    between atoms: C2_7  and  C7_24
REMARK    5  A    between atoms: N2_8  and  O3_10
REMARK    6  A    between atoms: O3_10  and  C3_11
REMARK    7  A    between atoms: C3_11  and  C4_12
REMARK    8  A    between atoms: C3_11  and  C6_17
REMARK    9  A    between atoms: C4_12  and  C5_14
REMARK   10  A    between atoms: C6_17  and  N3_18
REMARK   11  A    between atoms: C6_17  and  O7_22
REMARK   12  A    between atoms: C7_24  and  O8_25
REMARK   13  A    between atoms: C7_24  and  C8_27
REMARK   14  A    between atoms: C8_27  and  O9_28
REMARK   15  A    between atoms: C10_31  and  O10_32
REMARK   16  A    between atoms: C15_43  and  O12_44
REMARK   17  A    between atoms: C16_46  and  O13_47
ROOT
HETATM    1  C7  UNL     1      32.320  36.771  51.619  1.00  0.00     0.213 C
ENDROOT
BRANCH   1   2
HETATM    2  C2  UNL     1      33.774  36.645  51.577  1.00  0.00     0.140 C
HETATM    3  N2  UNL     1      34.450  37.595  51.140  1.00  0.00    -0.261 N
ATOM      4  H2  UNL     1      33.786  38.337  50.920  1.00  0.00     0.194 HD
BRANCH   2   5
HETATM    5  C1  UNL     1      34.450  35.436  51.978  1.00  0.00     0.331 C
HETATM    6  O2  UNL     1      34.069  34.277  51.591  1.00  0.00    -0.256 OA
BRANCH   5   7
HETATM    7  O1  UNL     1      35.573  35.426  52.810  1.00  0.00    -0.201 OA
BRANCH   7   8
HETATM    8  N1  UNL     1      36.497  34.417  52.709  1.00  0.00    -0.302 N
ATOM      9  H12 UNL     1      36.872  34.181  51.790  1.00  0.00     0.184 HD
ATOM     10  H11 UNL     1      36.800  33.914  53.543  1.00  0.00     0.184 HD
ENDBRANCH   7   8
ENDBRANCH   5   7
ENDBRANCH   2   5
BRANCH   3  11
HETATM   11  O3  UNL     1      35.603  38.053  50.845  1.00  0.00    -0.262 OA
BRANCH  11  12
HETATM   12  C3  UNL     1      36.316  38.394  49.698  1.00  0.00     0.288 C
BRANCH  12  13
HETATM   13  C4  UNL     1      37.636  37.738  49.715  1.00  0.00     0.260 C
HETATM   14  O4  UNL     1      38.660  38.337  49.319  1.00  0.00    -0.283 OA
BRANCH  13  15
HETATM   15  C5  UNL     1      37.770  36.382  50.191  1.00  0.00     0.249 C
HETATM   16  O5  UNL     1      37.106  35.393  49.791  1.00  0.00    -0.642 OA
HETATM   17  O6  UNL     1      38.712  36.063  51.193  1.00  0.00    -0.642 OA
ENDBRANCH  13  15
ENDBRANCH  12  13
BRANCH  12  18
HETATM   18  C6  UNL     1      36.472  39.921  49.606  1.00  0.00     0.356 C
BRANCH  18  19
HETATM   19  N3  UNL     1      36.794  40.286  48.238  1.00  0.00    -0.050 N
ATOM     20  H33 UNL     1      36.804  39.479  47.614  1.00  0.00     0.277 HD
ATOM     21  H32 UNL     1      36.041  40.807  47.789  1.00  0.00     0.277 HD
ATOM     22  H31 UNL     1      37.678  40.795  48.226  1.00  0.00     0.277 HD
ENDBRANCH  18  19
BRANCH  18  23
HETATM   23  O7  UNL     1      35.328  40.588  49.967  1.00  0.00    -0.368 OA
ATOM     24  H7  UNL     1      35.508  41.356  50.496  1.00  0.00     0.212 HD
ENDBRANCH  18  23
ENDBRANCH  12  18
ENDBRANCH  11  12
ENDBRANCH   3  11
ENDBRANCH   1   2
BRANCH   1  25
HETATM   25  O8  UNL     1      31.718  35.534  51.972  1.00  0.00    -0.386 OA
ATOM     26  H8  UNL     1      30.772  35.616  51.998  1.00  0.00     0.210 HD
ENDBRANCH   1  25
BRANCH   1  27
HETATM   27  C8  UNL     1      31.689  37.837  52.404  1.00  0.00     0.127 C
HETATM   28  C9  UNL     1      32.474  38.662  53.346  1.00  0.00     0.078 C
HETATM   29  C10 UNL     1      32.897  39.917  52.636  1.00  0.00     0.147 C
HETATM   30  C11 UNL     1      32.314  39.850  51.236  1.00  0.00     0.157 C
HETATM   31  N4  UNL     1      31.637  41.069  50.864  1.00  0.00    -0.329 N
HETATM   32  C16 UNL     1      31.163  38.884  51.448  1.00  0.00     0.142 C
HETATM   33  C12 UNL     1      31.777  42.402  50.385  1.00  0.00     0.194 C
HETATM   34  C14 UNL     1      30.178  40.920  51.039  1.00  0.00     0.211 C
HETATM   35  N5  UNL     1      32.868  42.893  49.596  1.00  0.00    -0.063 NA
HETATM   36  N6  UNL     1      30.752  43.122  50.779  1.00  0.00    -0.299 N
HETATM   37  C13 UNL     1      29.878  42.264  51.550  1.00  0.00     0.249 C
ATOM     38  H6  UNL     1      30.598  44.110  50.577  1.00  0.00     0.171 HD
HETATM   39  O11 UNL     1      29.071  42.651  52.440  1.00  0.00    -0.271 OA
HETATM   40  C15 UNL     1      30.151  39.825  52.083  1.00  0.00     0.190 C
BRANCH  27  41
HETATM   41  O9  UNL     1      30.525  37.329  53.070  1.00  0.00    -0.383 OA
ATOM     42  H9  UNL     1      29.869  38.012  53.140  1.00  0.00     0.210 HD
ENDBRANCH  27  41
BRANCH  29  43
HETATM   43  O10 UNL     1      34.243  40.184  52.652  1.00  0.00    -0.393 OA
ATOM     44  H10 UNL     1      34.515  40.956  52.172  1.00  0.00     0.210 HD
ENDBRANCH  29  43
BRANCH  40  45
HETATM   45  O12 UNL     1      28.898  39.245  52.151  1.00  0.00    -0.390 OA
ATOM     46  H12 UNL     1      28.399  39.608  52.873  1.00  0.00     0.210 HD
ENDBRANCH  40  45
BRANCH  32  47
HETATM   47  O13 UNL     1      30.614  38.412  50.295  1.00  0.00    -0.382 OA
ATOM     48  H13 UNL     1      29.962  37.730  50.397  1.00  0.00     0.211 HD
ENDBRANCH  32  47
ENDBRANCH   1  27
TORSDOF 17
ENDMDL