MODEL 4
REMARK VINA RESULT: -8.137675777      3.564      5.184
REMARK  14 active torsions:
REMARK  status: ('A' for Active; 'I' for Inactive)
REMARK    1  A    between atoms: S1_2  and  N1_5
REMARK    2  A    between atoms: N1_5  and  N2_7
REMARK    3  A    between atoms: N2_7  and  C2_9
REMARK    4  A    between atoms: C3_12  and  N4_13
REMARK    5  A    between atoms: N6_20  and  C6_21
REMARK    6  A    between atoms: C7_23  and  C8_24
REMARK    7  A    between atoms: C8_24  and  O4_25
REMARK    8  A    between atoms: C8_24  and  C9_27
REMARK    9  A    between atoms: C9_27  and  O5_28
REMARK   10  A    between atoms: C10_30  and  O6_31
REMARK   11  A    between atoms: C10_30  and  C11_33
REMARK   12  A    between atoms: C11_33  and  O7_34
REMARK   13  A    between atoms: C12_36  and  O8_37
REMARK   14  A    between atoms: C13_39  and  O9_40
REMARK       I    between atoms: N7_43  and  C15_44
ROOT
HETATM    1  C2  UNL     1      32.115  40.186  52.093  1.00  0.00     0.709 A
HETATM    2  N3  UNL     1      33.105  40.905  52.615  1.00  0.00    -0.173 N
ATOM      3  H3  UNL     1      33.972  40.441  52.884  1.00  0.00     0.186 HD
HETATM    4  C3  UNL     1      32.987  42.227  52.794  1.00  0.00     0.145 A
HETATM    5  C4  UNL     1      31.841  42.874  52.445  1.00  0.00     0.123 A
HETATM    6  N5  UNL     1      31.443  44.157  52.506  1.00  0.00    -0.346 N
ATOM      7  H5  UNL     1      31.992  44.940  52.861  1.00  0.00     0.167 HD
HETATM    8  C5  UNL     1      30.236  44.219  52.032  1.00  0.00     0.188 A
HETATM    9  N6  UNL     1      29.774  42.985  51.634  1.00  0.00    -0.296 N
HETATM   10  C14 UNL     1      30.784  42.139  51.894  1.00  0.00     0.168 A
HETATM   11  N7  UNL     1      30.956  40.829  51.737  1.00  0.00    -0.100 N
HETATM   12  C15 UNL     1      29.932  40.011  51.185  1.00  0.00     0.210 C
HETATM   13  N8  UNL     1      29.011  39.564  51.949  1.00  0.00    -0.373 N
ATOM     14  H81 UNL     1      28.277  38.978  51.553  1.00  0.00     0.158 HD
ATOM     15  H82 UNL     1      28.985  39.816  52.937  1.00  0.00     0.158 HD
HETATM   16  N9  UNL     1      29.969  39.661  49.814  1.00  0.00    -0.062 NA
ENDROOT
BRANCH   9  17
HETATM   17  C6  UNL     1      28.467  42.749  51.074  1.00  0.00     0.262 C
HETATM   18  O3  UNL     1      28.208  44.019  50.397  1.00  0.00    -0.352 OA
HETATM   19  C7  UNL     1      27.179  43.807  49.465  1.00  0.00     0.194 C
HETATM   20  C10 UNL     1      26.055  43.064  50.019  1.00  0.00     0.136 C
HETATM   21  C12 UNL     1      26.055  42.822  51.514  1.00  0.00     0.190 C
HETATM   22  C13 UNL     1      27.382  42.780  52.127  1.00  0.00     0.199 C
BRANCH  19  23
HETATM   23  C8  UNL     1      26.982  45.140  48.814  1.00  0.00     0.173 C
BRANCH  23  24
HETATM   24  O4  UNL     1      27.367  46.126  49.816  1.00  0.00    -0.391 OA
ATOM     25  H4  UNL     1      28.251  46.390  49.588  1.00  0.00     0.210 HD
ENDBRANCH  23  24
BRANCH  23  26
HETATM   26  C9  UNL     1      28.039  45.472  47.749  1.00  0.00     0.198 C
BRANCH  26  27
HETATM   27  O5  UNL     1      28.562  44.290  47.264  1.00  0.00    -0.398 OA
ATOM     28  H5  UNL     1      27.962  43.936  46.618  1.00  0.00     0.209 HD
ENDBRANCH  26  27
ENDBRANCH  23  26
ENDBRANCH  19  23
BRANCH  20  29
HETATM   29  O6  UNL     1      26.027  41.781  49.376  1.00  0.00    -0.382 OA
ATOM     30  H6  UNL     1      25.352  41.264  49.800  1.00  0.00     0.210 HD
ENDBRANCH  20  29
BRANCH  20  31
HETATM   31  C11 UNL     1      24.660  43.570  49.714  1.00  0.00     0.207 C
BRANCH  31  32
HETATM   32  O7  UNL     1      23.847  43.725  50.802  1.00  0.00    -0.398 OA
ATOM     33  H7  UNL     1      23.221  43.024  50.942  1.00  0.00     0.209 HD
ENDBRANCH  31  32
ENDBRANCH  20  31
BRANCH  21  34
HETATM   34  O8  UNL     1      25.318  41.642  51.757  1.00  0.00    -0.390 OA
ATOM     35  H8  UNL     1      24.866  41.750  52.585  1.00  0.00     0.210 HD
ENDBRANCH  21  34
BRANCH  22  36
HETATM   36  O9  UNL     1      27.537  41.865  53.150  1.00  0.00    -0.388 OA
ATOM     37  H9  UNL     1      27.532  42.237  54.024  1.00  0.00     0.210 HD
ENDBRANCH  22  36
ENDBRANCH   9  17
BRANCH   4  38
HETATM   38  N4  UNL     1      33.955  42.914  53.301  1.00  0.00    -0.383 N
ATOM     39  H42 UNL     1      34.504  43.515  52.685  1.00  0.00     0.157 HD
ATOM     40  H41 UNL     1      34.168  42.859  54.297  1.00  0.00     0.157 HD
ENDBRANCH   4  38
BRANCH   1  41
HETATM   41  N2  UNL     1      32.185  38.906  51.902  1.00  0.00    -0.122 N
ATOM     42  H2  UNL     1      31.591  38.494  51.182  1.00  0.00     0.206 HD
BRANCH  41  43
HETATM   43  N1  UNL     1      33.013  38.071  52.614  1.00  0.00    -0.213 N
ATOM     44  H1  UNL     1      33.176  38.266  53.602  1.00  0.00     0.200 HD
BRANCH  43  45
HETATM   45  S1  UNL     1      33.783  36.712  51.900  1.00  0.00     0.240 S
HETATM   46  C1  UNL     1      32.591  35.407  51.751  1.00  0.00     0.187 C
HETATM   47  O1  UNL     1      34.324  37.052  50.549  1.00  0.00    -0.205 OA
HETATM   48  O2  UNL     1      34.942  36.311  52.763  1.00  0.00    -0.205 OA
ENDBRANCH  43  45
ENDBRANCH  41  43
ENDBRANCH   1  41
TORSDOF 14
ENDMDL