MODEL 5
REMARK VINA RESULT: -7.686736318      6.633     10.591
REMARK  14 active torsions:
REMARK  status: ('A' for Active; 'I' for Inactive)
REMARK    1  A    between atoms: O1_2  and  C2_3
REMARK    2  A    between atoms: C7_12  and  O3_13
REMARK    3  A    between atoms: C8_16  and  C9_17
REMARK    4  A    between atoms: C8_16  and  S1_22
REMARK    5  A    between atoms: C9_17  and  O5_18
REMARK    6  A    between atoms: C9_17  and  O6_20
REMARK    7  A    between atoms: C11_31  and  N3_32
REMARK    8  A    between atoms: N3_32  and  C12_34
REMARK    9  A    between atoms: C12_34  and  O11_35
REMARK   10  A    between atoms: C12_34  and  C13_37
REMARK   11  A    between atoms: C13_37  and  O12_38
REMARK   12  A    between atoms: C13_37  and  C14_40
REMARK   13  A    between atoms: C14_40  and  O13_41
REMARK   14  A    between atoms: C15_43  and  O14_44
ROOT
HETATM    1  C2  UNL     1      27.967  47.609  48.190  1.00  0.00     0.177 C
HETATM    2  C3  UNL     1      29.188  46.928  47.619  1.00  0.00     0.208 C
HETATM    3  O2  UNL     1      29.619  45.995  48.590  1.00  0.00    -0.329 OA
HETATM    4  C4  UNL     1      29.211  44.715  48.217  1.00  0.00     0.369 C
HETATM    5  N1  UNL     1      29.895  44.440  46.944  1.00  0.00    -0.014 N
ATOM      6  H11 UNL     1      29.961  45.259  46.339  1.00  0.00     0.283 HD
ATOM      7  H12 UNL     1      29.347  43.856  46.312  1.00  0.00     0.283 HD
HETATM    8  C5  UNL     1      31.187  43.868  47.274  1.00  0.00     0.251 C
HETATM    9  C6  UNL     1      31.288  43.848  48.755  1.00  0.00     0.105 C
HETATM   10  C7  UNL     1      31.916  42.628  49.347  1.00  0.00     0.269 C
HETATM   11  O4  UNL     1      31.620  42.413  50.655  1.00  0.00    -0.306 OA
HETATM   12  C8  UNL     1      30.521  42.928  51.199  1.00  0.00     0.400 C
HETATM   13  N2  UNL     1      29.747  43.891  50.501  1.00  0.00    -0.008 N
ATOM     14  H21 UNL     1      30.026  44.841  50.746  1.00  0.00     0.283 HD
ATOM     15  H22 UNL     1      28.786  43.915  50.843  1.00  0.00     0.283 HD
HETATM   16  C10 UNL     1      29.793  43.685  49.107  1.00  0.00     0.293 C
HETATM   17  O10 UNL     1      27.851  44.631  48.015  1.00  0.00    -0.304 OA
HETATM   18  C11 UNL     1      27.117  45.435  48.890  1.00  0.00     0.255 C
HETATM   19  C15 UNL     1      26.758  46.681  48.184  1.00  0.00     0.197 C
ENDROOT
BRANCH  18  20
HETATM   20  N3  UNL     1      26.125  44.677  49.505  1.00  0.00    -0.367 N
ATOM     21  H3  UNL     1      25.535  44.086  48.918  1.00  0.00     0.158 HD
BRANCH  20  22
HETATM   22  C12 UNL     1      25.895  44.683  50.869  1.00  0.00     0.246 C
BRANCH  22  23
HETATM   23  O11 UNL     1      27.172  44.648  51.500  1.00  0.00    -0.374 OA
ATOM     24  H11 UNL     1      27.098  45.160  52.297  1.00  0.00     0.212 HD
ENDBRANCH  22  23
BRANCH  22  25
HETATM   25  C13 UNL     1      25.149  43.526  51.460  1.00  0.00     0.190 C
BRANCH  25  26
HETATM   26  O12 UNL     1      23.810  43.895  51.705  1.00  0.00    -0.389 OA
ATOM     27  H12 UNL     1      23.784  44.733  52.154  1.00  0.00     0.210 HD
ENDBRANCH  25  26
BRANCH  25  28
HETATM   28  C14 UNL     1      25.100  42.444  50.369  1.00  0.00     0.200 C
BRANCH  28  29
HETATM   29  O13 UNL     1      26.328  41.862  50.171  1.00  0.00    -0.398 OA
ATOM     30  H13 UNL     1      27.030  42.384  50.542  1.00  0.00     0.209 HD
ENDBRANCH  28  29
ENDBRANCH  25  28
ENDBRANCH  22  25
ENDBRANCH  20  22
ENDBRANCH  18  20
BRANCH   1  31
HETATM   31  O1  UNL     1      27.685  48.808  47.557  1.00  0.00    -0.386 OA
HETATM   32  C1  UNL     1      28.584  49.124  46.556  1.00  0.00     0.202 C
ENDBRANCH   1  31
BRANCH  10  33
HETATM   33  O3  UNL     1      33.297  42.697  49.181  1.00  0.00    -0.371 OA
ATOM     34  H3  UNL     1      33.521  42.400  48.307  1.00  0.00     0.212 HD
ENDBRANCH  10  33
BRANCH  12  35
HETATM   35  C9  UNL     1      30.900  43.566  52.546  1.00  0.00     0.338 C
BRANCH  35  36
HETATM   36  O5  UNL     1      32.132  44.197  52.458  1.00  0.00    -0.366 OA
ATOM     37  H5  UNL     1      32.521  44.292  53.319  1.00  0.00     0.212 HD
ENDBRANCH  35  36
BRANCH  35  38
HETATM   38  O6  UNL     1      29.950  44.541  52.833  1.00  0.00    -0.366 OA
ATOM     39  H6  UNL     1      29.092  44.148  52.725  1.00  0.00     0.212 HD
ENDBRANCH  35  38
ENDBRANCH  12  35
BRANCH  12  40
HETATM   40  S1  UNL     1      29.415  41.576  51.634  1.00  0.00     0.172 S
HETATM   41  O7  UNL     1      30.192  40.561  52.398  1.00  0.00    -0.591 OA
HETATM   42  O8  UNL     1      28.878  40.919  50.396  1.00  0.00    -0.591 OA
HETATM   43  O9  UNL     1      28.159  42.137  52.594  1.00  0.00    -0.591 OA
ENDBRANCH  12  40
BRANCH  19  44
HETATM   44  O14 UNL     1      25.725  47.408  48.747  1.00  0.00    -0.389 OA
ATOM     45  H14 UNL     1      25.166  47.663  48.023  1.00  0.00     0.210 HD
ENDBRANCH  19  44
TORSDOF 14
ENDMDL