MODEL 4
REMARK VINA RESULT: -9.365237519      1.356      1.917
REMARK  14 active torsions:
REMARK  status: ('A' for Active; 'I' for Inactive)
REMARK    1  A    between atoms: O1_2  and  C2_3
REMARK    2  A    between atoms: C3_5  and  N1_6
REMARK    3  A    between atoms: N1_6  and  C4_8
REMARK    4  A    between atoms: C5_11  and  N3_12
REMARK    5  A    between atoms: C6_17  and  O3_18
REMARK    6  A    between atoms: O3_18  and  C7_19
REMARK    7  A    between atoms: C7_19  and  C8_20
REMARK       I    between atoms: C8_20  and  N5_22
REMARK    8  A    between atoms: C10_28  and  C11_29
REMARK    9  A    between atoms: C11_29  and  N8_30
REMARK   10  A    between atoms: C11_29  and  O6_34
REMARK   11  A    between atoms: C12_36  and  N9_37
REMARK   12  A    between atoms: C13_40  and  O9_41
REMARK   13  A    between atoms: C14_43  and  O10_44
REMARK   14  A    between atoms: C15_46  and  O11_47
ROOT
HETATM    1  C4  UNL     1      36.863  36.931  50.501  1.00  0.00     0.156 A
HETATM    2  N2  UNL     1      37.215  38.002  49.789  1.00  0.00    -0.174 N
ATOM      3  H2  UNL     1      38.078  37.957  49.246  1.00  0.00     0.186 HD
HETATM    4  C5  UNL     1      36.486  39.158  49.744  1.00  0.00     0.679 A
HETATM    5  N4  UNL     1      35.348  39.218  50.458  1.00  0.00    -0.168 N
ATOM      6  H4  UNL     1      34.799  40.077  50.430  1.00  0.00     0.186 HD
HETATM    7  C6  UNL     1      34.906  38.198  51.205  1.00  0.00     0.195 A
HETATM    8  C12 UNL     1      35.664  37.039  51.234  1.00  0.00     0.198 A
ENDROOT
BRANCH   7   9
HETATM    9  O3  UNL     1      33.731  38.240  51.953  1.00  0.00    -0.324 OA
BRANCH   9  10
HETATM   10  C7  UNL     1      32.456  38.404  51.451  1.00  0.00     0.281 C
BRANCH  10  11
HETATM   11  C8  UNL     1      31.742  39.577  51.985  1.00  0.00     0.262 C
HETATM   12  O4  UNL     1      30.865  39.526  52.907  1.00  0.00    -0.269 OA
HETATM   13  N5  UNL     1      32.002  40.879  51.483  1.00  0.00    -0.225 N
HETATM   14  N6  UNL     1      32.925  41.161  50.473  1.00  0.00    -0.014 NA
HETATM   15  C10 UNL     1      31.433  42.162  51.847  1.00  0.00     0.258 C
HETATM   16  N7  UNL     1      32.151  42.019  49.658  1.00  0.00    -0.252 N
HETATM   17  C9  UNL     1      31.254  42.768  50.487  1.00  0.00     0.263 C
ATOM     18  H7  UNL     1      32.221  42.093  48.642  1.00  0.00     0.187 HD
HETATM   19  O5  UNL     1      30.494  43.709  50.175  1.00  0.00    -0.270 OA
BRANCH  15  20
HETATM   20  C11 UNL     1      32.384  42.987  52.683  1.00  0.00     0.350 C
BRANCH  20  21
HETATM   21  N8  UNL     1      33.285  42.067  53.352  1.00  0.00    -0.051 N
ATOM     22  H83 UNL     1      32.796  41.361  53.903  1.00  0.00     0.277 HD
ATOM     23  H82 UNL     1      33.756  41.431  52.708  1.00  0.00     0.277 HD
ATOM     24  H81 UNL     1      33.935  42.625  53.907  1.00  0.00     0.277 HD
ENDBRANCH  20  21
BRANCH  20  25
HETATM   25  O6  UNL     1      33.135  43.858  51.935  1.00  0.00    -0.368 OA
ATOM     26  H6  UNL     1      32.625  44.576  51.578  1.00  0.00     0.212 HD
ENDBRANCH  20  25
ENDBRANCH  15  20
ENDBRANCH  10  11
ENDBRANCH   9  10
ENDBRANCH   7   9
BRANCH   8  27
HETATM   27  N9  UNL     1      35.242  35.938  52.018  1.00  0.00    -0.107 N
HETATM   28  O7  UNL     1      35.819  35.579  53.052  1.00  0.00    -0.531 OA
HETATM   29  O8  UNL     1      34.136  35.214  51.643  1.00  0.00    -0.531 OA
ENDBRANCH   8  27
BRANCH   4  30
HETATM   30  N3  UNL     1      36.907  40.145  49.024  1.00  0.00    -0.234 N
ATOM     31  H32 UNL     1      36.281  40.718  48.459  1.00  0.00     0.174 HD
ATOM     32  H31 UNL     1      37.902  40.367  49.012  1.00  0.00     0.174 HD
ENDBRANCH   4  30
BRANCH   1  33
HETATM   33  N1  UNL     1      37.500  35.885  50.555  1.00  0.00    -0.345 N
ATOM     34  H1  UNL     1      36.910  35.154  50.157  1.00  0.00     0.163 HD
BRANCH  33  35
HETATM   35  C3  UNL     1      38.694  35.284  50.934  1.00  0.00     0.257 C
HETATM   36  O2  UNL     1      38.504  34.341  51.978  1.00  0.00    -0.332 OA
HETATM   37  C2  UNL     1      38.100  33.098  51.495  1.00  0.00     0.293 C
HETATM   38  C15 UNL     1      39.208  32.479  50.648  1.00  0.00     0.204 C
HETATM   39  C14 UNL     1      40.318  33.516  50.458  1.00  0.00     0.184 C
HETATM   40  C13 UNL     1      39.599  34.757  49.878  1.00  0.00     0.198 C
BRANCH  37  41
HETATM   41  O1  UNL     1      36.897  33.121  50.813  1.00  0.00    -0.363 OA
HETATM   42  C1  UNL     1      35.942  32.438  51.552  1.00  0.00     0.204 C
ENDBRANCH  37  41
BRANCH  38  43
HETATM   43  O11 UNL     1      38.674  32.202  49.394  1.00  0.00    -0.388 OA
ATOM     44  H11 UNL     1      38.880  31.298  49.187  1.00  0.00     0.210 HD
ENDBRANCH  38  43
BRANCH  39  45
HETATM   45  O10 UNL     1      40.818  33.888  51.703  1.00  0.00    -0.390 OA
ATOM     46  H10 UNL     1      41.366  33.172  52.002  1.00  0.00     0.210 HD
ENDBRANCH  39  45
BRANCH  40  47
HETATM   47  O9  UNL     1      40.659  35.656  49.651  1.00  0.00    -0.389 OA
ATOM     48  H9  UNL     1      40.361  36.394  49.133  1.00  0.00     0.210 HD
ENDBRANCH  40  47
ENDBRANCH  33  35
ENDBRANCH   1  33
TORSDOF 14
ENDMDL