MODEL 2
REMARK VINA RESULT: -9.879453005      3.912      9.267
REMARK  15 active torsions:
REMARK  status: ('A' for Active; 'I' for Inactive)
REMARK    1  A    between atoms: N1_1  and  C1_4
REMARK    2  A    between atoms: C2_7  and  C3_8
REMARK    3  A    between atoms: N5_13  and  C4_14
REMARK    4  A    between atoms: C5_15  and  C6_16
REMARK    5  A    between atoms: C6_16  and  C7_17
REMARK    6  A    between atoms: C8_18  and  N6_19
REMARK    7  A    between atoms: C9_23  and  O1_24
REMARK    8  A    between atoms: C10_26  and  O2_27
REMARK    9  A    between atoms: C11_29  and  O3_30
REMARK   10  A    between atoms: C12_33  and  N7_34
REMARK   11  A    between atoms: N7_34  and  C13_36
REMARK   12  A    between atoms: C13_36  and  C14_37
REMARK   13  A    between atoms: C13_36  and  C15_40
REMARK   14  A    between atoms: C14_37  and  O5_38
REMARK   15  A    between atoms: C16_43  and  O8_44
ROOT
HETATM    1  C4  UNL     1      32.543  38.967  52.753  1.00  0.00     0.194 C
HETATM    2  C5  UNL     1      32.137  40.033  51.792  1.00  0.00     0.176 C
HETATM    3  O4  UNL     1      31.742  41.089  52.619  1.00  0.00    -0.353 OA
HETATM    4  C12 UNL     1      32.941  41.182  53.396  1.00  0.00     0.249 C
HETATM    5  C16 UNL     1      33.091  39.794  53.945  1.00  0.00     0.196 C
ENDROOT
BRANCH   1   6
HETATM    6  N5  UNL     1      33.582  38.101  52.221  1.00  0.00    -0.207 N
HETATM    7  N4  UNL     1      33.761  36.812  52.314  1.00  0.00    -0.224 N
HETATM    8  N3  UNL     1      34.862  36.451  51.662  1.00  0.00    -0.265 N
ATOM      9  H4  UNL     1      33.143  36.172  52.814  1.00  0.00     0.210 HD
HETATM   10  C3  UNL     1      35.401  37.564  51.135  1.00  0.00     0.183 A
ATOM     11  H3  UNL     1      35.230  35.503  51.578  1.00  0.00     0.190 HD
HETATM   12  N8  UNL     1      34.602  38.575  51.487  1.00  0.00    -0.263 N
ATOM     13  H8  UNL     1      34.744  39.554  51.238  1.00  0.00     0.190 HD
BRANCH  10  14
HETATM   14  C2  UNL     1      36.641  37.563  50.340  1.00  0.00     0.172 A
HETATM   15  N2  UNL     1      37.310  36.452  50.082  1.00  0.00    -0.173 N
HETATM   16  C1  UNL     1      38.446  36.509  49.346  1.00  0.00     0.681 A
ATOM     17  H2  UNL     1      36.973  35.557  50.436  1.00  0.00     0.186 HD
HETATM   18  N10 UNL     1      38.887  37.691  48.881  1.00  0.00    -0.141 N
HETATM   19  C17 UNL     1      38.222  38.842  49.129  1.00  0.00     0.340 A
ATOM     20  H10 UNL     1      39.743  37.721  48.328  1.00  0.00     0.189 HD
HETATM   21  N9  UNL     1      37.102  38.741  49.864  1.00  0.00    -0.290 N
HETATM   22  O9  UNL     1      38.681  39.911  48.671  1.00  0.00    -0.246 OA
ATOM     23  H9  UNL     1      36.576  39.590  50.072  1.00  0.00     0.172 HD
BRANCH  16  24
HETATM   24  N1  UNL     1      39.115  35.436  49.082  1.00  0.00    -0.234 N
ATOM     25  H12 UNL     1      39.185  35.114  48.117  1.00  0.00     0.174 HD
ATOM     26  H11 UNL     1      39.572  34.912  49.828  1.00  0.00     0.174 HD
ENDBRANCH  16  24
ENDBRANCH  10  14
ENDBRANCH   1   6
BRANCH   2  27
HETATM   27  C6  UNL     1      31.113  39.601  50.826  1.00  0.00     0.014 C
BRANCH  27  28
HETATM   28  C7  UNL     1      30.142  40.303  50.315  1.00  0.00    -0.018 C
HETATM   29  C8  UNL     1      30.268  41.630  49.652  1.00  0.00     0.246 C
HETATM   30  C9  UNL     1      29.296  41.392  48.485  1.00  0.00     0.184 C
HETATM   31  C10 UNL     1      28.084  40.906  49.236  1.00  0.00     0.182 C
HETATM   32  C11 UNL     1      28.707  39.955  50.267  1.00  0.00     0.180 C
BRANCH  29  33
HETATM   33  N6  UNL     1      31.607  41.890  49.181  1.00  0.00    -0.069 N
ATOM     34  H63 UNL     1      32.275  41.244  49.602  1.00  0.00     0.275 HD
ATOM     35  H62 UNL     1      31.711  41.619  48.203  1.00  0.00     0.275 HD
ATOM     36  H61 UNL     1      31.892  42.858  49.325  1.00  0.00     0.275 HD
ENDBRANCH  29  33
BRANCH  30  37
HETATM   37  O1  UNL     1      29.046  42.577  47.797  1.00  0.00    -0.390 OA
ATOM     38  H1  UNL     1      29.459  42.567  46.942  1.00  0.00     0.210 HD
ENDBRANCH  30  37
BRANCH  31  39
HETATM   39  O2  UNL     1      27.163  40.258  48.431  1.00  0.00    -0.390 OA
ATOM     40  H2  UNL     1      26.549  39.722  48.918  1.00  0.00     0.210 HD
ENDBRANCH  31  39
BRANCH  32  41
HETATM   41  O3  UNL     1      28.098  40.156  51.514  1.00  0.00    -0.388 OA
ATOM     42  H3  UNL     1      28.499  39.611  52.182  1.00  0.00     0.210 HD
ENDBRANCH  32  41
ENDBRANCH  27  28
ENDBRANCH   2  27
BRANCH   5  43
HETATM   43  O8  UNL     1      32.285  39.538  55.057  1.00  0.00    -0.389 OA
ATOM     44  H8  UNL     1      32.379  40.263  55.662  1.00  0.00     0.210 HD
ENDBRANCH   5  43
BRANCH   4  45
HETATM   45  N7  UNL     1      32.961  42.277  54.242  1.00  0.00    -0.379 N
ATOM     46  H7  UNL     1      32.941  42.106  55.247  1.00  0.00     0.156 HD
BRANCH  45  47
HETATM   47  C13 UNL     1      33.007  43.596  53.805  1.00  0.00     0.204 C
BRANCH  47  48
HETATM   48  C14 UNL     1      31.765  44.378  53.591  1.00  0.00     0.200 C
BRANCH  48  49
HETATM   49  O5  UNL     1      31.888  45.710  54.034  1.00  0.00    -0.398 OA
ATOM     50  H5  UNL     1      31.205  46.271  53.686  1.00  0.00     0.209 HD
ENDBRANCH  48  49
ENDBRANCH  47  48
BRANCH  47  51
HETATM   51  C15 UNL     1      33.738  43.635  52.472  1.00  0.00     0.198 C
HETATM   52  O6  UNL     1      34.980  43.781  52.503  1.00  0.00    -0.646 OA
HETATM   53  O7  UNL     1      33.089  43.519  51.272  1.00  0.00    -0.646 OA
ENDBRANCH  47  51
ENDBRANCH  45  47
ENDBRANCH   4  45
TORSDOF 15
ENDMDL