MODEL 4
REMARK VINA RESULT: -8.487744233      1.497      1.847
REMARK  14 active torsions:
REMARK  status: ('A' for Active; 'I' for Inactive)
REMARK    1  A    between atoms: N1_1  and  C1_5
REMARK    2  A    between atoms: C1_5  and  C2_6
REMARK    3  A    between atoms: C3_8  and  O2_9
REMARK    4  A    between atoms: O2_9  and  C4_10
REMARK    5  A    between atoms: C5_11  and  O3_12
REMARK    6  A    between atoms: C6_14  and  N2_15
REMARK    7  A    between atoms: C7_19  and  O4_20
REMARK    8  A    between atoms: N3_23  and  N4_24
REMARK    9  A    between atoms: C10_26  and  C11_27
REMARK       I    between atoms: C11_27  and  N5_29
REMARK       I    between atoms: N5_29  and  C12_31
REMARK       I    between atoms: C12_31  and  N6_32
REMARK       I    between atoms: C12_31  and  N7_36
REMARK   10  A    between atoms: C13_40  and  N8_41
REMARK   11  A    between atoms: N8_41  and  O6_43
REMARK   12  A    between atoms: C14_45  and  O7_46
REMARK   13  A    between atoms: C15_48  and  O8_49
REMARK   14  A    between atoms: C16_51  and  O9_52
ROOT
HETATM    1  C4  UNL     1      29.169  42.584  50.934  1.00  0.00     0.205 C
HETATM    2  C5  UNL     1      28.967  42.874  49.477  1.00  0.00     0.184 C
HETATM    3  C6  UNL     1      27.672  43.438  49.051  1.00  0.00     0.244 C
HETATM    4  C7  UNL     1      26.477  42.804  49.717  1.00  0.00     0.170 C
HETATM    5  C8  UNL     1      26.094  43.509  50.985  1.00  0.00     0.180 C
HETATM    6  N3  UNL     1      27.109  43.208  52.004  1.00  0.00    -0.286 N
HETATM    7  C15 UNL     1      28.515  43.492  51.886  1.00  0.00     0.267 C
ENDROOT
BRANCH   6   8
HETATM    8  N4  UNL     1      26.544  42.646  53.147  1.00  0.00    -0.242 N
HETATM    9  C9  UNL     1      25.818  43.381  54.055  1.00  0.00     0.138 A
HETATM   10  C10 UNL     1      25.348  42.566  55.057  1.00  0.00     0.082 A
HETATM   11  C13 UNL     1      25.807  41.317  54.740  1.00  0.00     0.123 A
HETATM   12  C14 UNL     1      26.547  41.375  53.555  1.00  0.00     0.191 A
BRANCH  10  13
HETATM   13  C11 UNL     1      24.494  42.955  56.185  1.00  0.00     0.258 C
HETATM   14  O5  UNL     1      24.109  42.079  56.994  1.00  0.00    -0.267 OA
HETATM   15  N5  UNL     1      24.106  44.295  56.371  1.00  0.00    -0.307 N
HETATM   16  C12 UNL     1      23.276  44.679  57.478  1.00  0.00     0.483 C
ATOM     17  H5  UNL     1      24.419  45.005  55.709  1.00  0.00     0.166 HD
HETATM   18  N6  UNL     1      22.054  45.336  57.023  1.00  0.00    -0.033 N
HETATM   19  N7  UNL     1      23.930  45.608  58.379  1.00  0.00    -0.033 N
ATOM     20  H63 UNL     1      22.259  46.130  56.416  1.00  0.00     0.278 HD
ATOM     21  H62 UNL     1      21.544  44.757  56.356  1.00  0.00     0.278 HD
ATOM     22  H61 UNL     1      21.464  45.609  57.809  1.00  0.00     0.278 HD
ATOM     23  H73 UNL     1      24.821  45.235  58.704  1.00  0.00     0.278 HD
ATOM     24  H72 UNL     1      24.268  46.428  57.874  1.00  0.00     0.278 HD
ATOM     25  H71 UNL     1      23.340  45.881  59.165  1.00  0.00     0.278 HD
ENDBRANCH  10  13
BRANCH  11  26
HETATM   26  N8  UNL     1      25.579  40.122  55.510  1.00  0.00    -0.264 N
ATOM     27  H8  UNL     1      24.636  39.895  55.826  1.00  0.00     0.194 HD
BRANCH  26  28
HETATM   28  O6  UNL     1      26.519  39.367  55.793  1.00  0.00    -0.289 OA
ATOM     29  H6  UNL     1      26.881  39.357  56.671  1.00  0.00     0.244 HD
ENDBRANCH  26  28
ENDBRANCH  11  26
BRANCH  12  30
HETATM   30  O7  UNL     1      27.130  40.242  53.004  1.00  0.00    -0.343 OA
ATOM     31  H7  UNL     1      27.992  39.862  53.127  1.00  0.00     0.219 HD
ENDBRANCH  12  30
ENDBRANCH   6   8
BRANCH   7  32
HETATM   32  O8  UNL     1      29.117  43.378  53.145  1.00  0.00    -0.373 OA
ATOM     33  H8  UNL     1      29.937  43.857  53.156  1.00  0.00     0.212 HD
ENDBRANCH   7  32
BRANCH   4  34
HETATM   34  O4  UNL     1      26.740  41.477  49.921  1.00  0.00    -0.392 OA
ATOM     35  H4  UNL     1      26.538  41.261  50.824  1.00  0.00     0.210 HD
ENDBRANCH   4  34
BRANCH   1  36
HETATM   36  O2  UNL     1      30.577  42.672  51.108  1.00  0.00    -0.346 OA
BRANCH  36  37
HETATM   37  C3  UNL     1      31.205  41.448  51.104  1.00  0.00     0.297 C
HETATM   38  O1  UNL     1      32.155  41.358  50.076  1.00  0.00    -0.344 OA
HETATM   39  C2  UNL     1      33.405  41.322  50.604  1.00  0.00     0.222 C
HETATM   40  C17 UNL     1      33.304  40.950  52.015  1.00  0.00     0.190 C
HETATM   41  C16 UNL     1      31.851  41.145  52.374  1.00  0.00     0.245 C
HETATM   42  O10 UNL     1      34.191  40.568  52.748  1.00  0.00    -0.292 OA
BRANCH  39  43
HETATM   43  C1  UNL     1      34.157  42.629  50.421  1.00  0.00     0.269 C
BRANCH  43  44
HETATM   44  N1  UNL     1      33.803  43.628  51.362  1.00  0.00    -0.076 N
ATOM     45  H13 UNL     1      33.540  43.206  52.253  1.00  0.00     0.274 HD
ATOM     46  H12 UNL     1      34.628  44.151  51.657  1.00  0.00     0.274 HD
ATOM     47  H11 UNL     1      33.074  44.261  51.034  1.00  0.00     0.274 HD
ENDBRANCH  43  44
ENDBRANCH  39  43
BRANCH  41  48
HETATM   48  O9  UNL     1      31.882  42.183  53.318  1.00  0.00    -0.383 OA
ATOM     49  H9  UNL     1      31.232  42.867  53.213  1.00  0.00     0.210 HD
ENDBRANCH  41  48
ENDBRANCH  36  37
ENDBRANCH   1  36
BRANCH   3  50
HETATM   50  N2  UNL     1      27.615  44.903  49.184  1.00  0.00    -0.070 N
ATOM     51  H23 UNL     1      28.248  45.228  49.914  1.00  0.00     0.274 HD
ATOM     52  H22 UNL     1      28.042  45.359  48.378  1.00  0.00     0.274 HD
ATOM     53  H21 UNL     1      26.668  45.250  49.340  1.00  0.00     0.274 HD
ENDBRANCH   3  50
BRANCH   2  54
HETATM   54  O3  UNL     1      29.207  41.716  48.741  1.00  0.00    -0.391 OA
ATOM     55  H3  UNL     1      29.838  41.904  48.057  1.00  0.00     0.210 HD
ENDBRANCH   2  54
TORSDOF 14
ENDMDL