MODEL 2
REMARK VINA RESULT: -9.312960876      1.927      2.439
REMARK  14 active torsions:
REMARK  status: ('A' for Active; 'I' for Inactive)
REMARK    1  A    between atoms: C2_3  and  C3_4
REMARK       I    between atoms: C3_4  and  N2_6
REMARK    2  A    between atoms: N2_6  and  N3_8
REMARK    3  A    between atoms: N3_8  and  C4_9
REMARK    4  A    between atoms: C7_15  and  O2_16
REMARK    5  A    between atoms: O2_16  and  C8_17
REMARK    6  A    between atoms: C9_20  and  C10_21
REMARK    7  A    between atoms: C10_21  and  O3_22
REMARK    8  A    between atoms: C11_24  and  N6_25
REMARK    9  A    between atoms: C12_29  and  O4_30
REMARK   10  A    between atoms: C13_32  and  O5_33
REMARK   11  A    between atoms: N7_38  and  N8_39
REMARK   12  A    between atoms: N9_44  and  C16_45
REMARK   13  A    between atoms: C16_45  and  C17_46
REMARK   14  A    between atoms: C17_46  and  O9_47
ROOT
HETATM    1  C4  UNL     1      34.642  38.096  51.359  1.00  0.00     0.440 C
HETATM    2  N4  UNL     1      34.459  36.869  52.116  1.00  0.00    -0.032 N
ATOM      3  H41 UNL     1      34.937  36.867  53.017  1.00  0.00     0.281 HD
ATOM      4  H42 UNL     1      34.946  36.065  51.721  1.00  0.00     0.281 HD
HETATM    5  C5  UNL     1      33.002  36.690  52.217  1.00  0.00     0.242 C
HETATM    6  C6  UNL     1      32.482  37.857  53.022  1.00  0.00     0.088 C
HETATM    7  C7  UNL     1      32.842  39.156  52.342  1.00  0.00     0.268 C
HETATM    8  O6  UNL     1      34.191  39.228  52.022  1.00  0.00    -0.315 OA
ENDROOT
BRANCH   1   9
HETATM    9  N3  UNL     1      35.928  38.229  50.756  1.00  0.00    -0.077 NA
BRANCH   9  10
HETATM   10  N2  UNL     1      36.710  37.100  51.079  1.00  0.00    -0.265 N
HETATM   11  C3  UNL     1      37.811  36.742  50.297  1.00  0.00     0.276 C
HETATM   12  O1  UNL     1      38.047  37.511  49.279  1.00  0.00    -0.266 OA
ATOM     13  H2  UNL     1      36.468  36.538  51.895  1.00  0.00     0.185 HD
BRANCH  11  14
HETATM   14  C2  UNL     1      38.692  35.617  50.516  1.00  0.00     0.144 A
HETATM   15  C1  UNL     1      38.176  34.318  50.377  1.00  0.00     0.144 A
HETATM   16  N1  UNL     1      36.799  34.208  50.026  1.00  0.00    -0.081 NA
HETATM   17  N9  UNL     1      38.903  33.208  50.555  1.00  0.00    -0.283 N
HETATM   18  C15 UNL     1      40.186  33.351  50.882  1.00  0.00     0.351 A
HETATM   19  N7  UNL     1      40.742  34.563  51.031  1.00  0.00    -0.174 N
HETATM   20  O8  UNL     1      40.907  32.321  51.059  1.00  0.00    -0.244 OA
HETATM   21  C14 UNL     1      40.020  35.719  50.855  1.00  0.00     0.289 A
HETATM   22  O7  UNL     1      40.587  36.825  51.006  1.00  0.00    -0.265 OA
BRANCH  17  23
HETATM   23  C16 UNL     1      38.277  31.896  50.388  1.00  0.00     0.161 C
BRANCH  23  24
HETATM   24  C17 UNL     1      37.671  31.431  51.720  1.00  0.00     0.184 C
BRANCH  24  25
HETATM   25  O9  UNL     1      36.294  31.454  51.574  1.00  0.00    -0.399 OA
ATOM     26  H9  UNL     1      35.925  31.006  52.325  1.00  0.00     0.209 HD
ENDBRANCH  24  25
ENDBRANCH  23  24
ENDBRANCH  17  23
BRANCH  19  27
HETATM   27  N8  UNL     1      42.085  34.735  51.374  1.00  0.00    -0.332 N
ATOM     28  H82 UNL     1      42.379  35.290  52.177  1.00  0.00     0.177 HD
ATOM     29  H81 UNL     1      42.760  34.268  50.767  1.00  0.00     0.177 HD
ENDBRANCH  19  27
ENDBRANCH  11  14
ENDBRANCH   9  10
ENDBRANCH   1   9
BRANCH   7  30
HETATM   30  O2  UNL     1      32.104  39.422  51.231  1.00  0.00    -0.335 OA
BRANCH  30  31
HETATM   31  C8  UNL     1      31.041  40.295  51.376  1.00  0.00     0.251 C
HETATM   32  N5  UNL     1      31.204  41.306  50.357  1.00  0.00    -0.386 N
HETATM   33  C9  UNL     1      30.210  42.325  50.339  1.00  0.00     0.135 C
ATOM     34  H5  UNL     1      31.979  41.290  49.694  1.00  0.00     0.156 HD
HETATM   35  C11 UNL     1      28.826  41.761  50.202  1.00  0.00     0.238 C
HETATM   36  C12 UNL     1      28.625  40.696  51.244  1.00  0.00     0.183 C
HETATM   37  C13 UNL     1      29.705  39.637  51.191  1.00  0.00     0.197 C
BRANCH  33  38
HETATM   38  C10 UNL     1      30.312  43.324  51.465  1.00  0.00     0.191 C
BRANCH  38  39
HETATM   39  O3  UNL     1      30.058  44.610  51.023  1.00  0.00    -0.399 OA
ATOM     40  H3  UNL     1      29.132  44.742  50.855  1.00  0.00     0.209 HD
ENDBRANCH  38  39
ENDBRANCH  33  38
BRANCH  35  41
HETATM   41  N6  UNL     1      28.621  41.162  48.901  1.00  0.00    -0.070 N
ATOM     42  H63 UNL     1      27.648  40.890  48.765  1.00  0.00     0.274 HD
ATOM     43  H62 UNL     1      28.697  41.854  48.156  1.00  0.00     0.274 HD
ATOM     44  H61 UNL     1      29.253  40.377  48.745  1.00  0.00     0.274 HD
ENDBRANCH  35  41
BRANCH  36  45
HETATM   45  O4  UNL     1      28.383  41.179  52.510  1.00  0.00    -0.391 OA
ATOM     46  H4  UNL     1      27.804  40.636  53.032  1.00  0.00     0.210 HD
ENDBRANCH  36  45
BRANCH  37  47
HETATM   47  O5  UNL     1      29.645  39.071  49.915  1.00  0.00    -0.389 OA
ATOM     48  H5  UNL     1      29.823  38.140  49.977  1.00  0.00     0.210 HD
ENDBRANCH  37  47
ENDBRANCH  30  31
ENDBRANCH   7  30
TORSDOF 14
ENDMDL