MODEL 1
REMARK VINA RESULT: -8.680717360      0.000      0.000
REMARK  15 active torsions:
REMARK  status: ('A' for Active; 'I' for Inactive)
REMARK       I    between atoms: C2_2  and  N1_4
REMARK    1  A    between atoms: N1_4  and  C3_6
REMARK    2  A    between atoms: C4_7  and  N2_8
REMARK       I    between atoms: N2_8  and  C5_10
REMARK    3  A    between atoms: C5_10  and  C6_12
REMARK    4  A    between atoms: C6_12  and  O3_13
REMARK    5  A    between atoms: C6_12  and  C7_15
REMARK    6  A    between atoms: C6_12  and  C8_18
REMARK    7  A    between atoms: C7_15  and  O4_16
REMARK    8  A    between atoms: C8_18  and  O5_19
REMARK    9  A    between atoms: C8_18  and  C9_21
REMARK   10  A    between atoms: C10_24  and  O6_25
REMARK   11  A    between atoms: C11_27  and  O7_28
REMARK   12  A    between atoms: O7_28  and  C12_29
REMARK   13  A    between atoms: C16_38  and  N7_39
REMARK   14  A    between atoms: C17_43  and  O9_44
REMARK   15  A    between atoms: C18_46  and  O10_47
ROOT
HETATM    1  C6  UNL     1      38.893  36.112  50.406  1.00  0.00     0.187 C
ENDROOT
BRANCH   1   2
HETATM    2  C5  UNL     1      37.458  36.384  50.234  1.00  0.00     0.257 C
HETATM    3  N2  UNL     1      36.904  37.546  50.832  1.00  0.00    -0.352 N
ATOM      4  H2  UNL     1      37.517  38.162  51.365  1.00  0.00     0.163 HD
HETATM    5  O2  UNL     1      36.687  35.646  49.588  1.00  0.00    -0.270 OA
BRANCH   3   6
HETATM    6  C4  UNL     1      35.496  37.893  50.713  1.00  0.00     0.111 C
HETATM    7  C3  UNL     1      34.754  37.421  51.932  1.00  0.00     0.138 C
HETATM    8  C18 UNL     1      34.261  38.550  52.800  1.00  0.00     0.173 C
HETATM    9  C17 UNL     1      33.461  39.571  52.062  1.00  0.00     0.179 C
HETATM   10  C16 UNL     1      33.971  39.872  50.687  1.00  0.00     0.216 C
HETATM   11  C15 UNL     1      35.374  39.362  50.462  1.00  0.00     0.062 C
BRANCH   7  12
HETATM   12  N1  UNL     1      33.644  36.561  51.603  1.00  0.00    -0.352 N
HETATM   13  C2  UNL     1      33.719  35.136  51.703  1.00  0.00     0.214 C
HETATM   14  C1  UNL     1      32.584  34.267  51.366  1.00  0.00     0.117 C
HETATM   15  O1  UNL     1      34.815  34.653  52.097  1.00  0.00    -0.274 OA
ATOM     16  H1  UNL     1      32.772  36.985  51.287  1.00  0.00     0.163 HD
ENDBRANCH   7  12
BRANCH   8  17
HETATM   17  O10 UNL     1      33.402  37.967  53.758  1.00  0.00    -0.391 OA
ATOM     18  H10 UNL     1      32.746  37.484  53.269  1.00  0.00     0.210 HD
ENDBRANCH   8  17
BRANCH   9  19
HETATM   19  O9  UNL     1      33.548  40.775  52.799  1.00  0.00    -0.391 OA
ATOM     20  H9  UNL     1      32.858  40.745  53.452  1.00  0.00     0.210 HD
ENDBRANCH   9  19
BRANCH  10  21
HETATM   21  N7  UNL     1      33.994  41.308  50.421  1.00  0.00    -0.072 N
ATOM     22  H73 UNL     1      33.624  41.552  49.502  1.00  0.00     0.274 HD
ATOM     23  H72 UNL     1      33.317  41.830  50.977  1.00  0.00     0.274 HD
ATOM     24  H71 UNL     1      34.956  41.620  50.563  1.00  0.00     0.274 HD
ENDBRANCH  10  21
ENDBRANCH   3   6
ENDBRANCH   1   2
BRANCH   1  25
HETATM   25  O3  UNL     1      39.613  37.296  50.473  1.00  0.00    -0.376 OA
ATOM     26  H3  UNL     1      40.460  37.199  50.053  1.00  0.00     0.211 HD
ENDBRANCH   1  25
BRANCH   1  27
HETATM   27  C7  UNL     1      39.357  35.415  49.121  1.00  0.00     0.215 C
BRANCH  27  28
HETATM   28  O4  UNL     1      39.142  36.252  48.033  1.00  0.00    -0.397 OA
ATOM     29  H4  UNL     1      39.926  36.761  47.864  1.00  0.00     0.209 HD
ENDBRANCH  27  28
ENDBRANCH   1  27
BRANCH   1  30
HETATM   30  C8  UNL     1      39.176  35.167  51.550  1.00  0.00     0.187 C
BRANCH  30  31
HETATM   31  O5  UNL     1      40.440  35.304  52.053  1.00  0.00    -0.390 OA
ATOM     32  H5  UNL     1      40.471  35.839  52.837  1.00  0.00     0.210 HD
ENDBRANCH  30  31
BRANCH  30  33
HETATM   33  C9  UNL     1      38.903  33.767  51.144  1.00  0.00     0.160 C
HETATM   34  N3  UNL     1      37.915  33.131  52.049  1.00  0.00    -0.135 NA
HETATM   35  N4  UNL     1      37.874  31.823  51.573  1.00  0.00    -0.113 NA
HETATM   36  C10 UNL     1      39.210  31.482  51.152  1.00  0.00     0.257 C
HETATM   37  C11 UNL     1      40.027  32.796  51.358  1.00  0.00     0.195 C
BRANCH  36  38
HETATM   38  O6  UNL     1      39.176  31.236  49.780  1.00  0.00    -0.376 OA
ATOM     39  H6  UNL     1      39.692  30.457  49.611  1.00  0.00     0.211 HD
ENDBRANCH  36  38
BRANCH  37  40
HETATM   40  O7  UNL     1      41.065  32.839  50.478  1.00  0.00    -0.333 OA
BRANCH  40  41
HETATM   41  C12 UNL     1      42.232  32.326  51.085  1.00  0.00     0.378 A
HETATM   42  N5  UNL     1      42.818  33.347  51.888  1.00  0.00    -0.338 N
HETATM   43  C13 UNL     1      44.018  33.787  51.766  1.00  0.00     0.180 A
ATOM     44  H5  UNL     1      42.239  33.762  52.617  1.00  0.00     0.165 HD
HETATM   45  N6  UNL     1      44.836  33.218  50.756  1.00  0.00    -0.343 N
HETATM   46  C14 UNL     1      44.389  32.299  49.992  1.00  0.00     0.232 A
ATOM     47  H6  UNL     1      45.794  33.550  50.638  1.00  0.00     0.167 HD
HETATM   48  O8  UNL     1      43.117  31.826  50.114  1.00  0.00    -0.298 OA
ENDBRANCH  40  41
ENDBRANCH  37  40
ENDBRANCH  30  33
ENDBRANCH   1  30
TORSDOF 15
ENDMDL