MODEL 3
REMARK VINA RESULT: -6.719896203      4.034      6.573
REMARK  8 active torsions:
REMARK  status: ('A' for Active; 'I' for Inactive)
REMARK    1  A    between atoms: C2_2  and  C3_3
REMARK    2  A    between atoms: C3_3  and  O1_4
REMARK    3  A    between atoms: O1_4  and  N1_5
REMARK    4  A    between atoms: C9_12  and  C10_13
REMARK    5  A    between atoms: C10_13  and  O2_14
REMARK    6  A    between atoms: C10_13  and  C13_18
REMARK    7  A    between atoms: O2_14  and  C11_15
REMARK    8  A    between atoms: C16_22  and  O5_23
ROOT
HETATM    1  N1  UNL     1      90.350  45.613 267.649  1.00  0.00    -0.248 N
ATOM      2  H1  UNL     1      91.072  45.796 266.951  1.00  0.00     0.196 HD
HETATM    3  C4  UNL     1      90.562  44.689 268.503  1.00  0.00     0.138 C
HETATM    4  C5  UNL     1      91.778  43.841 268.576  1.00  0.00     0.087 C
HETATM    5  C6  UNL     1      91.496  42.623 269.431  1.00  0.00     0.020 C
HETATM    6  C7  UNL     1      91.070  43.040 270.845  1.00  0.00    -0.007 C
HETATM    7  C8  UNL     1      92.305  43.610 271.550  1.00  0.00     0.020 C
HETATM    8  C9  UNL     1      92.074  43.756 272.979  1.00  0.00     0.021 C
HETATM    9  C17 UNL     1      91.721  42.362 273.519  1.00  0.00    -0.003 C
HETATM   10  C18 UNL     1      92.517  41.241 273.003  1.00  0.00     0.006 C
HETATM   11  C19 UNL     1      91.665  40.042 273.476  1.00  0.00     0.009 C
HETATM   12  C20 UNL     1      90.252  40.577 273.578  1.00  0.00    -0.043 C
HETATM   13  C21 UNL     1      89.958  40.704 275.078  1.00  0.00     0.015 C
HETATM   14  C22 UNL     1      89.245  39.685 272.978  1.00  0.00     0.015 C
HETATM   15  C23 UNL     1      90.321  41.967 273.025  1.00  0.00     0.003 C
HETATM   16  C24 UNL     1      90.262  42.086 271.566  1.00  0.00     0.012 C
HETATM   17  C25 UNL     1      89.008  42.813 271.117  1.00  0.00    -0.015 C
HETATM   18  C26 UNL     1      88.282  42.210 269.963  1.00  0.00     0.018 C
HETATM   19  C27 UNL     1      88.068  43.247 272.194  1.00  0.00     0.018 C
HETATM   20  C28 UNL     1      89.928  43.989 270.758  1.00  0.00     0.147 C
HETATM   21  O6  UNL     1      89.598  44.424 269.458  1.00  0.00    -0.331 OA
ENDROOT
BRANCH   8  22
HETATM   22  C10 UNL     1      92.871  44.477 273.927  1.00  0.00     0.151 C
BRANCH  22  23
HETATM   23  O2  UNL     1      94.193  44.703 273.430  1.00  0.00    -0.315 OA
BRANCH  23  24
HETATM   24  C11 UNL     1      95.317  44.017 273.802  1.00  0.00     0.255 C
HETATM   25  C12 UNL     1      96.608  44.072 273.073  1.00  0.00     0.126 C
HETATM   26  O3  UNL     1      95.271  43.290 274.826  1.00  0.00    -0.266 OA
ENDBRANCH  23  24
ENDBRANCH  22  23
BRANCH  22  27
HETATM   27  C13 UNL     1      92.517  45.714 274.596  1.00  0.00     0.054 C
HETATM   28  C14 UNL     1      91.505  46.498 273.737  1.00  0.00     0.025 C
HETATM   29  C15 UNL     1      93.467  46.629 275.220  1.00  0.00     0.187 C
HETATM   30  O4  UNL     1      93.215  46.053 276.502  1.00  0.00    -0.359 OA
HETATM   31  C16 UNL     1      91.949  45.766 275.983  1.00  0.00     0.269 C
BRANCH  31  32
HETATM   32  O5  UNL     1      91.234  44.733 276.473  1.00  0.00    -0.370 OA
ATOM     33  H5  UNL     1      91.156  44.599 277.411  1.00  0.00     0.212 HD
ENDBRANCH  31  32
ENDBRANCH  22  27
ENDBRANCH   8  22
BRANCH   1  34
HETATM   34  O1  UNL     1      89.233  46.361 267.614  1.00  0.00    -0.279 OA
BRANCH  34  35
HETATM   35  C3  UNL     1      88.730  47.146 266.584  1.00  0.00     0.201 C
BRANCH  35  36
HETATM   36  C2  UNL     1      89.916  47.496 265.679  1.00  0.00     0.024 C
HETATM   37  C1  UNL     1      89.645  46.960 264.283  1.00  0.00     0.007 C
ENDBRANCH  35  36
ENDBRANCH  34  35
ENDBRANCH   1  34
TORSDOF 8
ENDMDL