MODEL 4
REMARK VINA RESULT: -8.437631346      4.435      7.109
REMARK  9 active torsions:
REMARK  status: ('A' for Active; 'I' for Inactive)
REMARK    1  A    between atoms: C3_3  and  C4_4
REMARK    2  A    between atoms: C3_3  and  C6_10
REMARK    3  A    between atoms: C4_4  and  C5_5
REMARK    4  A    between atoms: C5_5  and  O1_6
REMARK    5  A    between atoms: C5_5  and  O2_8
REMARK    6  A    between atoms: C6_10  and  O4_12
REMARK    7  A    between atoms: O4_12  and  C7_13
REMARK    8  A    between atoms: C21_29  and  C22_30
REMARK    9  A    between atoms: C22_30  and  C23_31
ROOT
HETATM    1  C7  UNL     1      90.408  44.168 268.060  1.00  0.00     0.139 C
HETATM    2  C8  UNL     1      91.189  42.954 267.734  1.00  0.00     0.034 C
HETATM    3  C9  UNL     1      91.439  41.935 268.745  1.00  0.00     0.015 C
HETATM    4  C10 UNL     1      90.829  42.115 270.126  1.00  0.00    -0.002 C
HETATM    5  C11 UNL     1      90.528  40.753 270.584  1.00  0.00     0.019 C
HETATM    6  C12 UNL     1      91.676  43.006 270.901  1.00  0.00     0.006 C
HETATM    7  C13 UNL     1      91.369  44.375 270.297  1.00  0.00     0.016 C
HETATM    8  C14 UNL     1      90.079  44.210 269.536  1.00  0.00     0.057 C
HETATM    9  C15 UNL     1      89.564  42.879 269.898  1.00  0.00     0.139 C
HETATM   10  O5  UNL     1      88.648  42.302 269.027  1.00  0.00    -0.225 OA
HETATM   11  O6  UNL     1      87.700  42.936 269.726  1.00  0.00    -0.231 OA
HETATM   12  C16 UNL     1      88.478  42.698 270.846  1.00  0.00     0.199 C
HETATM   13  C17 UNL     1      88.478  43.758 271.902  1.00  0.00     0.039 C
HETATM   14  C18 UNL     1      89.289  43.226 273.058  1.00  0.00     0.008 C
HETATM   15  C19 UNL     1      90.690  43.722 273.145  1.00  0.00    -0.005 C
HETATM   16  C20 UNL     1      91.026  43.588 274.633  1.00  0.00     0.010 C
HETATM   17  C21 UNL     1      92.350  44.036 275.063  1.00  0.00    -0.004 C
HETATM   18  C24 UNL     1      93.416  44.063 274.006  1.00  0.00     0.006 C
HETATM   19  C25 UNL     1      92.979  43.970 272.619  1.00  0.00     0.010 C
HETATM   20  C26 UNL     1      91.740  43.066 272.365  1.00  0.00    -0.036 C
HETATM   21  C27 UNL     1      92.171  41.721 272.934  1.00  0.00     0.016 C
ENDROOT
BRANCH   1  22
HETATM   22  O4  UNL     1      91.127  45.320 267.658  1.00  0.00    -0.312 OA
BRANCH  22  23
HETATM   23  C6  UNL     1      90.448  46.485 267.399  1.00  0.00     0.289 C
HETATM   24  O3  UNL     1      90.898  47.551 267.953  1.00  0.00    -0.260 OA
BRANCH  23  25
HETATM   25  C3  UNL     1      89.271  46.627 266.557  1.00  0.00     0.018 C
HETATM   26  C2  UNL     1      89.393  46.984 265.308  1.00  0.00    -0.018 C
HETATM   27  C1  UNL     1      90.699  47.261 264.681  1.00  0.00     0.036 C
BRANCH  25  28
HETATM   28  C4  UNL     1      87.964  46.345 267.199  1.00  0.00     0.104 C
BRANCH  28  29
HETATM   29  C5  UNL     1      87.126  45.305 266.564  1.00  0.00     0.258 C
BRANCH  29  30
HETATM   30  O1  UNL     1      85.872  45.702 266.154  1.00  0.00    -0.371 OA
ATOM     31  H1  UNL     1      85.501  45.225 265.421  1.00  0.00     0.212 HD
ENDBRANCH  29  30
BRANCH  29  32
HETATM   32  O2  UNL     1      87.018  44.157 267.378  1.00  0.00    -0.371 OA
ATOM     33  H2  UNL     1      86.484  43.487 266.969  1.00  0.00     0.212 HD
ENDBRANCH  29  32
ENDBRANCH  28  29
ENDBRANCH  25  28
ENDBRANCH  23  25
ENDBRANCH  22  23
ENDBRANCH   1  22
BRANCH  17  34
HETATM   34  C22 UNL     1      92.311  45.310 275.894  1.00  0.00     0.117 C
BRANCH  34  35
HETATM   35  C23 UNL     1      92.302  46.544 275.128  1.00  0.00     0.172 C
HETATM   36  O7  UNL     1      91.269  46.949 274.552  1.00  0.00    -0.648 OA
HETATM   37  O8  UNL     1      93.448  47.309 275.013  1.00  0.00    -0.648 OA
ENDBRANCH  34  35
ENDBRANCH  17  34
TORSDOF 9
ENDMDL