MODEL 4
REMARK VINA RESULT: -6.384435908      2.318      7.001
REMARK  7 active torsions:
REMARK  status: ('A' for Active; 'I' for Inactive)
REMARK    1  A    between atoms: C4_4  and  C5_5
REMARK    2  A    between atoms: C5_5  and  C7_7
REMARK    3  A    between atoms: C7_7  and  C8_8
REMARK    4  A    between atoms: C14_16  and  O3_17
REMARK    5  A    between atoms: C16_20  and  O4_21
REMARK    6  A    between atoms: C24_31  and  O6_32
REMARK    7  A    between atoms: O6_32  and  C25_33
ROOT
HETATM    1  C1  UNL     1      86.066  39.929 271.791  1.00  0.00     0.022 C
HETATM    2  C2  UNL     1      87.027  40.548 271.147  1.00  0.00    -0.018 C
HETATM    3  C3  UNL     1      87.116  40.353 269.683  1.00  0.00     0.056 C
HETATM    4  C4  UNL     1      86.233  41.203 268.864  1.00  0.00     0.093 C
HETATM    5  C10 UNL     1      85.872  42.502 269.483  1.00  0.00     0.263 C
HETATM    6  O1  UNL     1      85.022  42.483 270.412  1.00  0.00    -0.265 OA
HETATM    7  O2  UNL     1      86.387  43.716 269.130  1.00  0.00    -0.321 OA
HETATM    8  C11 UNL     1      86.971  44.070 267.918  1.00  0.00     0.185 C
HETATM    9  C12 UNL     1      87.007  45.593 267.735  1.00  0.00     0.035 C
HETATM   10  C13 UNL     1      85.643  46.182 267.925  1.00  0.00     0.015 C
HETATM   11  C14 UNL     1      87.502  45.881 266.357  1.00  0.00     0.126 C
HETATM   12  C15 UNL     1      89.027  45.747 266.269  1.00  0.00     0.068 C
HETATM   13  C16 UNL     1      89.719  46.852 267.023  1.00  0.00     0.149 C
HETATM   14  C17 UNL     1      91.069  46.397 267.524  1.00  0.00    -0.061 C
HETATM   15  C18 UNL     1      92.134  46.536 266.771  1.00  0.00     0.017 C
HETATM   16  C19 UNL     1      91.153  45.800 268.862  1.00  0.00     0.036 C
HETATM   17  C20 UNL     1      91.426  44.290 268.789  1.00  0.00     0.007 C
HETATM   18  C21 UNL     1      91.775  43.830 270.163  1.00  0.00     0.035 C
HETATM   19  C22 UNL     1      90.632  43.602 271.085  1.00  0.00     0.154 A
HETATM   20  O5  UNL     1      89.350  43.954 270.777  1.00  0.00    -0.372 OA
HETATM   21  C23 UNL     1      89.607  42.615 270.569  1.00  0.00     0.187 A
HETATM   22  C24 UNL     1      89.364  41.607 271.654  1.00  0.00     0.227 C
HETATM   23  C28 UNL     1      87.927  41.381 271.933  1.00  0.00     0.186 C
HETATM   24  O7  UNL     1      87.490  41.994 272.969  1.00  0.00    -0.290 OA
ENDROOT
BRANCH   4  25
HETATM   25  C5  UNL     1      84.998  40.516 268.325  1.00  0.00    -0.005 C
HETATM   26  C6  UNL     1      84.298  41.479 267.359  1.00  0.00     0.011 C
BRANCH  25  27
HETATM   27  C7  UNL     1      85.361  39.320 267.471  1.00  0.00     0.005 C
BRANCH  27  28
HETATM   28  C8  UNL     1      85.015  39.585 266.012  1.00  0.00    -0.004 C
HETATM   29  C9  UNL     1      86.227  39.141 265.187  1.00  0.00     0.005 C
ENDBRANCH  27  28
ENDBRANCH  25  27
ENDBRANCH   4  25
BRANCH  22  30
HETATM   30  O6  UNL     1      89.877  40.389 271.160  1.00  0.00    -0.371 OA
BRANCH  30  31
HETATM   31  C25 UNL     1      90.891  39.899 271.951  1.00  0.00     0.114 C
HETATM   32  C26 UNL     1      92.181  40.009 271.164  1.00  0.00     0.039 C
HETATM   33  C27 UNL     1      90.718  38.436 272.293  1.00  0.00     0.039 C
ENDBRANCH  30  31
ENDBRANCH  22  30
BRANCH  11  34
HETATM   34  O3  UNL     1      87.225  47.216 266.069  1.00  0.00    -0.395 OA
ATOM     35  H3  UNL     1      87.932  47.745 266.420  1.00  0.00     0.210 HD
ENDBRANCH  11  34
BRANCH  13  36
HETATM   36  O4  UNL     1      89.954  47.894 266.107  1.00  0.00    -0.391 OA
ATOM     37  H4  UNL     1      89.105  48.189 265.797  1.00  0.00     0.210 HD
ENDBRANCH  13  36
TORSDOF 7
ENDMDL