MODEL 2
REMARK VINA RESULT: -6.467777141      2.102      6.130
REMARK  9 active torsions:
REMARK  status: ('A' for Active; 'I' for Inactive)
REMARK    1  A    between atoms: C2_2  and  C3_3
REMARK    2  A    between atoms: C3_3  and  C4_4
REMARK    3  A    between atoms: C12_13  and  O2_14
REMARK    4  A    between atoms: O2_14  and  C13_15
REMARK    5  A    between atoms: C13_15  and  C14_17
REMARK    6  A    between atoms: C18_21  and  O4_22
REMARK    7  A    between atoms: O4_22  and  C19_23
REMARK    8  A    between atoms: C22_27  and  O6_28
REMARK    9  A    between atoms: C26_33  and  O7_34
ROOT
HETATM    1  C4  UNL     1      87.400  45.032 268.271  1.00  0.00     0.134 C
HETATM    2  O1  UNL     1      86.420  44.075 267.932  1.00  0.00    -0.371 OA
HETATM    3  C5  UNL     1      86.285  43.012 268.758  1.00  0.00     0.092 C
HETATM    4  C6  UNL     1      85.489  41.959 267.972  1.00  0.00     0.068 C
HETATM    5  C7  UNL     1      84.177  42.568 267.537  1.00  0.00    -0.021 C
HETATM    6  C8  UNL     1      83.440  43.046 268.538  1.00  0.00    -0.087 C
HETATM    7  C9  UNL     1      82.117  43.681 268.288  1.00  0.00     0.043 C
HETATM    8  C10 UNL     1      84.033  42.895 269.892  1.00  0.00     0.036 C
HETATM    9  C11 UNL     1      85.463  43.311 269.994  1.00  0.00     0.045 C
HETATM   10  C12 UNL     1      87.617  42.322 269.131  1.00  0.00     0.176 C
HETATM   11  C16 UNL     1      88.470  43.418 269.599  1.00  0.00     0.064 C
HETATM   12  C17 UNL     1      89.661  43.307 270.376  1.00  0.00    -0.027 C
HETATM   13  C18 UNL     1      89.796  42.549 271.582  1.00  0.00     0.081 C
HETATM   14  C21 UNL     1      91.082  42.510 271.896  1.00  0.00     0.043 C
HETATM   15  C22 UNL     1      91.881  43.273 270.869  1.00  0.00     0.156 C
HETATM   16  C23 UNL     1      90.959  43.015 269.658  1.00  0.00     0.014 C
HETATM   17  C24 UNL     1      91.218  41.607 269.317  1.00  0.00     0.023 C
HETATM   18  C25 UNL     1      91.074  44.056 268.619  1.00  0.00     0.049 C
HETATM   19  C26 UNL     1      89.932  45.073 268.589  1.00  0.00     0.130 C
HETATM   20  C27 UNL     1      88.676  44.314 268.353  1.00  0.00     0.018 C
HETATM   21  C28 UNL     1      88.837  43.582 267.075  1.00  0.00     0.021 C
ENDROOT
BRANCH  10  22
HETATM   22  O2  UNL     1      87.324  41.290 270.027  1.00  0.00    -0.312 OA
BRANCH  22  23
HETATM   23  C13 UNL     1      87.725  39.951 269.821  1.00  0.00     0.258 C
HETATM   24  O3  UNL     1      87.869  39.523 268.660  1.00  0.00    -0.265 OA
BRANCH  23  25
HETATM   25  C14 UNL     1      87.961  39.100 271.001  1.00  0.00     0.106 C
HETATM   26  C15 UNL     1      89.442  38.745 271.047  1.00  0.00     0.015 C
ENDBRANCH  23  25
ENDBRANCH  22  23
ENDBRANCH  10  22
BRANCH   1  27
HETATM   27  C3  UNL     1      87.180  46.218 267.456  1.00  0.00     0.032 C
BRANCH  27  28
HETATM   28  C2  UNL     1      86.212  46.121 266.307  1.00  0.00    -0.002 C
HETATM   29  C1  UNL     1      87.014  46.370 265.014  1.00  0.00     0.005 C
ENDBRANCH  27  28
ENDBRANCH   1  27
BRANCH  19  30
HETATM   30  O7  UNL     1      90.290  45.848 267.446  1.00  0.00    -0.395 OA
ATOM     31  H7  UNL     1      90.754  46.568 267.856  1.00  0.00     0.210 HD
ENDBRANCH  19  30
BRANCH  13  32
HETATM   32  O4  UNL     1      88.824  41.941 272.341  1.00  0.00    -0.279 OA
BRANCH  32  33
HETATM   33  C19 UNL     1      87.849  42.570 273.056  1.00  0.00     0.260 C
HETATM   34  C20 UNL     1      86.683  41.827 273.636  1.00  0.00     0.126 C
HETATM   35  O5  UNL     1      87.940  43.813 273.229  1.00  0.00    -0.265 OA
ENDBRANCH  32  33
ENDBRANCH  13  32
BRANCH  15  36
HETATM   36  O6  UNL     1      91.915  44.617 271.149  1.00  0.00    -0.391 OA
ATOM     37  H6  UNL     1      92.798  44.963 271.103  1.00  0.00     0.210 HD
ENDBRANCH  15  36
TORSDOF 9
ENDMDL