MODEL 1
REMARK VINA RESULT: -5.851181483      0.000      0.000
REMARK  9 active torsions:
REMARK  status: ('A' for Active; 'I' for Inactive)
REMARK    1  A    between atoms: C3_3  and  C5_5
REMARK    2  A    between atoms: C5_5  and  O2_7
REMARK    3  A    between atoms: O2_7  and  C6_8
REMARK    4  A    between atoms: C11_14  and  O4_16
REMARK    5  A    between atoms: C16_21  and  C17_22
REMARK    6  A    between atoms: C20_25  and  O5_26
REMARK    7  A    between atoms: C24_31  and  O6_32
REMARK    8  A    between atoms: O6_32  and  C25_33
REMARK    9  A    between atoms: C25_33  and  C26_35
ROOT
HETATM    1  C6  UNL     1      88.892  41.594 269.626  1.00  0.00     0.186 C
HETATM    2  C7  UNL     1      89.187  42.085 271.017  1.00  0.00     0.046 C
HETATM    3  C8  UNL     1      90.670  41.662 271.361  1.00  0.00     0.026 C
HETATM    4  C9  UNL     1      89.273  43.504 271.346  1.00  0.00     0.026 C
HETATM    5  C10 UNL     1      88.455  41.363 272.093  1.00  0.00     0.171 C
HETATM    6  O3  UNL     1      88.921  41.082 273.186  1.00  0.00    -0.294 OA
HETATM    7  C11 UNL     1      87.019  40.899 271.920  1.00  0.00     0.122 C
HETATM    8  C12 UNL     1      86.270  41.875 272.882  1.00  0.00     0.055 C
HETATM    9  C13 UNL     1      86.697  41.310 270.574  1.00  0.00     0.077 C
HETATM   10  C14 UNL     1      85.270  41.479 270.156  1.00  0.00     0.030 C
HETATM   11  C15 UNL     1      85.207  42.884 269.656  1.00  0.00    -0.014 C
HETATM   12  C16 UNL     1      86.059  42.909 268.623  1.00  0.00    -0.042 C
HETATM   13  C20 UNL     1      86.584  41.547 268.376  1.00  0.00     0.124 C
HETATM   14  C21 UNL     1      85.239  40.878 268.735  1.00  0.00    -0.002 C
HETATM   15  C22 UNL     1      84.920  39.510 268.663  1.00  0.00     0.019 C
HETATM   16  C23 UNL     1      84.170  41.625 267.897  1.00  0.00     0.019 C
HETATM   17  C24 UNL     1      87.535  40.935 269.412  1.00  0.00     0.141 C
ENDROOT
BRANCH   1  18
HETATM   18  O2  UNL     1      89.612  41.993 268.593  1.00  0.00    -0.308 OA
BRANCH  18  19
HETATM   19  C5  UNL     1      89.836  43.116 267.918  1.00  0.00     0.289 C
HETATM   20  O1  UNL     1      89.213  43.017 266.848  1.00  0.00    -0.260 OA
BRANCH  19  21
HETATM   21  C3  UNL     1      90.600  44.302 268.192  1.00  0.00     0.009 C
HETATM   22  C2  UNL     1      90.289  45.431 267.557  1.00  0.00    -0.018 C
HETATM   23  C1  UNL     1      91.032  46.694 267.782  1.00  0.00     0.036 C
HETATM   24  C4  UNL     1      91.740  44.380 269.142  1.00  0.00     0.054 C
ENDBRANCH  19  21
ENDBRANCH  18  19
ENDBRANCH   1  18
BRANCH  17  25
HETATM   25  O6  UNL     1      87.621  39.725 268.840  1.00  0.00    -0.299 OA
BRANCH  25  26
HETATM   26  C25 UNL     1      88.058  38.489 269.002  1.00  0.00     0.289 C
HETATM   27  O7  UNL     1      88.013  37.948 267.883  1.00  0.00    -0.260 OA
BRANCH  26  28
HETATM   28  C26 UNL     1      88.524  37.765 270.175  1.00  0.00     0.009 C
HETATM   29  C27 UNL     1      87.776  36.609 270.670  1.00  0.00     0.054 C
HETATM   30  C28 UNL     1      89.649  38.113 270.777  1.00  0.00    -0.018 C
HETATM   31  C29 UNL     1      90.080  37.345 271.965  1.00  0.00     0.036 C
ENDBRANCH  26  28
ENDBRANCH  25  26
ENDBRANCH  17  25
BRANCH  13  32
HETATM   32  O5  UNL     1      86.954  41.299 267.089  1.00  0.00    -0.381 OA
ATOM     33  H5  UNL     1      87.518  40.544 266.974  1.00  0.00     0.211 HD
ENDBRANCH  13  32
BRANCH   7  34
HETATM   34  O4  UNL     1      86.747  39.672 272.394  1.00  0.00    -0.382 OA
ATOM     35  H4  UNL     1      87.020  38.951 271.841  1.00  0.00     0.211 HD
ENDBRANCH   7  34
BRANCH  12  36
HETATM   36  C17 UNL     1      86.253  44.164 267.875  1.00  0.00     0.009 C
HETATM   37  C18 UNL     1      84.944  44.824 267.465  1.00  0.00     0.014 C
HETATM   38  C19 UNL     1      86.996  45.270 268.558  1.00  0.00     0.014 C
ENDBRANCH  12  36
TORSDOF 9
ENDMDL