MODEL 4
REMARK VINA RESULT: -7.105256783      3.056      4.097
REMARK  7 active torsions:
REMARK  status: ('A' for Active; 'I' for Inactive)
REMARK    1  A    between atoms: C2_2  and  C4_4
REMARK    2  A    between atoms: C21_25  and  O5_26
REMARK    3  A    between atoms: O5_26  and  C22_27
REMARK    4  A    between atoms: C22_27  and  C23_29
REMARK    5  A    between atoms: C23_29  and  C24_30
REMARK    6  A    between atoms: C24_30  and  C25_31
REMARK    7  A    between atoms: C26_34  and  O9_35
ROOT
HETATM    1  C4  UNL     1      89.465  46.552 264.343  1.00  0.00     0.000 C
HETATM    2  C5  UNL     1      89.484  45.050 264.339  1.00  0.00     0.018 C
HETATM    3  C6  UNL     1      88.922  44.607 265.651  1.00  0.00     0.075 C
HETATM    4  C7  UNL     1      88.089  45.765 266.188  1.00  0.00     0.234 C
HETATM    5  O1  UNL     1      86.780  45.540 265.762  1.00  0.00    -0.194 OA
HETATM    6  O2  UNL     1      86.070  46.562 266.212  1.00  0.00    -0.194 OA
HETATM    7  C8  UNL     1      85.989  46.419 267.581  1.00  0.00     0.234 C
HETATM    8  C9  UNL     1      85.384  47.704 268.165  1.00  0.00     0.079 C
HETATM    9  C10 UNL     1      83.899  47.634 268.284  1.00  0.00    -0.009 C
HETATM   10  C11 UNL     1      83.420  47.001 269.566  1.00  0.00     0.009 C
HETATM   11  C12 UNL     1      83.412  45.508 269.532  1.00  0.00    -0.013 C
HETATM   12  C13 UNL     1      82.733  44.950 268.286  1.00  0.00     0.010 C
HETATM   13  C14 UNL     1      83.695  45.468 267.206  1.00  0.00    -0.004 C
HETATM   14  C15 UNL     1      83.346  46.956 267.064  1.00  0.00     0.010 C
HETATM   15  C16 UNL     1      85.027  45.252 267.836  1.00  0.00     0.058 C
HETATM   16  C17 UNL     1      84.841  45.044 269.304  1.00  0.00     0.015 C
HETATM   17  O3  UNL     1      87.178  46.219 268.209  1.00  0.00    -0.194 OA
HETATM   18  O4  UNL     1      88.144  45.722 267.547  1.00  0.00    -0.194 OA
HETATM   19  C18 UNL     1      88.715  46.973 265.566  1.00  0.00     0.065 C
HETATM   20  C19 UNL     1      89.553  47.760 266.540  1.00  0.00     0.014 C
HETATM   21  C20 UNL     1      90.847  47.050 266.848  1.00  0.00     0.036 C
HETATM   22  C21 UNL     1      91.609  46.654 265.609  1.00  0.00     0.161 C
HETATM   23  C26 UNL     1      90.905  47.024 264.336  1.00  0.00     0.157 C
ENDROOT
BRANCH   1  24
HETATM   24  C2  UNL     1      88.860  47.110 263.058  1.00  0.00    -0.011 C
HETATM   25  C1  UNL     1      89.783  46.740 261.920  1.00  0.00     0.010 C
HETATM   26  C3  UNL     1      87.497  46.591 262.772  1.00  0.00     0.010 C
ENDBRANCH   1  24
BRANCH  23  27
HETATM   27  O9  UNL     1      90.920  48.369 264.055  1.00  0.00    -0.392 OA
ATOM     28  H9  UNL     1      91.322  48.824 264.786  1.00  0.00     0.210 HD
ENDBRANCH  23  27
BRANCH  22  29
HETATM   29  O5  UNL     1      92.892  47.166 265.718  1.00  0.00    -0.313 OA
BRANCH  29  30
HETATM   30  C22 UNL     1      93.307  48.111 266.648  1.00  0.00     0.259 C
HETATM   31  O6  UNL     1      94.024  47.649 267.558  1.00  0.00    -0.265 OA
BRANCH  30  32
HETATM   32  C23 UNL     1      92.954  49.527 266.594  1.00  0.00     0.121 C
BRANCH  32  33
HETATM   33  C24 UNL     1      92.995  50.124 267.971  1.00  0.00     0.123 C
BRANCH  33  34
HETATM   34  C25 UNL     1      94.135  51.028 268.214  1.00  0.00     0.172 C
HETATM   35  O7  UNL     1      95.043  51.134 267.367  1.00  0.00    -0.648 OA
HETATM   36  O8  UNL     1      94.238  51.785 269.383  1.00  0.00    -0.648 OA
ENDBRANCH  33  34
ENDBRANCH  32  33
ENDBRANCH  30  32
ENDBRANCH  29  30
ENDBRANCH  22  29
TORSDOF 7
ENDMDL