MODEL 4
REMARK VINA RESULT: -5.168179555      2.691      6.923
REMARK  9 active torsions:
REMARK  status: ('A' for Active; 'I' for Inactive)
REMARK    1  A    between atoms: O1_2  and  C2_3
REMARK    2  A    between atoms: C2_3  and  C3_5
REMARK    3  A    between atoms: C6_9  and  O4_10
REMARK    4  A    between atoms: C8_12  and  O5_13
REMARK    5  A    between atoms: O5_13  and  O6_14
REMARK    6  A    between atoms: C23_30  and  C24_31
REMARK    7  A    between atoms: C24_31  and  C25_32
REMARK    8  A    between atoms: C25_32  and  C26_33
REMARK    9  A    between atoms: C26_33  and  O7_36
ROOT
HETATM    1  C3  UNL     1      90.592  41.429 271.395  1.00  0.00     0.111 C
HETATM    2  C4  UNL     1      91.825  40.815 272.107  1.00  0.00     0.035 C
HETATM    3  C5  UNL     1      89.566  41.471 272.417  1.00  0.00     0.176 C
HETATM    4  O3  UNL     1      89.261  42.527 272.905  1.00  0.00    -0.294 OA
HETATM    5  C6  UNL     1      88.792  40.361 272.988  1.00  0.00     0.224 C
HETATM    6  C8  UNL     1      87.440  40.769 273.476  1.00  0.00     0.207 C
HETATM    7  C9  UNL     1      86.278  40.270 272.589  1.00  0.00     0.002 C
HETATM    8  C10 UNL     1      85.098  40.358 273.591  1.00  0.00     0.022 C
HETATM    9  C11 UNL     1      86.429  38.832 272.302  1.00  0.00     0.022 C
HETATM   10  C12 UNL     1      86.101  41.232 271.466  1.00  0.00    -0.019 C
HETATM   11  C13 UNL     1      85.506  41.327 270.345  1.00  0.00    -0.026 C
HETATM   12  C14 UNL     1      85.363  42.330 269.239  1.00  0.00     0.004 C
HETATM   13  C15 UNL     1      84.226  41.817 268.289  1.00  0.00     0.014 C
HETATM   14  C16 UNL     1      86.596  42.543 268.414  1.00  0.00     0.012 C
HETATM   15  C17 UNL     1      87.181  43.903 268.419  1.00  0.00    -0.018 C
HETATM   16  C18 UNL     1      86.171  45.024 268.494  1.00  0.00     0.010 C
HETATM   17  C19 UNL     1      88.192  44.108 269.525  1.00  0.00     0.005 C
HETATM   18  C20 UNL     1      89.623  44.125 269.048  1.00  0.00     0.005 C
HETATM   19  C21 UNL     1      90.391  42.864 269.317  1.00  0.00    -0.013 C
HETATM   20  C22 UNL     1      91.487  42.848 268.231  1.00  0.00     0.010 C
HETATM   21  C23 UNL     1      90.970  42.681 270.692  1.00  0.00     0.015 C
ENDROOT
BRANCH  21  22
HETATM   22  C24 UNL     1      91.117  43.933 271.472  1.00  0.00     0.009 C
BRANCH  22  23
HETATM   23  C25 UNL     1      92.429  44.108 272.197  1.00  0.00     0.037 C
BRANCH  23  24
HETATM   24  C26 UNL     1      92.065  44.513 273.635  1.00  0.00     0.051 C
HETATM   25  C27 UNL     1      92.295  43.316 274.568  1.00  0.00     0.045 C
HETATM   26  C28 UNL     1      92.933  45.646 274.118  1.00  0.00     0.045 C
BRANCH  24  27
HETATM   27  O7  UNL     1      90.736  44.858 273.743  1.00  0.00    -0.391 OA
ATOM     28  H7  UNL     1      90.385  45.160 272.914  1.00  0.00     0.210 HD
ENDBRANCH  24  27
ENDBRANCH  23  24
ENDBRANCH  22  23
ENDBRANCH  21  22
BRANCH   1  29
HETATM   29  C2  UNL     1      90.309  40.407 270.314  1.00  0.00     0.274 C
HETATM   30  O2  UNL     1      91.134  39.601 269.860  1.00  0.00    -0.264 OA
BRANCH  29  31
HETATM   31  O1  UNL     1      89.028  40.316 269.743  1.00  0.00    -0.326 OA
HETATM   32  C1  UNL     1      88.444  39.043 269.440  1.00  0.00     0.213 C
ENDBRANCH  29  31
ENDBRANCH   1  29
BRANCH   5  33
HETATM   33  O4  UNL     1      89.527  39.934 274.129  1.00  0.00    -0.380 OA
HETATM   34  C7  UNL     1      89.896  38.610 274.060  1.00  0.00     0.202 C
ENDBRANCH   5  33
BRANCH   6  35
HETATM   35  O5  UNL     1      87.268  40.350 274.784  1.00  0.00    -0.234 OA
BRANCH  35  36
HETATM   36  O6  UNL     1      87.596  41.261 275.674  1.00  0.00    -0.250 OA
ATOM     37  H6  UNL     1      87.314  42.137 275.441  1.00  0.00     0.253 HD
ENDBRANCH  35  36
ENDBRANCH   6  35
TORSDOF 9
ENDMDL