MODEL 2
REMARK VINA RESULT: -7.381112863      1.592      3.076
REMARK  10 active torsions:
REMARK  status: ('A' for Active; 'I' for Inactive)
REMARK    1  A    between atoms: C3_5  and  C4_6
REMARK    2  A    between atoms: C4_6  and  C5_7
REMARK    3  A    between atoms: C5_7  and  C6_8
REMARK    4  A    between atoms: C6_8  and  N3_19
REMARK    5  A    between atoms: N2_9  and  C7_11
REMARK    6  A    between atoms: C16_21  and  O1_22
REMARK    7  A    between atoms: O1_22  and  C17_23
REMARK    8  A    between atoms: C21_27  and  C22_28
REMARK    9  A    between atoms: C22_28  and  O2_29
REMARK   10  A    between atoms: N4_31  and  O3_33
ROOT
HETATM    1  C6  UNL     1      84.531  46.721 268.721  1.00  0.00     0.100 C
HETATM    2  N2  UNL     1      85.651  47.072 268.178  1.00  0.00    -0.374 N
ATOM      3  H2  UNL     1      85.934  48.051 268.224  1.00  0.00     0.161 HD
ENDROOT
BRANCH   1   4
HETATM    4  C5  UNL     1      83.738  47.776 269.371  1.00  0.00     0.084 C
BRANCH   4   5
HETATM    5  C4  UNL     1      84.344  49.131 269.249  1.00  0.00     0.065 C
BRANCH   5   6
HETATM    6  C3  UNL     1      83.237  50.168 269.176  1.00  0.00     0.016 A
HETATM    7  N1  UNL     1      82.997  50.812 268.071  1.00  0.00    -0.357 N
HETATM    8  C2  UNL     1      82.032  51.705 268.033  1.00  0.00     0.046 A
ATOM      9  H1  UNL     1      83.555  50.626 267.238  1.00  0.00     0.166 HD
HETATM   10  C1  UNL     1      81.556  52.573 266.907  1.00  0.00     0.076 C
HETATM   11  S1  UNL     1      81.411  51.661 269.619  1.00  0.00    -0.087 SA
HETATM   12  C25 UNL     1      82.450  50.467 270.262  1.00  0.00     0.076 A
ENDBRANCH   5   6
ENDBRANCH   4   5
ENDBRANCH   1   4
BRANCH   1  13
HETATM   13  N3  UNL     1      84.047  45.395 268.714  1.00  0.00    -0.244 N
HETATM   14  C15 UNL     1      83.612  44.835 269.993  1.00  0.00     0.190 C
HETATM   15  C16 UNL     1      82.742  43.571 269.663  1.00  0.00     0.154 C
HETATM   16  C21 UNL     1      81.627  44.043 268.751  1.00  0.00     0.095 C
HETATM   17  C23 UNL     1      81.983  43.673 267.345  1.00  0.00     0.044 C
HETATM   18  C24 UNL     1      82.863  44.830 266.836  1.00  0.00     0.202 C
HETATM   19  O4  UNL     1      84.051  44.796 267.509  1.00  0.00    -0.277 OA
BRANCH  15  20
HETATM   20  O1  UNL     1      83.573  42.760 268.982  1.00  0.00    -0.373 OA
BRANCH  20  21
HETATM   21  C17 UNL     1      84.210  41.716 269.487  1.00  0.00     0.050 C
HETATM   22  C18 UNL     1      83.659  41.277 270.815  1.00  0.00     0.045 C
HETATM   23  C19 UNL     1      85.714  41.849 269.610  1.00  0.00     0.045 C
HETATM   24  C20 UNL     1      84.005  40.523 268.528  1.00  0.00     0.045 C
ENDBRANCH  20  21
ENDBRANCH  15  20
BRANCH  16  25
HETATM   25  C22 UNL     1      80.351  43.474 269.185  1.00  0.00     0.142 C
HETATM   26  N4  UNL     1      80.297  42.402 269.869  1.00  0.00    -0.251 N
ATOM     27  H4  UNL     1      81.165  41.930 270.119  1.00  0.00     0.196 HD
BRANCH  25  28
HETATM   28  O2  UNL     1      79.140  44.105 268.859  1.00  0.00    -0.348 OA
ATOM     29  H2  UNL     1      79.008  45.026 269.054  1.00  0.00     0.219 HD
ENDBRANCH  25  28
BRANCH  26  30
HETATM   30  O3  UNL     1      79.120  41.869 270.273  1.00  0.00    -0.288 OA
ATOM     31  H3  UNL     1      78.313  42.370 270.265  1.00  0.00     0.244 HD
ENDBRANCH  26  30
ENDBRANCH  16  25
ENDBRANCH   1  13
BRANCH   2  32
HETATM   32  C7  UNL     1      86.521  46.126 267.507  1.00  0.00     0.082 C
HETATM   33  C8  UNL     1      87.175  46.743 266.325  1.00  0.00     0.025 C
HETATM   34  C9  UNL     1      88.500  47.393 266.618  1.00  0.00     0.002 C
HETATM   35  C10 UNL     1      89.659  46.523 266.146  1.00  0.00     0.000 C
HETATM   36  C11 UNL     1      90.392  46.052 267.355  1.00  0.00     0.000 C
HETATM   37  C12 UNL     1      89.861  44.835 267.998  1.00  0.00     0.000 C
HETATM   38  C13 UNL     1      88.405  44.558 267.727  1.00  0.00     0.002 C
HETATM   39  C14 UNL     1      87.490  45.479 268.476  1.00  0.00     0.025 C
ENDBRANCH   2  32
TORSDOF 10
ENDMDL