MODEL 4
REMARK VINA RESULT: -7.122532857      2.386      3.656
REMARK  8 active torsions:
REMARK  status: ('A' for Active; 'I' for Inactive)
REMARK    1  A    between atoms: C2_2  and  C3_3
REMARK    2  A    between atoms: C3_3  and  C4_4
REMARK    3  A    between atoms: C4_4  and  C5_5
REMARK    4  A    between atoms: C5_5  and  O1_6
REMARK    5  A    between atoms: C19_23  and  O4_24
REMARK    6  A    between atoms: O4_24  and  C20_25
REMARK    7  A    between atoms: C20_25  and  C21_27
REMARK    8  A    between atoms: C25_31  and  O6_32
ROOT
HETATM    1  C5  UNL     1      87.290  41.871 270.249  1.00  0.00     0.071 C
HETATM    2  C6  UNL     1      87.941  40.868 269.329  1.00  0.00     0.017 C
HETATM    3  C7  UNL     1      89.254  40.327 269.885  1.00  0.00     0.013 C
HETATM    4  C8  UNL     1      87.051  39.626 269.163  1.00  0.00     0.007 C
HETATM    5  C9  UNL     1      86.251  39.798 267.922  1.00  0.00     0.005 C
HETATM    6  C10 UNL     1      85.150  38.809 267.738  1.00  0.00    -0.009 C
HETATM    7  C11 UNL     1      85.360  38.096 266.417  1.00  0.00     0.010 C
HETATM    8  C12 UNL     1      83.781  39.491 267.786  1.00  0.00     0.115 C
HETATM    9  C13 UNL     1      83.563  40.352 266.591  1.00  0.00     0.259 C
HETATM   10  O2  UNL     1      83.443  39.728 265.499  1.00  0.00    -0.265 OA
HETATM   11  O3  UNL     1      83.511  41.701 266.748  1.00  0.00    -0.316 OA
HETATM   12  C14 UNL     1      82.657  42.507 267.475  1.00  0.00     0.135 C
HETATM   13  C15 UNL     1      81.343  41.845 267.848  1.00  0.00     0.040 C
HETATM   14  C16 UNL     1      83.213  43.104 268.731  1.00  0.00     0.059 C
HETATM   15  C17 UNL     1      82.243  44.126 269.272  1.00  0.00     0.013 C
HETATM   16  C18 UNL     1      83.096  45.368 269.570  1.00  0.00     0.036 C
HETATM   17  C19 UNL     1      84.147  45.256 268.537  1.00  0.00     0.174 C
HETATM   18  C25 UNL     1      84.539  43.815 268.546  1.00  0.00     0.151 C
HETATM   19  C26 UNL     1      85.478  43.456 269.617  1.00  0.00     0.170 C
HETATM   20  O7  UNL     1      84.954  43.394 270.745  1.00  0.00    -0.294 OA
HETATM   21  C27 UNL     1      86.906  43.163 269.572  1.00  0.00     0.089 C
HETATM   22  C28 UNL     1      87.572  43.385 268.249  1.00  0.00     0.021 C
ENDROOT
BRANCH  17  23
HETATM   23  O4  UNL     1      85.232  46.137 268.688  1.00  0.00    -0.309 OA
BRANCH  23  24
HETATM   24  C20 UNL     1      85.538  47.126 267.757  1.00  0.00     0.283 C
HETATM   25  O5  UNL     1      85.547  48.295 268.207  1.00  0.00    -0.260 OA
BRANCH  24  26
HETATM   26  C21 UNL     1      85.823  46.787 266.359  1.00  0.00     0.084 C
HETATM   27  C22 UNL     1      87.044  46.636 265.902  1.00  0.00    -0.082 C
HETATM   28  C23 UNL     1      88.232  46.799 266.769  1.00  0.00     0.043 C
HETATM   29  C24 UNL     1      87.255  46.294 264.474  1.00  0.00     0.043 C
ENDBRANCH  24  26
ENDBRANCH  23  24
ENDBRANCH  17  23
BRANCH  18  30
HETATM   30  O6  UNL     1      84.961  43.498 267.262  1.00  0.00    -0.379 OA
ATOM     31  H6  UNL     1      84.417  44.013 266.678  1.00  0.00     0.211 HD
ENDBRANCH  18  30
BRANCH   1  32
HETATM   32  C4  UNL     1      88.155  42.051 271.472  1.00  0.00     0.039 C
BRANCH  32  33
HETATM   33  C3  UNL     1      88.600  43.478 271.695  1.00  0.00     0.002 C
BRANCH  33  34
HETATM   34  C2  UNL     1      90.128  43.482 271.748  1.00  0.00    -0.004 C
HETATM   35  C1  UNL     1      90.641  43.872 270.378  1.00  0.00     0.005 C
ENDBRANCH  33  34
ENDBRANCH  32  33
ENDBRANCH   1  32
BRANCH   1  36
HETATM   36  O1  UNL     1      86.084  41.310 270.746  1.00  0.00    -0.389 OA
ATOM     37  H1  UNL     1      85.681  40.901 269.988  1.00  0.00     0.210 HD
ENDBRANCH   1  36
TORSDOF 8
ENDMDL