MODEL 2
REMARK VINA RESULT: -9.628146814      1.357      2.177
REMARK  7 active torsions:
REMARK  status: ('A' for Active; 'I' for Inactive)
REMARK    1  A    between atoms: N1_2  and  C2_5
REMARK    2  A    between atoms: C2_5  and  C4_7
REMARK       I    between atoms: C4_7  and  N2_9
REMARK    3  A    between atoms: N2_9  and  C5_11
REMARK    4  A    between atoms: C7_15  and  C8_16
REMARK    5  A    between atoms: N4_19  and  C11_20
REMARK    6  A    between atoms: C11_20  and  C12_21
REMARK    7  A    between atoms: C21_31  and  C22_32
ROOT
HETATM    1  C5  UNL     1      25.129 163.265 146.572  1.00  0.00     0.121 A
HETATM    2  N3  UNL     1      26.381 163.717 146.636  1.00  0.00    -0.351 N
ATOM      3  H3  UNL     1      27.043 163.409 145.923  1.00  0.00     0.166 HD
HETATM    4  C6  UNL     1      26.821 164.562 147.594  1.00  0.00     0.097 A
HETATM    5  C7  UNL     1      25.950 165.012 148.594  1.00  0.00    -0.037 A
HETATM    6  C20 UNL     1      24.662 164.559 148.543  1.00  0.00     0.027 A
HETATM    7  C21 UNL     1      24.224 163.683 147.542  1.00  0.00     0.046 A
ENDROOT
BRANCH   5   8
HETATM    8  C8  UNL     1      26.478 165.938 149.622  1.00  0.00     0.024 C
HETATM    9  C9  UNL     1      27.999 165.855 149.512  1.00  0.00     0.029 C
HETATM   10  C10 UNL     1      28.583 164.843 150.452  1.00  0.00     0.119 C
HETATM   11  N4  UNL     1      28.270 165.212 151.791  1.00  0.00    -0.395 N
HETATM   12  C18 UNL     1      27.077 165.932 152.006  1.00  0.00     0.177 C
HETATM   13 CL1  UNL     1      27.465 167.684 152.073  1.00  0.00    -0.103 Cl
HETATM   14  C19 UNL     1      25.977 165.750 150.997  1.00  0.00     0.050 C
BRANCH  11  15
HETATM   15  C11 UNL     1      28.694 164.293 152.788  1.00  0.00     0.122 C
BRANCH  15  16
HETATM   16  C12 UNL     1      27.841 164.511 154.027  1.00  0.00     0.003 C
HETATM   17  C13 UNL     1      28.631 164.396 155.296  1.00  0.00     0.006 C
HETATM   18  C14 UNL     1      27.756 164.963 156.401  1.00  0.00     0.000 C
HETATM   19  C15 UNL     1      26.441 164.232 156.388  1.00  0.00     0.000 C
HETATM   20  C16 UNL     1      26.405 163.092 155.400  1.00  0.00     0.000 C
HETATM   21  C17 UNL     1      26.710 163.514 153.988  1.00  0.00     0.006 C
ENDBRANCH  15  16
ENDBRANCH  11  15
ENDBRANCH   5   8
BRANCH   7  22
HETATM   22  C22 UNL     1      22.834 163.260 147.566  1.00  0.00     0.273 C
HETATM   23  O2  UNL     1      22.517 162.161 148.063  1.00  0.00    -0.301 OA
ENDBRANCH   7  22
BRANCH   1  24
HETATM   24  N2  UNL     1      24.745 162.459 145.672  1.00  0.00    -0.311 N
HETATM   25  C4  UNL     1      25.012 161.108 145.500  1.00  0.00     0.253 C
HETATM   26  O1  UNL     1      26.011 160.457 145.887  1.00  0.00    -0.271 OA
ATOM     27  H2  UNL     1      24.144 162.870 144.958  1.00  0.00     0.170 HD
BRANCH  25  28
HETATM   28  C2  UNL     1      23.959 160.309 144.745  1.00  0.00     0.273 C
HETATM   29  C3  UNL     1      24.430 158.870 144.636  1.00  0.00     0.050 C
BRANCH  28  30
HETATM   30  N1  UNL     1      22.725 160.456 145.443  1.00  0.00    -0.067 N
HETATM   31  C1  UNL     1      21.782 161.289 144.765  1.00  0.00     0.267 C
ATOM     32  H12 UNL     1      22.884 160.791 146.393  1.00  0.00     0.277 HD
ATOM     33  H11 UNL     1      22.317 159.545 145.650  1.00  0.00     0.277 HD
ENDBRANCH  28  30
ENDBRANCH  25  28
ENDBRANCH   1  24
TORSDOF 7
ENDMDL