MODEL 5
REMARK VINA RESULT: -7.526938126      1.323      1.896
REMARK  8 active torsions:
REMARK  status: ('A' for Active; 'I' for Inactive)
REMARK    1  A    between atoms: C2_2  and  N1_3
REMARK    2  A    between atoms: N1_3  and  C3_4
REMARK    3  A    between atoms: N1_3  and  C5_6
REMARK    4  A    between atoms: C5_6  and  C6_7
REMARK    5  A    between atoms: C6_7  and  N2_8
REMARK    6  A    between atoms: N2_8  and  C7_10
REMARK    7  A    between atoms: C8_13  and  N4_14
REMARK    8  A    between atoms: N4_14  and  C9_16
ROOT
HETATM    1  C7  UNL     1      26.292 164.305 148.846  1.00  0.00     0.683 A
HETATM    2  N3  UNL     1      26.859 164.240 150.110  1.00  0.00    -0.176 N
ATOM      3  H3  UNL     1      27.092 163.314 150.470  1.00  0.00     0.186 HD
HETATM    4  C8  UNL     1      27.125 165.280 150.895  1.00  0.00     0.130 A
HETATM    5  C16 UNL     1      26.792 166.541 150.374  1.00  0.00     0.043 A
HETATM    6  C17 UNL     1      26.990 167.706 151.069  1.00  0.00    -0.024 A
HETATM    7  C18 UNL     1      27.559 167.701 152.402  1.00  0.00     0.051 C
HETATM    8  C19 UNL     1      26.610 168.928 150.471  1.00  0.00     0.041 A
HETATM    9 CL1  UNL     1      26.879 170.392 151.416  1.00  0.00    -0.084 Cl
HETATM   10  C20 UNL     1      26.055 169.025 149.235  1.00  0.00     0.026 A
HETATM   11  C21 UNL     1      25.858 167.860 148.542  1.00  0.00     0.033 A
HETATM   12  C22 UNL     1      26.228 166.641 149.119  1.00  0.00     0.063 A
HETATM   13  N6  UNL     1      25.998 165.540 148.403  1.00  0.00    -0.191 N
ATOM     14  H6  UNL     1      25.581 165.639 147.478  1.00  0.00     0.184 HD
ENDROOT
BRANCH   4  15
HETATM   15  N4  UNL     1      27.624 165.189 152.019  1.00  0.00    -0.369 N
ATOM     16  H4  UNL     1      28.543 165.631 152.005  1.00  0.00     0.161 HD
BRANCH  15  17
HETATM   17  C9  UNL     1      27.382 164.703 153.295  1.00  0.00     0.111 C
HETATM   18  C10 UNL     1      26.498 163.521 153.525  1.00  0.00     0.027 C
HETATM   19  C11 UNL     1      26.635 162.828 154.837  1.00  0.00     0.004 C
HETATM   20  C12 UNL     1      26.622 163.621 156.068  1.00  0.00     0.030 C
HETATM   21  C13 UNL     1      27.128 165.004 156.059  1.00  0.00     0.272 C
HETATM   22  N5  UNL     1      28.421 165.132 155.474  1.00  0.00     0.086 N
HETATM   23  C14 UNL     1      28.878 166.486 155.392  1.00  0.00     0.310 C
HETATM   24  C15 UNL     1      28.578 164.462 154.192  1.00  0.00     0.296 C
ENDBRANCH  15  17
ENDBRANCH   4  15
BRANCH   1  25
HETATM   25  N2  UNL     1      26.117 163.250 148.267  1.00  0.00    -0.203 N
ATOM     26  H2  UNL     1      26.234 162.525 148.975  1.00  0.00     0.183 HD
BRANCH  25  27
HETATM   27  C6  UNL     1      25.835 162.594 147.110  1.00  0.00     0.109 C
BRANCH  27  28
HETATM   28  C5  UNL     1      24.639 163.127 146.319  1.00  0.00     0.317 C
BRANCH  28  29
HETATM   29  N1  UNL     1      23.543 162.185 146.254  1.00  0.00     0.092 N
BRANCH  29  30
HETATM   30  C2  UNL     1      22.380 162.797 146.829  1.00  0.00     0.268 C
HETATM   31  C1  UNL     1      22.039 162.109 148.151  1.00  0.00     0.037 C
ENDBRANCH  29  30
BRANCH  29  32
HETATM   32  C3  UNL     1      23.347 161.717 144.928  1.00  0.00     0.268 C
HETATM   33  C4  UNL     1      21.960 161.185 144.735  1.00  0.00     0.037 C
ENDBRANCH  29  32
ENDBRANCH  28  29
ENDBRANCH  27  28
ENDBRANCH  25  27
ENDBRANCH   1  25
TORSDOF 8
ENDMDL