MODEL 1
REMARK VINA RESULT: -7.688652923      0.000      0.000
REMARK  13 active torsions:
REMARK  status: ('A' for Active; 'I' for Inactive)
REMARK    1  A    between atoms: C2_2  and  C4_4
REMARK    2  A    between atoms: C4_4  and  N1_5
REMARK    3  A    between atoms: N1_5  and  C5_7
REMARK    4  A    between atoms: C6_10  and  C7_11
REMARK    5  A    between atoms: C7_11  and  O1_12
REMARK    6  A    between atoms: C7_11  and  N3_14
REMARK    7  A    between atoms: N3_14  and  C9_16
REMARK    8  A    between atoms: C9_16  and  C10_17
REMARK    9  A    between atoms: C10_17  and  C11_18
REMARK   10  A    between atoms: C16_25  and  C17_26
REMARK   11  A    between atoms: C18_27  and  C19_28
REMARK   12  A    between atoms: C19_28  and  C20_29
REMARK   13  A    between atoms: C21_31  and  N5_32
ROOT
HETATM    1  C5  UNL     1      24.495 163.217 146.899  1.00  0.00     0.680 A
HETATM    2  N2  UNL     1      24.393 164.186 147.834  1.00  0.00    -0.186 N
ATOM      3  H2  UNL     1      23.482 164.602 148.026  1.00  0.00     0.184 HD
HETATM    4  C6  UNL     1      25.473 164.615 148.521  1.00  0.00     0.122 A
HETATM    5  C16 UNL     1      26.721 164.035 148.247  1.00  0.00     0.093 A
HETATM    6  C21 UNL     1      26.785 163.049 147.285  1.00  0.00     0.136 A
HETATM    7  N6  UNL     1      25.668 162.669 146.639  1.00  0.00    -0.176 N
ATOM      8  H6  UNL     1      25.729 161.939 145.930  1.00  0.00     0.186 HD
ENDROOT
BRANCH   4   9
HETATM    9  C7  UNL     1      25.391 165.634 149.509  1.00  0.00     0.167 C
BRANCH   9  10
HETATM   10  O1  UNL     1      24.931 165.251 150.670  1.00  0.00    -0.344 OA
ATOM     11  H1  UNL     1      24.283 165.826 151.061  1.00  0.00     0.219 HD
ENDBRANCH   9  10
BRANCH   9  12
HETATM   12  N3  UNL     1      25.711 166.983 149.473  1.00  0.00    -0.364 N
HETATM   13  C8  UNL     1      25.896 167.831 148.341  1.00  0.00     0.151 C
BRANCH  12  14
HETATM   14  C9  UNL     1      25.909 167.697 150.807  1.00  0.00     0.129 C
BRANCH  14  15
HETATM   15  C10 UNL     1      27.366 168.002 150.841  1.00  0.00     0.058 C
BRANCH  15  16
HETATM   16  C11 UNL     1      28.081 167.417 151.977  1.00  0.00    -0.054 A
HETATM   17  C12 UNL     1      29.252 167.918 152.510  1.00  0.00     0.024 A
HETATM   18  C13 UNL     1      29.893 167.339 153.578  1.00  0.00     0.088 A
HETATM   19  N4  UNL     1      29.368 166.247 154.127  1.00  0.00    -0.375 N
HETATM   20  C14 UNL     1      28.229 165.698 153.666  1.00  0.00     0.088 A
ATOM     21  H4  UNL     1      29.842 165.812 154.920  1.00  0.00     0.164 HD
HETATM   22  C15 UNL     1      27.572 166.285 152.578  1.00  0.00     0.024 A
ENDBRANCH  15  16
ENDBRANCH  14  15
ENDBRANCH  12  14
ENDBRANCH   9  12
ENDBRANCH   4   9
BRANCH   5  23
HETATM   23  C17 UNL     1      27.913 164.427 148.924  1.00  0.00    -0.061 C
HETATM   24  C18 UNL     1      28.954 164.716 149.515  1.00  0.00    -0.100 C
BRANCH  24  25
HETATM   25  C19 UNL     1      30.183 165.043 150.236  1.00  0.00     0.109 C
BRANCH  25  26
HETATM   26  C20 UNL     1      30.436 164.054 151.363  1.00  0.00     0.126 C
HETATM   27 CL1  UNL     1      29.919 162.448 150.739  1.00  0.00    -0.130 Cl
ENDBRANCH  25  26
ENDBRANCH  24  25
ENDBRANCH   5  23
BRANCH   1  28
HETATM   28  N1  UNL     1      23.437 162.845 146.273  1.00  0.00    -0.226 N
ATOM     29  H1  UNL     1      22.988 163.503 145.638  1.00  0.00     0.177 HD
BRANCH  28  30
HETATM   30  C4  UNL     1      22.859 161.532 146.431  1.00  0.00     0.142 C
BRANCH  30  31
HETATM   31  C2  UNL     1      22.865 160.784 145.113  1.00  0.00    -0.004 C
HETATM   32  C1  UNL     1      22.890 161.720 143.937  1.00  0.00     0.011 C
HETATM   33  C3  UNL     1      24.069 159.881 145.084  1.00  0.00     0.011 C
ENDBRANCH  30  31
ENDBRANCH  28  30
ENDBRANCH   1  28
BRANCH   6  34
HETATM   34  N5  UNL     1      27.924 162.474 146.992  1.00  0.00    -0.384 N
ATOM     35  H52 UNL     1      28.353 161.839 147.665  1.00  0.00     0.157 HD
ATOM     36  H51 UNL     1      28.384 162.654 146.100  1.00  0.00     0.157 HD
ENDBRANCH   6  34
TORSDOF 13
ENDMDL