MODEL 2
REMARK VINA RESULT: -8.697079660      1.599      2.114
REMARK  8 active torsions:
REMARK  status: ('A' for Active; 'I' for Inactive)
REMARK    1  A    between atoms: C2_2  and  N1_4
REMARK    2  A    between atoms: N2_7  and  C5_8
REMARK    3  A    between atoms: C5_8  and  C6_9
REMARK    4  A    between atoms: C6_9  and  C7_10
REMARK    5  A    between atoms: C7_10  and  C8_11
REMARK       I    between atoms: C8_11  and  N3_13
REMARK    6  A    between atoms: N3_13  and  C9_15
REMARK    7  A    between atoms: C9_15  and  N4_17
REMARK    8  A    between atoms: N4_17  and  C10_19
ROOT
HETATM    1  C8  UNL     1      27.876 164.241 147.912  1.00  0.00     0.223 C
HETATM    2  O1  UNL     1      27.905 163.861 146.721  1.00  0.00    -0.273 OA
HETATM    3  N3  UNL     1      26.728 164.723 148.584  1.00  0.00    -0.304 N
ATOM      4  H3  UNL     1      26.844 165.000 149.559  1.00  0.00     0.171 HD
ENDROOT
BRANCH   3   5
HETATM    5  C9  UNL     1      25.462 164.854 148.040  1.00  0.00     0.174 C
HETATM    6  S1  UNL     1      25.132 166.273 147.244  1.00  0.00    -0.041 SA
BRANCH   5   7
HETATM    7  N4  UNL     1      24.443 163.913 148.111  1.00  0.00    -0.362 N
ATOM      8  H4  UNL     1      23.800 163.946 148.902  1.00  0.00     0.162 HD
BRANCH   7   9
HETATM    9  C10 UNL     1      24.256 162.869 147.085  1.00  0.00     0.083 C
HETATM   10  C11 UNL     1      25.128 161.703 147.473  1.00  0.00     0.025 C
HETATM   11  C12 UNL     1      25.895 161.129 146.300  1.00  0.00     0.002 C
HETATM   12  C13 UNL     1      25.420 159.730 146.057  1.00  0.00     0.000 C
HETATM   13  C14 UNL     1      24.627 159.529 144.815  1.00  0.00     0.000 C
HETATM   14  C15 UNL     1      23.692 160.640 144.466  1.00  0.00     0.000 C
HETATM   15  C16 UNL     1      22.515 160.767 145.405  1.00  0.00     0.000 C
HETATM   16  C17 UNL     1      22.271 162.243 145.681  1.00  0.00     0.002 C
HETATM   17  C18 UNL     1      22.791 162.510 147.076  1.00  0.00     0.025 C
ENDBRANCH   7   9
ENDBRANCH   5   7
ENDBRANCH   3   5
BRANCH   1  18
HETATM   18  C7  UNL     1      29.197 164.152 148.626  1.00  0.00     0.105 C
BRANCH  18  19
HETATM   19  C6  UNL     1      29.108 163.978 150.088  1.00  0.00     0.029 C
BRANCH  19  20
HETATM   20  C5  UNL     1      29.250 165.215 150.914  1.00  0.00     0.117 C
BRANCH  20  21
HETATM   21  N2  UNL     1      28.352 165.243 152.041  1.00  0.00    -0.409 N
HETATM   22  C4  UNL     1      28.879 165.833 153.224  1.00  0.00     0.147 C
HETATM   23  C3  UNL     1      29.117 164.878 154.367  1.00  0.00     0.293 C
HETATM   24  N1  UNL     1      27.963 164.087 154.687  1.00  0.00     0.109 N
HETATM   25  C20 UNL     1      26.985 164.043 153.634  1.00  0.00     0.293 C
HETATM   26  C19 UNL     1      27.618 164.042 152.263  1.00  0.00     0.147 C
BRANCH  24  27
HETATM   27  C2  UNL     1      27.423 164.319 155.981  1.00  0.00     0.314 C
HETATM   28  C1  UNL     1      27.754 165.645 156.588  1.00  0.00     0.060 C
HETATM   29 CL1  UNL     1      27.871 162.952 157.035  1.00  0.00    -0.092 Cl
ENDBRANCH  24  27
ENDBRANCH  20  21
ENDBRANCH  19  20
ENDBRANCH  18  19
ENDBRANCH   1  18
TORSDOF 8
ENDMDL