MODEL 4
REMARK VINA RESULT: -7.496074445      2.662      7.749
REMARK  10 active torsions:
REMARK  status: ('A' for Active; 'I' for Inactive)
REMARK    1  A    between atoms: C2_2  and  C3_3
REMARK    2  A    between atoms: C3_3  and  N1_4
REMARK    3  A    between atoms: N1_4  and  C4_6
REMARK    4  A    between atoms: C4_6  and  N2_8
REMARK    5  A    between atoms: N2_8  and  C5_9
REMARK    6  A    between atoms: N2_8  and  C15_24
REMARK    7  A    between atoms: C5_9  and  C6_10
REMARK       I    between atoms: C6_10  and  N3_12
REMARK    8  A    between atoms: N3_12  and  C7_14
REMARK    9  A    between atoms: C10_17  and  N4_18
REMARK   10  A    between atoms: C15_24  and  O2_26
ROOT
HETATM    1  C6  UNL     1      27.325 164.725 149.657  1.00  0.00     0.240 C
HETATM    2  O1  UNL     1      26.368 164.524 150.418  1.00  0.00    -0.271 OA
HETATM    3  N3  UNL     1      27.410 164.156 148.390  1.00  0.00    -0.325 N
ATOM      4  H3  UNL     1      28.249 164.400 147.862  1.00  0.00     0.169 HD
ENDROOT
BRANCH   1   5
HETATM    5  C5  UNL     1      28.406 165.607 150.137  1.00  0.00     0.236 C
BRANCH   5   6
HETATM    6  N2  UNL     1      27.990 166.311 151.390  1.00  0.00    -0.300 N
BRANCH   6   7
HETATM    7  C4  UNL     1      28.291 165.602 152.549  1.00  0.00     0.176 C
HETATM    8  S1  UNL     1      29.878 165.097 152.820  1.00  0.00    -0.041 SA
BRANCH   7   9
HETATM    9  N1  UNL     1      27.404 165.237 153.569  1.00  0.00    -0.367 N
ATOM     10  H1  UNL     1      27.106 165.905 154.280  1.00  0.00     0.161 HD
BRANCH   9  11
HETATM   11  C3  UNL     1      26.912 163.832 153.571  1.00  0.00     0.121 C
BRANCH  11  12
HETATM   12  C2  UNL     1      26.657 163.440 154.993  1.00  0.00     0.015 C
HETATM   13  C1  UNL     1      27.822 163.690 155.918  1.00  0.00     0.006 C
ENDBRANCH  11  12
ENDBRANCH   9  11
ENDBRANCH   7   9
ENDBRANCH   6   7
BRANCH   6  14
HETATM   14  C15 UNL     1      27.368 167.550 151.272  1.00  0.00     0.116 C
HETATM   15  C16 UNL     1      26.772 168.225 150.113  1.00  0.00     0.097 C
BRANCH  14  16
HETATM   16  O2  UNL     1      27.293 168.248 152.377  1.00  0.00    -0.349 OA
ATOM     17  H2  UNL     1      26.497 168.129 152.881  1.00  0.00     0.219 HD
ENDBRANCH  14  16
ENDBRANCH   6  14
ENDBRANCH   5   6
ENDBRANCH   1   5
BRANCH   3  18
HETATM   18  C7  UNL     1      26.515 163.294 147.726  1.00  0.00     0.052 A
HETATM   19  C8  UNL     1      26.707 161.950 147.656  1.00  0.00     0.033 A
HETATM   20  C9  UNL     1      25.771 161.154 146.980  1.00  0.00     0.031 A
HETATM   21  C10 UNL     1      24.652 161.675 146.377  1.00  0.00     0.030 A
HETATM   22  C13 UNL     1      24.487 163.037 146.467  1.00  0.00     0.050 A
HETATM   23  C14 UNL     1      25.371 163.846 147.113  1.00  0.00     0.040 A
HETATM   24 BR1  UNL     1      25.126 165.725 147.228  1.00  0.00    -0.049 Br
BRANCH  21  25
HETATM   25  N4  UNL     1      23.700 160.869 145.692  1.00  0.00    -0.390 N
HETATM   26  C11 UNL     1      22.292 161.158 145.785  1.00  0.00     0.149 C
HETATM   27  C12 UNL     1      24.167 159.751 144.896  1.00  0.00     0.149 C
ENDBRANCH  21  25
ENDBRANCH   3  18
TORSDOF 10
ENDMDL