MODEL 1
REMARK VINA RESULT: -8.618508249      0.000      0.000
REMARK  8 active torsions:
REMARK  status: ('A' for Active; 'I' for Inactive)
REMARK    1  A    between atoms: C2_2  and  C3_3
REMARK    2  A    between atoms: C6_7  and  C7_8
REMARK    3  A    between atoms: C10_11  and  C11_12
REMARK    4  A    between atoms: C11_12  and  N1_13
REMARK    5  A    between atoms: C11_12  and  C15_21
REMARK    6  A    between atoms: N1_13  and  C12_15
REMARK    7  A    between atoms: C12_15  and  O1_16
REMARK    8  A    between atoms: C12_15  and  C13_18
REMARK       I    between atoms: C15_21  and  N3_23
ROOT
HETATM    1  C13 UNL     1      25.967 168.061 149.792  1.00  0.00     0.207 C
HETATM    2  C14 UNL     1      26.569 168.117 151.145  1.00  0.00     0.067 C
HETATM    3  N2  UNL     1      27.043 168.137 152.220  1.00  0.00    -0.197 NA
ENDROOT
BRANCH   1   4
HETATM    4  C12 UNL     1      25.866 166.689 149.323  1.00  0.00     0.125 C
BRANCH   4   5
HETATM    5  N1  UNL     1      26.131 165.515 150.032  1.00  0.00    -0.356 N
ATOM      6  H1  UNL     1      25.430 165.089 150.637  1.00  0.00     0.162 HD
BRANCH   5   7
HETATM    7  C11 UNL     1      27.477 164.914 149.868  1.00  0.00     0.210 C
BRANCH   7   8
HETATM    8  C10 UNL     1      27.907 164.805 151.285  1.00  0.00    -0.014 A
HETATM    9  C3  UNL     1      29.157 165.101 151.735  1.00  0.00    -0.006 A
HETATM   10  C4  UNL     1      29.449 164.850 153.101  1.00  0.00     0.045 A
HETATM   11 CL1  UNL     1      31.060 165.086 153.726  1.00  0.00    -0.083 Cl
HETATM   12  C5  UNL     1      28.511 164.325 153.952  1.00  0.00     0.031 A
HETATM   13  C6  UNL     1      27.255 164.023 153.504  1.00  0.00    -0.056 A
HETATM   14  C9  UNL     1      26.965 164.270 152.169  1.00  0.00     0.017 A
BRANCH   9  15
HETATM   15  C2  UNL     1      30.185 165.662 150.927  1.00  0.00     0.003 C
HETATM   16  C1  UNL     1      30.864 165.047 149.984  1.00  0.00     0.012 C
ENDBRANCH   9  15
BRANCH  13  17
HETATM   17  C7  UNL     1      26.256 163.419 154.415  1.00  0.00     0.034 C
HETATM   18  C8  UNL     1      26.698 163.435 155.855  1.00  0.00     0.010 C
ENDBRANCH  13  17
ENDBRANCH   7   8
BRANCH   7  19
HETATM   19  C15 UNL     1      27.495 163.707 149.056  1.00  0.00     0.250 C
HETATM   20  O2  UNL     1      28.263 162.752 149.239  1.00  0.00    -0.270 OA
HETATM   21  N3  UNL     1      26.584 163.618 148.018  1.00  0.00    -0.313 N
HETATM   22  C16 UNL     1      25.780 162.902 147.451  1.00  0.00     0.103 C
ATOM     23  H3  UNL     1      26.588 164.515 147.532  1.00  0.00     0.170 HD
HETATM   24  C17 UNL     1      25.072 163.524 146.262  1.00  0.00     0.245 C
HETATM   25  N4  UNL     1      25.469 161.560 147.807  1.00  0.00    -0.375 N
HETATM   26  O3  UNL     1      24.512 162.643 145.426  1.00  0.00    -0.372 OA
HETATM   27  C18 UNL     1      24.087 161.430 145.874  1.00  0.00     0.070 C
HETATM   28  C19 UNL     1      22.766 161.404 146.567  1.00  0.00     0.047 C
HETATM   29  C20 UNL     1      23.932 160.555 144.607  1.00  0.00     0.047 C
HETATM   30  C21 UNL     1      25.077 160.667 146.735  1.00  0.00     0.158 C
ATOM     31  H4  UNL     1      25.520 161.241 148.774  1.00  0.00     0.160 HD
ENDBRANCH   7  19
ENDBRANCH   5   7
ENDBRANCH   4   5
BRANCH   4  32
HETATM   32  O1  UNL     1      25.493 166.561 148.074  1.00  0.00    -0.349 OA
ATOM     33  H1  UNL     1      24.904 167.221 147.729  1.00  0.00     0.219 HD
ENDBRANCH   4  32
ENDBRANCH   1   4
TORSDOF 8
ENDMDL