MODEL 1
REMARK VINA RESULT: -8.259292491      0.000      0.000
REMARK  9 active torsions:
REMARK  status: ('A' for Active; 'I' for Inactive)
REMARK    1  A    between atoms: C3_3  and  O1_6
REMARK    2  A    between atoms: O1_6  and  C6_7
REMARK    3  A    between atoms: C6_7  and  C7_9
REMARK    4  A    between atoms: C12_15  and  N1_16
REMARK       I    between atoms: N1_16  and  C13_18
REMARK    5  A    between atoms: C13_18  and  C14_20
REMARK    6  A    between atoms: C14_20  and  N2_21
REMARK    7  A    between atoms: N2_21  and  N3_22
REMARK       I    between atoms: N2_21  and  C19_28
REMARK    8  A    between atoms: N3_22  and  C15_24
REMARK    9  A    between atoms: C19_28  and  C20_30
ROOT
HETATM    1  C1  UNL     1      28.563 164.531 154.846  1.00  0.00     0.015 C
HETATM    2  C2  UNL     1      28.856 164.747 153.706  1.00  0.00    -0.079 C
HETATM    3  C3  UNL     1      29.228 164.993 152.312  1.00  0.00     0.125 C
HETATM    4  C4  UNL     1      30.422 164.161 151.892  1.00  0.00     0.061 C
HETATM    5  C5  UNL     1      29.678 166.453 152.213  1.00  0.00     0.061 C
ENDROOT
BRANCH   3   6
HETATM    6  O1  UNL     1      28.174 164.724 151.442  1.00  0.00    -0.294 OA
BRANCH   6   7
HETATM    7  C6  UNL     1      26.936 165.268 151.394  1.00  0.00     0.297 C
HETATM    8  O2  UNL     1      26.031 164.572 151.996  1.00  0.00    -0.259 OA
BRANCH   7   9
HETATM    9  C7  UNL     1      26.502 166.503 150.774  1.00  0.00     0.068 A
HETATM   10  C8  UNL     1      26.893 167.698 151.391  1.00  0.00     0.044 A
HETATM   11  C9  UNL     1      26.607 168.918 150.828  1.00  0.00     0.035 A
HETATM   12 CL1  UNL     1      27.106 170.401 151.622  1.00  0.00    -0.084 Cl
HETATM   13  C10 UNL     1      25.928 169.009 149.638  1.00  0.00     0.026 A
HETATM   14  C11 UNL     1      25.532 167.846 149.016  1.00  0.00     0.032 A
HETATM   15  C12 UNL     1      25.810 166.588 149.570  1.00  0.00     0.051 A
BRANCH  15  16
HETATM   16  N1  UNL     1      25.312 165.412 148.994  1.00  0.00    -0.325 N
HETATM   17  C13 UNL     1      25.162 165.070 147.640  1.00  0.00     0.242 C
HETATM   18  O3  UNL     1      25.503 165.840 146.734  1.00  0.00    -0.271 OA
ATOM     19  H1  UNL     1      25.014 164.697 149.657  1.00  0.00     0.169 HD
BRANCH  17  20
HETATM   20  C14 UNL     1      24.586 163.756 147.261  1.00  0.00     0.254 C
BRANCH  20  21
HETATM   21  N2  UNL     1      25.645 162.835 146.775  1.00  0.00    -0.256 N
HETATM   22  C19 UNL     1      25.191 161.567 146.405  1.00  0.00     0.237 C
HETATM   23  O4  UNL     1      25.970 160.697 145.967  1.00  0.00    -0.272 OA
BRANCH  21  24
HETATM   24  N3  UNL     1      26.887 163.386 146.781  1.00  0.00    -0.322 N
ATOM     25  H3  UNL     1      27.092 164.108 146.091  1.00  0.00     0.181 HD
BRANCH  24  26
HETATM   26  C15 UNL     1      27.897 163.029 147.664  1.00  0.00     0.035 C
HETATM   27  C16 UNL     1      28.854 162.018 147.062  1.00  0.00     0.039 C
HETATM   28  C17 UNL     1      27.395 162.524 149.017  1.00  0.00     0.039 C
HETATM   29  C18 UNL     1      28.708 164.294 147.992  1.00  0.00     0.039 C
ENDBRANCH  24  26
ENDBRANCH  21  24
BRANCH  22  30
HETATM   30  C20 UNL     1      23.765 161.181 146.513  1.00  0.00     0.100 C
HETATM   31  C21 UNL     1      23.316 160.470 145.254  1.00  0.00     0.014 C
ENDBRANCH  22  30
ENDBRANCH  20  21
ENDBRANCH  17  20
ENDBRANCH  15  16
ENDBRANCH   7   9
ENDBRANCH   6   7
ENDBRANCH   3   6
TORSDOF 9
ENDMDL