MODEL 1
REMARK VINA RESULT: -8.009717337      0.000      0.000
REMARK  9 active torsions:
REMARK  status: ('A' for Active; 'I' for Inactive)
REMARK    1  A    between atoms: C2_2  and  C5_5
REMARK    2  A    between atoms: C5_5  and  C6_6
REMARK    3  A    between atoms: C6_6  and  C7_7
REMARK    4  A    between atoms: C7_7  and  N1_8
REMARK    5  A    between atoms: N1_8  and  C8_10
REMARK    6  A    between atoms: C15_22  and  N4_23
REMARK    7  A    between atoms: N4_23  and  C16_25
REMARK    8  A    between atoms: C16_25  and  C17_26
REMARK    9  A    between atoms: C17_26  and  N5_27
ROOT
HETATM    1  C8  UNL     1      25.229 163.974 147.569  1.00  0.00     0.146 A
HETATM    2  N2  UNL     1      24.165 163.351 147.030  1.00  0.00    -0.338 N
ATOM      3  H2  UNL     1      23.255 163.809 147.084  1.00  0.00     0.167 HD
HETATM    4  C9  UNL     1      24.245 162.160 146.426  1.00  0.00     0.060 A
HETATM    5  C10 UNL     1      23.092 161.592 145.898  1.00  0.00     0.033 A
HETATM    6  C11 UNL     1      23.162 160.349 145.266  1.00  0.00     0.026 A
HETATM    7  C12 UNL     1      24.376 159.689 145.169  1.00  0.00     0.036 A
HETATM    8 CL1  UNL     1      24.460 158.127 144.374  1.00  0.00    -0.084 Cl
HETATM    9  C13 UNL     1      25.497 160.298 145.712  1.00  0.00     0.055 A
HETATM   10  C14 UNL     1      25.457 161.512 146.335  1.00  0.00     0.062 A
HETATM   11  N3  UNL     1      26.556 162.118 146.872  1.00  0.00    -0.338 N
ATOM     12  H3  UNL     1      27.463 161.653 146.814  1.00  0.00     0.167 HD
HETATM   13  C15 UNL     1      26.466 163.315 147.476  1.00  0.00     0.146 A
ENDROOT
BRANCH  13  14
HETATM   14  N4  UNL     1      27.493 163.894 147.988  1.00  0.00    -0.371 N
ATOM     15  H4  UNL     1      27.871 164.698 147.486  1.00  0.00     0.161 HD
BRANCH  14  16
HETATM   16  C16 UNL     1      28.158 163.509 149.207  1.00  0.00     0.151 C
BRANCH  16  17
HETATM   17  C17 UNL     1      29.070 164.559 149.741  1.00  0.00     0.292 C
BRANCH  17  18
HETATM   18  N5  UNL     1      28.954 164.739 151.153  1.00  0.00     0.092 N
HETATM   19  C18 UNL     1      27.729 164.128 151.660  1.00  0.00     0.274 C
HETATM   20  C19 UNL     1      27.693 164.336 153.152  1.00  0.00     0.056 C
HETATM   21  C20 UNL     1      28.100 165.711 153.573  1.00  0.00     0.169 C
HETATM   22  O1  UNL     1      29.341 166.112 153.156  1.00  0.00    -0.389 OA
HETATM   23  C21 UNL     1      30.287 165.117 153.094  1.00  0.00     0.198 C
HETATM   24  C22 UNL     1      30.027 164.167 151.922  1.00  0.00     0.298 C
ENDBRANCH  17  18
ENDBRANCH  16  17
ENDBRANCH  14  16
ENDBRANCH  13  14
BRANCH   1  25
HETATM   25  N1  UNL     1      25.162 165.124 148.150  1.00  0.00    -0.373 N
ATOM     26  H1  UNL     1      25.137 165.180 149.168  1.00  0.00     0.161 HD
BRANCH  25  27
HETATM   27  C7  UNL     1      25.122 166.319 147.368  1.00  0.00     0.121 C
BRANCH  27  28
HETATM   28  C6  UNL     1      25.615 167.533 148.125  1.00  0.00     0.020 C
BRANCH  28  29
HETATM   29  C5  UNL     1      26.539 167.148 149.255  1.00  0.00     0.010 C
BRANCH  29  30
HETATM   30  C2  UNL     1      26.345 168.017 150.471  1.00  0.00    -0.051 C
HETATM   31  C1  UNL     1      25.463 167.321 151.488  1.00  0.00     0.014 C
HETATM   32  C3  UNL     1      27.623 168.387 151.144  1.00  0.00     0.014 C
HETATM   33  C4  UNL     1      25.620 169.299 150.080  1.00  0.00     0.014 C
ENDBRANCH  29  30
ENDBRANCH  28  29
ENDBRANCH  27  28
ENDBRANCH  25  27
ENDBRANCH   1  25
TORSDOF 9
ENDMDL