MODEL 1
REMARK VINA RESULT: -8.222593151      0.000      0.000
REMARK  6 active torsions:
REMARK  status: ('A' for Active; 'I' for Inactive)
REMARK    1  A    between atoms: C3_3  and  C4_4
REMARK    2  A    between atoms: C4_4  and  N1_5
REMARK       I    between atoms: N1_5  and  C5_7
REMARK    3  A    between atoms: C5_7  and  C6_9
REMARK    4  A    between atoms: C16_19  and  C17_20
REMARK       I    between atoms: C17_20  and  N2_22
REMARK    5  A    between atoms: N2_22  and  C18_24
REMARK    6  A    between atoms: C18_24  and  C19_25
ROOT
HETATM    1  C1  UNL     1      25.997 159.773 146.111  1.00  0.00     0.069 C
HETATM    2  C2  UNL     1      25.207 160.984 146.445  1.00  0.00     0.017 A
HETATM    3  C3  UNL     1      25.709 162.104 147.155  1.00  0.00     0.000 A
HETATM    4  C16 UNL     1      24.676 162.974 147.234  1.00  0.00     0.075 A
HETATM    5  C20 UNL     1      23.555 162.407 146.595  1.00  0.00     0.088 A
HETATM    6  N3  UNL     1      23.896 161.220 146.133  1.00  0.00    -0.343 N
HETATM    7  C21 UNL     1      22.843 160.492 145.467  1.00  0.00     0.140 C
HETATM    8  C22 UNL     1      21.881 161.438 144.790  1.00  0.00     0.101 C
HETATM    9  S1  UNL     1      21.861 162.698 146.159  1.00  0.00    -0.109 SA
ENDROOT
BRANCH   3  10
HETATM   10  C4  UNL     1      27.087 162.124 147.609  1.00  0.00     0.164 C
BRANCH  10  11
HETATM   11  N1  UNL     1      27.390 162.643 148.895  1.00  0.00    -0.356 N
HETATM   12  C5  UNL     1      27.951 163.971 148.966  1.00  0.00     0.226 C
HETATM   13  O1  UNL     1      28.162 164.643 147.936  1.00  0.00    -0.273 OA
ATOM     14  H1  UNL     1      27.217 162.097 149.738  1.00  0.00     0.162 HD
BRANCH  12  15
HETATM   15  C6  UNL     1      28.262 164.496 150.310  1.00  0.00     0.042 C
HETATM   16  C7  UNL     1      26.951 164.586 151.063  1.00  0.00     0.024 C
HETATM   17  C8  UNL     1      27.191 165.234 152.390  1.00  0.00    -0.013 C
HETATM   18  C9  UNL     1      27.791 166.590 152.158  1.00  0.00     0.009 C
HETATM   19  C13 UNL     1      28.107 164.342 153.204  1.00  0.00     0.009 C
HETATM   20  C10 UNL     1      29.139 166.451 151.512  1.00  0.00    -0.013 C
HETATM   21  C11 UNL     1      30.017 165.569 152.340  1.00  0.00     0.009 C
HETATM   22  C15 UNL     1      28.949 165.817 150.155  1.00  0.00     0.024 C
HETATM   23  C12 UNL     1      29.401 164.177 152.436  1.00  0.00    -0.013 C
HETATM   24  C14 UNL     1      29.189 163.580 151.069  1.00  0.00     0.024 C
ENDBRANCH  12  15
ENDBRANCH  10  11
ENDBRANCH   3  10
BRANCH   4  25
HETATM   25  C17 UNL     1      24.555 164.348 147.674  1.00  0.00     0.255 C
HETATM   26  O2  UNL     1      23.942 164.656 148.696  1.00  0.00    -0.268 OA
HETATM   27  N2  UNL     1      25.158 165.372 146.908  1.00  0.00    -0.354 N
ATOM     28  H2  UNL     1      25.669 165.121 146.061  1.00  0.00     0.162 HD
BRANCH  27  29
HETATM   29  C18 UNL     1      25.073 166.757 147.290  1.00  0.00     0.154 C
BRANCH  29  30
HETATM   30  C19 UNL     1      25.861 166.950 148.568  1.00  0.00     0.241 C
HETATM   31  F1  UNL     1      25.913 168.292 148.853  1.00  0.00    -0.254 F
ENDBRANCH  29  30
ENDBRANCH  27  29
ENDBRANCH   4  25
TORSDOF 6
ENDMDL