MODEL 2
REMARK VINA RESULT: -8.451428915      0.617      1.132
REMARK  9 active torsions:
REMARK  status: ('A' for Active; 'I' for Inactive)
REMARK    1  A    between atoms: S1_2  and  C2_3
REMARK    2  A    between atoms: N1_5  and  C4_6
REMARK    3  A    between atoms: C4_6  and  C5_7
REMARK    4  A    between atoms: N2_10  and  C8_11
REMARK    5  A    between atoms: C8_11  and  N3_13
REMARK    6  A    between atoms: N3_13  and  C9_15
REMARK    7  A    between atoms: C9_15  and  C10_16
REMARK    8  A    between atoms: C10_16  and  C11_17
REMARK    9  A    between atoms: C20_27  and  O1_28
ROOT
HETATM    1  C5  UNL     1      25.928 164.644 147.177  1.00  0.00     0.051 C
HETATM    2  C6  UNL     1      27.102 163.990 147.925  1.00  0.00     0.029 C
HETATM    3  C7  UNL     1      27.779 164.967 148.830  1.00  0.00     0.126 C
HETATM    4  N2  UNL     1      26.846 165.669 149.724  1.00  0.00    -0.356 N
HETATM    5  C17 UNL     1      25.456 165.355 149.521  1.00  0.00     0.162 C
HETATM    6  C18 UNL     1      25.220 165.617 148.011  1.00  0.00     0.194 C
HETATM    7  F1  UNL     1      25.808 166.910 147.860  1.00  0.00    -0.247 F
ENDROOT
BRANCH   4   8
HETATM    8  C8  UNL     1      27.395 166.553 150.651  1.00  0.00     0.169 C
HETATM    9  S2  UNL     1      26.419 167.617 151.420  1.00  0.00    -0.041 SA
BRANCH   8  10
HETATM   10  N3  UNL     1      28.773 166.551 150.969  1.00  0.00    -0.367 N
ATOM     11  H3  UNL     1      29.415 166.923 150.269  1.00  0.00     0.161 HD
BRANCH  10  12
HETATM   12  C9  UNL     1      29.347 166.070 152.192  1.00  0.00     0.126 C
BRANCH  12  13
HETATM   13  C10 UNL     1      29.008 164.603 152.408  1.00  0.00     0.053 C
BRANCH  13  14
HETATM   14  C11 UNL     1      28.087 164.521 153.567  1.00  0.00    -0.082 C
HETATM   15  C12 UNL     1      28.509 164.818 154.782  1.00  0.00    -0.024 C
HETATM   16  C13 UNL     1      27.462 164.692 155.864  1.00  0.00     0.027 C
HETATM   17  C14 UNL     1      26.862 163.312 155.742  1.00  0.00     0.004 C
HETATM   18  C15 UNL     1      26.408 162.960 154.360  1.00  0.00     0.005 C
HETATM   19  C16 UNL     1      26.678 164.112 153.388  1.00  0.00     0.034 C
ENDBRANCH  13  14
ENDBRANCH  12  13
ENDBRANCH  10  12
ENDBRANCH   8  10
ENDBRANCH   4   8
BRANCH   1  20
HETATM   20  C4  UNL     1      25.232 163.540 146.498  1.00  0.00     0.280 C
BRANCH  20  21
HETATM   21  N1  UNL     1      24.585 162.534 147.252  1.00  0.00     0.092 N
HETATM   22  C3  UNL     1      23.152 162.608 146.884  1.00  0.00     0.290 C
HETATM   23  C2  UNL     1      23.145 162.162 145.465  1.00  0.00     0.105 C
HETATM   24  C20 UNL     1      24.079 161.004 145.474  1.00  0.00     0.161 C
HETATM   25  C19 UNL     1      24.844 161.172 146.790  1.00  0.00     0.305 C
BRANCH  23  26
HETATM   26  S1  UNL     1      21.443 161.667 145.037  1.00  0.00    -0.164 SA
HETATM   27  C1  UNL     1      20.382 163.124 145.372  1.00  0.00     0.090 C
ENDBRANCH  23  26
BRANCH  24  28
HETATM   28  O1  UNL     1      23.426 159.773 145.450  1.00  0.00    -0.393 OA
ATOM     29  H1  UNL     1      23.782 159.149 146.071  1.00  0.00     0.210 HD
ENDBRANCH  24  28
ENDBRANCH  20  21
ENDBRANCH   1  20
TORSDOF 9
ENDMDL