MODEL 2
REMARK VINA RESULT: -8.806881336      2.503      6.960
REMARK  3 active torsions:
REMARK  status: ('A' for Active; 'I' for Inactive)
REMARK    1  A    between atoms: C6_9  and  N3_10
REMARK    2  A    between atoms: N3_10  and  C7_12
REMARK    3  A    between atoms: C10_19  and  C11_20
ROOT
HETATM    1  N1  UNL     1      17.124  26.809  37.334  1.00  0.00    -0.191 NA
HETATM    2  C1  UNL     1      16.066  26.908  36.905  1.00  0.00     0.101 C
HETATM    3  C2  UNL     1      14.743  27.051  36.365  1.00  0.00     0.060 A
HETATM    4  C3  UNL     1      14.469  28.117  35.529  1.00  0.00     0.028 A
HETATM    5  C4  UNL     1      13.217  28.303  34.984  1.00  0.00     0.051 A
HETATM    6  C5  UNL     1      12.222  27.404  35.283  1.00  0.00     0.112 A
HETATM    7  N2  UNL     1      10.971  27.566  34.758  1.00  0.00    -0.327 N
ATOM      8  H2  UNL     1      10.796  28.361  34.143  1.00  0.00     0.169 HD
HETATM    9  C6  UNL     1       9.964  26.721  35.018  1.00  0.00     0.120 A
HETATM   10  C10 UNL     1      10.201  25.631  35.856  1.00  0.00     0.037 A
HETATM   11  C17 UNL     1      11.498  25.509  36.368  1.00  0.00     0.114 A
HETATM   12  N9  UNL     1      12.487  26.363  36.097  1.00  0.00    -0.317 N
HETATM   13  C18 UNL     1      13.712  26.177  36.634  1.00  0.00     0.120 A
ENDROOT
BRANCH  10  14
HETATM   14  C11 UNL     1       9.245  24.660  36.225  1.00  0.00     0.011 A
HETATM   15  C12 UNL     1       8.257  24.830  37.164  1.00  0.00     0.032 A
HETATM   16  C13 UNL     1       7.380  23.812  37.451  1.00  0.00     0.090 A
HETATM   17  N6  UNL     1       7.467  22.609  36.812  1.00  0.00    -0.350 N
HETATM   18  C14 UNL     1       8.421  22.390  35.881  1.00  0.00     0.134 A
ATOM     19  H6  UNL     1       6.805  21.867  37.040  1.00  0.00     0.166 HD
HETATM   20  N7  UNL     1       8.718  21.312  35.116  1.00  0.00    -0.337 N
HETATM   21  C16 UNL     1       9.311  23.409  35.582  1.00  0.00     0.089 A
HETATM   22  C15 UNL     1       9.770  21.631  34.348  1.00  0.00     0.182 A
ATOM     23  H7  UNL     1       8.228  20.417  35.123  1.00  0.00     0.168 HD
HETATM   24  N8  UNL     1      10.120  22.895  34.635  1.00  0.00    -0.349 N
ATOM     25  H8  UNL     1      10.892  23.397  34.196  1.00  0.00     0.167 HD
ENDBRANCH  10  14
BRANCH   9  26
HETATM   26  N3  UNL     1       8.790  26.804  34.569  1.00  0.00    -0.339 N
ATOM     27  H3  UNL     1       8.212  27.512  35.020  1.00  0.00     0.167 HD
BRANCH  26  28
HETATM   28  C7  UNL     1       8.149  26.090  33.557  1.00  0.00     0.067 A
HETATM   29  C8  UNL     1       6.903  25.497  33.591  1.00  0.00     0.138 A
HETATM   30  N4  UNL     1       6.652  24.903  32.400  1.00  0.00    -0.310 N
HETATM   31  N5  UNL     1       7.714  25.100  31.602  1.00  0.00    -0.310 N
ATOM     32  H4  UNL     1       5.805  24.393  32.153  1.00  0.00     0.186 HD
HETATM   33  C9  UNL     1       8.626  25.820  32.298  1.00  0.00     0.138 A
ATOM     34  H5  UNL     1       7.815  24.768  30.643  1.00  0.00     0.186 HD
ENDBRANCH  26  28
ENDBRANCH   9  26
TORSDOF 3
ENDMDL