MODEL 4
REMARK VINA RESULT: -7.954783026      1.662      2.768
REMARK  5 active torsions:
REMARK  status: ('A' for Active; 'I' for Inactive)
REMARK    1  A    between atoms: N1_1  and  C1_4
REMARK    2  A    between atoms: C2_7  and  N3_8
REMARK    3  A    between atoms: N3_8  and  C3_10
REMARK    4  A    between atoms: N5_21  and  C12_22
REMARK    5  A    between atoms: C12_22  and  C13_23
ROOT
HETATM    1  C1  UNL     1       9.151  28.054  32.850  1.00  0.00     0.678 A
HETATM    2  N2  UNL     1      10.478  27.947  33.066  1.00  0.00    -0.176 N
ATOM      3  H2  UNL     1      11.026  28.788  33.247  1.00  0.00     0.186 HD
HETATM    4  C2  UNL     1      11.088  26.752  33.048  1.00  0.00     0.134 A
HETATM    5  C9  UNL     1      10.363  25.613  32.806  1.00  0.00     0.041 A
HETATM    6  C10 UNL     1      10.970  24.375  32.782  1.00  0.00     0.037 A
HETATM    7  C11 UNL     1      10.208  23.255  32.536  1.00  0.00     0.129 A
HETATM    8  N4  UNL     1       8.884  23.365  32.321  1.00  0.00    -0.187 N
HETATM    9  O1  UNL     1       7.704  22.835  32.064  1.00  0.00    -0.144 OA
HETATM   10  N5  UNL     1       7.097  23.979  32.078  1.00  0.00    -0.208 N
HETATM   11  C18 UNL     1       8.274  24.563  32.339  1.00  0.00     0.187 A
HETATM   12  C19 UNL     1       8.989  25.707  32.580  1.00  0.00     0.111 A
HETATM   13  N7  UNL     1       8.423  26.923  32.608  1.00  0.00    -0.187 N
ATOM     14  H7  UNL     1       7.420  27.006  32.444  1.00  0.00     0.184 HD
ENDROOT
BRANCH   4  15
HETATM   15  N3  UNL     1      12.358  26.672  33.257  1.00  0.00    -0.341 N
ATOM     16  H3  UNL     1      12.933  26.164  32.586  1.00  0.00     0.167 HD
BRANCH  15  17
HETATM   17  C3  UNL     1      12.987  27.261  34.386  1.00  0.00     0.033 A
HETATM   18  C4  UNL     1      13.974  28.197  34.150  1.00  0.00     0.029 A
HETATM   19  C5  UNL     1      14.614  28.798  35.214  1.00  0.00     0.002 A
HETATM   20  C6  UNL     1      14.281  28.475  36.533  1.00  0.00     0.000 A
HETATM   21  C7  UNL     1      13.292  27.537  36.762  1.00  0.00     0.002 A
HETATM   22  C8  UNL     1      12.664  26.948  35.689  1.00  0.00     0.029 A
ENDBRANCH  15  17
ENDBRANCH   4  15
BRANCH   1  23
HETATM   23  N1  UNL     1       8.563  29.213  32.869  1.00  0.00    -0.234 N
ATOM     24  H12 UNL     1       8.142  29.558  33.731  1.00  0.00     0.174 HD
ATOM     25  H11 UNL     1       8.514  29.789  32.028  1.00  0.00     0.174 HD
ENDBRANCH   1  23
BRANCH  10  26
HETATM   26  C12 UNL     1       5.723  24.375  31.883  1.00  0.00     0.199 C
BRANCH  26  27
HETATM   27  C13 UNL     1       5.007  24.578  33.162  1.00  0.00    -0.035 A
HETATM   28  C14 UNL     1       3.670  24.898  33.172  1.00  0.00     0.026 A
HETATM   29  C15 UNL     1       3.025  25.083  34.390  1.00  0.00     0.088 A
HETATM   30  N6  UNL     1       3.667  24.959  35.562  1.00  0.00    -0.375 N
HETATM   31  C16 UNL     1       4.988  24.643  35.579  1.00  0.00     0.088 A
ATOM     32  H6  UNL     1       3.164  25.103  36.438  1.00  0.00     0.164 HD
HETATM   33  C17 UNL     1       5.654  24.453  34.364  1.00  0.00     0.026 A
ENDBRANCH  26  27
ENDBRANCH  10  26
TORSDOF 5
ENDMDL