MODEL 5
REMARK VINA RESULT: -6.935346304      3.257      5.647
REMARK  6 active torsions:
REMARK  status: ('A' for Active; 'I' for Inactive)
REMARK    1  A    between atoms: O1_2  and  C2_3
REMARK    2  A    between atoms: C7_8  and  N1_9
REMARK    3  A    between atoms: N1_9  and  C8_11
REMARK    4  A    between atoms: C10_15  and  N3_16
REMARK    5  A    between atoms: C14_26  and  C15_27
REMARK    6  A    between atoms: C16_28  and  C17_29
ROOT
HETATM    1  C8  UNL     1      10.373  26.883  35.079  1.00  0.00     0.125 A
HETATM    2  N2  UNL     1      11.549  27.481  34.819  1.00  0.00    -0.336 N
ATOM      3  H2  UNL     1      11.795  27.721  33.858  1.00  0.00     0.168 HD
HETATM    4  C9  UNL     1      12.409  27.767  35.827  1.00  0.00     0.105 A
HETATM    5  C10 UNL     1      13.607  28.379  35.549  1.00  0.00     0.129 A
HETATM    6  N4  UNL     1      14.433  28.645  36.577  1.00  0.00    -0.337 N
ATOM      7  H4  UNL     1      15.327  29.099  36.390  1.00  0.00     0.168 HD
HETATM    8  C11 UNL     1      14.114  28.331  37.846  1.00  0.00     0.182 A
HETATM    9  N5  UNL     1      12.945  27.731  38.138  1.00  0.00    -0.350 N
ATOM     10  H5  UNL     1      12.703  27.493  39.100  1.00  0.00     0.166 HD
HETATM   11  C12 UNL     1      12.106  27.456  37.123  1.00  0.00     0.065 A
HETATM   12  C13 UNL     1      10.879  26.834  37.372  1.00  0.00     0.056 A
HETATM   13  C14 UNL     1       9.991  26.536  36.359  1.00  0.00     0.064 A
ENDROOT
BRANCH   1  14
HETATM   14  N1  UNL     1       9.594  26.635  34.085  1.00  0.00    -0.339 N
ATOM     15  H1  UNL     1       8.948  27.362  33.778  1.00  0.00     0.167 HD
BRANCH  14  16
HETATM   16  C7  UNL     1       9.596  25.408  33.403  1.00  0.00     0.067 A
HETATM   17  C2  UNL     1       8.416  24.801  33.021  1.00  0.00     0.094 A
HETATM   18  C3  UNL     1       8.378  23.597  32.350  1.00  0.00     0.039 A
HETATM   19  C4  UNL     1       9.567  22.950  32.037  1.00  0.00     0.003 A
HETATM   20  C5  UNL     1      10.747  23.537  32.409  1.00  0.00     0.002 A
HETATM   21  C6  UNL     1      10.770  24.744  33.080  1.00  0.00     0.032 A
BRANCH  17  22
HETATM   22  O1  UNL     1       7.216  25.423  33.319  1.00  0.00    -0.354 OA
HETATM   23  C1  UNL     1       5.973  24.837  32.996  1.00  0.00     0.210 C
ENDBRANCH  17  22
ENDBRANCH  14  16
ENDBRANCH   1  14
BRANCH  13  24
HETATM   24  C15 UNL     1       8.728  25.898  36.602  1.00  0.00    -0.058 C
HETATM   25  C16 UNL     1       7.670  25.352  36.816  1.00  0.00    -0.061 C
BRANCH  25  26
HETATM   26  C17 UNL     1       6.420  24.696  37.084  1.00  0.00     0.020 A
HETATM   27  C18 UNL     1       5.948  23.647  36.322  1.00  0.00     0.037 A
HETATM   28  C19 UNL     1       4.750  23.023  36.584  1.00  0.00     0.089 A
HETATM   29  N6  UNL     1       4.003  23.443  37.616  1.00  0.00    -0.375 N
HETATM   30  C20 UNL     1       4.400  24.452  38.392  1.00  0.00     0.089 A
ATOM     31  H6  UNL     1       3.114  22.982  37.811  1.00  0.00     0.164 HD
HETATM   32  C21 UNL     1       5.590  25.082  38.144  1.00  0.00     0.037 A
ENDBRANCH  25  26
ENDBRANCH  13  24
BRANCH   5  33
HETATM   33  N3  UNL     1      13.924  28.689  34.322  1.00  0.00    -0.384 N
ATOM     34  H32 UNL     1      14.836  28.451  33.931  1.00  0.00     0.157 HD
ATOM     35  H31 UNL     1      13.261  29.180  33.722  1.00  0.00     0.157 HD
ENDBRANCH   5  33
TORSDOF 6
ENDMDL