MODEL 4
REMARK VINA RESULT: -7.493276467      3.081      9.240
REMARK  6 active torsions:
REMARK  status: ('A' for Active; 'I' for Inactive)
REMARK    1  A    between atoms: N1_1  and  C1_4
REMARK    2  A    between atoms: C4_9  and  N3_10
REMARK    3  A    between atoms: N3_10  and  C5_12
REMARK    4  A    between atoms: C5_12  and  C6_13
REMARK    5  A    between atoms: C12_23  and  C13_24
REMARK    6  A    between atoms: C14_25  and  C15_26
ROOT
HETATM    1  C1  UNL     1      10.982  25.502  33.076  1.00  0.00     0.676 A
HETATM    2  N2  UNL     1      12.162  26.111  32.925  1.00  0.00    -0.201 N
ATOM      3  H2  UNL     1      12.682  25.953  32.062  1.00  0.00     0.183 HD
HETATM    4  C2  UNL     1      12.702  26.929  33.865  1.00  0.00     0.123 A
HETATM    5  C3  UNL     1      11.974  27.117  35.015  1.00  0.00     0.052 A
HETATM    6  C4  UNL     1      12.446  27.935  36.031  1.00  0.00     0.115 A
HETATM    7  N5  UNL     1      11.733  28.111  37.144  1.00  0.00    -0.350 N
ATOM      8  H5  UNL     1      12.101  28.718  37.876  1.00  0.00     0.166 HD
HETATM    9  C11 UNL     1      10.528  27.507  37.330  1.00  0.00     0.112 A
HETATM   10  C12 UNL     1      10.027  26.689  36.345  1.00  0.00     0.061 A
HETATM   11  C20 UNL     1      10.758  26.501  35.191  1.00  0.00     0.084 A
HETATM   12  N7  UNL     1      10.285  25.705  34.219  1.00  0.00    -0.190 N
ATOM     13  H7  UNL     1       9.384  25.245  34.343  1.00  0.00     0.184 HD
ENDROOT
BRANCH   6  14
HETATM   14  N3  UNL     1      13.572  28.494  35.854  1.00  0.00    -0.371 N
ATOM     15  H3  UNL     1      13.832  28.809  34.920  1.00  0.00     0.161 HD
BRANCH  14  16
HETATM   16  C5  UNL     1      14.487  28.693  36.946  1.00  0.00     0.160 C
BRANCH  16  17
HETATM   17  C6  UNL     1      15.428  27.534  36.971  1.00  0.00    -0.038 A
HETATM   18  C7  UNL     1      15.423  26.756  38.108  1.00  0.00     0.025 A
HETATM   19  C8  UNL     1      16.270  25.680  38.185  1.00  0.00     0.088 A
HETATM   20  N4  UNL     1      17.107  25.378  37.158  1.00  0.00    -0.375 N
HETATM   21  C9  UNL     1      17.120  26.129  36.046  1.00  0.00     0.088 A
ATOM     22  H4  UNL     1      17.731  24.574  37.234  1.00  0.00     0.164 HD
HETATM   23  C10 UNL     1      16.279  27.217  35.941  1.00  0.00     0.025 A
ENDBRANCH  16  17
ENDBRANCH  14  16
ENDBRANCH   6  14
BRANCH  10  24
HETATM   24  C13 UNL     1       8.740  26.029  36.518  1.00  0.00    -0.058 C
HETATM   25  C14 UNL     1       7.665  25.499  36.657  1.00  0.00    -0.061 C
BRANCH  25  26
HETATM   26  C15 UNL     1       6.372  24.886  36.824  1.00  0.00     0.020 A
HETATM   27  C16 UNL     1       5.671  24.390  35.745  1.00  0.00     0.037 A
HETATM   28  C17 UNL     1       4.417  23.798  35.919  1.00  0.00     0.089 A
HETATM   29  N6  UNL     1       3.894  23.715  37.161  1.00  0.00    -0.375 N
HETATM   30  C18 UNL     1       4.550  24.190  38.235  1.00  0.00     0.089 A
ATOM     31  H6  UNL     1       2.978  23.283  37.288  1.00  0.00     0.164 HD
HETATM   32  C19 UNL     1       5.785  24.776  38.083  1.00  0.00     0.037 A
ENDBRANCH  25  26
ENDBRANCH  10  24
BRANCH   1  33
HETATM   33  N1  UNL     1      10.453  24.724  32.196  1.00  0.00    -0.234 N
ATOM     34  H12 UNL     1      10.880  24.711  31.270  1.00  0.00     0.174 HD
ATOM     35  H11 UNL     1       9.644  24.129  32.372  1.00  0.00     0.174 HD
ENDBRANCH   1  33
TORSDOF 6
ENDMDL