MODEL 3
REMARK VINA RESULT: -8.487565942      0.787      1.514
REMARK  3 active torsions:
REMARK  status: ('A' for Active; 'I' for Inactive)
REMARK    1  A    between atoms: C3_4  and  C4_5
REMARK    2  A    between atoms: C5_8  and  C6_9
REMARK    3  A    between atoms: N3_14  and  C11_16
ROOT
HETATM    1  C6  UNL     1      17.666  26.200  36.522  1.00  0.00    -0.007 A
HETATM    2  C7  UNL     1      17.158  26.915  35.483  1.00  0.00     0.015 A
HETATM    3  C8  UNL     1      15.825  27.265  35.499  1.00  0.00     0.018 A
HETATM    4  C9  UNL     1      14.979  26.924  36.525  1.00  0.00     0.037 A
HETATM    5  C10 UNL     1      13.639  27.136  36.794  1.00  0.00     0.134 A
HETATM    6  N3  UNL     1      12.852  27.781  36.017  1.00  0.00    -0.320 N
ATOM      7  H3  UNL     1      13.236  28.160  35.151  1.00  0.00     0.169 HD
HETATM    8  N5  UNL     1      13.411  26.545  37.966  1.00  0.00    -0.284 N
ATOM      9  H5  UNL     1      12.508  26.523  38.442  1.00  0.00     0.188 HD
HETATM   10  N6  UNL     1      14.516  25.994  38.423  1.00  0.00    -0.298 N
ATOM     11  H6  UNL     1      14.590  25.485  39.304  1.00  0.00     0.187 HD
HETATM   12  C12 UNL     1      15.545  26.196  37.559  1.00  0.00     0.063 A
HETATM   13  C13 UNL     1      16.873  25.830  37.574  1.00  0.00     0.045 A
ENDROOT
BRANCH   1  14
HETATM   14  C5  UNL     1      19.106  25.814  36.516  1.00  0.00     0.050 A
HETATM   15  N2  UNL     1      19.543  24.820  37.228  1.00  0.00    -0.349 N
HETATM   16  C4  UNL     1      20.823  24.501  37.203  1.00  0.00     0.087 A
ATOM     17  H2  UNL     1      18.896  24.285  37.806  1.00  0.00     0.166 HD
HETATM   18  S2  UNL     1      21.471  25.650  36.124  1.00  0.00    -0.081 SA
HETATM   19  C14 UNL     1      20.033  26.493  35.757  1.00  0.00     0.082 A
BRANCH  16  20
HETATM   20  C3  UNL     1      21.509  23.407  37.940  1.00  0.00     0.032 A
HETATM   21  C2  UNL     1      21.691  22.133  37.466  1.00  0.00     0.125 A
HETATM   22  N1  UNL     1      22.345  21.417  38.390  1.00  0.00    -0.307 N
HETATM   23  C1  UNL     1      22.758  20.009  38.327  1.00  0.00     0.177 C
HETATM   24  N7  UNL     1      22.563  22.234  39.417  1.00  0.00    -0.310 N
HETATM   25  C15 UNL     1      22.065  23.461  39.175  1.00  0.00     0.123 A
ATOM     26  H7  UNL     1      23.044  21.965  40.275  1.00  0.00     0.186 HD
ENDBRANCH  16  20
ENDBRANCH   1  14
BRANCH   6  27
HETATM   27  C11 UNL     1      11.488  27.997  36.288  1.00  0.00     0.186 C
HETATM   28  N4  UNL     1      11.016  28.563  37.508  1.00  0.00    -0.070 NA
HETATM   29  S1  UNL     1      10.329  27.600  35.182  1.00  0.00    -0.044 SA
ENDBRANCH   6  27
TORSDOF 3
ENDMDL