MODEL 1
REMARK VINA RESULT: -9.696948291      0.000      0.000
REMARK  5 active torsions:
REMARK  status: ('A' for Active; 'I' for Inactive)
REMARK    1  A    between atoms: N1_1  and  S1_4
REMARK    2  A    between atoms: S1_4  and  C1_7
REMARK    3  A    between atoms: C5_11  and  N2_12
REMARK    4  A    between atoms: N2_12  and  C6_14
REMARK    5  A    between atoms: C7_17  and  C8_18
ROOT
HETATM    1  C6  UNL     1      14.505  27.502  35.867  1.00  0.00     0.683 A
HETATM    2  N3  UNL     1      15.756  27.021  35.787  1.00  0.00    -0.188 N
ATOM      3  H3  UNL     1      16.199  26.960  34.871  1.00  0.00     0.184 HD
HETATM    4  C7  UNL     1      16.447  26.619  36.868  1.00  0.00     0.094 A
HETATM    5  C15 UNL     1      15.841  26.707  38.094  1.00  0.00     0.051 A
HETATM    6  C16 UNL     1      14.538  27.203  38.218  1.00  0.00     0.108 A
HETATM    7  N6  UNL     1      13.925  27.582  37.078  1.00  0.00    -0.202 N
ATOM      8  H6  UNL     1      12.975  27.948  37.137  1.00  0.00     0.183 HD
ENDROOT
BRANCH   1   9
HETATM    9  N2  UNL     1      13.886  27.874  34.798  1.00  0.00    -0.192 N
ATOM     10  H2  UNL     1      14.282  28.637  34.249  1.00  0.00     0.184 HD
BRANCH   9  11
HETATM   11  C5  UNL     1      12.694  27.283  34.352  1.00  0.00     0.050 A
HETATM   12  C4  UNL     1      12.491  26.886  33.035  1.00  0.00     0.030 A
HETATM   13  C3  UNL     1      11.303  26.306  32.637  1.00  0.00     0.004 A
HETATM   14  C2  UNL     1      10.275  26.099  33.522  1.00  0.00     0.025 A
HETATM   15  C1  UNL     1      10.472  26.491  34.833  1.00  0.00     0.081 A
HETATM   16  C17 UNL     1      11.652  27.069  35.236  1.00  0.00     0.055 A
BRANCH  15  17
HETATM   17  S1  UNL     1       9.153  26.227  35.974  1.00  0.00     0.256 S
HETATM   18  O1  UNL     1       7.929  25.913  35.147  1.00  0.00    -0.201 OA
HETATM   19  O2  UNL     1       8.955  27.482  36.784  1.00  0.00    -0.201 OA
BRANCH  17  20
HETATM   20  N1  UNL     1       9.472  24.861  36.973  1.00  0.00    -0.324 N
ATOM     21  H12 UNL     1       9.424  23.886  36.676  1.00  0.00     0.169 HD
ATOM     22  H11 UNL     1       9.713  25.207  37.902  1.00  0.00     0.169 HD
ENDBRANCH  17  20
ENDBRANCH  15  17
ENDBRANCH   9  11
ENDBRANCH   1   9
BRANCH   4  23
HETATM   23  C8  UNL     1      17.812  26.097  36.748  1.00  0.00     0.134 A
HETATM   24  N4  UNL     1      18.282  24.951  37.244  1.00  0.00    -0.339 N
HETATM   25  C9  UNL     1      19.591  24.813  36.926  1.00  0.00     0.060 A
ATOM     26  H4  UNL     1      17.737  24.278  37.784  1.00  0.00     0.167 HD
HETATM   27  C10 UNL     1      20.559  23.860  37.166  1.00  0.00     0.032 A
HETATM   28  C14 UNL     1      19.944  25.938  36.195  1.00  0.00     0.060 A
HETATM   29  C11 UNL     1      21.841  24.056  36.671  1.00  0.00     0.002 A
HETATM   30  C12 UNL     1      22.173  25.178  35.947  1.00  0.00     0.002 A
HETATM   31  C13 UNL     1      21.211  26.135  35.704  1.00  0.00     0.032 A
HETATM   32  N5  UNL     1      18.836  26.678  36.116  1.00  0.00    -0.339 N
ATOM     33  H5  UNL     1      18.778  27.575  35.634  1.00  0.00     0.167 HD
ENDBRANCH   4  23
TORSDOF 5
ENDMDL