MODEL 5
REMARK VINA RESULT: -8.372315504      4.665      6.162
REMARK  3 active torsions:
REMARK  status: ('A' for Active; 'I' for Inactive)
REMARK    1  A    between atoms: C6_6  and  N1_7
REMARK    2  A    between atoms: N1_7  and  C7_9
REMARK    3  A    between atoms: C14_21  and  C15_22
ROOT
HETATM    1  C1  UNL     1      12.529  29.183  38.938  1.00  0.00     0.018 C
HETATM    2  C2  UNL     1      12.305  28.753  37.826  1.00  0.00    -0.078 C
HETATM    3  C3  UNL     1      12.022  28.238  36.507  1.00  0.00     0.017 A
HETATM    4  C4  UNL     1      10.725  27.920  36.131  1.00  0.00     0.023 A
HETATM    5  C5  UNL     1      10.445  27.428  34.871  1.00  0.00     0.031 A
HETATM    6  C6  UNL     1      11.444  27.232  33.939  1.00  0.00     0.049 A
HETATM    7  C18 UNL     1      12.731  27.541  34.293  1.00  0.00     0.031 A
HETATM    8  C19 UNL     1      13.008  28.037  35.564  1.00  0.00     0.023 A
ENDROOT
BRANCH   6   9
HETATM    9  N1  UNL     1      11.063  26.723  32.673  1.00  0.00    -0.192 N
ATOM     10  H1  UNL     1      11.170  27.318  31.851  1.00  0.00     0.184 HD
BRANCH   9  11
HETATM   11  C7  UNL     1      10.583  25.528  32.523  1.00  0.00     0.683 A
HETATM   12  N2  UNL     1       9.249  25.375  32.498  1.00  0.00    -0.189 N
HETATM   13  C8  UNL     1       8.733  24.143  32.343  1.00  0.00     0.079 A
ATOM     14  H2  UNL     1       8.634  26.183  32.594  1.00  0.00     0.184 HD
HETATM   15  C9  UNL     1       7.361  24.027  32.323  1.00  0.00     0.056 A
HETATM   16  C13 UNL     1       9.572  23.028  32.208  1.00  0.00     0.089 A
HETATM   17  C10 UNL     1       6.798  22.790  32.167  1.00  0.00     0.062 A
HETATM   18  C11 UNL     1       5.379  22.610  32.139  1.00  0.00     0.101 C
HETATM   19  C12 UNL     1       7.661  21.698  32.036  1.00  0.00     0.111 A
HETATM   20  N3  UNL     1       4.237  22.449  32.123  1.00  0.00    -0.191 NA
HETATM   21  N4  UNL     1       8.991  21.849  32.061  1.00  0.00    -0.361 N
ATOM     22  H4  UNL     1       9.579  21.022  31.962  1.00  0.00     0.165 HD
HETATM   23  C14 UNL     1      10.938  23.190  32.235  1.00  0.00     0.106 A
HETATM   24  N7  UNL     1      11.371  24.454  32.393  1.00  0.00    -0.187 N
ATOM     25  H7  UNL     1      12.380  24.605  32.416  1.00  0.00     0.184 HD
BRANCH  23  26
HETATM   26  C15 UNL     1      11.869  22.072  32.101  1.00  0.00     0.081 A
HETATM   27  C16 UNL     1      12.340  21.660  30.852  1.00  0.00     0.124 A
HETATM   28  N5  UNL     1      13.172  20.624  31.011  1.00  0.00    -0.317 N
HETATM   29  C17 UNL     1      13.245  20.366  32.320  1.00  0.00     0.324 A
ATOM     30  H5  UNL     1      13.661  20.123  30.269  1.00  0.00     0.170 HD
HETATM   31  O1  UNL     1      13.912  19.478  32.881  1.00  0.00    -0.247 OA
HETATM   32  N6  UNL     1      12.439  21.263  32.973  1.00  0.00    -0.305 N
ATOM     33  H6  UNL     1      12.301  21.299  33.983  1.00  0.00     0.171 HD
ENDBRANCH  23  26
ENDBRANCH   9  11
ENDBRANCH   6   9
TORSDOF 3
ENDMDL