MODEL 2
REMARK VINA RESULT: -8.411988270      3.299      6.724
REMARK  5 active torsions:
REMARK  status: ('A' for Active; 'I' for Inactive)
REMARK    1  A    between atoms: N1_2  and  C2_4
REMARK    2  A    between atoms: C3_7  and  N3_8
REMARK    3  A    between atoms: N3_8  and  C4_10
REMARK    4  A    between atoms: C11_20  and  N6_21
REMARK    5  A    between atoms: N6_21  and  C12_23
ROOT
HETATM    1  C4  UNL     1       9.390  22.761  33.290  1.00  0.00     0.049 A
HETATM    2  C5  UNL     1      10.246  23.146  32.304  1.00  0.00     0.031 A
HETATM    3  C6  UNL     1      11.413  22.457  32.038  1.00  0.00     0.025 A
HETATM    4  C7  UNL     1      11.714  21.350  32.796  1.00  0.00     0.044 A
HETATM    5  C8  UNL     1      12.933  20.654  32.497  1.00  0.00     0.099 C
HETATM    6  N4  UNL     1      13.920  20.113  32.254  1.00  0.00    -0.191 NA
HETATM    7  C9  UNL     1      10.852  20.950  33.797  1.00  0.00     0.025 A
HETATM    8  C10 UNL     1       9.694  21.643  34.054  1.00  0.00     0.031 A
ENDROOT
BRANCH   1   9
HETATM    9  N3  UNL     1       8.209  23.522  33.502  1.00  0.00    -0.191 N
ATOM     10  H3  UNL     1       7.420  23.426  32.863  1.00  0.00     0.184 HD
BRANCH   9  11
HETATM   11  C3  UNL     1       8.133  24.336  34.502  1.00  0.00     0.711 A
HETATM   12  N2  UNL     1       7.454  24.039  35.635  1.00  0.00    -0.021 N
HETATM   13  C2  UNL     1       7.384  24.899  36.668  1.00  0.00     0.706 A
ATOM     14  H2  UNL     1       6.981  23.138  35.707  1.00  0.00     0.203 HD
HETATM   15  N8  UNL     1       8.017  26.079  36.546  1.00  0.00    -0.021 N
HETATM   16  C11 UNL     1       8.699  26.427  35.459  1.00  0.00     0.711 A
ATOM     17  H8  UNL     1       7.970  26.738  37.323  1.00  0.00     0.203 HD
HETATM   18  N5  UNL     1       8.745  25.533  34.441  1.00  0.00    -0.021 N
ATOM     19  H5  UNL     1       9.263  25.776  33.596  1.00  0.00     0.203 HD
BRANCH  13  20
HETATM   20  N1  UNL     1       6.719  24.556  37.726  1.00  0.00    -0.229 N
HETATM   21  C1  UNL     1       6.939  23.346  38.450  1.00  0.00     0.165 C
ATOM     22  H1  UNL     1       5.994  25.190  38.061  1.00  0.00     0.177 HD
ENDBRANCH  13  20
BRANCH  16  23
HETATM   23  N6  UNL     1       9.317  27.534  35.290  1.00  0.00    -0.190 N
ATOM     24  H6  UNL     1       8.731  28.370  35.269  1.00  0.00     0.184 HD
BRANCH  23  25
HETATM   25  C12 UNL     1      10.670  27.747  35.134  1.00  0.00     0.061 A
HETATM   26  C13 UNL     1      11.505  27.830  36.223  1.00  0.00    -0.033 A
HETATM   27  C14 UNL     1      10.992  27.696  37.599  1.00  0.00     0.050 C
HETATM   28  C15 UNL     1      12.876  28.045  36.069  1.00  0.00     0.031 A
HETATM   29  C16 UNL     1      13.408  28.176  34.821  1.00  0.00     0.045 A
HETATM   30  C17 UNL     1      14.817  28.400  34.583  1.00  0.00     0.099 C
HETATM   31  C18 UNL     1      12.600  28.097  33.723  1.00  0.00     0.031 A
HETATM   32  N7  UNL     1      15.957  28.570  34.406  1.00  0.00    -0.191 NA
HETATM   33  C19 UNL     1      11.229  27.882  33.891  1.00  0.00    -0.033 A
HETATM   34  C20 UNL     1      10.382  27.802  32.701  1.00  0.00     0.050 C
ENDBRANCH  23  25
ENDBRANCH  16  23
ENDBRANCH   9  11
ENDBRANCH   1   9
TORSDOF 5
ENDMDL