MODEL 2
REMARK VINA RESULT: -9.188960128      3.356      9.859
REMARK  3 active torsions:
REMARK  status: ('A' for Active; 'I' for Inactive)
REMARK    1  A    between atoms: C6_6  and  C7_7
REMARK    2  A    between atoms: C9_14  and  N4_15
REMARK    3  A    between atoms: N4_15  and  C10_17
ROOT
HETATM    1  C1  UNL     1      21.875  25.447  35.627  1.00  0.00     0.018 C
HETATM    2  C2  UNL     1      20.706  25.597  35.888  1.00  0.00    -0.078 C
HETATM    3  C3  UNL     1      19.318  25.789  36.208  1.00  0.00     0.017 A
HETATM    4  C4  UNL     1      18.466  26.493  35.381  1.00  0.00     0.021 A
HETATM    5  C5  UNL     1      17.133  26.667  35.705  1.00  0.00     0.014 A
HETATM    6  C6  UNL     1      16.583  26.153  36.862  1.00  0.00    -0.024 A
HETATM    7  C19 UNL     1      17.437  25.447  37.689  1.00  0.00     0.014 A
HETATM    8  C20 UNL     1      18.771  25.273  37.365  1.00  0.00     0.021 A
ENDROOT
BRANCH   6   9
HETATM    9  C7  UNL     1      15.169  26.342  37.196  1.00  0.00    -0.005 A
HETATM   10  C8  UNL     1      14.846  27.319  38.108  1.00  0.00     0.121 A
HETATM   11  N1  UNL     1      13.577  27.563  38.476  1.00  0.00    -0.288 N
HETATM   12  N2  UNL     1      12.610  26.831  37.932  1.00  0.00    -0.165 N
ATOM     13  H1  UNL     1      13.360  28.291  39.156  1.00  0.00     0.188 HD
HETATM   14  N3  UNL     1      11.278  26.860  38.116  1.00  0.00    -0.109 N
HETATM   15  C17 UNL     1      12.851  25.860  37.035  1.00  0.00     0.162 A
HETATM   16  C9  UNL     1      10.676  25.932  37.356  1.00  0.00     0.700 A
ATOM     17  H3  UNL     1      10.793  27.500  38.744  1.00  0.00     0.208 HD
HETATM   18  N7  UNL     1      11.663  25.315  36.687  1.00  0.00    -0.172 N
ATOM     19  H7  UNL     1      11.535  24.553  36.020  1.00  0.00     0.186 HD
HETATM   20  C18 UNL     1      14.145  25.601  36.651  1.00  0.00     0.066 A
BRANCH  16  21
HETATM   21  N4  UNL     1       9.404  25.663  37.266  1.00  0.00    -0.188 N
ATOM     22  H4  UNL     1       8.820  25.775  38.094  1.00  0.00     0.184 HD
BRANCH  21  23
HETATM   23  C10 UNL     1       8.799  25.218  36.059  1.00  0.00     0.078 A
HETATM   24  C11 UNL     1       8.249  23.957  35.971  1.00  0.00     0.032 A
HETATM   25  C12 UNL     1       7.646  23.460  34.825  1.00  0.00     0.005 A
HETATM   26  C13 UNL     1       7.620  24.325  33.733  1.00  0.00     0.032 A
HETATM   27  C14 UNL     1       8.152  25.579  33.779  1.00  0.00     0.065 A
HETATM   28  N5  UNL     1       8.245  26.573  32.866  1.00  0.00    -0.306 N
HETATM   29  C16 UNL     1       8.742  26.036  34.931  1.00  0.00     0.090 A
HETATM   30  C15 UNL     1       8.874  27.598  33.462  1.00  0.00     0.325 A
ATOM     31  H5  UNL     1       7.901  26.547  31.906  1.00  0.00     0.170 HD
HETATM   32  O1  UNL     1       9.114  28.686  32.866  1.00  0.00    -0.247 OA
HETATM   33  N6  UNL     1       9.186  27.282  34.732  1.00  0.00    -0.305 N
ATOM     34  H6  UNL     1       9.666  27.874  35.409  1.00  0.00     0.171 HD
ENDBRANCH  21  23
ENDBRANCH  16  21
ENDBRANCH   6   9
TORSDOF 3
ENDMDL