MODEL 4
REMARK VINA RESULT: -7.900008706      5.821      8.419
REMARK  4 active torsions:
REMARK  status: ('A' for Active; 'I' for Inactive)
REMARK    1  A    between atoms: C11_16  and  N4_17
REMARK    2  A    between atoms: N4_17  and  C12_19
REMARK    3  A    between atoms: C15_22  and  S1_23
REMARK    4  A    between atoms: S1_23  and  N5_24
ROOT
HETATM    1  N1  UNL     1      11.686  30.476  39.621  1.00  0.00    -0.188 NA
HETATM    2  C1  UNL     1      11.803  29.585  38.891  1.00  0.00     0.137 C
HETATM    3  C2  UNL     1      11.952  28.487  37.961  1.00  0.00     0.190 A
HETATM    4  N2  UNL     1      11.192  28.384  36.855  1.00  0.00    -0.331 N
ATOM      5  H2  UNL     1      10.491  29.101  36.668  1.00  0.00     0.168 HD
HETATM    6  C3  UNL     1      11.331  27.361  35.988  1.00  0.00     0.077 A
HETATM    7  C4  UNL     1      12.267  26.372  36.209  1.00  0.00     0.105 A
HETATM    8  N3  UNL     1      12.164  25.508  35.187  1.00  0.00    -0.351 N
ATOM      9  H3  UNL     1      12.735  24.669  35.080  1.00  0.00     0.166 HD
HETATM   10  C5  UNL     1      11.209  25.894  34.324  1.00  0.00     0.045 A
HETATM   11  C6  UNL     1      10.711  25.379  33.142  1.00  0.00     0.030 A
HETATM   12  C7  UNL     1       9.697  26.050  32.493  1.00  0.00     0.002 A
HETATM   13  C8  UNL     1       9.168  27.223  32.998  1.00  0.00     0.001 A
HETATM   14  C9  UNL     1       9.654  27.743  34.172  1.00  0.00     0.016 A
HETATM   15  C10 UNL     1      10.670  27.066  34.814  1.00  0.00     0.020 A
HETATM   16  C11 UNL     1      13.046  26.478  37.343  1.00  0.00     0.137 A
HETATM   17  N6  UNL     1      12.864  27.520  38.171  1.00  0.00    -0.318 N
ATOM     18  H6  UNL     1      13.449  27.583  39.004  1.00  0.00     0.169 HD
ENDROOT
BRANCH  16  19
HETATM   19  N4  UNL     1      13.917  25.550  37.539  1.00  0.00    -0.341 N
ATOM     20  H4  UNL     1      13.585  24.672  37.937  1.00  0.00     0.167 HD
BRANCH  19  21
HETATM   21  C12 UNL     1      15.281  25.648  37.251  1.00  0.00     0.033 A
HETATM   22  C13 UNL     1      15.753  26.410  36.217  1.00  0.00     0.031 A
HETATM   23  C14 UNL     1      17.115  26.500  35.937  1.00  0.00     0.027 A
HETATM   24  C15 UNL     1      18.021  25.822  36.699  1.00  0.00     0.079 A
HETATM   25  C16 UNL     1      17.559  25.051  37.744  1.00  0.00     0.027 A
HETATM   26  C17 UNL     1      16.192  24.963  38.021  1.00  0.00     0.031 A
BRANCH  24  27
HETATM   27  S1  UNL     1      19.755  25.909  36.380  1.00  0.00     0.256 S
HETATM   28  O1  UNL     1      20.052  26.915  35.314  1.00  0.00    -0.201 OA
HETATM   29  O2  UNL     1      20.507  26.243  37.636  1.00  0.00    -0.201 OA
BRANCH  27  30
HETATM   30  N5  UNL     1      20.274  24.343  35.810  1.00  0.00    -0.324 N
ATOM     31  H52 UNL     1      21.203  24.126  35.447  1.00  0.00     0.169 HD
ATOM     32  H51 UNL     1      19.489  23.698  35.905  1.00  0.00     0.169 HD
ENDBRANCH  27  30
ENDBRANCH  24  27
ENDBRANCH  19  21
ENDBRANCH  16  19
TORSDOF 4
ENDMDL