MODEL 4
REMARK VINA RESULT: -7.313960346      1.743      7.520
REMARK  7 active torsions:
REMARK  status: ('A' for Active; 'I' for Inactive)
REMARK    1  A    between atoms: C2_3  and  N2_4
REMARK    2  A    between atoms: C7_10  and  C8_11
REMARK    3  A    between atoms: C8_11  and  C9_13
REMARK    4  A    between atoms: N5_18  and  C10_19
REMARK    5  A    between atoms: C12_29  and  N9_30
REMARK    6  A    between atoms: N9_30  and  C13_32
REMARK    7  A    between atoms: C13_32  and  C14_33
ROOT
HETATM    1  C9  UNL     1     -20.154   3.420  61.652  1.00  0.00     0.146 A
HETATM    2  N3  UNL     1     -20.118   2.330  60.840  1.00  0.00    -0.279 N
ATOM      3  H3  UNL     1     -19.737   2.315  59.894  1.00  0.00     0.189 HD
HETATM    4  N4  UNL     1     -20.645   1.309  61.454  1.00  0.00    -0.232 N
ATOM      5  H4  UNL     1     -20.735   0.376  61.051  1.00  0.00     0.209 HD
HETATM    6  N5  UNL     1     -21.059   1.650  62.699  1.00  0.00    -0.202 N
HETATM    7  C12 UNL     1     -20.755   2.954  62.822  1.00  0.00     0.159 A
ENDROOT
BRANCH   1   8
HETATM    8  C8  UNL     1     -19.659   4.749  61.339  1.00  0.00     0.223 C
HETATM    9  O2  UNL     1     -20.193   5.831  61.700  1.00  0.00    -0.285 OA
BRANCH   8  10
HETATM   10  C7  UNL     1     -18.426   4.833  60.525  1.00  0.00     0.131 A
HETATM   11  C2  UNL     1     -18.341   5.669  59.408  1.00  0.00     0.153 A
HETATM   12  N1  UNL     1     -17.211   5.724  58.700  1.00  0.00    -0.287 N
HETATM   13  C1  UNL     1     -17.086   6.578  57.554  1.00  0.00     0.163 C
HETATM   14  C20 UNL     1     -16.128   4.973  59.048  1.00  0.00     0.330 A
HETATM   15  N10 UNL     1     -16.181   4.165  60.111  1.00  0.00    -0.274 N
HETATM   16  O6  UNL     1     -15.089   5.061  58.347  1.00  0.00    -0.246 OA
HETATM   17  C19 UNL     1     -17.326   4.093  60.849  1.00  0.00     0.267 A
ATOM     18  H10 UNL     1     -15.369   3.604  60.369  1.00  0.00     0.173 HD
HETATM   19  O5  UNL     1     -17.305   3.328  61.815  1.00  0.00    -0.267 OA
BRANCH  11  20
HETATM   20  N2  UNL     1     -19.477   6.455  59.071  1.00  0.00    -0.241 N
HETATM   21  C3  UNL     1     -20.592   5.906  58.326  1.00  0.00     0.158 C
HETATM   22  C4  UNL     1     -21.596   6.969  57.977  1.00  0.00     0.024 C
HETATM   23  C5  UNL     1     -21.025   8.331  57.761  1.00  0.00     0.030 C
HETATM   24  C6  UNL     1     -19.780   8.655  58.502  1.00  0.00     0.201 C
HETATM   25  O1  UNL     1     -19.501   7.734  59.485  1.00  0.00    -0.276 OA
ENDBRANCH  11  20
ENDBRANCH   8  10
ENDBRANCH   1   8
BRANCH   7  26
HETATM   26  N9  UNL     1     -21.030   3.751  63.949  1.00  0.00    -0.372 N
ATOM     27  H9  UNL     1     -20.225   3.981  64.532  1.00  0.00     0.161 HD
BRANCH  26  28
HETATM   28  C13 UNL     1     -22.276   4.281  64.389  1.00  0.00     0.128 C
BRANCH  28  29
HETATM   29  C14 UNL     1     -22.125   5.562  65.213  1.00  0.00     0.027 C
HETATM   30  C15 UNL     1     -20.956   6.364  64.701  1.00  0.00     0.010 C
HETATM   31  C16 UNL     1     -20.938   7.747  65.238  1.00  0.00     0.027 C
HETATM   32  C17 UNL     1     -22.236   8.312  65.691  1.00  0.00     0.167 C
HETATM   33  O4  UNL     1     -23.190   7.420  66.096  1.00  0.00    -0.391 OA
HETATM   34  C18 UNL     1     -23.360   6.415  65.141  1.00  0.00     0.173 C
ENDBRANCH  28  29
ENDBRANCH  26  28
ENDBRANCH   7  26
BRANCH   6  35
HETATM   35  C10 UNL     1     -21.682   0.734  63.595  1.00  0.00     0.198 A
HETATM   36  N6  UNL     1     -21.150  -0.289  64.267  1.00  0.00    -0.220 N
HETATM   37  O3  UNL     1     -22.072  -0.901  64.968  1.00  0.00    -0.153 OA
ATOM     38  H6  UNL     1     -20.165  -0.557  64.238  1.00  0.00     0.198 HD
HETATM   39  N7  UNL     1     -23.223  -0.304  64.778  1.00  0.00    -0.222 N
HETATM   40  C11 UNL     1     -23.017   0.735  63.916  1.00  0.00     0.169 A
ATOM     41  H7  UNL     1     -24.114  -0.567  65.199  1.00  0.00     0.198 HD
HETATM   42  N8  UNL     1     -23.958   1.516  63.534  1.00  0.00    -0.381 N
ATOM     43  H82 UNL     1     -23.804   2.292  62.890  1.00  0.00     0.157 HD
ATOM     44  H81 UNL     1     -24.950   1.517  63.772  1.00  0.00     0.157 HD
ENDBRANCH   6  35
TORSDOF 7
ENDMDL