MODEL 3
REMARK VINA RESULT: -9.247636911      4.012     11.727
REMARK  7 active torsions:
REMARK  status: ('A' for Active; 'I' for Inactive)
REMARK    1  A    between atoms: O1_2  and  C2_3
REMARK    2  A    between atoms: N3_10  and  N4_11
REMARK    3  A    between atoms: N10_30  and  C12_31
REMARK    4  A    between atoms: C12_31  and  C13_32
REMARK    5  A    between atoms: C13_32  and  C14_33
REMARK    6  A    between atoms: C14_33  and  C15_34
REMARK    7  A    between atoms: C15_34  and  N11_35
ROOT
HETATM    1  N4  UNL     1     -18.438   5.380  61.450  1.00  0.00    -0.269 N
ATOM      2  H4  UNL     1     -17.604   5.342  62.037  1.00  0.00     0.189 HD
HETATM    3  C5  UNL     1     -18.330   6.196  60.505  1.00  0.00     0.124 C
HETATM    4  C6  UNL     1     -19.371   6.356  59.631  1.00  0.00     0.132 C
HETATM    5  N5  UNL     1     -20.249   5.433  59.525  1.00  0.00    -0.383 N
ATOM      6  H51 UNL     1     -21.024   5.552  58.874  1.00  0.00     0.157 HD
ATOM      7  H52 UNL     1     -20.091   4.625  60.127  1.00  0.00     0.157 HD
HETATM    8  N6  UNL     1     -19.582   7.441  58.823  1.00  0.00    -0.318 N
ATOM      9  H6  UNL     1     -20.549   7.741  58.701  1.00  0.00     0.169 HD
HETATM   10  C7  UNL     1     -18.627   8.163  58.165  1.00  0.00     0.191 C
HETATM   11  C8  UNL     1     -19.095   9.005  57.105  1.00  0.00     0.137 C
HETATM   12  N7  UNL     1     -19.485   9.692  56.252  1.00  0.00    -0.188 NA
HETATM   13  N8  UNL     1     -17.281   8.173  58.398  1.00  0.00    -0.318 N
ATOM     14  H8  UNL     1     -16.696   8.536  57.646  1.00  0.00     0.169 HD
HETATM   15  C9  UNL     1     -16.649   7.766  59.487  1.00  0.00     0.140 A
HETATM   16  C10 UNL     1     -17.108   6.885  60.439  1.00  0.00     0.110 A
HETATM   17  N9  UNL     1     -16.119   6.788  61.351  1.00  0.00    -0.347 N
ATOM     18  H9  UNL     1     -16.136   6.212  62.192  1.00  0.00     0.167 HD
HETATM   19  C11 UNL     1     -15.097   7.589  60.956  1.00  0.00     0.185 A
HETATM   20  N10 UNL     1     -15.398   8.209  59.802  1.00  0.00    -0.327 N
ENDROOT
BRANCH  20  21
HETATM   21  C12 UNL     1     -14.590   9.139  59.039  1.00  0.00     0.131 C
BRANCH  21  22
HETATM   22  C13 UNL     1     -14.262  10.403  59.807  1.00  0.00     0.022 C
BRANCH  22  23
HETATM   23  C14 UNL     1     -15.357  11.439  59.637  1.00  0.00     0.032 C
BRANCH  23  24
HETATM   24  C15 UNL     1     -15.783  11.468  58.195  1.00  0.00     0.272 C
BRANCH  24  25
HETATM   25  N11 UNL     1     -17.094  11.971  57.988  1.00  0.00     0.091 N
HETATM   26  C16 UNL     1     -17.968  11.894  59.104  1.00  0.00     0.300 C
HETATM   27  C17 UNL     1     -19.336  12.400  58.734  1.00  0.00     0.262 C
HETATM   28  N12 UNL     1     -19.399  12.640  57.319  1.00  0.00    -0.072 N
HETATM   29  C18 UNL     1     -18.459  13.700  56.959  1.00  0.00     0.262 C
ATOM     30 2H12 UNL     1     -19.245  11.789  56.777  1.00  0.00     0.277 HD
ATOM     31 1H12 UNL     1     -20.348  12.843  57.005  1.00  0.00     0.277 HD
HETATM   32  C19 UNL     1     -17.052  13.291  57.376  1.00  0.00     0.300 C
ENDBRANCH  24  25
ENDBRANCH  23  24
ENDBRANCH  22  23
ENDBRANCH  21  22
ENDBRANCH  20  21
BRANCH   1  33
HETATM   33  N3  UNL     1     -19.414   4.533  61.869  1.00  0.00    -0.140 N
HETATM   34  N2  UNL     1     -20.533   5.036  62.390  1.00  0.00    -0.217 N
HETATM   35  N1  UNL     1     -21.526   4.296  62.835  1.00  0.00    -0.282 N
ATOM     36  H2  UNL     1     -20.625   6.050  62.447  1.00  0.00     0.210 HD
HETATM   37  C4  UNL     1     -21.423   2.968  62.768  1.00  0.00     0.086 A
ATOM     38  H1  UNL     1     -22.362   4.732  63.224  1.00  0.00     0.188 HD
HETATM   39  C3  UNL     1     -22.276   1.946  63.143  1.00  0.00     0.089 A
HETATM   40  C21 UNL     1     -20.287   2.389  62.238  1.00  0.00     0.135 A
HETATM   41  C2  UNL     1     -21.651   0.756  62.838  1.00  0.00     0.144 A
HETATM   42  N13 UNL     1     -20.459   1.035  62.297  1.00  0.00    -0.331 N
ATOM     43  H13 UNL     1     -19.782   0.342  61.977  1.00  0.00     0.168 HD
HETATM   44  C20 UNL     1     -19.270   3.192  61.784  1.00  0.00     0.311 A
HETATM   45  O2  UNL     1     -18.243   2.667  61.307  1.00  0.00    -0.262 OA
BRANCH  41  46
HETATM   46  O1  UNL     1     -22.124  -0.517  63.037  1.00  0.00    -0.341 OA
HETATM   47  C1  UNL     1     -23.464  -0.846  63.277  1.00  0.00     0.211 C
ENDBRANCH  41  46
ENDBRANCH   1  33
TORSDOF 7
ENDMDL