MODEL 2
REMARK VINA RESULT: -7.467616329      3.163      5.615
REMARK  10 active torsions:
REMARK  status: ('A' for Active; 'I' for Inactive)
REMARK    1  A    between atoms: C2_2  and  N1_3
REMARK    2  A    between atoms: N1_3  and  C3_5
REMARK    3  A    between atoms: N2_7  and  C5_8
REMARK    4  A    between atoms: C6_11  and  N4_12
REMARK    5  A    between atoms: C11_20  and  N6_21
REMARK    6  A    between atoms: C13_27  and  N9_28
REMARK    7  A    between atoms: N9_28  and  C14_30
REMARK    8  A    between atoms: C14_30  and  C17_33
REMARK    9  A    between atoms: C17_33  and  O2_34
REMARK   10  A    between atoms: C18_38  and  N11_39
ROOT
HETATM    1  N6  UNL     1     -22.009   1.974  62.777  1.00  0.00    -0.051 N
HETATM    2  N7  UNL     1     -21.215   1.455  61.807  1.00  0.00    -0.219 N
ATOM      3  H7  UNL     1     -21.343   0.545  61.365  1.00  0.00     0.209 HD
HETATM    4  N8  UNL     1     -20.267   2.297  61.530  1.00  0.00    -0.278 N
ATOM      5  H8  UNL     1     -19.534   2.150  60.835  1.00  0.00     0.189 HD
HETATM    6  C12 UNL     1     -20.402   3.403  62.306  1.00  0.00     0.141 A
HETATM    7  C13 UNL     1     -19.619   4.572  62.353  1.00  0.00     0.150 A
HETATM    8  N10 UNL     1     -19.999   5.504  63.220  1.00  0.00    -0.174 N
ATOM      9  H10 UNL     1     -19.469   6.372  63.297  1.00  0.00     0.186 HD
HETATM   10  C18 UNL     1     -21.089   5.306  64.003  1.00  0.00     0.681 A
HETATM   11  N12 UNL     1     -21.827   4.193  63.952  1.00  0.00    -0.168 N
HETATM   12  C19 UNL     1     -22.982   3.986  64.813  1.00  0.00     0.177 C
HETATM   13  C20 UNL     1     -21.513   3.175  63.088  1.00  0.00     0.196 A
ENDROOT
BRANCH   1  14
HETATM   14  C11 UNL     1     -23.143   1.331  63.315  1.00  0.00     0.735 A
HETATM   15  N5  UNL     1     -23.334  -0.003  63.156  1.00  0.00    -0.019 N
HETATM   16  C6  UNL     1     -24.415  -0.589  63.636  1.00  0.00     0.709 A
ATOM     17  H5  UNL     1     -22.635  -0.559  62.662  1.00  0.00     0.203 HD
HETATM   18  N3  UNL     1     -25.333   0.147  64.283  1.00  0.00    -0.021 N
HETATM   19  C5  UNL     1     -25.200   1.487  64.474  1.00  0.00     0.709 A
ATOM     20  H3  UNL     1     -26.165  -0.318  64.647  1.00  0.00     0.203 HD
HETATM   21  N13 UNL     1     -24.080   2.029  63.966  1.00  0.00    -0.019 N
ATOM     22  H13 UNL     1     -23.935   3.032  64.084  1.00  0.00     0.203 HD
BRANCH  16  23
HETATM   23  N4  UNL     1     -24.682  -1.986  63.506  1.00  0.00    -0.213 N
HETATM   24  C7  UNL     1     -23.666  -2.775  62.833  1.00  0.00     0.167 C
HETATM   25  C8  UNL     1     -23.710  -4.223  63.248  1.00  0.00     0.188 C
HETATM   26  O1  UNL     1     -25.010  -4.659  63.496  1.00  0.00    -0.388 OA
HETATM   27  C9  UNL     1     -25.553  -3.933  64.563  1.00  0.00     0.188 C
HETATM   28  C10 UNL     1     -25.902  -2.562  64.019  1.00  0.00     0.167 C
ENDBRANCH  16  23
BRANCH  19  29
HETATM   29  N2  UNL     1     -26.176   2.237  65.159  1.00  0.00    -0.213 N
HETATM   30  C4  UNL     1     -26.218   3.414  65.995  1.00  0.00     0.168 C
HETATM   31  C3  UNL     1     -27.366   2.733  66.699  1.00  0.00     0.117 C
HETATM   32  C21 UNL     1     -27.612   2.173  65.343  1.00  0.00     0.168 C
BRANCH  31  33
HETATM   33  N1  UNL     1     -28.290   3.490  67.393  1.00  0.00    -0.395 N
ATOM     34  H1  UNL     1     -28.657   4.332  66.949  1.00  0.00     0.159 HD
BRANCH  33  35
HETATM   35  C2  UNL     1     -28.747   3.160  68.672  1.00  0.00     0.051 C
HETATM   36  C1  UNL     1     -28.715   1.683  68.972  1.00  0.00     0.054 C
ENDBRANCH  33  35
ENDBRANCH  31  33
ENDBRANCH  19  29
ENDBRANCH   1  14
BRANCH   7  37
HETATM   37  N9  UNL     1     -18.633   4.618  61.564  1.00  0.00    -0.363 N
ATOM     38  H9  UNL     1     -17.959   3.859  61.665  1.00  0.00     0.162 HD
BRANCH  37  39
HETATM   39  C14 UNL     1     -18.329   5.557  60.575  1.00  0.00     0.045 C
HETATM   40  C15 UNL     1     -17.363   4.833  59.591  1.00  0.00     0.040 C
HETATM   41  C16 UNL     1     -17.571   6.755  61.067  1.00  0.00     0.040 C
BRANCH  39  42
HETATM   42  C17 UNL     1     -19.509   6.014  59.723  1.00  0.00     0.194 C
BRANCH  42  43
HETATM   43  O2  UNL     1     -20.017   4.913  59.025  1.00  0.00    -0.398 OA
ATOM     44  H2  UNL     1     -20.045   5.124  58.099  1.00  0.00     0.209 HD
ENDBRANCH  42  43
ENDBRANCH  39  42
ENDBRANCH  37  39
ENDBRANCH   7  37
BRANCH  10  45
HETATM   45  N11 UNL     1     -21.365   6.274  64.781  1.00  0.00    -0.234 N
ATOM     46 2H11 UNL     1     -20.655   6.924  65.121  1.00  0.00     0.174 HD
ATOM     47 1H11 UNL     1     -22.348   6.340  65.045  1.00  0.00     0.174 HD
ENDBRANCH  10  45
TORSDOF 10
ENDMDL