MODEL 2
REMARK VINA RESULT: -8.135290884      1.133      1.437
REMARK  11 active torsions:
REMARK  status: ('A' for Active; 'I' for Inactive)
REMARK    1  A    between atoms: C2_2  and  C3_3
REMARK    2  A    between atoms: C3_3  and  C4_4
REMARK    3  A    between atoms: C9_16  and  O3_17
REMARK    4  A    between atoms: C9_16  and  C10_19
REMARK    5  A    between atoms: C10_19  and  O4_20
REMARK    6  A    between atoms: C10_19  and  C11_22
REMARK    7  A    between atoms: C11_22  and  O5_23
REMARK    8  A    between atoms: N4_28  and  O6_29
REMARK    9  A    between atoms: N5_33  and  C16_34
REMARK   10  A    between atoms: C16_34  and  C17_35
REMARK   11  A    between atoms: C18_36  and  N6_37
ROOT
HETATM    1  C4  UNL     1     -21.853   4.489  64.387  1.00  0.00     0.126 A
HETATM    2  N1  UNL     1     -21.672   3.185  64.015  1.00  0.00    -0.332 N
ATOM      3  H1  UNL     1     -20.798   2.763  63.702  1.00  0.00     0.168 HD
HETATM    4  C5  UNL     1     -22.844   2.569  64.134  1.00  0.00     0.155 A
HETATM    5  C6  UNL     1     -23.208   1.243  63.886  1.00  0.00     0.286 A
HETATM    6  O1  UNL     1     -22.302   0.523  63.491  1.00  0.00    -0.265 OA
HETATM    7  N2  UNL     1     -24.466   0.825  64.075  1.00  0.00    -0.244 N
HETATM    8  C7  UNL     1     -25.374   1.732  64.516  1.00  0.00     0.133 A
HETATM    9  N3  UNL     1     -25.017   3.036  64.763  1.00  0.00    -0.321 N
ATOM     10  H3  UNL     1     -25.729   3.688  65.096  1.00  0.00     0.169 HD
HETATM   11  C8  UNL     1     -23.768   3.479  64.582  1.00  0.00     0.183 A
HETATM   12  O2  UNL     1     -23.119   4.611  64.714  1.00  0.00    -0.278 OA
HETATM   13  C9  UNL     1     -26.788   1.372  64.740  1.00  0.00     0.149 A
HETATM   14  C12 UNL     1     -27.166  -0.030  64.563  1.00  0.00     0.110 A
HETATM   15  C13 UNL     1     -26.100  -0.929  64.058  1.00  0.00     0.067 A
HETATM   16  C14 UNL     1     -24.796  -0.545  63.826  1.00  0.00     0.172 A
HETATM   17  N4  UNL     1     -24.086  -1.589  63.385  1.00  0.00    -0.153 N
HETATM   18  C15 UNL     1     -24.955  -2.640  63.338  1.00  0.00     0.355 A
HETATM   19  O7  UNL     1     -24.646  -3.807  62.965  1.00  0.00    -0.244 OA
HETATM   20  N5  UNL     1     -26.161  -2.250  63.739  1.00  0.00    -0.294 N
ENDROOT
BRANCH  20  21
HETATM   21  C16 UNL     1     -27.370  -3.060  63.838  1.00  0.00     0.162 C
BRANCH  21  22
HETATM   22  C17 UNL     1     -28.082  -3.105  62.561  1.00  0.00     0.010 C
HETATM   23  C18 UNL     1     -29.184  -3.791  62.368  1.00  0.00     0.083 C
BRANCH  23  24
HETATM   24  N6  UNL     1     -29.876  -3.843  61.144  1.00  0.00    -0.386 N
HETATM   25  C19 UNL     1     -29.205  -3.466  59.932  1.00  0.00     0.148 C
HETATM   26  C20 UNL     1     -30.047  -2.400  59.253  1.00  0.00     0.187 C
HETATM   27  O8  UNL     1     -31.391  -2.671  59.299  1.00  0.00    -0.388 OA
HETATM   28  C21 UNL     1     -31.724  -3.955  59.656  1.00  0.00     0.187 C
HETATM   29  C22 UNL     1     -31.246  -4.265  61.082  1.00  0.00     0.148 C
ENDBRANCH  23  24
ENDBRANCH  21  22
ENDBRANCH  20  21
BRANCH  17  30
HETATM   30  O6  UNL     1     -22.785  -1.738  63.019  1.00  0.00    -0.277 OA
ATOM     31  H6  UNL     1     -22.255  -2.496  62.803  1.00  0.00     0.245 HD
ENDBRANCH  17  30
BRANCH  13  32
HETATM   32  O3  UNL     1     -27.505   2.138  63.774  1.00  0.00    -0.379 OA
ATOM     33  H3  UNL     1     -27.320   1.709  62.947  1.00  0.00     0.211 HD
ENDBRANCH  13  32
BRANCH  13  34
HETATM   34  C10 UNL     1     -27.142   1.919  66.122  1.00  0.00     0.184 C
BRANCH  34  35
HETATM   35  O4  UNL     1     -27.754   0.932  66.880  1.00  0.00    -0.390 OA
ATOM     36  H4  UNL     1     -28.061   0.233  66.316  1.00  0.00     0.210 HD
ENDBRANCH  34  35
BRANCH  34  37
HETATM   37  C11 UNL     1     -27.974   3.160  66.034  1.00  0.00     0.199 C
BRANCH  37  38
HETATM   38  O5  UNL     1     -27.231   4.204  66.579  1.00  0.00    -0.398 OA
ATOM     39  H5  UNL     1     -27.207   4.080  67.520  1.00  0.00     0.209 HD
ENDBRANCH  37  38
ENDBRANCH  34  37
ENDBRANCH  13  34
BRANCH   1  40
HETATM   40  C3  UNL     1     -20.809   5.557  64.412  1.00  0.00     0.084 C
BRANCH  40  41
HETATM   41  C2  UNL     1     -20.994   6.408  65.643  1.00  0.00     0.003 C
HETATM   42  C1  UNL     1     -22.079   7.437  65.361  1.00  0.00     0.005 C
ENDBRANCH  40  41
ENDBRANCH   1  40
TORSDOF 11
ENDMDL