MODEL 1
REMARK VINA RESULT: -7.587743647      0.000      0.000
REMARK  15 active torsions:
REMARK  status: ('A' for Active; 'I' for Inactive)
REMARK    1  A    between atoms: O1_2  and  C2_3
REMARK    2  A    between atoms: C4_6  and  O3_7
REMARK    3  A    between atoms: O3_7  and  C5_8
REMARK    4  A    between atoms: C6_10  and  C7_11
REMARK    5  A    between atoms: C7_11  and  C8_12
REMARK    6  A    between atoms: C7_11  and  O6_15
REMARK    7  A    between atoms: C8_12  and  O5_13
REMARK    8  A    between atoms: O6_15  and  C9_16
REMARK    9  A    between atoms: C11_19  and  O8_20
REMARK   10  A    between atoms: O8_20  and  C12_21
REMARK   11  A    between atoms: C12_21  and  O10_23
REMARK   12  A    between atoms: O10_23  and  C13_24
REMARK   13  A    between atoms: C17_28  and  O11_29
REMARK   14  A    between atoms: C18_31  and  C19_32
REMARK   15  A    between atoms: C19_32  and  O12_33
ROOT
HETATM    1  C5  UNL     1     -24.389  -1.378  63.096  1.00  0.00     0.269 C
HETATM    2  O4  UNL     1     -25.142  -0.359  63.716  1.00  0.00    -0.350 OA
HETATM    3  C6  UNL     1     -26.496  -0.635  63.718  1.00  0.00     0.188 C
HETATM    4  C11 UNL     1     -26.924  -2.001  63.367  1.00  0.00     0.195 C
HETATM    5  C17 UNL     1     -25.938  -3.116  63.597  1.00  0.00     0.161 C
HETATM    6  C18 UNL     1     -24.568  -2.557  63.974  1.00  0.00     0.096 C
ENDROOT
BRANCH   1   7
HETATM    7  O3  UNL     1     -23.095  -1.025  62.904  1.00  0.00    -0.351 OA
BRANCH   7   8
HETATM    8  C4  UNL     1     -22.806   0.283  63.149  1.00  0.00     0.177 C
HETATM    9  C3  UNL     1     -21.831   0.276  64.359  1.00  0.00     0.208 C
HETATM   10  O2  UNL     1     -21.496   1.589  64.682  1.00  0.00    -0.336 OA
HETATM   11  C2  UNL     1     -20.824   2.117  63.573  1.00  0.00     0.413 C
HETATM   12  O13 UNL     1     -21.808   2.368  62.602  1.00  0.00    -0.331 OA
HETATM   13  C20 UNL     1     -22.206   1.118  62.093  1.00  0.00     0.154 C
HETATM   14  C21 UNL     1     -20.973   0.555  61.430  1.00  0.00     0.042 C
BRANCH  11  15
HETATM   15  O1  UNL     1     -20.220   3.283  63.989  1.00  0.00    -0.344 OA
HETATM   16  C1  UNL     1     -20.858   4.361  63.420  1.00  0.00     0.207 C
ENDBRANCH  11  15
ENDBRANCH   7   8
ENDBRANCH   1   7
BRANCH   6  17
HETATM   17  C19 UNL     1     -23.482  -3.555  63.871  1.00  0.00     0.176 C
BRANCH  17  18
HETATM   18  O12 UNL     1     -24.015  -4.759  63.428  1.00  0.00    -0.400 OA
ATOM     19  H12 UNL     1     -24.199  -5.311  64.179  1.00  0.00     0.209 HD
ENDBRANCH  17  18
ENDBRANCH   6  17
BRANCH   3  20
HETATM   20  C7  UNL     1     -27.007  -0.151  65.059  1.00  0.00     0.187 C
BRANCH  20  21
HETATM   21  C8  UNL     1     -28.122  -0.997  65.633  1.00  0.00     0.199 C
BRANCH  21  22
HETATM   22  O5  UNL     1     -28.257  -0.587  66.989  1.00  0.00    -0.398 OA
ATOM     23  H5  UNL     1     -29.158  -0.301  67.082  1.00  0.00     0.209 HD
ENDBRANCH  21  22
ENDBRANCH  20  21
BRANCH  20  24
HETATM   24  O6  UNL     1     -27.635   1.147  64.871  1.00  0.00    -0.311 OA
BRANCH  24  25
HETATM   25  C9  UNL     1     -27.135   2.267  65.517  1.00  0.00     0.255 C
HETATM   26  C10 UNL     1     -27.825   2.917  66.660  1.00  0.00     0.126 C
HETATM   27  O7  UNL     1     -26.060   2.746  65.117  1.00  0.00    -0.266 OA
ENDBRANCH  24  25
ENDBRANCH  20  24
ENDBRANCH   3  20
BRANCH   5  28
HETATM   28  O11 UNL     1     -26.402  -3.999  64.566  1.00  0.00    -0.392 OA
ATOM     29  H11 UNL     1     -25.777  -4.084  65.277  1.00  0.00     0.210 HD
ENDBRANCH   5  28
BRANCH   4  30
HETATM   30  O8  UNL     1     -27.327  -2.094  62.003  1.00  0.00    -0.287 OA
BRANCH  30  31
HETATM   31  C12 UNL     1     -28.375  -2.920  61.664  1.00  0.00     0.407 C
HETATM   32  O9  UNL     1     -29.224  -3.207  62.542  1.00  0.00    -0.229 OA
BRANCH  31  33
HETATM   33  O10 UNL     1     -28.559  -3.459  60.411  1.00  0.00    -0.288 OA
BRANCH  33  34
HETATM   34  C13 UNL     1     -29.508  -2.896  59.499  1.00  0.00     0.062 C
HETATM   35  C14 UNL     1     -29.446  -1.375  59.531  1.00  0.00     0.046 C
HETATM   36  C15 UNL     1     -29.187  -3.426  58.127  1.00  0.00     0.046 C
HETATM   37  C16 UNL     1     -30.912  -3.302  59.871  1.00  0.00     0.046 C
ENDBRANCH  33  34
ENDBRANCH  31  33
ENDBRANCH  30  31
ENDBRANCH   4  30
TORSDOF 15
ENDMDL