MODEL 4
REMARK VINA RESULT: -8.685236911      1.038      1.269
REMARK  9 active torsions:
REMARK  status: ('A' for Active; 'I' for Inactive)
REMARK    1  A    between atoms: N1_2  and  C2_3
REMARK    2  A    between atoms: N1_2  and  C7_17
REMARK    3  A    between atoms: C2_3  and  C3_4
REMARK    4  A    between atoms: C3_4  and  N2_5
REMARK    5  A    between atoms: C5_9  and  N4_10
REMARK    6  A    between atoms: C8_20  and  N7_21
REMARK    7  A    between atoms: C13_28  and  N9_29
REMARK    8  A    between atoms: N10_32  and  C16_33
REMARK    9  A    between atoms: C18_35  and  N11_36
ROOT
HETATM    1  C7  UNL     1     -25.494   2.001  64.863  1.00  0.00     0.709 A
HETATM    2  N6  UNL     1     -25.643   0.698  64.583  1.00  0.00    -0.021 N
ATOM      3  H6  UNL     1     -26.501   0.232  64.877  1.00  0.00     0.203 HD
HETATM    4  C8  UNL     1     -24.708  -0.023  63.930  1.00  0.00     0.709 A
HETATM    5  N8  UNL     1     -23.594   0.642  63.565  1.00  0.00    -0.021 N
ATOM      6  H8  UNL     1     -22.869   0.122  63.069  1.00  0.00     0.203 HD
HETATM    7  C13 UNL     1     -23.373   1.944  63.810  1.00  0.00     0.709 A
HETATM    8  N14 UNL     1     -24.344   2.599  64.460  1.00  0.00    -0.021 N
ATOM      9  H14 UNL     1     -24.214   3.591  64.660  1.00  0.00     0.203 HD
ENDROOT
BRANCH   7  10
HETATM   10  N9  UNL     1     -22.148   2.595  63.413  1.00  0.00    -0.214 N
HETATM   11  C14 UNL     1     -21.748   3.808  64.098  1.00  0.00     0.161 C
HETATM   12  C15 UNL     1     -21.077   4.778  63.140  1.00  0.00     0.145 C
HETATM   13  N10 UNL     1     -20.148   4.067  62.266  1.00  0.00    -0.364 N
HETATM   14  C20 UNL     1     -19.936   2.676  62.546  1.00  0.00     0.145 C
HETATM   15  C21 UNL     1     -21.320   2.021  62.359  1.00  0.00     0.161 C
BRANCH  13  16
HETATM   16  C16 UNL     1     -19.534   4.752  61.208  1.00  0.00     0.107 A
HETATM   17  C17 UNL     1     -20.360   5.241  60.178  1.00  0.00     0.096 A
HETATM   18  C18 UNL     1     -19.777   5.909  59.133  1.00  0.00     0.103 A
HETATM   19  N12 UNL     1     -18.437   6.071  59.135  1.00  0.00    -0.339 N
HETATM   20  C19 UNL     1     -17.674   5.601  60.123  1.00  0.00     0.183 A
ATOM     21  H12 UNL     1     -17.996   6.567  58.360  1.00  0.00     0.168 HD
HETATM   22  N13 UNL     1     -18.214   4.934  61.175  1.00  0.00    -0.339 N
ATOM     23  H13 UNL     1     -17.622   4.578  61.926  1.00  0.00     0.168 HD
BRANCH  18  24
HETATM   24  N11 UNL     1     -20.518   6.361  58.161  1.00  0.00    -0.385 N
ATOM     25 2H11 UNL     1     -21.099   7.192  58.273  1.00  0.00     0.157 HD
ATOM     26 1H11 UNL     1     -20.517   5.883  57.259  1.00  0.00     0.157 HD
ENDBRANCH  18  24
ENDBRANCH  13  16
ENDBRANCH   7  10
BRANCH   4  27
HETATM   27  N7  UNL     1     -24.881  -1.402  63.594  1.00  0.00    -0.217 N
HETATM   28  C9  UNL     1     -25.910  -2.227  64.227  1.00  0.00     0.141 C
HETATM   29  C10 UNL     1     -25.660  -3.633  63.778  1.00  0.00     0.022 C
HETATM   30  C11 UNL     1     -24.176  -3.582  63.413  1.00  0.00     0.022 C
HETATM   31  C12 UNL     1     -24.156  -2.229  62.680  1.00  0.00     0.141 C
ENDBRANCH   4  27
BRANCH   1  32
HETATM   32  N1  UNL     1     -26.474   2.755  65.598  1.00  0.00    -0.219 N
HETATM   33  C1  UNL     1     -26.054   3.974  66.227  1.00  0.00     0.168 C
BRANCH  32  34
HETATM   34  C2  UNL     1     -27.794   2.255  65.719  1.00  0.00     0.161 C
BRANCH  34  35
HETATM   35  C3  UNL     1     -28.026   0.798  65.843  1.00  0.00     0.155 C
BRANCH  35  36
HETATM   36  N2  UNL     1     -28.561   0.298  67.062  1.00  0.00    -0.293 N
HETATM   37  C4  UNL     1     -28.520   1.112  68.153  1.00  0.00     0.205 A
HETATM   38  N3  UNL     1     -29.030   0.720  69.318  1.00  0.00    -0.188 N
HETATM   39  C5  UNL     1     -29.603  -0.482  69.470  1.00  0.00     0.680 A
ATOM     40  H3  UNL     1     -28.984   1.351  70.118  1.00  0.00     0.185 HD
HETATM   41  N5  UNL     1     -29.659  -1.314  68.406  1.00  0.00    -0.141 N
HETATM   42  C6  UNL     1     -29.130  -0.901  67.214  1.00  0.00     0.341 A
ATOM     43  H5  UNL     1     -30.089  -2.236  68.490  1.00  0.00     0.189 HD
HETATM   44  O1  UNL     1     -29.212  -1.732  66.261  1.00  0.00    -0.246 OA
BRANCH  39  45
HETATM   45  N4  UNL     1     -30.093  -0.826  70.635  1.00  0.00    -0.234 N
ATOM     46  H42 UNL     1     -31.098  -0.924  70.783  1.00  0.00     0.174 HD
ATOM     47  H41 UNL     1     -29.462  -1.003  71.418  1.00  0.00     0.174 HD
ENDBRANCH  39  45
ENDBRANCH  35  36
ENDBRANCH  34  35
ENDBRANCH  32  34
ENDBRANCH   1  32
TORSDOF 9
ENDMDL