MODEL 2
REMARK VINA RESULT: -7.259777769      9.147     13.323
REMARK  11 active torsions:
REMARK  status: ('A' for Active; 'I' for Inactive)
REMARK    1  A    between atoms: N1_2  and  C2_4
REMARK    2  A    between atoms: C3_7  and  N3_8
REMARK    3  A    between atoms: C7_12  and  N4_13
REMARK    4  A    between atoms: C9_20  and  N6_21
REMARK    5  A    between atoms: N6_21  and  C10_22
REMARK    6  A    between atoms: N6_21  and  C19_39
REMARK    7  A    between atoms: C12_26  and  O1_27
REMARK    8  A    between atoms: C14_29  and  N8_30
REMARK    9  A    between atoms: N8_30  and  C15_32
REMARK   10  A    between atoms: C15_32  and  O2_33
REMARK   11  A    between atoms: C15_32  and  N9_35
ROOT
HETATM    1  N6  UNL     1     -26.594  -2.148  63.361  1.00  0.00     0.028 N
ENDROOT
BRANCH   1   2
HETATM    2  C9  UNL     1     -26.451  -0.905  64.001  1.00  0.00     0.733 A
HETATM    3  N5  UNL     1     -27.302  -0.479  64.946  1.00  0.00    -0.020 N
HETATM    4  C3  UNL     1     -27.172   0.741  65.533  1.00  0.00     0.709 A
ATOM      5  H5  UNL     1     -28.069  -1.088  65.232  1.00  0.00     0.203 HD
HETATM    6  N2  UNL     1     -26.135   1.508  65.115  1.00  0.00    -0.021 N
HETATM    7  C2  UNL     1     -25.254   1.144  64.180  1.00  0.00     0.706 A
ATOM      8  H2  UNL     1     -26.021   2.426  65.543  1.00  0.00     0.203 HD
HETATM    9  N14 UNL     1     -25.432  -0.071  63.635  1.00  0.00    -0.020 N
ATOM     10  H14 UNL     1     -24.779  -0.384  62.917  1.00  0.00     0.203 HD
BRANCH   4  11
HETATM   11  N3  UNL     1     -28.066   1.217  66.535  1.00  0.00    -0.215 N
HETATM   12  C4  UNL     1     -28.473   0.450  67.670  1.00  0.00     0.141 C
HETATM   13  C5  UNL     1     -29.167   1.342  68.667  1.00  0.00     0.022 C
HETATM   14  C6  UNL     1     -28.497   2.686  68.836  1.00  0.00     0.036 C
HETATM   15  C7  UNL     1     -28.335   3.445  67.560  1.00  0.00     0.202 C
HETATM   16  C8  UNL     1     -28.605   2.560  66.386  1.00  0.00     0.173 C
BRANCH  15  17
HETATM   17  N4  UNL     1     -27.020   4.069  67.525  1.00  0.00    -0.073 N
ATOM     18  H43 UNL     1     -26.899   4.662  66.704  1.00  0.00     0.274 HD
ATOM     19  H42 UNL     1     -26.917   4.787  68.242  1.00  0.00     0.274 HD
ATOM     20  H41 UNL     1     -26.298   3.352  67.591  1.00  0.00     0.274 HD
ENDBRANCH  15  17
ENDBRANCH   4  11
BRANCH   7  21
HETATM   21  N1  UNL     1     -24.274   1.921  63.798  1.00  0.00    -0.229 N
HETATM   22  C1  UNL     1     -22.966   1.315  63.663  1.00  0.00     0.165 C
ATOM     23  H1  UNL     1     -24.424   2.911  63.604  1.00  0.00     0.177 HD
ENDBRANCH   7  21
ENDBRANCH   1   2
BRANCH   1  24
HETATM   24  C10 UNL     1     -27.678  -2.582  62.595  1.00  0.00     0.093 A
HETATM   25  C11 UNL     1     -28.604  -3.438  63.160  1.00  0.00     0.121 A
HETATM   26  N7  UNL     1     -29.653  -3.921  62.483  1.00  0.00    -0.343 N
HETATM   27  C12 UNL     1     -29.888  -3.607  61.200  1.00  0.00     0.169 A
ATOM     28  H7  UNL     1     -30.298  -4.550  62.961  1.00  0.00     0.167 HD
HETATM   29  C14 UNL     1     -28.972  -2.741  60.591  1.00  0.00     0.085 A
HETATM   30  C18 UNL     1     -27.878  -2.232  61.279  1.00  0.00     0.066 A
BRANCH  27  31
HETATM   31  O1  UNL     1     -30.977  -4.105  60.483  1.00  0.00    -0.339 OA
HETATM   32  C13 UNL     1     -32.198  -4.264  61.201  1.00  0.00     0.211 C
ENDBRANCH  27  31
BRANCH  29  33
HETATM   33  N8  UNL     1     -29.191  -2.417  59.235  1.00  0.00    -0.336 N
ATOM     34  H8  UNL     1     -28.991  -3.102  58.506  1.00  0.00     0.164 HD
BRANCH  33  35
HETATM   35  C15 UNL     1     -29.698  -1.113  58.884  1.00  0.00     0.464 C
BRANCH  35  36
HETATM   36  O2  UNL     1     -29.429  -0.128  59.806  1.00  0.00    -0.352 OA
ATOM     37  H2  UNL     1     -29.018   0.649  59.446  1.00  0.00     0.214 HD
ENDBRANCH  35  36
BRANCH  35  38
HETATM   38  N9  UNL     1     -31.128  -1.138  58.639  1.00  0.00     0.128 N
HETATM   39  C16 UNL     1     -31.352  -1.651  57.306  1.00  0.00     0.315 C
HETATM   40  C17 UNL     1     -31.670   0.200  58.712  1.00  0.00     0.315 C
ENDBRANCH  35  38
ENDBRANCH  33  35
ENDBRANCH  29  33
ENDBRANCH   1  24
BRANCH   1  41
HETATM   41  C19 UNL     1     -25.501  -3.085  63.513  1.00  0.00     0.737 A
HETATM   42  N10 UNL     1     -25.589  -4.166  64.306  1.00  0.00    -0.114 N
HETATM   43  N11 UNL     1     -24.445  -4.797  64.211  1.00  0.00    -0.213 N
ATOM     44  H10 UNL     1     -26.391  -4.442  64.873  1.00  0.00     0.207 HD
HETATM   45  N12 UNL     1     -23.650  -4.153  63.391  1.00  0.00    -0.211 N
ATOM     46  H11 UNL     1     -24.209  -5.660  64.700  1.00  0.00     0.210 HD
HETATM   47  N13 UNL     1     -24.299  -3.096  62.959  1.00  0.00    -0.110 N
ATOM     48  H12 UNL     1     -22.700  -4.423  63.136  1.00  0.00     0.210 HD
HETATM   49  C20 UNL     1     -23.796  -2.112  62.028  1.00  0.00     0.199 C
ENDBRANCH   1  41
TORSDOF 11
ENDMDL