MODEL 1
REMARK VINA RESULT: -6.117247810      0.000      0.000
REMARK  9 active torsions:
REMARK  status: ('A' for Active; 'I' for Inactive)
REMARK    1  A    between atoms: O1_2  and  C2_3
REMARK    2  A    between atoms: C2_3  and  C4_6
REMARK    3  A    between atoms: C2_3  and  C7_10
REMARK    4  A    between atoms: C4_6  and  N2_7
REMARK    5  A    between atoms: C7_10  and  N3_11
REMARK    6  A    between atoms: C8_12  and  C9_13
REMARK    7  A    between atoms: N6_26  and  C16_28
REMARK    8  A    between atoms: N9_35  and  N10_36
REMARK    9  A    between atoms: C19_41  and  N12_42
ROOT
HETATM    1  C2  UNL     1     -20.205   2.989  62.330  1.00  0.00     0.190 C
HETATM    2  C3  UNL     1     -18.862   2.561  61.998  1.00  0.00     0.101 C
HETATM    3  N1  UNL     1     -17.791   2.208  61.696  1.00  0.00    -0.194 NA
ENDROOT
BRANCH   1   4
HETATM    4  O1  UNL     1     -21.155   2.155  61.811  1.00  0.00    -0.367 OA
HETATM    5  C1  UNL     1     -20.851   1.332  60.786  1.00  0.00     0.204 C
ENDBRANCH   1   4
BRANCH   1   6
HETATM    6  C4  UNL     1     -20.366   4.434  61.928  1.00  0.00     0.326 C
BRANCH   6   7
HETATM    7  N2  UNL     1     -19.468   5.012  61.027  1.00  0.00     0.084 N
HETATM    8  C5  UNL     1     -20.287   5.532  59.898  1.00  0.00     0.309 C
HETATM    9  C6  UNL     1     -18.733   6.176  61.478  1.00  0.00     0.309 C
ENDBRANCH   6   7
ENDBRANCH   1   6
BRANCH   1  10
HETATM   10  C7  UNL     1     -20.472   2.988  63.875  1.00  0.00     0.186 C
BRANCH  10  11
HETATM   11  N3  UNL     1     -21.799   2.869  64.177  1.00  0.00    -0.323 N
HETATM   12  C8  UNL     1     -22.646   3.845  64.555  1.00  0.00     0.119 A
HETATM   13  N4  UNL     1     -23.906   3.328  64.682  1.00  0.00    -0.335 N
HETATM   14  C13 UNL     1     -23.890   2.029  64.400  1.00  0.00     0.134 A
ATOM     15  H4  UNL     1     -24.733   3.859  64.952  1.00  0.00     0.168 HD
HETATM   16  C14 UNL     1     -24.955   1.145  64.389  1.00  0.00     0.288 C
HETATM   17  C20 UNL     1     -22.551   1.739  64.086  1.00  0.00     0.113 A
HETATM   18  O2  UNL     1     -25.982   1.549  64.961  1.00  0.00    -0.265 OA
HETATM   19  N5  UNL     1     -25.013  -0.081  63.842  1.00  0.00    -0.153 N
HETATM   20  C15 UNL     1     -24.031  -0.848  63.281  1.00  0.00     0.701 C
ATOM     21  H5  UNL     1     -25.940  -0.508  63.846  1.00  0.00     0.187 HD
HETATM   22  N6  UNL     1     -24.386  -1.962  62.739  1.00  0.00    -0.019 N
HETATM   23  N11 UNL     1     -22.701  -0.547  63.243  1.00  0.00    -0.174 N
ATOM     24  H6  UNL     1     -23.675  -2.554  62.312  1.00  0.00     0.203 HD
HETATM   25  C19 UNL     1     -22.059   0.483  63.847  1.00  0.00     0.144 C
ATOM     26  H11 UNL     1     -22.116  -1.175  62.690  1.00  0.00     0.186 HD
BRANCH  12  27
HETATM   27  C9  UNL     1     -22.458   5.290  64.845  1.00  0.00     0.015 A
HETATM   28  C10 UNL     1     -23.397   6.163  65.292  1.00  0.00     0.023 A
HETATM   29  C11 UNL     1     -23.000   7.440  65.589  1.00  0.00     0.050 A
HETATM   30  S1  UNL     1     -21.343   7.424  65.249  1.00  0.00    -0.113 SA
HETATM   31  C12 UNL     1     -21.173   5.815  64.739  1.00  0.00     0.064 A
ENDBRANCH  12  27
BRANCH  22  32
HETATM   32  C16 UNL     1     -25.717  -2.378  62.721  1.00  0.00     0.734 A
HETATM   33  N7  UNL     1     -26.668  -2.094  61.821  1.00  0.00    -0.176 N
HETATM   34  C17 UNL     1     -27.826  -2.682  62.153  1.00  0.00     0.110 A
ATOM     35  H7  UNL     1     -26.529  -1.510  60.995  1.00  0.00     0.185 HD
HETATM   36  C18 UNL     1     -29.092  -2.600  61.408  1.00  0.00     0.091 C
HETATM   37  N8  UNL     1     -27.567  -3.345  63.295  1.00  0.00    -0.253 N
HETATM   38  N9  UNL     1     -26.311  -3.164  63.632  1.00  0.00    -0.025 N
ATOM     39  H8  UNL     1     -28.243  -3.903  63.819  1.00  0.00     0.191 HD
BRANCH  38  40
HETATM   40  N10 UNL     1     -25.683  -3.711  64.775  1.00  0.00    -0.309 N
ATOM     41 2H10 UNL     1     -25.629  -3.263  65.689  1.00  0.00     0.179 HD
ATOM     42 1H10 UNL     1     -25.213  -4.616  64.815  1.00  0.00     0.179 HD
ENDBRANCH  38  40
ENDBRANCH  22  32
BRANCH  25  43
HETATM   43  N12 UNL     1     -20.888   0.231  64.256  1.00  0.00    -0.383 N
ATOM     44 2H12 UNL     1     -20.174   0.942  64.101  1.00  0.00     0.157 HD
ATOM     45 1H12 UNL     1     -20.772  -0.666  64.728  1.00  0.00     0.157 HD
ENDBRANCH  25  43
ENDBRANCH  10  11
ENDBRANCH   1  10
TORSDOF 9
ENDMDL