MODEL 4
REMARK VINA RESULT: -8.599600944      5.514      7.949
REMARK  12 active torsions:
REMARK  status: ('A' for Active; 'I' for Inactive)
REMARK    1  A    between atoms: C1_2  and  C2_3
REMARK    2  A    between atoms: C1_2  and  O6_16
REMARK    3  A    between atoms: C2_3  and  C3_4
REMARK    4  A    between atoms: C4_6  and  C5_7
REMARK    5  A    between atoms: C5_7  and  O3_8
REMARK    6  A    between atoms: C8_13  and  O5_14
REMARK    7  A    between atoms: O6_16  and  C9_17
REMARK    8  A    between atoms: C9_17  and  C10_18
REMARK    9  A    between atoms: C10_18  and  O8_20
REMARK   10  A    between atoms: O8_20  and  C11_21
REMARK   11  A    between atoms: C15_28  and  N1_29
REMARK   12  A    between atoms: N3_39  and  O12_41
ROOT
HETATM    1  C11 UNL     1     -22.652  -0.139  62.880  1.00  0.00     0.191 C
HETATM    2  C12 UNL     1     -22.280  -0.404  64.123  1.00  0.00     0.063 C
HETATM    3  C13 UNL     1     -21.207   0.339  64.798  1.00  0.00     0.206 C
HETATM    4  O9  UNL     1     -20.859   1.525  64.256  1.00  0.00    -0.324 OA
HETATM    5  C14 UNL     1     -21.434   1.938  63.101  1.00  0.00     0.336 C
HETATM    6  O10 UNL     1     -21.937   0.898  62.282  1.00  0.00    -0.262 OA
HETATM    7  O11 UNL     1     -22.531   2.737  63.408  1.00  0.00    -0.290 OA
HETATM    8  C15 UNL     1     -22.213   4.051  63.230  1.00  0.00     0.369 C
HETATM    9  C20 UNL     1     -21.245   4.047  62.082  1.00  0.00     0.127 C
HETATM   10  C21 UNL     1     -20.482   2.804  62.365  1.00  0.00     0.106 C
HETATM   11  N3  UNL     1     -19.269   2.609  62.014  1.00  0.00    -0.269 N
ATOM     12  H3  UNL     1     -18.806   3.361  61.504  1.00  0.00     0.193 HD
ENDROOT
BRANCH   1  13
HETATM   13  O8  UNL     1     -23.654  -0.806  62.197  1.00  0.00    -0.254 OA
BRANCH  13  14
HETATM   14  C10 UNL     1     -24.192  -2.007  62.583  1.00  0.00     0.290 C
HETATM   15  O7  UNL     1     -23.571  -3.053  62.256  1.00  0.00    -0.262 OA
BRANCH  14  16
HETATM   16  C9  UNL     1     -25.451  -2.139  63.358  1.00  0.00     0.290 C
BRANCH  16  17
HETATM   17  O6  UNL     1     -25.480  -1.200  64.436  1.00  0.00    -0.311 OA
BRANCH  17  18
HETATM   18  C1  UNL     1     -26.481  -0.254  64.550  1.00  0.00     0.265 C
HETATM   19  O1  UNL     1     -26.243   0.873  64.021  1.00  0.00    -0.265 OA
BRANCH  18  20
HETATM   20  C2  UNL     1     -27.767  -0.523  65.248  1.00  0.00     0.179 C
BRANCH  20  21
HETATM   21  C3  UNL     1     -28.049   0.449  66.312  1.00  0.00     0.099 A
HETATM   22  O2  UNL     1     -27.728   1.708  66.202  1.00  0.00    -0.314 OA
HETATM   23  C4  UNL     1     -27.992   2.575  67.181  1.00  0.00     0.080 A
HETATM   24  C6  UNL     1     -28.609   2.205  68.352  1.00  0.00     0.092 A
HETATM   25  C7  UNL     1     -28.963   0.884  68.507  1.00  0.00     0.209 A
HETATM   26  O4  UNL     1     -29.527   0.447  69.532  1.00  0.00    -0.285 OA
HETATM   27  C8  UNL     1     -28.668   0.027  67.463  1.00  0.00     0.146 A
BRANCH  23  28
HETATM   28  C5  UNL     1     -27.606   3.978  66.997  1.00  0.00     0.229 C
BRANCH  28  29
HETATM   29  O3  UNL     1     -26.273   4.091  66.590  1.00  0.00    -0.394 OA
ATOM     30  H3  UNL     1     -26.068   3.473  65.898  1.00  0.00     0.209 HD
ENDBRANCH  28  29
ENDBRANCH  23  28
BRANCH  27  31
HETATM   31  O5  UNL     1     -29.024  -1.308  67.617  1.00  0.00    -0.355 OA
ATOM     32  H5  UNL     1     -29.940  -1.554  67.676  1.00  0.00     0.218 HD
ENDBRANCH  27  31
ENDBRANCH  20  21
ENDBRANCH  18  20
ENDBRANCH  17  18
ENDBRANCH  16  17
ENDBRANCH  14  16
ENDBRANCH  13  14
ENDBRANCH   1  13
BRANCH   8  33
HETATM   33  N1  UNL     1     -21.676   4.685  64.415  1.00  0.00     0.120 N
HETATM   34  C16 UNL     1     -20.905   5.853  64.121  1.00  0.00     0.303 C
HETATM   35  C17 UNL     1     -20.961   6.769  65.328  1.00  0.00     0.262 C
HETATM   36  N2  UNL     1     -22.305   7.322  65.394  1.00  0.00    -0.072 N
HETATM   37  C18 UNL     1     -23.312   6.329  65.183  1.00  0.00     0.262 C
ATOM     38  H22 UNL     1     -22.456   7.820  66.272  1.00  0.00     0.277 HD
ATOM     39  H21 UNL     1     -22.415   8.101  64.745  1.00  0.00     0.277 HD
HETATM   40  C19 UNL     1     -22.743   4.937  65.357  1.00  0.00     0.303 C
ENDBRANCH   8  33
BRANCH  11  41
HETATM   41  O12 UNL     1     -18.543   1.488  62.258  1.00  0.00    -0.290 OA
ATOM     42  H12 UNL     1     -18.311   1.154  63.116  1.00  0.00     0.244 HD
ENDBRANCH  11  41
TORSDOF 12
ENDMDL