MODEL 1
REMARK VINA RESULT: -6.558648366      0.000      0.000
REMARK  10 active torsions:
REMARK  status: ('A' for Active; 'I' for Inactive)
REMARK    1  A    between atoms: C2_2  and  C3_3
REMARK    2  A    between atoms: C3_3  and  C4_4
REMARK    3  A    between atoms: C4_4  and  C5_5
REMARK    4  A    between atoms: C5_5  and  N1_6
REMARK    5  A    between atoms: N1_6  and  C6_9
REMARK    6  A    between atoms: C6_9  and  C7_10
REMARK    7  A    between atoms: C7_10  and  N2_11
REMARK    8  A    between atoms: N2_11  and  C8_14
REMARK    9  A    between atoms: C8_14  and  C11_17
REMARK   10  A    between atoms: C11_17  and  C12_18
ROOT
HETATM    1  N2  UNL     1     -12.750  -3.363  32.706  1.00  0.00    -0.065 N
ATOM      2  H21 UNL     1     -11.956  -2.727  32.776  1.00  0.00     0.278 HD
ATOM      3  H22 UNL     1     -12.601  -3.713  31.759  1.00  0.00     0.278 HD
ENDROOT
BRANCH   1   4
HETATM    4  C7  UNL     1     -13.991  -2.641  32.793  1.00  0.00     0.260 C
BRANCH   4   5
HETATM    5  C6  UNL     1     -13.707  -1.158  32.811  1.00  0.00     0.259 C
BRANCH   5   6
HETATM    6  N1  UNL     1     -14.578  -0.392  33.645  1.00  0.00    -0.074 N
ATOM      7  H12 UNL     1     -15.540  -0.453  33.313  1.00  0.00     0.277 HD
ATOM      8  H11 UNL     1     -14.416   0.606  33.513  1.00  0.00     0.277 HD
BRANCH   6   9
HETATM    9  C5  UNL     1     -14.498  -0.741  35.045  1.00  0.00     0.232 C
BRANCH   9  10
HETATM   10  C4  UNL     1     -15.633  -0.202  35.849  1.00  0.00     0.031 C
BRANCH  10  11
HETATM   11  C3  UNL     1     -16.184  -1.237  36.761  1.00  0.00     0.028 C
BRANCH  11  12
HETATM   12  C2  UNL     1     -15.222  -2.349  36.906  1.00  0.00    -0.037 C
HETATM   13  C1  UNL     1     -15.252  -3.094  37.994  1.00  0.00     0.007 C
ENDBRANCH  11  12
ENDBRANCH  10  11
ENDBRANCH   9  10
ENDBRANCH   6   9
ENDBRANCH   5   6
ENDBRANCH   4   5
ENDBRANCH   1   4
BRANCH   1  14
HETATM   14  C8  UNL     1     -12.639  -4.432  33.672  1.00  0.00     0.122 C
HETATM   15  C9  UNL     1     -12.707  -3.956  35.100  1.00  0.00     0.046 C
HETATM   16  C10 UNL     1     -13.752  -5.443  33.480  1.00  0.00     0.046 C
BRANCH  14  17
HETATM   17  C11 UNL     1     -11.263  -5.028  33.494  1.00  0.00     0.078 C
BRANCH  17  18
HETATM   18  C12 UNL     1     -11.214  -6.225  32.659  1.00  0.00    -0.032 A
HETATM   19  C13 UNL     1     -11.284  -7.521  33.113  1.00  0.00     0.033 A
HETATM   20  C14 UNL     1     -11.203  -8.333  32.004  1.00  0.00     0.142 A
HETATM   21  O1  UNL     1     -11.090  -7.584  30.942  1.00  0.00    -0.334 OA
HETATM   22  C15 UNL     1     -11.094  -6.328  31.284  1.00  0.00     0.148 A
ENDBRANCH  17  18
ENDBRANCH  14  17
ENDBRANCH   1  14
TORSDOF 10
ENDMDL