MODEL 5
REMARK VINA RESULT: -7.066456051      1.359      2.411
REMARK  11 active torsions:
REMARK  status: ('A' for Active; 'I' for Inactive)
REMARK    1  A    between atoms: C2_2  and  C3_3
REMARK    2  A    between atoms: C3_3  and  C4_4
REMARK    3  A    between atoms: C4_4  and  O1_5
REMARK    4  A    between atoms: O1_5  and  C5_6
REMARK    5  A    between atoms: C5_6  and  C6_7
REMARK    6  A    between atoms: C6_7  and  C7_8
REMARK    7  A    between atoms: C7_8  and  O2_9
REMARK    8  A    between atoms: C7_8  and  C8_11
REMARK    9  A    between atoms: C8_11  and  C9_12
REMARK   10  A    between atoms: C9_12  and  O3_13
REMARK   11  A    between atoms: C9_12  and  C10_15
ROOT
HETATM    1  C7  UNL     1     -11.493  -6.886  32.005  1.00  0.00     0.123 C
ENDROOT
BRANCH   1   2
HETATM    2  C6  UNL     1     -11.428  -8.385  32.294  1.00  0.00     0.058 C
BRANCH   2   3
HETATM    3  C5  UNL     1     -11.089  -9.170  31.051  1.00  0.00     0.170 C
BRANCH   3   4
HETATM    4  O1  UNL     1     -11.206  -8.411  29.910  1.00  0.00    -0.391 OA
BRANCH   4   5
HETATM    5  C4  UNL     1     -11.887  -9.022  28.868  1.00  0.00     0.171 C
BRANCH   5   6
HETATM    6  C3  UNL     1     -11.145  -8.747  27.568  1.00  0.00     0.052 C
BRANCH   6   7
HETATM    7  C2  UNL     1     -11.443  -9.826  26.616  1.00  0.00    -0.035 C
HETATM    8  C1  UNL     1     -12.282  -9.617  25.615  1.00  0.00     0.007 C
ENDBRANCH   6   7
ENDBRANCH   5   6
ENDBRANCH   4   5
ENDBRANCH   3   4
ENDBRANCH   2   3
ENDBRANCH   1   2
BRANCH   1   9
HETATM    9  O2  UNL     1     -10.245  -6.418  31.708  1.00  0.00    -0.395 OA
ATOM     10  H2  UNL     1     -10.199  -5.487  31.890  1.00  0.00     0.210 HD
ENDBRANCH   1   9
BRANCH   1  11
HETATM   11  C8  UNL     1     -12.248  -6.146  33.080  1.00  0.00     0.068 C
BRANCH  11  12
HETATM   12  C9  UNL     1     -11.902  -4.703  33.209  1.00  0.00     0.153 C
BRANCH  12  13
HETATM   13  O3  UNL     1     -10.660  -4.524  33.844  1.00  0.00    -0.391 OA
ATOM     14  H3  UNL     1     -10.766  -4.198  34.729  1.00  0.00     0.210 HD
ENDBRANCH  12  13
BRANCH  12  15
HETATM   15  C10 UNL     1     -12.904  -3.799  33.718  1.00  0.00    -0.030 A
HETATM   16  C11 UNL     1     -12.984  -3.651  35.113  1.00  0.00     0.010 A
HETATM   17  C12 UNL     1     -13.883  -2.800  35.708  1.00  0.00     0.001 A
HETATM   18  C13 UNL     1     -14.733  -2.066  34.913  1.00  0.00     0.000 A
HETATM   19  C14 UNL     1     -14.705  -2.166  33.536  1.00  0.00     0.001 A
HETATM   20  C15 UNL     1     -13.779  -3.040  32.985  1.00  0.00     0.010 A
ENDBRANCH  12  15
ENDBRANCH  11  12
ENDBRANCH   1  11
TORSDOF 11
ENDMDL