MODEL 1
REMARK VINA RESULT: -6.733884418      0.000      0.000
REMARK  10 active torsions:
REMARK  status: ('A' for Active; 'I' for Inactive)
REMARK    1  A    between atoms: C2_3  and  C3_4
REMARK    2  A    between atoms: C3_4  and  N2_5
REMARK    3  A    between atoms: N2_5  and  C4_8
REMARK    4  A    between atoms: C4_8  and  C5_9
REMARK    5  A    between atoms: C5_9  and  C6_10
REMARK    6  A    between atoms: C6_10  and  N3_11
REMARK    7  A    between atoms: N3_11  and  C7_14
REMARK    8  A    between atoms: C7_14  and  C8_15
REMARK    9  A    between atoms: C8_15  and  C9_16
REMARK   10  A    between atoms: C9_16  and  C10_17
ROOT
HETATM    1  N1  UNL     1     -12.324  -1.562  30.520  1.00  0.00    -0.197 NA
HETATM    2  C1  UNL     1     -12.679  -0.680  31.173  1.00  0.00     0.060 C
HETATM    3  C2  UNL     1     -13.135   0.435  32.001  1.00  0.00     0.151 C
ENDROOT
BRANCH   3   4
HETATM    4  C3  UNL     1     -13.914  -0.122  33.186  1.00  0.00     0.246 C
BRANCH   4   5
HETATM    5  N2  UNL     1     -14.601  -1.317  32.745  1.00  0.00    -0.074 N
ATOM      6  H22 UNL     1     -15.548  -1.124  32.418  1.00  0.00     0.277 HD
ATOM      7  H21 UNL     1     -14.222  -1.686  31.873  1.00  0.00     0.277 HD
BRANCH   5   8
HETATM    8  C4  UNL     1     -14.573  -2.297  33.824  1.00  0.00     0.234 C
BRANCH   8   9
HETATM    9  C5  UNL     1     -14.190  -3.638  33.203  1.00  0.00     0.055 C
BRANCH   9  10
HETATM   10  C6  UNL     1     -12.740  -3.935  33.585  1.00  0.00     0.233 C
BRANCH  10  11
HETATM   11  N3  UNL     1     -11.967  -3.865  32.353  1.00  0.00    -0.075 N
ATOM     12  H32 UNL     1     -12.525  -4.040  31.518  1.00  0.00     0.277 HD
ATOM     13  H31 UNL     1     -11.674  -2.917  32.116  1.00  0.00     0.277 HD
BRANCH  11  14
HETATM   14  C7  UNL     1     -10.848  -4.793  32.502  1.00  0.00     0.232 C
BRANCH  14  15
HETATM   15  C8  UNL     1     -11.088  -5.690  33.680  1.00  0.00     0.028 C
BRANCH  15  16
HETATM   16  C9  UNL     1     -10.760  -7.108  33.560  1.00  0.00     0.006 C
BRANCH  16  17
HETATM   17  C10 UNL     1     -11.537  -8.031  32.716  1.00  0.00    -0.014 C
HETATM   18  C11 UNL     1     -12.985  -7.488  32.742  1.00  0.00     0.004 C
HETATM   19  C12 UNL     1     -13.910  -8.448  32.084  1.00  0.00     0.000 C
HETATM   20  C13 UNL     1     -13.471  -8.664  30.642  1.00  0.00     0.000 C
HETATM   21  C14 UNL     1     -12.062  -9.116  30.551  1.00  0.00     0.000 C
HETATM   22  C15 UNL     1     -11.056  -8.374  31.371  1.00  0.00     0.004 C
ENDBRANCH  16  17
ENDBRANCH  15  16
ENDBRANCH  14  15
ENDBRANCH  11  14
ENDBRANCH  10  11
ENDBRANCH   9  10
ENDBRANCH   8   9
ENDBRANCH   5   8
ENDBRANCH   4   5
ENDBRANCH   3   4
TORSDOF 10
ENDMDL