MODEL 5
REMARK VINA RESULT: -6.774908865      2.584      4.071
REMARK  10 active torsions:
REMARK  status: ('A' for Active; 'I' for Inactive)
REMARK    1  A    between atoms: C2_2  and  C3_3
REMARK    2  A    between atoms: C2_2  and  N1_7
REMARK    3  A    between atoms: C3_3  and  C4_4
REMARK    4  A    between atoms: N1_7  and  C6_9
REMARK    5  A    between atoms: C6_9  and  C7_10
REMARK    6  A    between atoms: C7_10  and  C8_11
REMARK    7  A    between atoms: C8_11  and  N2_12
REMARK    8  A    between atoms: N2_12  and  C9_15
REMARK    9  A    between atoms: C9_15  and  C10_16
REMARK   10  A    between atoms: C10_16  and  C11_17
ROOT
HETATM    1  C8  UNL     1     -11.403  -4.778  32.889  1.00  0.00     0.234 C
ENDROOT
BRANCH   1   2
HETATM    2  C7  UNL     1     -10.677  -4.306  31.617  1.00  0.00     0.046 C
BRANCH   2   3
HETATM    3  C6  UNL     1     -11.436  -3.165  31.008  1.00  0.00     0.115 C
BRANCH   3   4
HETATM    4  N1  UNL     1     -12.509  -2.778  31.852  1.00  0.00    -0.417 N
ATOM      5  H1  UNL     1     -12.786  -3.347  32.653  1.00  0.00     0.153 HD
BRANCH   4   6
HETATM    6  C2  UNL     1     -13.180  -1.573  31.540  1.00  0.00     0.075 C
HETATM    7  C1  UNL     1     -12.356  -0.481  30.946  1.00  0.00     0.032 C
BRANCH   6   8
HETATM    8  C3  UNL     1     -13.916  -1.044  32.749  1.00  0.00     0.058 C
BRANCH   8   9
HETATM    9  C4  UNL     1     -14.260  -2.157  33.721  1.00  0.00     0.147 A
HETATM   10  C5  UNL     1     -14.355  -1.676  35.155  1.00  0.00     0.200 A
HETATM   11  O1  UNL     1     -13.329  -2.498  34.704  1.00  0.00    -0.381 OA
ENDBRANCH   8   9
ENDBRANCH   6   8
ENDBRANCH   4   6
ENDBRANCH   3   4
ENDBRANCH   2   3
ENDBRANCH   1   2
BRANCH   1  12
HETATM   12  N2  UNL     1     -11.987  -6.045  32.584  1.00  0.00    -0.075 N
ATOM     13  H22 UNL     1     -12.530  -6.402  33.370  1.00  0.00     0.277 HD
ATOM     14  H21 UNL     1     -12.737  -5.952  31.899  1.00  0.00     0.277 HD
BRANCH  12  15
HETATM   15  C9  UNL     1     -11.006  -6.999  32.154  1.00  0.00     0.232 C
BRANCH  15  16
HETATM   16  C10 UNL     1     -11.635  -8.256  31.607  1.00  0.00     0.032 C
BRANCH  16  17
HETATM   17  C11 UNL     1     -11.147  -8.555  30.210  1.00  0.00    -0.013 C
HETATM   18  C12 UNL     1     -11.957  -9.623  29.533  1.00  0.00     0.005 C
HETATM   19  C13 UNL     1     -11.722  -9.433  28.045  1.00  0.00     0.000 C
HETATM   20  C14 UNL     1     -10.960  -8.124  27.927  1.00  0.00     0.000 C
HETATM   21  C15 UNL     1     -11.270  -7.415  29.255  1.00  0.00     0.005 C
ENDBRANCH  16  17
ENDBRANCH  15  16
ENDBRANCH  12  15
ENDBRANCH   1  12
TORSDOF 10
ENDMDL