MODEL 4
REMARK VINA RESULT: -6.251634592      1.670      1.959
REMARK  10 active torsions:
REMARK  status: ('A' for Active; 'I' for Inactive)
REMARK    1  A    between atoms: N1_2  and  C2_5
REMARK    2  A    between atoms: C2_5  and  C3_6
REMARK    3  A    between atoms: C3_6  and  O1_7
REMARK    4  A    between atoms: O1_7  and  C4_8
REMARK    5  A    between atoms: C4_8  and  C5_9
REMARK    6  A    between atoms: C5_9  and  N2_10
REMARK    7  A    between atoms: N2_10  and  C6_13
REMARK    8  A    between atoms: C6_13  and  C7_14
REMARK    9  A    between atoms: C7_14  and  C8_15
REMARK   10  A    between atoms: C8_15  and  C9_16
ROOT
HETATM    1  N2  UNL     1     -11.866  -3.506  31.907  1.00  0.00    -0.073 N
ATOM      2  H21 UNL     1     -11.786  -3.994  31.015  1.00  0.00     0.277 HD
ATOM      3  H22 UNL     1     -10.894  -3.229  32.036  1.00  0.00     0.277 HD
ENDROOT
BRANCH   1   4
HETATM    4  C5  UNL     1     -12.280  -4.406  32.943  1.00  0.00     0.258 C
BRANCH   4   5
HETATM    5  C4  UNL     1     -11.075  -5.089  33.548  1.00  0.00     0.195 C
BRANCH   5   6
HETATM    6  O1  UNL     1     -10.527  -6.040  32.728  1.00  0.00    -0.388 OA
BRANCH   6   7
HETATM    7  C3  UNL     1     -11.153  -7.254  32.733  1.00  0.00     0.195 C
BRANCH   7   8
HETATM    8  C2  UNL     1     -11.129  -7.860  31.327  1.00  0.00     0.258 C
BRANCH   8   9
HETATM    9  N1  UNL     1     -11.172  -6.780  30.373  1.00  0.00    -0.077 N
HETATM   10  C1  UNL     1     -11.216  -7.316  29.041  1.00  0.00     0.267 C
ATOM     11  H12 UNL     1     -10.401  -6.124  30.499  1.00  0.00     0.276 HD
ATOM     12  H11 UNL     1     -11.942  -6.136  30.555  1.00  0.00     0.276 HD
ENDBRANCH   8   9
ENDBRANCH   7   8
ENDBRANCH   6   7
ENDBRANCH   5   6
ENDBRANCH   4   5
ENDBRANCH   1   4
BRANCH   1  13
HETATM   13  C6  UNL     1     -12.728  -2.333  31.780  1.00  0.00     0.232 C
BRANCH  13  14
HETATM   14  C7  UNL     1     -13.966  -2.460  32.606  1.00  0.00     0.028 C
BRANCH  14  15
HETATM   15  C8  UNL     1     -14.225  -1.426  33.620  1.00  0.00     0.006 C
BRANCH  15  16
HETATM   16  C9  UNL     1     -14.653  -1.777  34.973  1.00  0.00    -0.014 C
HETATM   17  C10 UNL     1     -13.669  -2.545  35.826  1.00  0.00     0.004 C
HETATM   18  C11 UNL     1     -14.361  -3.140  36.996  1.00  0.00     0.000 C
HETATM   19  C12 UNL     1     -15.614  -2.556  37.471  1.00  0.00     0.000 C
HETATM   20  C13 UNL     1     -16.208  -1.397  36.745  1.00  0.00     0.000 C
HETATM   21  C14 UNL     1     -15.191  -0.687  35.858  1.00  0.00     0.004 C
ENDBRANCH  15  16
ENDBRANCH  14  15
ENDBRANCH  13  14
ENDBRANCH   1  13
TORSDOF 10
ENDMDL