MODEL 5
REMARK VINA RESULT: -6.668363009      2.064      2.537
REMARK  11 active torsions:
REMARK  status: ('A' for Active; 'I' for Inactive)
REMARK    1  A    between atoms: C2_2  and  C3_3
REMARK    2  A    between atoms: C3_3  and  C4_4
REMARK    3  A    between atoms: C4_4  and  O1_5
REMARK    4  A    between atoms: C4_4  and  C12_18
REMARK    5  A    between atoms: O1_5  and  C5_6
REMARK    6  A    between atoms: C5_6  and  C6_7
REMARK    7  A    between atoms: C6_7  and  O2_8
REMARK    8  A    between atoms: C6_7  and  C7_10
REMARK    9  A    between atoms: C7_10  and  N1_11
REMARK   10  A    between atoms: N1_11  and  C8_14
REMARK   11  A    between atoms: C8_14  and  C9_15
ROOT
HETATM    1  C6  UNL     1     -14.078  -5.897  33.191  1.00  0.00     0.167 C
ENDROOT
BRANCH   1   2
HETATM    2  C5  UNL     1     -14.210  -4.405  33.418  1.00  0.00     0.201 C
BRANCH   2   3
HETATM    3  O1  UNL     1     -13.951  -4.171  34.744  1.00  0.00    -0.383 OA
BRANCH   3   4
HETATM    4  C4  UNL     1     -13.801  -2.812  35.067  1.00  0.00     0.129 C
BRANCH   4   5
HETATM    5  C3  UNL     1     -14.437  -2.045  33.970  1.00  0.00     0.058 C
BRANCH   5   6
HETATM    6  C2  UNL     1     -14.126  -0.607  33.902  1.00  0.00    -0.034 C
HETATM    7  C1  UNL     1     -13.548  -0.115  32.820  1.00  0.00     0.007 C
ENDBRANCH   5   6
ENDBRANCH   4   5
BRANCH   4   8
HETATM    8  C12 UNL     1     -14.140  -2.524  36.465  1.00  0.00     0.015 C
HETATM    9  C13 UNL     1     -15.499  -2.194  36.919  1.00  0.00     0.007 C
HETATM   10  C14 UNL     1     -15.351  -3.194  38.073  1.00  0.00     0.001 C
HETATM   11  C15 UNL     1     -14.081  -3.698  37.429  1.00  0.00     0.007 C
ENDBRANCH   4   8
ENDBRANCH   3   4
ENDBRANCH   2   3
ENDBRANCH   1   2
BRANCH   1  12
HETATM   12  O2  UNL     1     -14.751  -6.644  34.131  1.00  0.00    -0.392 OA
ATOM     13  H2  UNL     1     -15.687  -6.476  34.137  1.00  0.00     0.210 HD
ENDBRANCH   1  12
BRANCH   1  14
HETATM   14  C7  UNL     1     -12.597  -6.214  33.143  1.00  0.00     0.265 C
BRANCH  14  15
HETATM   15  N1  UNL     1     -11.831  -5.041  32.772  1.00  0.00    -0.072 N
ATOM     16  H12 UNL     1     -12.406  -4.333  32.317  1.00  0.00     0.277 HD
ATOM     17  H11 UNL     1     -11.544  -4.495  33.584  1.00  0.00     0.277 HD
BRANCH  15  18
HETATM   18  C8  UNL     1     -10.715  -5.436  31.963  1.00  0.00     0.236 C
BRANCH  18  19
HETATM   19  C9  UNL     1     -10.387  -4.281  31.019  1.00  0.00     0.003 C
HETATM   20  C10 UNL     1     -11.459  -3.217  31.125  1.00  0.00     0.011 C
HETATM   21  C11 UNL     1     -10.327  -4.822  29.627  1.00  0.00     0.011 C
ENDBRANCH  18  19
ENDBRANCH  15  18
ENDBRANCH  14  15
ENDBRANCH   1  14
TORSDOF 11
ENDMDL