MODEL 4
REMARK VINA RESULT: -6.953272103      1.710      7.521
REMARK  9 active torsions:
REMARK  status: ('A' for Active; 'I' for Inactive)
REMARK    1  A    between atoms: C2_2  and  C3_3
REMARK    2  A    between atoms: C2_2  and  N3_17
REMARK    3  A    between atoms: C3_3  and  C4_4
REMARK    4  A    between atoms: C4_4  and  C5_5
REMARK    5  A    between atoms: C5_5  and  N1_6
REMARK    6  A    between atoms: N1_6  and  C6_9
REMARK    7  A    between atoms: C6_9  and  C7_10
REMARK    8  A    between atoms: N3_17  and  C12_20
REMARK    9  A    between atoms: C12_20  and  C13_21
ROOT
HETATM    1  C5  UNL     1     -10.965  -4.998  32.489  1.00  0.00     0.232 C
ENDROOT
BRANCH   1   2
HETATM    2  C4  UNL     1     -11.031  -6.009  33.568  1.00  0.00     0.029 C
BRANCH   2   3
HETATM    3  C3  UNL     1     -10.865  -7.457  33.268  1.00  0.00     0.034 C
BRANCH   3   4
HETATM    4  C2  UNL     1     -11.581  -7.678  31.957  1.00  0.00     0.182 C
HETATM    5  C1  UNL     1     -12.869  -8.482  32.198  1.00  0.00     0.040 C
BRANCH   4   6
HETATM    6  N3  UNL     1     -10.820  -8.295  30.947  1.00  0.00    -0.071 N
ATOM      7  H32 UNL     1     -10.377  -7.620  30.323  1.00  0.00     0.277 HD
ATOM      8  H31 UNL     1      -9.971  -8.729  31.308  1.00  0.00     0.277 HD
BRANCH   6   9
HETATM    9  C12 UNL     1     -11.691  -9.261  30.219  1.00  0.00     0.237 C
BRANCH   9  10
HETATM   10  C13 UNL     1     -12.000  -8.675  28.874  1.00  0.00     0.011 A
HETATM   11  C14 UNL     1     -10.902  -8.275  27.956  1.00  0.00     0.007 A
HETATM   12  C15 UNL     1     -11.644  -9.546  27.694  1.00  0.00     0.007 A
ENDBRANCH   9  10
ENDBRANCH   6   9
ENDBRANCH   4   6
ENDBRANCH   3   4
ENDBRANCH   2   3
ENDBRANCH   1   2
BRANCH   1  13
HETATM   13  N1  UNL     1     -12.049  -4.053  32.565  1.00  0.00    -0.070 N
ATOM     14  H12 UNL     1     -11.694  -3.106  32.704  1.00  0.00     0.277 HD
ATOM     15  H11 UNL     1     -12.491  -3.936  31.653  1.00  0.00     0.277 HD
BRANCH  13  16
HETATM   16  C6  UNL     1     -13.040  -4.386  33.580  1.00  0.00     0.289 C
BRANCH  16  17
HETATM   17  C7  UNL     1     -13.396  -3.084  34.244  1.00  0.00     0.034 A
HETATM   18  C8  UNL     1     -13.769  -3.116  35.583  1.00  0.00     0.027 A
HETATM   19  C9  UNL     1     -14.273  -1.967  36.118  1.00  0.00     0.003 A
HETATM   20  C10 UNL     1     -14.401  -0.818  35.356  1.00  0.00     0.017 A
HETATM   21  C11 UNL     1     -14.002  -0.832  34.021  1.00  0.00     0.088 A
HETATM   22  N2  UNL     1     -13.504  -1.985  33.501  1.00  0.00    -0.368 N
ATOM     23  H2  UNL     1     -13.209  -2.009  32.526  1.00  0.00     0.165 HD
ENDBRANCH  16  17
ENDBRANCH  13  16
ENDBRANCH   1  13
TORSDOF 9
ENDMDL