MODEL 3
REMARK VINA RESULT: -6.661262858      1.467      2.324
REMARK  10 active torsions:
REMARK  status: ('A' for Active; 'I' for Inactive)
REMARK    1  A    between atoms: C2_2  and  C3_3
REMARK    2  A    between atoms: C3_3  and  C5_5
REMARK    3  A    between atoms: C5_5  and  O1_6
REMARK    4  A    between atoms: O1_6  and  C6_7
REMARK    5  A    between atoms: C6_7  and  C7_8
REMARK    6  A    between atoms: C6_7  and  C8_13
REMARK    7  A    between atoms: C7_8  and  N1_9
REMARK    8  A    between atoms: C8_13  and  C9_14
REMARK    9  A    between atoms: C9_14  and  O2_15
REMARK   10  A    between atoms: O2_15  and  C10_16
ROOT
HETATM    1  C6  UNL     1     -13.659  -4.383  34.024  1.00  0.00     0.148 C
ENDROOT
BRANCH   1   2
HETATM    2  O1  UNL     1     -14.129  -4.107  35.290  1.00  0.00    -0.384 OA
BRANCH   2   3
HETATM    3  C5  UNL     1     -13.442  -3.126  35.960  1.00  0.00     0.172 C
BRANCH   3   4
HETATM    4  C3  UNL     1     -14.408  -2.549  37.004  1.00  0.00     0.005 C
HETATM    5  C4  UNL     1     -15.025  -3.608  37.850  1.00  0.00     0.012 C
BRANCH   4   6
HETATM    6  C2  UNL     1     -15.439  -1.746  36.214  1.00  0.00     0.002 C
HETATM    7  C1  UNL     1     -14.834  -0.533  35.580  1.00  0.00     0.005 C
ENDBRANCH   4   6
ENDBRANCH   3   4
ENDBRANCH   2   3
ENDBRANCH   1   2
BRANCH   1   8
HETATM    8  C7  UNL     1     -14.143  -3.230  33.131  1.00  0.00     0.261 C
BRANCH   8   9
HETATM    9  N1  UNL     1     -12.999  -2.846  32.334  1.00  0.00    -0.077 N
ATOM     10  H13 UNL     1     -12.110  -2.931  32.826  1.00  0.00     0.274 HD
ATOM     11  H12 UNL     1     -12.785  -3.503  31.583  1.00  0.00     0.274 HD
ATOM     12  H11 UNL     1     -13.196  -1.900  32.006  1.00  0.00     0.274 HD
ENDBRANCH   8   9
ENDBRANCH   1   8
BRANCH   1  13
HETATM   13  C8  UNL     1     -12.142  -4.249  34.061  1.00  0.00     0.060 C
BRANCH  13  14
HETATM   14  C9  UNL     1     -11.483  -5.613  33.962  1.00  0.00     0.180 C
BRANCH  14  15
HETATM   15  O2  UNL     1     -10.343  -5.466  33.138  1.00  0.00    -0.336 OA
BRANCH  15  16
HETATM   16  C10 UNL     1     -10.424  -5.391  31.757  1.00  0.00     0.141 A
HETATM   17  C11 UNL     1     -10.050  -4.351  30.934  1.00  0.00     0.057 A
HETATM   18  C12 UNL     1     -10.304  -4.695  29.607  1.00  0.00     0.021 A
HETATM   19  C13 UNL     1     -10.840  -5.976  29.676  1.00  0.00     0.090 A
HETATM   20  N2  UNL     1     -10.900  -6.367  30.967  1.00  0.00    -0.347 N
ATOM     21  H2  UNL     1     -11.252  -7.267  31.292  1.00  0.00     0.167 HD
ENDBRANCH  15  16
ENDBRANCH  14  15
ENDBRANCH  13  14
ENDBRANCH   1  13
TORSDOF 10
ENDMDL