MODEL 1
REMARK VINA RESULT: -7.580058413      0.000      0.000
REMARK  16 active torsions:
REMARK  status: ('A' for Active; 'I' for Inactive)
REMARK    1  A    between atoms: C2_2  and  O2_4
REMARK    2  A    between atoms: O2_4  and  C3_5
REMARK    3  A    between atoms: C3_5  and  C4_6
REMARK    4  A    between atoms: C3_5  and  C14_23
REMARK    5  A    between atoms: C4_6  and  C5_7
REMARK    6  A    between atoms: C5_7  and  C6_9
REMARK    7  A    between atoms: C7_10  and  C8_11
REMARK    8  A    between atoms: C10_13  and  O4_14
REMARK    9  A    between atoms: C11_16  and  O5_17
REMARK   10  A    between atoms: C12_19  and  O6_20
REMARK   11  A    between atoms: C16_26  and  O8_27
REMARK   12  A    between atoms: C16_26  and  C17_29
REMARK   13  A    between atoms: C17_29  and  O9_30
REMARK   14  A    between atoms: C18_32  and  O10_33
REMARK   15  A    between atoms: C18_32  and  C19_35
REMARK   16  A    between atoms: C22_40  and  O13_42
ROOT
HETATM    1  C3  UNL     1       2.607   6.449  52.408  1.00  0.00     0.153 C
ENDROOT
BRANCH   1   2
HETATM    2  O2  UNL     1       2.261   7.353  53.440  1.00  0.00    -0.315 OA
BRANCH   2   3
HETATM    3  C2  UNL     1       3.102   8.243  54.043  1.00  0.00     0.255 C
HETATM    4  C1  UNL     1       3.057   8.362  55.521  1.00  0.00     0.126 C
HETATM    5  O1  UNL     1       3.881   8.926  53.335  1.00  0.00    -0.266 OA
ENDBRANCH   2   3
ENDBRANCH   1   2
BRANCH   1   6
HETATM    6  C4  UNL     1       1.389   5.901  51.779  1.00  0.00     0.116 C
BRANCH   6   7
HETATM    7  C5  UNL     1       1.408   5.805  50.307  1.00  0.00     0.151 C
HETATM    8  O3  UNL     1       0.986   4.799  49.716  1.00  0.00    -0.293 OA
BRANCH   7   9
HETATM    9  C6  UNL     1       1.933   6.907  49.512  1.00  0.00     0.051 C
HETATM   10  C7  UNL     1       1.889   6.899  48.196  1.00  0.00     0.015 C
BRANCH  10  11
HETATM   11  C8  UNL     1       2.389   7.953  47.337  1.00  0.00    -0.031 A
HETATM   12  C9  UNL     1       1.844   8.169  46.076  1.00  0.00     0.051 A
HETATM   13  C10 UNL     1       2.288   9.160  45.227  1.00  0.00     0.102 A
HETATM   14  C11 UNL     1       3.317   9.993  45.610  1.00  0.00     0.132 A
HETATM   15  C12 UNL     1       3.871   9.800  46.852  1.00  0.00     0.102 A
HETATM   16  C13 UNL     1       3.411   8.794  47.698  1.00  0.00     0.051 A
BRANCH  13  17
HETATM   17  O4  UNL     1       1.719   9.343  43.980  1.00  0.00    -0.358 OA
ATOM     18  H4  UNL     1       1.635   8.622  43.368  1.00  0.00     0.217 HD
ENDBRANCH  13  17
BRANCH  14  19
HETATM   19  O5  UNL     1       3.750  10.986  44.741  1.00  0.00    -0.356 OA
ATOM     20  H5  UNL     1       3.631  11.898  44.978  1.00  0.00     0.218 HD
ENDBRANCH  14  19
BRANCH  15  21
HETATM   21  O6  UNL     1       4.910  10.645  47.231  1.00  0.00    -0.358 OA
ATOM     22  H6  UNL     1       5.668  10.692  46.661  1.00  0.00     0.217 HD
ENDBRANCH  15  21
ENDBRANCH  10  11
ENDBRANCH   7   9
ENDBRANCH   6   7
ENDBRANCH   1   6
BRANCH   1  23
HETATM   23  C14 UNL     1       3.497   5.411  53.080  1.00  0.00     0.130 C
HETATM   24  C15 UNL     1       4.304   4.623  52.128  1.00  0.00     0.177 C
HETATM   25  O7  UNL     1       4.477   4.887  50.950  1.00  0.00    -0.294 OA
HETATM   26  C16 UNL     1       4.973   3.398  52.624  1.00  0.00     0.185 C
HETATM   27  C18 UNL     1       3.936   2.449  53.158  1.00  0.00     0.221 C
HETATM   28  C21 UNL     1       2.881   3.134  53.921  1.00  0.00     0.206 C
HETATM   29  O12 UNL     1       1.996   2.467  54.416  1.00  0.00    -0.291 OA
HETATM   30  C22 UNL     1       2.827   4.605  54.131  1.00  0.00     0.131 C
HETATM   31  C23 UNL     1       3.497   4.841  55.495  1.00  0.00     0.055 C
BRANCH  26  32
HETATM   32  O8  UNL     1       5.798   3.779  53.684  1.00  0.00    -0.376 OA
ATOM     33  H8  UNL     1       5.259   3.802  54.466  1.00  0.00     0.211 HD
ENDBRANCH  26  32
BRANCH  26  34
HETATM   34  C17 UNL     1       5.762   2.679  51.550  1.00  0.00     0.214 C
BRANCH  34  35
HETATM   35  O9  UNL     1       6.960   3.386  51.296  1.00  0.00    -0.397 OA
ATOM     36  H9  UNL     1       7.414   2.982  50.566  1.00  0.00     0.209 HD
ENDBRANCH  34  35
ENDBRANCH  26  34
BRANCH  27  37
HETATM   37  O10 UNL     1       4.522   1.463  53.958  1.00  0.00    -0.372 OA
ATOM     38  H10 UNL     1       4.397   0.600  53.582  1.00  0.00     0.211 HD
ENDBRANCH  27  37
BRANCH  27  39
HETATM   39  C19 UNL     1       3.290   1.751  52.018  1.00  0.00     0.168 C
HETATM   40  C20 UNL     1       3.526   0.320  51.711  1.00  0.00     0.095 C
HETATM   41  O11 UNL     1       2.536   2.392  51.309  1.00  0.00    -0.294 OA
ENDBRANCH  27  39
BRANCH  30  42
HETATM   42  O13 UNL     1       1.483   4.959  54.262  1.00  0.00    -0.381 OA
ATOM     43  H13 UNL     1       0.919   4.196  54.215  1.00  0.00     0.211 HD
ENDBRANCH  30  42
ENDBRANCH   1  23
TORSDOF 16
ENDMDL