MODEL 5
REMARK VINA RESULT: -6.903714724      4.384      7.929
REMARK  11 active torsions:
REMARK  status: ('A' for Active; 'I' for Inactive)
REMARK    1  A    between atoms: S1_2  and  C2_3
REMARK    2  A    between atoms: C2_3  and  C3_4
REMARK    3  A    between atoms: C3_4  and  C4_5
REMARK    4  A    between atoms: C4_5  and  N1_6
REMARK    5  A    between atoms: C4_5  and  C5_10
REMARK       I    between atoms: C5_10  and  N2_12
REMARK    6  A    between atoms: N2_12  and  C6_14
REMARK    7  A    between atoms: C9_18  and  C10_19
REMARK       I    between atoms: N4_27  and  C14_28
REMARK       I    between atoms: C14_28  and  N5_30
REMARK    8  A    between atoms: N5_30  and  N6_32
REMARK    9  A    between atoms: C15_35  and  O6_36
REMARK   10  A    between atoms: C18_41  and  C19_42
REMARK   11  A    between atoms: C20_45  and  O10_46
ROOT
HETATM    1  C6  UNL     1       2.395   6.419  50.175  1.00  0.00     0.072 A
HETATM    2  C7  UNL     1       1.215   6.314  50.849  1.00  0.00     0.070 A
HETATM    3  C8  UNL     1       1.129   5.412  51.903  1.00  0.00     0.094 A
HETATM    4  O2  UNL     1      -0.002   5.309  52.550  1.00  0.00    -0.304 OA
HETATM    5  C9  UNL     1      -0.244   4.511  53.561  1.00  0.00     0.141 A
HETATM    6  C15 UNL     1       0.761   3.693  54.012  1.00  0.00     0.153 A
HETATM    7  C16 UNL     1       1.999   3.755  53.359  1.00  0.00     0.222 A
HETATM    8  O7  UNL     1       2.880   3.002  53.793  1.00  0.00    -0.284 OA
HETATM    9  C17 UNL     1       2.201   4.607  52.303  1.00  0.00     0.071 A
HETATM   10  C18 UNL     1       3.384   4.712  51.629  1.00  0.00     0.093 A
HETATM   11  C20 UNL     1       3.488   5.624  50.553  1.00  0.00     0.110 A
ENDROOT
BRANCH   5  12
HETATM   12  C10 UNL     1      -1.556   4.490  54.200  1.00  0.00     0.091 A
HETATM   13  C11 UNL     1      -1.683   5.324  55.317  1.00  0.00     0.107 A
HETATM   14  C12 UNL     1      -2.867   5.287  56.010  1.00  0.00     0.251 A
HETATM   15  O3  UNL     1      -3.006   6.029  57.018  1.00  0.00    -0.268 OA
HETATM   16  N3  UNL     1      -3.838   4.469  55.598  1.00  0.00    -0.275 N
HETATM   17  C13 UNL     1      -3.722   3.684  54.545  1.00  0.00     0.338 A
ATOM     18  H3  UNL     1      -4.712   4.449  56.124  1.00  0.00     0.173 HD
HETATM   19  O4  UNL     1      -4.664   2.931  54.198  1.00  0.00    -0.246 OA
HETATM   20  N4  UNL     1      -2.543   3.688  53.805  1.00  0.00    -0.211 N
HETATM   21  C14 UNL     1      -2.669   3.002  52.590  1.00  0.00     0.349 C
HETATM   22  O5  UNL     1      -3.524   2.040  52.539  1.00  0.00    -0.244 OA
HETATM   23  N5  UNL     1      -1.991   3.243  51.413  1.00  0.00    -0.257 N
ATOM     24  H5  UNL     1      -1.313   4.003  51.373  1.00  0.00     0.191 HD
BRANCH  23  25
HETATM   25  N6  UNL     1      -2.222   2.444  50.248  1.00  0.00    -0.341 N
ATOM     26  H62 UNL     1      -2.778   1.594  50.344  1.00  0.00     0.177 HD
ATOM     27  H61 UNL     1      -1.842   2.712  49.339  1.00  0.00     0.177 HD
ENDBRANCH  23  25
ENDBRANCH   5  12
BRANCH   6  28
HETATM   28  O6  UNL     1       0.604   2.812  55.090  1.00  0.00    -0.355 OA
ATOM     29  H6  UNL     1       0.903   3.010  55.971  1.00  0.00     0.218 HD
ENDBRANCH   6  28
BRANCH   1  30
HETATM   30  N2  UNL     1       2.575   7.295  49.083  1.00  0.00    -0.323 N
HETATM   31  C5  UNL     1       2.029   7.281  47.806  1.00  0.00     0.253 C
HETATM   32  O1  UNL     1       1.223   6.389  47.447  1.00  0.00    -0.271 OA
ATOM     33  H2  UNL     1       3.214   8.070  49.262  1.00  0.00     0.169 HD
BRANCH  31  34
HETATM   34  C4  UNL     1       2.361   8.306  46.795  1.00  0.00     0.275 C
BRANCH  34  35
HETATM   35  C3  UNL     1       2.943   9.581  47.299  1.00  0.00     0.053 C
BRANCH  35  36
HETATM   36  C2  UNL     1       3.643  10.452  46.332  1.00  0.00     0.076 C
BRANCH  36  37
HETATM   37  S1  UNL     1       3.969   9.667  44.770  1.00  0.00    -0.173 SA
HETATM   38  C1  UNL     1       3.685  10.760  43.364  1.00  0.00     0.089 C
ENDBRANCH  36  37
ENDBRANCH  35  36
ENDBRANCH  34  35
BRANCH  34  39
HETATM   39  N1  UNL     1       1.026   8.705  46.248  1.00  0.00    -0.066 N
ATOM     40  H13 UNL     1       0.262   8.639  46.920  1.00  0.00     0.275 HD
ATOM     41  H12 UNL     1       0.929   9.703  46.066  1.00  0.00     0.275 HD
ATOM     42  H11 UNL     1       0.909   8.117  45.423  1.00  0.00     0.275 HD
ENDBRANCH  34  39
ENDBRANCH  31  34
ENDBRANCH   1  30
BRANCH  10  43
HETATM   43  C19 UNL     1       4.548   3.942  51.949  1.00  0.00     0.213 C
HETATM   44  O8  UNL     1       4.795   2.877  51.226  1.00  0.00    -0.644 OA
HETATM   45  O9  UNL     1       5.482   4.106  52.896  1.00  0.00    -0.644 OA
ENDBRANCH  10  43
BRANCH  11  46
HETATM   46  O10 UNL     1       4.625   5.722  49.909  1.00  0.00    -0.357 OA
ATOM     47  H10 UNL     1       5.319   6.273  50.251  1.00  0.00     0.217 HD
ENDBRANCH  11  46
TORSDOF 11
ENDMDL