MODEL 4
REMARK VINA RESULT: -8.127327392      3.970      8.033
REMARK  14 active torsions:
REMARK  status: ('A' for Active; 'I' for Inactive)
REMARK    1  A    between atoms: C2_2  and  C3_3
REMARK    2  A    between atoms: C2_2  and  C4_9
REMARK       I    between atoms: C3_3  and  N1_5
REMARK    3  A    between atoms: N1_5  and  O2_7
REMARK    4  A    between atoms: C7_12  and  C8_13
REMARK    5  A    between atoms: N2_15  and  C10_16
REMARK    6  A    between atoms: C10_16  and  C11_17
REMARK    7  A    between atoms: C12_20  and  C13_21
REMARK    8  A    between atoms: C13_21  and  N4_22
REMARK    9  A    between atoms: N4_22  and  N5_23
REMARK       I    between atoms: N5_23  and  C14_24
REMARK       I    between atoms: C14_24  and  N7_26
REMARK   10  A    between atoms: N7_26  and  S1_28
REMARK   11  A    between atoms: S1_28  and  N8_29
REMARK   12  A    between atoms: C15_34  and  C16_35
REMARK   13  A    between atoms: C16_35  and  O5_36
REMARK   14  A    between atoms: C18_44  and  O7_45
ROOT
HETATM    1  C8  UNL     1       7.201   1.117  48.888  1.00  0.00     0.076 A
HETATM    2  C9  UNL     1       6.482   1.981  49.643  1.00  0.00     0.144 A
HETATM    3  N2  UNL     1       5.572   1.252  50.377  1.00  0.00    -0.279 N
HETATM    4  N9  UNL     1       5.799  -0.011  50.029  1.00  0.00    -0.240 N
ATOM      5  H9  UNL     1       5.287  -0.809  50.406  1.00  0.00     0.208 HD
HETATM    6  N10 UNL     1       6.754  -0.107  49.151  1.00  0.00    -0.284 N
ATOM      7  H10 UNL     1       7.101  -0.972  48.737  1.00  0.00     0.188 HD
ENDROOT
BRANCH   3   8
HETATM    8  C10 UNL     1       4.575   1.816  51.229  1.00  0.00     0.234 C
BRANCH   8   9
HETATM    9  C11 UNL     1       4.036   3.106  50.794  1.00  0.00     0.144 A
HETATM   10  N3  UNL     1       3.050   3.253  49.888  1.00  0.00    -0.335 N
HETATM   11  C12 UNL     1       2.783   4.588  49.726  1.00  0.00     0.098 A
ATOM     12  H3  UNL     1       2.577   2.493  49.400  1.00  0.00     0.168 HD
HETATM   13  C15 UNL     1       3.644   5.231  50.563  1.00  0.00     0.107 A
HETATM   14  O6  UNL     1       4.363   4.321  51.168  1.00  0.00    -0.296 OA
BRANCH  11  15
HETATM   15  C13 UNL     1       1.697   5.105  48.892  1.00  0.00     0.257 C
BRANCH  15  16
HETATM   16  N4  UNL     1       1.584   6.105  48.204  1.00  0.00    -0.256 NA
BRANCH  16  17
HETATM   17  N5  UNL     1       1.835   7.157  47.591  1.00  0.00    -0.213 NA
HETATM   18  C14 UNL     1       2.091   8.173  47.013  1.00  0.00     0.315 C
HETATM   19  N6  UNL     1       1.321   8.664  45.933  1.00  0.00    -0.045 NA
HETATM   20  N7  UNL     1       3.245   8.967  47.394  1.00  0.00    -0.227 N
ATOM     21  H7  UNL     1       3.753   8.730  48.246  1.00  0.00     0.184 HD
BRANCH  20  22
HETATM   22  S1  UNL     1       3.774  10.295  46.445  1.00  0.00     0.320 S
HETATM   23  O3  UNL     1       5.122  10.772  46.984  1.00  0.00    -0.183 OA
HETATM   24  O4  UNL     1       2.779  11.435  46.502  1.00  0.00    -0.183 OA
BRANCH  22  25
HETATM   25  N8  UNL     1       3.978   9.778  44.816  1.00  0.00    -0.311 N
ATOM     26  H82 UNL     1       3.222   9.461  44.209  1.00  0.00     0.170 HD
ATOM     27  H81 UNL     1       4.965   9.842  44.566  1.00  0.00     0.170 HD
ENDBRANCH  22  25
ENDBRANCH  20  22
ENDBRANCH  16  17
ENDBRANCH  15  16
ENDBRANCH  11  15
BRANCH  13  28
HETATM   28  C16 UNL     1       3.797   6.700  50.799  1.00  0.00     0.231 C
BRANCH  28  29
HETATM   29  O5  UNL     1       4.344   7.274  49.657  1.00  0.00    -0.394 OA
ATOM     30  H5  UNL     1       5.278   7.104  49.654  1.00  0.00     0.209 HD
ENDBRANCH  28  29
ENDBRANCH  13  28
ENDBRANCH   8   9
ENDBRANCH   3   8
BRANCH   1  31
HETATM   31  C7  UNL     1       8.151   1.524  47.888  1.00  0.00    -0.004 A
HETATM   32  C6  UNL     1       8.035   2.775  47.345  1.00  0.00     0.014 A
HETATM   33  C5  UNL     1       8.963   3.237  46.406  1.00  0.00     0.012 A
HETATM   34  C4  UNL     1      10.020   2.475  45.986  1.00  0.00    -0.012 A
HETATM   35  C18 UNL     1      10.121   1.192  46.547  1.00  0.00     0.073 A
HETATM   36  C17 UNL     1       9.206   0.758  47.464  1.00  0.00     0.051 A
BRANCH  34  37
HETATM   37  C2  UNL     1      10.930   2.925  44.960  1.00  0.00     0.111 C
HETATM   38  C1  UNL     1      10.909   4.434  44.743  1.00  0.00     0.025 C
BRANCH  37  39
HETATM   39  C3  UNL     1      10.285   2.482  43.611  1.00  0.00     0.249 C
HETATM   40  O1  UNL     1      10.392   1.327  43.224  1.00  0.00    -0.271 OA
HETATM   41  N1  UNL     1       9.602   3.502  42.916  1.00  0.00    -0.237 N
ATOM     42  H1  UNL     1       9.572   4.435  43.329  1.00  0.00     0.197 HD
BRANCH  41  43
HETATM   43  O2  UNL     1       8.978   3.302  41.715  1.00  0.00    -0.287 OA
ATOM     44  H2  UNL     1       9.439   3.042  40.926  1.00  0.00     0.244 HD
ENDBRANCH  41  43
ENDBRANCH  37  39
ENDBRANCH  34  37
BRANCH  35  45
HETATM   45  O7  UNL     1      11.176   0.435  46.116  1.00  0.00    -0.360 OA
ATOM     46  H7  UNL     1      11.993   0.557  46.586  1.00  0.00     0.217 HD
ENDBRANCH  35  45
ENDBRANCH   1  31
TORSDOF 14
ENDMDL