MODEL 4
REMARK VINA RESULT: -6.873274846      3.472      7.711
REMARK  16 active torsions:
REMARK  status: ('A' for Active; 'I' for Inactive)
REMARK    1  A    between atoms: N1_2  and  C2_3
REMARK    2  A    between atoms: N1_2  and  C15_26
REMARK    3  A    between atoms: C2_3  and  C3_4
REMARK    4  A    between atoms: N2_11  and  C10_13
REMARK    5  A    between atoms: C10_13  and  O1_14
REMARK    6  A    between atoms: C10_13  and  O2_16
REMARK    7  A    between atoms: C11_18  and  C12_19
REMARK    8  A    between atoms: C13_20  and  N3_21
REMARK    9  A    between atoms: N7_34  and  C19_35
REMARK   10  A    between atoms: C19_35  and  O3_36
REMARK   11  A    between atoms: O3_36  and  C20_37
REMARK   12  A    between atoms: C20_37  and  C21_38
REMARK   13  A    between atoms: C20_37  and  C22_41
REMARK   14  A    between atoms: C21_38  and  O4_39
REMARK   15  A    between atoms: C22_41  and  O5_42
REMARK   16  A    between atoms: C24_46  and  N9_47
ROOT
HETATM    1  C1  UNL     1       2.113   1.443  54.007  1.00  0.00     0.151 C
HETATM    2  N1  UNL     1       3.073   2.345  53.420  1.00  0.00    -0.364 N
ENDROOT
BRANCH   2   3
HETATM    3  C2  UNL     1       4.480   2.267  53.725  1.00  0.00     0.162 C
BRANCH   3   4
HETATM    4  C3  UNL     1       5.304   1.861  52.570  1.00  0.00    -0.039 A
HETATM    5  C4  UNL     1       6.179   0.798  52.584  1.00  0.00     0.010 A
HETATM    6  C5  UNL     1       6.936   0.443  51.488  1.00  0.00     0.015 A
HETATM    7  C6  UNL     1       6.826   1.169  50.327  1.00  0.00     0.002 A
HETATM    8  C7  UNL     1       5.948   2.255  50.276  1.00  0.00     0.005 A
HETATM    9  C14 UNL     1       7.486   1.028  49.044  1.00  0.00     0.078 A
HETATM   10  C8  UNL     1       5.202   2.592  51.383  1.00  0.00     0.023 A
HETATM   11  C9  UNL     1       6.082   2.784  48.927  1.00  0.00     0.064 A
HETATM   12  N2  UNL     1       5.503   3.758  48.390  1.00  0.00    -0.340 N
HETATM   13  C11 UNL     1       7.087   1.943  48.197  1.00  0.00     0.071 A
ATOM     14  H2  UNL     1       5.785   3.912  47.423  1.00  0.00     0.164 HD
HETATM   15  N4  UNL     1       8.466   0.033  48.675  1.00  0.00    -0.100 NA
BRANCH  12  16
HETATM   16  C10 UNL     1       4.545   4.684  48.843  1.00  0.00     0.365 C
BRANCH  16  17
HETATM   17  O1  UNL     1       3.586   4.968  47.815  1.00  0.00    -0.355 OA
ATOM     18  H1  UNL     1       2.715   5.059  48.182  1.00  0.00     0.214 HD
ENDBRANCH  16  17
BRANCH  16  19
HETATM   19  O2  UNL     1       5.126   5.932  49.173  1.00  0.00    -0.355 OA
ATOM     20  H2  UNL     1       6.057   5.857  49.347  1.00  0.00     0.214 HD
ENDBRANCH  16  19
ENDBRANCH  12  16
BRANCH  13  21
HETATM   21  C12 UNL     1       7.484   2.160  46.834  1.00  0.00    -0.040 C
HETATM   22  C13 UNL     1       7.815   2.345  45.671  1.00  0.00     0.009 C
BRANCH  22  23
HETATM   23  N3  UNL     1       8.214   2.562  44.347  1.00  0.00    -0.359 N
ATOM     24  H32 UNL     1       8.298   2.977  45.275  1.00  0.00     0.166 HD
ATOM     25  H31 UNL     1       8.497   2.707  43.377  1.00  0.00     0.166 HD
ENDBRANCH  22  23
ENDBRANCH  13  21
ENDBRANCH   3   4
ENDBRANCH   2   3
BRANCH   2  26
HETATM   26  C15 UNL     1       2.615   3.332  52.521  1.00  0.00     0.149 A
HETATM   27  N5  UNL     1       2.799   4.615  52.784  1.00  0.00    -0.322 N
HETATM   28  C16 UNL     1       2.339   5.528  51.884  1.00  0.00     0.157 A
ATOM     29  H5  UNL     1       3.274   4.913  53.637  1.00  0.00     0.169 HD
HETATM   30  C17 UNL     1       1.698   5.170  50.732  1.00  0.00     0.155 A
HETATM   31  N7  UNL     1       2.389   6.883  51.896  1.00  0.00    -0.304 N
HETATM   32  N6  UNL     1       1.353   6.276  50.033  1.00  0.00    -0.335 N
HETATM   33  N8  UNL     1       1.516   3.843  50.480  1.00  0.00    -0.318 N
HETATM   34  C18 UNL     1       1.792   7.315  50.776  1.00  0.00     0.188 A
ATOM     35  H6  UNL     1       0.866   6.317  49.138  1.00  0.00     0.168 HD
HETATM   36  C23 UNL     1       0.840   3.460  49.262  1.00  0.00     0.159 C
HETATM   37  C24 UNL     1       1.975   2.942  51.374  1.00  0.00     0.147 A
BRANCH  37  38
HETATM   38  N9  UNL     1       1.816   1.683  51.157  1.00  0.00    -0.382 N
ATOM     39  H92 UNL     1       2.195   1.262  50.309  1.00  0.00     0.157 HD
ATOM     40  H91 UNL     1       1.309   1.130  51.848  1.00  0.00     0.157 HD
ENDBRANCH  37  38
BRANCH  31  41
HETATM   41  C19 UNL     1       3.021   7.611  52.955  1.00  0.00     0.301 C
BRANCH  41  42
HETATM   42  O3  UNL     1       2.556   7.237  54.188  1.00  0.00    -0.362 OA
BRANCH  42  43
HETATM   43  C20 UNL     1       2.723   8.160  55.164  1.00  0.00     0.170 C
BRANCH  43  44
HETATM   44  C21 UNL     1       3.396   7.545  56.390  1.00  0.00     0.198 C
BRANCH  44  45
HETATM   45  O4  UNL     1       3.015   8.171  57.553  1.00  0.00    -0.398 OA
ATOM     46  H4  UNL     1       2.084   8.362  57.564  1.00  0.00     0.209 HD
ENDBRANCH  44  45
ENDBRANCH  43  44
BRANCH  43  47
HETATM   47  C22 UNL     1       3.584   9.337  54.730  1.00  0.00     0.198 C
BRANCH  47  48
HETATM   48  O5  UNL     1       3.846  10.105  55.847  1.00  0.00    -0.398 OA
ATOM     49  H5  UNL     1       4.771  10.322  55.842  1.00  0.00     0.209 HD
ENDBRANCH  47  48
ENDBRANCH  43  47
ENDBRANCH  42  43
ENDBRANCH  41  42
ENDBRANCH  31  41
ENDBRANCH   2  26
TORSDOF 16
ENDMDL