MODEL 2
REMARK VINA RESULT: -8.298237271      1.168      2.079
REMARK  17 active torsions:
REMARK  status: ('A' for Active; 'I' for Inactive)
REMARK    1  A    between atoms: C4_4  and  O1_5
REMARK    2  A    between atoms: C6_8  and  O2_9
REMARK    3  A    between atoms: C7_11  and  C8_12
REMARK    4  A    between atoms: C8_12  and  N1_13
REMARK    5  A    between atoms: C8_12  and  C10_19
REMARK    6  A    between atoms: N1_13  and  N2_14
REMARK    7  A    between atoms: C11_21  and  C12_22
REMARK    8  A    between atoms: C12_22  and  O4_23
REMARK    9  A    between atoms: C12_22  and  O5_25
REMARK   10  A    between atoms: C14_28  and  C15_29
REMARK   11  A    between atoms: C15_29  and  O6_30
REMARK   12  A    between atoms: O6_30  and  C16_31
REMARK   13  A    between atoms: C17_32  and  O7_33
REMARK   14  A    between atoms: C19_36  and  O8_37
REMARK   15  A    between atoms: C19_36  and  C20_39
REMARK   16  A    between atoms: C20_39  and  C21_41
REMARK   17  A    between atoms: C21_41  and  O10_42
ROOT
HETATM    1  C10 UNL     1       4.511   4.030  52.237  1.00  0.00     0.128 A
HETATM    2  O3  UNL     1       5.675   3.670  52.615  1.00  0.00    -0.306 OA
HETATM    3  C11 UNL     1       6.450   3.294  51.653  1.00  0.00     0.108 A
HETATM    4  C13 UNL     1       5.746   3.407  50.495  1.00  0.00     0.050 A
HETATM    5  C14 UNL     1       4.471   3.889  50.856  1.00  0.00     0.006 A
ENDROOT
BRANCH   5   6
HETATM    6  C15 UNL     1       3.474   4.141  49.836  1.00  0.00     0.217 C
BRANCH   6   7
HETATM    7  O6  UNL     1       2.841   5.416  50.064  1.00  0.00    -0.340 OA
BRANCH   7   8
HETATM    8  C16 UNL     1       2.871   6.384  49.057  1.00  0.00     0.152 C
HETATM    9  C17 UNL     1       3.855   7.257  48.964  1.00  0.00     0.084 C
HETATM   10  C18 UNL     1       3.997   8.317  47.952  1.00  0.00     0.122 C
HETATM   11  C19 UNL     1       2.737   8.632  47.222  1.00  0.00     0.194 C
HETATM   12  C22 UNL     1       1.846   7.448  47.051  1.00  0.00     0.244 C
HETATM   13  O11 UNL     1       1.164   7.359  46.005  1.00  0.00    -0.285 OA
HETATM   14  C23 UNL     1       1.777   6.410  48.098  1.00  0.00     0.256 C
HETATM   15  O12 UNL     1       0.810   5.602  48.133  1.00  0.00    -0.281 OA
BRANCH   9  16
HETATM   16  O7  UNL     1       4.845   7.106  49.972  1.00  0.00    -0.362 OA
ATOM     17  H7  UNL     1       5.211   7.930  50.271  1.00  0.00     0.217 HD
ENDBRANCH   9  16
BRANCH  11  18
HETATM   18  O8  UNL     1       2.075   9.612  48.001  1.00  0.00    -0.374 OA
ATOM     19  H8  UNL     1       1.148   9.499  47.827  1.00  0.00     0.211 HD
ENDBRANCH  11  18
BRANCH  11  20
HETATM   20  C20 UNL     1       2.989   9.224  45.888  1.00  0.00     0.192 C
HETATM   21  O9  UNL     1       2.612   8.612  44.900  1.00  0.00    -0.292 OA
BRANCH  20  22
HETATM   22  C21 UNL     1       3.682  10.530  45.705  1.00  0.00     0.246 C
BRANCH  22  23
HETATM   23  O10 UNL     1       2.965  11.574  46.251  1.00  0.00    -0.393 OA
ATOM     24  H10 UNL     1       3.471  12.050  46.898  1.00  0.00     0.209 HD
ENDBRANCH  22  23
ENDBRANCH  20  22
ENDBRANCH  11  20
ENDBRANCH   7   8
ENDBRANCH   6   7
ENDBRANCH   5   6
BRANCH   1  25
HETATM   25  C8  UNL     1       3.358   4.529  53.026  1.00  0.00     0.179 C
BRANCH  25  26
HETATM   26  C7  UNL     1       3.569   5.552  54.084  1.00  0.00     0.049 A
HETATM   27  C2  UNL     1       3.111   6.836  53.976  1.00  0.00    -0.043 A
HETATM   28  C1  UNL     1       2.816   7.450  52.636  1.00  0.00     0.049 C
HETATM   29  C3  UNL     1       3.015   7.735  55.050  1.00  0.00     0.044 A
HETATM   30  C4  UNL     1       3.395   7.353  56.293  1.00  0.00     0.068 A
HETATM   31  C5  UNL     1       3.863   6.088  56.453  1.00  0.00     0.074 A
HETATM   32  C6  UNL     1       3.952   5.194  55.376  1.00  0.00     0.082 A
BRANCH  30  33
HETATM   33  O1  UNL     1       3.302   8.244  57.364  1.00  0.00    -0.361 OA
ATOM     34  H1  UNL     1       3.411   9.177  57.222  1.00  0.00     0.217 HD
ENDBRANCH  30  33
BRANCH  32  35
HETATM   35  O2  UNL     1       4.421   3.984  55.713  1.00  0.00    -0.360 OA
ATOM     36  H2  UNL     1       3.997   3.266  55.258  1.00  0.00     0.217 HD
ENDBRANCH  32  35
ENDBRANCH  25  26
BRANCH  25  37
HETATM   37  N1  UNL     1       2.206   4.244  52.761  1.00  0.00    -0.320 NA
BRANCH  37  38
HETATM   38  N2  UNL     1       1.032   4.031  52.295  1.00  0.00    -0.208 N
HETATM   39  C9  UNL     1      -0.082   4.539  52.777  1.00  0.00     0.226 C
HETATM   40  N3  UNL     1      -1.335   4.250  52.202  1.00  0.00    -0.065 NA
HETATM   41  N4  UNL     1       0.039   5.383  53.896  1.00  0.00    -0.065 NA
ATOM     42  H2  UNL     1       0.953   3.416  51.484  1.00  0.00     0.204 HD
ENDBRANCH  37  38
ENDBRANCH  25  37
ENDBRANCH   1  25
BRANCH   3  43
HETATM   43  C12 UNL     1       7.868   2.827  51.849  1.00  0.00     0.312 C
BRANCH  43  44
HETATM   44  O4  UNL     1       8.624   3.910  52.239  1.00  0.00    -0.365 OA
ATOM     45  H4  UNL     1       9.349   3.590  52.764  1.00  0.00     0.213 HD
ENDBRANCH  43  44
BRANCH  43  46
HETATM   46  O5  UNL     1       8.336   2.413  50.595  1.00  0.00    -0.365 OA
ATOM     47  H5  UNL     1       8.612   1.508  50.689  1.00  0.00     0.213 HD
ENDBRANCH  43  46
ENDBRANCH   3  43
TORSDOF 17
ENDMDL