MODEL 3
REMARK VINA RESULT: -7.931177515      4.017      5.984
REMARK  13 active torsions:
REMARK  status: ('A' for Active; 'I' for Inactive)
REMARK    1  A    between atoms: N1_1  and  N2_4
REMARK    2  A    between atoms: N2_4  and  C1_6
REMARK    3  A    between atoms: C1_6  and  O1_7
REMARK    4  A    between atoms: C1_6  and  C2_9
REMARK    5  A    between atoms: C3_12  and  N4_13
REMARK    6  A    between atoms: C5_20  and  C6_21
REMARK    7  A    between atoms: N9_26  and  N10_28
REMARK    8  A    between atoms: C10_30  and  C11_31
REMARK       I    between atoms: C11_31  and  N11_33
REMARK    9  A    between atoms: N11_33  and  C12_35
REMARK   10  A    between atoms: C12_35  and  C13_36
REMARK   11  A    between atoms: C13_36  and  C14_37
REMARK   12  A    between atoms: C14_37  and  O3_38
REMARK   13  A    between atoms: C18_50  and  O4_51
ROOT
HETATM    1  C6  UNL     1       4.590   3.177  52.664  1.00  0.00     0.107 A
HETATM    2  N8  UNL     1       4.180   4.070  51.767  1.00  0.00    -0.343 N
ATOM      3  H8  UNL     1       4.210   3.845  50.772  1.00  0.00     0.167 HD
HETATM    4  C7  UNL     1       3.742   5.222  52.157  1.00  0.00     0.113 A
HETATM    5  C8  UNL     1       3.274   6.270  51.330  1.00  0.00     0.152 A
HETATM    6  N9  UNL     1       3.252   6.134  50.041  1.00  0.00    -0.263 N
ATOM      7  H9  UNL     1       3.571   5.273  49.597  1.00  0.00     0.190 HD
HETATM    8  N13 UNL     1       2.862   7.389  51.924  1.00  0.00    -0.336 N
ATOM      9  H13 UNL     1       2.529   8.130  51.307  1.00  0.00     0.168 HD
HETATM   10  C16 UNL     1       2.834   7.651  53.220  1.00  0.00     0.183 A
HETATM   11  N14 UNL     1       3.281   6.656  54.033  1.00  0.00    -0.345 N
ATOM     12  H14 UNL     1       3.289   6.789  55.044  1.00  0.00     0.167 HD
HETATM   13  C17 UNL     1       3.716   5.486  53.499  1.00  0.00     0.108 A
HETATM   14  S1  UNL     1       4.345   4.005  54.106  1.00  0.00    -0.050 SA
ENDROOT
BRANCH   1  15
HETATM   15  C5  UNL     1       5.104   1.843  52.350  1.00  0.00     0.118 A
HETATM   16  N7  UNL     1       6.383   1.551  52.731  1.00  0.00    -0.186 N
HETATM   17  C3  UNL     1       6.917   0.339  52.473  1.00  0.00     0.685 A
ATOM     18  H7  UNL     1       6.939   2.256  53.216  1.00  0.00     0.184 HD
HETATM   19  N3  UNL     1       6.192  -0.582  51.841  1.00  0.00    -0.184 N
HETATM   20  C2  UNL     1       4.918  -0.361  51.435  1.00  0.00     0.136 A
ATOM     21  H3  UNL     1       6.614  -1.492  51.654  1.00  0.00     0.184 HD
HETATM   22  C18 UNL     1       4.373   0.884  51.702  1.00  0.00     0.127 A
BRANCH  17  23
HETATM   23  N4  UNL     1       8.239   0.023  52.861  1.00  0.00    -0.166 N
HETATM   24  C4  UNL     1       9.245   0.718  52.565  1.00  0.00     0.215 C
HETATM   25  N5  UNL     1       9.137   1.901  51.799  1.00  0.00    -0.066 NA
HETATM   26  N6  UNL     1      10.506   0.265  53.032  1.00  0.00    -0.066 NA
ATOM     27  H4  UNL     1       8.387  -0.820  53.416  1.00  0.00     0.186 HD
ENDBRANCH  17  23
BRANCH  20  28
HETATM   28  C1  UNL     1       4.217  -1.422  50.759  1.00  0.00     0.185 C
BRANCH  28  29
HETATM   29  N2  UNL     1       3.055  -2.053  51.195  1.00  0.00    -0.285 N
ATOM     30  H2  UNL     1       3.071  -2.768  51.923  1.00  0.00     0.188 HD
BRANCH  29  31
HETATM   31  N1  UNL     1       1.838  -1.640  50.564  1.00  0.00    -0.343 N
ATOM     32  H12 UNL     1       1.607  -1.944  49.618  1.00  0.00     0.176 HD
ATOM     33  H11 UNL     1       1.229  -1.034  51.114  1.00  0.00     0.176 HD
ENDBRANCH  29  31
ENDBRANCH  28  29
BRANCH  28  34
HETATM   34  O1  UNL     1       4.735  -1.821  49.625  1.00  0.00    -0.343 OA
ATOM     35  H1  UNL     1       5.551  -1.421  49.349  1.00  0.00     0.219 HD
ENDBRANCH  28  34
ENDBRANCH  20  28
BRANCH  22  36
HETATM   36  O4  UNL     1       3.095   1.087  51.288  1.00  0.00    -0.356 OA
ATOM     37  H4  UNL     1       2.900   1.940  50.920  1.00  0.00     0.218 HD
ENDBRANCH  22  36
ENDBRANCH   1  15
BRANCH   6  38
HETATM   38  N10 UNL     1       2.778   7.205  49.279  1.00  0.00    -0.206 N
HETATM   39  C9  UNL     1       3.459   7.814  48.264  1.00  0.00     0.155 A
HETATM   40  C10 UNL     1       2.682   8.827  47.746  1.00  0.00     0.068 A
HETATM   41  C15 UNL     1       1.512   8.812  48.475  1.00  0.00     0.127 A
HETATM   42  N12 UNL     1       1.610   7.821  49.387  1.00  0.00    -0.290 N
ATOM     43  H12 UNL     1       0.886   7.582  50.065  1.00  0.00     0.188 HD
BRANCH  40  44
HETATM   44  C11 UNL     1       3.028   9.735  46.643  1.00  0.00     0.254 C
HETATM   45  O2  UNL     1       2.996  10.980  46.780  1.00  0.00    -0.268 OA
HETATM   46  N11 UNL     1       3.410   9.202  45.385  1.00  0.00    -0.357 N
ATOM     47  H11 UNL     1       3.442   8.191  45.253  1.00  0.00     0.162 HD
BRANCH  46  48
HETATM   48  C12 UNL     1       3.750  10.069  44.303  1.00  0.00     0.125 C
BRANCH  48  49
HETATM   49  C13 UNL     1       4.817   9.438  43.458  1.00  0.00     0.046 C
BRANCH  49  50
HETATM   50  C14 UNL     1       4.217   8.961  42.177  1.00  0.00     0.165 C
BRANCH  50  51
HETATM   51  O3  UNL     1       2.968   9.585  42.039  1.00  0.00    -0.401 OA
ATOM     52  H3  UNL     1       2.721   9.529  41.123  1.00  0.00     0.209 HD
ENDBRANCH  50  51
ENDBRANCH  49  50
ENDBRANCH  48  49
ENDBRANCH  46  48
ENDBRANCH  40  44
ENDBRANCH   6  38
TORSDOF 13
ENDMDL