MODEL 4
REMARK VINA RESULT: -6.504574812      4.094      9.334
REMARK  12 active torsions:
REMARK  status: ('A' for Active; 'I' for Inactive)
REMARK    1  A    between atoms: S1_2  and  C2_3
REMARK    2  A    between atoms: C3_6  and  N2_7
REMARK    3  A    between atoms: C6_15  and  N5_16
REMARK    4  A    between atoms: N5_16  and  N6_18
REMARK    5  A    between atoms: C7_20  and  C8_21
REMARK    6  A    between atoms: C7_20  and  C10_24
REMARK    7  A    between atoms: C10_24  and  C11_25
REMARK    8  A    between atoms: C10_24  and  C14_37
REMARK       I    between atoms: C11_25  and  N7_27
REMARK    9  A    between atoms: N7_27  and  C12_29
REMARK   10  A    between atoms: C12_29  and  C13_30
REMARK       I    between atoms: C13_30  and  N8_32
REMARK   11  A    between atoms: N8_32  and  N9_34
REMARK   12  A    between atoms: C14_37  and  N10_40
ROOT
HETATM    1  N6  UNL     1       1.614   5.245  52.155  1.00  0.00    -0.299 N
ATOM      2  H6  UNL     1       1.650   4.749  51.264  1.00  0.00     0.186 HD
HETATM    3  C7  UNL     1       2.405   6.210  52.102  1.00  0.00     0.086 C
ENDROOT
BRANCH   1   4
HETATM    4  N5  UNL     1       0.767   4.645  52.924  1.00  0.00    -0.283 N
ATOM      5  H5  UNL     1      -0.148   5.081  52.803  1.00  0.00     0.188 HD
BRANCH   4   6
HETATM    6  C6  UNL     1       0.662   3.717  53.768  1.00  0.00     0.152 A
HETATM    7  C5  UNL     1       1.582   3.499  54.802  1.00  0.00     0.139 A
HETATM    8  N4  UNL     1       2.704   4.141  55.159  1.00  0.00    -0.184 N
HETATM    9  C18 UNL     1       1.450   2.472  55.709  1.00  0.00     0.163 A
HETATM   10  C4  UNL     1       3.271   3.552  56.252  1.00  0.00     0.686 A
ATOM     11  H4  UNL     1       3.082   4.958  54.680  1.00  0.00     0.184 HD
HETATM   12  N2  UNL     1       2.477   2.518  56.577  1.00  0.00    -0.113 N
HETATM   13  N3  UNL     1       4.360   3.927  56.847  1.00  0.00    -0.234 N
ATOM     14  H32 UNL     1       4.783   3.486  57.663  1.00  0.00     0.174 HD
ATOM     15  H31 UNL     1       4.963   4.712  56.600  1.00  0.00     0.174 HD
HETATM   16  N12 UNL     1       0.389   1.668  55.572  1.00  0.00    -0.336 N
HETATM   17  C17 UNL     1      -0.505   1.861  54.586  1.00  0.00     0.183 A
ATOM     18  H12 UNL     1       0.257   0.896  56.226  1.00  0.00     0.168 HD
HETATM   19  N11 UNL     1      -0.377   2.843  53.719  1.00  0.00    -0.336 N
ATOM     20  H11 UNL     1      -1.079   2.952  52.988  1.00  0.00     0.168 HD
BRANCH  12  21
HETATM   21  C3  UNL     1       2.660   1.602  57.655  1.00  0.00     0.155 A
HETATM   22  N1  UNL     1       2.345   1.779  58.960  1.00  0.00    -0.315 N
HETATM   23  C2  UNL     1       2.692   0.656  59.613  1.00  0.00     0.188 A
ATOM     24  H1  UNL     1       1.923   2.611  59.373  1.00  0.00     0.170 HD
HETATM   25  O4  UNL     1       3.200  -0.187  58.755  1.00  0.00    -0.296 OA
HETATM   26  C19 UNL     1       3.206   0.334  57.550  1.00  0.00     0.194 A
BRANCH  23  27
HETATM   27  S1  UNL     1       2.486   0.374  61.361  1.00  0.00    -0.091 SA
HETATM   28  C1  UNL     1       3.081   1.854  62.233  1.00  0.00     0.099 C
ENDBRANCH  23  27
ENDBRANCH  12  21
ENDBRANCH   4   6
ENDBRANCH   1   4
BRANCH   3  29
HETATM   29  C8  UNL     1       2.571   7.104  53.227  1.00  0.00     0.170 C
HETATM   30  C9  UNL     1       3.369   8.345  53.162  1.00  0.00     0.098 C
HETATM   31  O1  UNL     1       2.024   6.841  54.324  1.00  0.00    -0.291 OA
ENDBRANCH   3  29
BRANCH   3  32
HETATM   32  C10 UNL     1       3.222   6.535  50.879  1.00  0.00     0.167 C
BRANCH  32  33
HETATM   33  C11 UNL     1       2.351   7.279  49.935  1.00  0.00     0.230 C
HETATM   34  O2  UNL     1       1.088   7.068  49.990  1.00  0.00    -0.273 OA
HETATM   35  N7  UNL     1       2.777   8.203  48.970  1.00  0.00    -0.352 N
ATOM     36  H7  UNL     1       3.777   8.396  48.907  1.00  0.00     0.162 HD
BRANCH  35  37
HETATM   37  C12 UNL     1       1.913   8.892  48.071  1.00  0.00     0.227 C
BRANCH  37  38
HETATM   38  C13 UNL     1       2.589   9.581  46.950  1.00  0.00     0.253 C
HETATM   39  O3  UNL     1       2.771  10.818  46.958  1.00  0.00    -0.270 OA
HETATM   40  N8  UNL     1       3.050   8.843  45.829  1.00  0.00    -0.275 N
ATOM     41  H8  UNL     1       2.913   7.833  45.802  1.00  0.00     0.189 HD
BRANCH  40  42
HETATM   42  N9  UNL     1       3.699   9.489  44.748  1.00  0.00    -0.343 N
ATOM     43  H92 UNL     1       3.984  10.462  44.862  1.00  0.00     0.176 HD
ATOM     44  H91 UNL     1       3.879   8.995  43.873  1.00  0.00     0.176 HD
ENDBRANCH  40  42
ENDBRANCH  37  38
ENDBRANCH  35  37
ENDBRANCH  32  33
BRANCH  32  45
HETATM   45  C14 UNL     1       3.706   5.273  50.213  1.00  0.00     0.134 C
HETATM   46  C15 UNL     1       4.317   4.270  51.128  1.00  0.00     0.047 C
HETATM   47  C16 UNL     1       4.722   5.580  49.136  1.00  0.00     0.047 C
BRANCH  45  48
HETATM   48  N10 UNL     1       2.562   4.657  49.520  1.00  0.00    -0.070 N
ATOM     49 3H10 UNL     1       2.257   5.193  48.707  1.00  0.00     0.275 HD
ATOM     50 2H10 UNL     1       2.812   3.797  49.032  1.00  0.00     0.275 HD
ATOM     51 1H10 UNL     1       1.817   4.520  50.204  1.00  0.00     0.275 HD
ENDBRANCH  45  48
ENDBRANCH  32  45
ENDBRANCH   3  32
TORSDOF 12
ENDMDL