MODEL 1
REMARK VINA RESULT: -8.514628104      0.000      0.000
REMARK  11 active torsions:
REMARK  status: ('A' for Active; 'I' for Inactive)
REMARK    1  A    between atoms: C3_5  and  C4_6
REMARK    2  A    between atoms: C4_6  and  S1_7
REMARK    3  A    between atoms: S1_7  and  C5_8
REMARK    4  A    between atoms: N5_15  and  C6_16
REMARK    5  A    between atoms: N7_22  and  C9_23
REMARK    6  A    between atoms: C9_23  and  C10_24
REMARK       I    between atoms: C10_24  and  N8_26
REMARK    7  A    between atoms: N8_26  and  C11_28
REMARK    8  A    between atoms: C11_28  and  C12_29
REMARK    9  A    between atoms: C12_29  and  O3_32
REMARK   10  A    between atoms: C15_34  and  N9_35
REMARK   11  A    between atoms: C17_41  and  N11_42
ROOT
HETATM    1  C6  UNL     1       4.384   3.800  50.188  1.00  0.00     0.709 A
HETATM    2  N6  UNL     1       4.515   5.113  49.935  1.00  0.00    -0.182 N
ATOM      3  H6  UNL     1       5.343   5.613  50.260  1.00  0.00     0.184 HD
HETATM    4  C7  UNL     1       3.543   5.782  49.244  1.00  0.00     0.148 A
HETATM    5  C8  UNL     1       3.688   7.126  48.992  1.00  0.00     0.292 A
HETATM    6  O1  UNL     1       4.726   7.721  49.406  1.00  0.00    -0.265 OA
HETATM    7  N7  UNL     1       2.760   7.827  48.319  1.00  0.00    -0.137 N
HETATM    8  C15 UNL     1       1.685   7.149  47.903  1.00  0.00     0.682 A
HETATM    9  N10 UNL     1       1.499   5.817  48.131  1.00  0.00    -0.186 N
ATOM     10  H10 UNL     1       0.656   5.354  47.791  1.00  0.00     0.184 HD
HETATM   11  C16 UNL     1       2.412   5.129  48.794  1.00  0.00     0.126 A
HETATM   12  C17 UNL     1       2.280   3.769  49.058  1.00  0.00     0.144 A
HETATM   13  N12 UNL     1       3.283   3.175  49.748  1.00  0.00    -0.173 N
ATOM     14  H12 UNL     1       3.193   2.178  49.946  1.00  0.00     0.186 HD
ENDROOT
BRANCH   1  15
HETATM   15  N5  UNL     1       5.391   3.104  50.906  1.00  0.00    -0.046 N
HETATM   16  C5  UNL     1       5.261   2.685  52.194  1.00  0.00     0.201 A
HETATM   17  N2  UNL     1       6.398   2.066  52.557  1.00  0.00    -0.262 N
HETATM   18  N3  UNL     1       7.207   2.102  51.520  1.00  0.00    -0.225 N
ATOM     19  H2  UNL     1       6.597   1.646  53.466  1.00  0.00     0.190 HD
HETATM   20  N4  UNL     1       6.590   2.731  50.530  1.00  0.00    -0.205 N
ATOM     21  H3  UNL     1       8.150   1.713  51.484  1.00  0.00     0.210 HD
ATOM     22  H4  UNL     1       6.991   2.899  49.608  1.00  0.00     0.211 HD
BRANCH  16  23
HETATM   23  S1  UNL     1       3.806   2.944  53.180  1.00  0.00    -0.084 SA
BRANCH  23  24
HETATM   24  C4  UNL     1       4.099   3.628  54.801  1.00  0.00     0.139 C
BRANCH  24  25
HETATM   25  C3  UNL     1       3.787   5.078  54.855  1.00  0.00     0.023 A
HETATM   26  N1  UNL     1       3.494   5.758  53.702  1.00  0.00    -0.349 N
HETATM   27  C2  UNL     1       3.184   7.059  53.700  1.00  0.00     0.078 A
ATOM     28  H1  UNL     1       3.513   5.255  52.815  1.00  0.00     0.167 HD
HETATM   29  C1  UNL     1       2.872   7.763  52.428  1.00  0.00     0.089 C
HETATM   30  N14 UNL     1       3.152   7.737  54.858  1.00  0.00    -0.333 N
HETATM   31  C19 UNL     1       3.428   7.131  56.026  1.00  0.00     0.101 A
ATOM     32  H14 UNL     1       2.915   8.730  54.851  1.00  0.00     0.168 HD
HETATM   33  C18 UNL     1       3.751   5.777  56.034  1.00  0.00     0.073 A
HETATM   34  N13 UNL     1       3.400   7.781  57.144  1.00  0.00    -0.385 N
ATOM     35 2H13 UNL     1       3.609   7.322  58.030  1.00  0.00     0.157 HD
ATOM     36 1H13 UNL     1       3.163   8.774  57.138  1.00  0.00     0.157 HD
ENDBRANCH  24  25
ENDBRANCH  23  24
ENDBRANCH  16  23
ENDBRANCH   1  15
BRANCH  12  37
HETATM   37  N11 UNL     1       1.259   3.116  48.669  1.00  0.00    -0.383 N
ATOM     38 2H11 UNL     1       1.078   2.947  47.679  1.00  0.00     0.157 HD
ATOM     39 1H11 UNL     1       0.586   2.739  49.335  1.00  0.00     0.157 HD
ENDBRANCH  12  37
BRANCH   7  40
HETATM   40  C9  UNL     1       2.961   9.261  48.073  1.00  0.00     0.253 C
BRANCH  40  41
HETATM   41  C10 UNL     1       3.735   9.528  46.854  1.00  0.00     0.236 C
HETATM   42  O2  UNL     1       4.699  10.366  46.946  1.00  0.00    -0.272 OA
HETATM   43  N8  UNL     1       3.513   8.946  45.585  1.00  0.00    -0.357 N
ATOM     44  H8  UNL     1       2.756   8.273  45.465  1.00  0.00     0.162 HD
BRANCH  43  45
HETATM   45  C11 UNL     1       4.361   9.299  44.437  1.00  0.00     0.159 C
BRANCH  45  46
HETATM   46  C12 UNL     1       3.491   9.910  43.354  1.00  0.00     0.066 C
HETATM   47  C13 UNL     1       3.767   9.281  42.008  1.00  0.00     0.047 C
HETATM   48  C14 UNL     1       3.727  11.392  43.311  1.00  0.00     0.047 C
BRANCH  46  49
HETATM   49  O3  UNL     1       2.134   9.700  43.625  1.00  0.00    -0.389 OA
ATOM     50  H3  UNL     1       1.692   9.324  42.872  1.00  0.00     0.210 HD
ENDBRANCH  46  49
ENDBRANCH  45  46
ENDBRANCH  43  45
ENDBRANCH  40  41
ENDBRANCH   7  40
BRANCH   8  51
HETATM   51  N9  UNL     1       0.743   7.731  47.237  1.00  0.00    -0.234 N
ATOM     52  H92 UNL     1      -0.167   7.749  47.697  1.00  0.00     0.174 HD
ATOM     53  H91 UNL     1       0.918   8.132  46.316  1.00  0.00     0.174 HD
ENDBRANCH   8  51
TORSDOF 11
ENDMDL