MODEL 5
REMARK VINA RESULT: -7.625468244      3.107      4.467
REMARK  11 active torsions:
REMARK  status: ('A' for Active; 'I' for Inactive)
REMARK    1  A    between atoms: N1_1  and  C1_4
REMARK    2  A    between atoms: C2_9  and  S1_10
REMARK    3  A    between atoms: S1_10  and  C3_11
REMARK    4  A    between atoms: C3_11  and  C4_12
REMARK       I    between atoms: C4_12  and  N4_14
REMARK    5  A    between atoms: N4_14  and  N5_16
REMARK       I    between atoms: N5_16  and  C5_18
REMARK    6  A    between atoms: C5_18  and  C6_20
REMARK       I    between atoms: C6_20  and  N6_22
REMARK    7  A    between atoms: N6_22  and  N7_24
REMARK    8  A    between atoms: C7_26  and  C8_27
REMARK    9  A    between atoms: N8_31  and  N9_32
REMARK       I    between atoms: N9_32  and  C10_34
REMARK   10  A    between atoms: C10_34  and  C11_36
REMARK   11  A    between atoms: C16_43  and  O7_44
ROOT
HETATM    1  C6  UNL     1       2.175   8.913  48.334  1.00  0.00     0.329 C
HETATM    2  O3  UNL     1       1.616   9.684  49.153  1.00  0.00    -0.261 OA
HETATM    3  N6  UNL     1       2.234   7.531  48.627  1.00  0.00    -0.262 N
ATOM      4  H6  UNL     1       2.690   6.908  47.961  1.00  0.00     0.190 HD
ENDROOT
BRANCH   3   5
HETATM    5  N7  UNL     1       1.690   6.983  49.799  1.00  0.00    -0.306 N
HETATM    6  C7  UNL     1       2.435   6.453  50.680  1.00  0.00     0.149 C
ATOM      7  H7  UNL     1       0.681   7.009  49.944  1.00  0.00     0.186 HD
BRANCH   6   8
HETATM    8  C8  UNL     1       1.856   5.888  51.891  1.00  0.00     0.150 A
HETATM    9  O4  UNL     1       0.622   5.948  52.291  1.00  0.00    -0.254 OA
HETATM   10  C9  UNL     1       0.466   5.326  53.425  1.00  0.00     0.394 A
HETATM   11  O5  UNL     1      -0.609   5.203  54.079  1.00  0.00    -0.236 OA
HETATM   12  N8  UNL     1       1.656   4.809  53.829  1.00  0.00    -0.170 N
HETATM   13  C16 UNL     1       2.515   5.156  52.879  1.00  0.00     0.203 A
BRANCH  12  14
HETATM   14  N9  UNL     1       1.842   4.083  54.996  1.00  0.00    -0.252 N
HETATM   15  C10 UNL     1       1.571   2.753  55.283  1.00  0.00     0.272 C
HETATM   16  O6  UNL     1       1.090   1.945  54.486  1.00  0.00    -0.266 OA
ATOM     17  H9  UNL     1       2.243   4.614  55.769  1.00  0.00     0.191 HD
BRANCH  15  18
HETATM   18  C11 UNL     1       1.869   2.227  56.634  1.00  0.00     0.049 A
HETATM   19  C12 UNL     1       0.894   1.815  57.509  1.00  0.00     0.020 A
HETATM   20  C13 UNL     1       1.239   1.334  58.779  1.00  0.00     0.018 A
HETATM   21  C14 UNL     1       2.565   1.279  59.142  1.00  0.00     0.087 A
HETATM   22  N10 UNL     1       3.510   1.686  58.275  1.00  0.00    -0.374 N
HETATM   23  C15 UNL     1       3.193   2.148  57.058  1.00  0.00     0.104 A
ATOM     24  H10 UNL     1       4.491   1.643  58.551  1.00  0.00     0.164 HD
ENDBRANCH  15  18
ENDBRANCH  12  14
BRANCH  13  25
HETATM   25  O7  UNL     1       3.876   4.891  52.775  1.00  0.00    -0.343 OA
ATOM     26  H7  UNL     1       4.462   5.076  53.500  1.00  0.00     0.219 HD
ENDBRANCH  13  25
ENDBRANCH   6   8
ENDBRANCH   3   5
BRANCH   1  27
HETATM   27  C5  UNL     1       2.750   9.421  47.112  1.00  0.00     0.329 C
HETATM   28  N5  UNL     1       3.299   8.555  46.139  1.00  0.00    -0.259 N
ATOM     29  H5  UNL     1       3.280   7.551  46.316  1.00  0.00     0.190 HD
HETATM   30  O2  UNL     1       2.769  10.654  46.900  1.00  0.00    -0.261 OA
BRANCH  28  31
HETATM   31  N4  UNL     1       3.864   9.010  44.949  1.00  0.00    -0.266 N
HETATM   32  C4  UNL     1       3.115   9.372  43.810  1.00  0.00     0.245 C
HETATM   33  O1  UNL     1       1.865   9.291  43.844  1.00  0.00    -0.271 OA
ATOM     34  H4  UNL     1       4.880   9.085  44.900  1.00  0.00     0.190 HD
BRANCH  32  35
HETATM   35  C3  UNL     1       3.781   9.845  42.578  1.00  0.00     0.186 C
BRANCH  35  36
HETATM   36  S1  UNL     1       5.021   8.722  41.941  1.00  0.00    -0.094 SA
BRANCH  36  37
HETATM   37  C2  UNL     1       4.510   8.017  40.357  1.00  0.00     0.130 A
HETATM   38  N3  UNL     1       3.814   8.585  39.384  1.00  0.00    -0.286 N
HETATM   39  N2  UNL     1       3.544   7.935  38.329  1.00  0.00    -0.279 N
ATOM     40  H3  UNL     1       3.494   9.548  39.484  1.00  0.00     0.188 HD
HETATM   41  C1  UNL     1       3.975   6.673  38.224  1.00  0.00     0.159 A
ATOM     42  H2  UNL     1       3.008   8.366  37.576  1.00  0.00     0.189 HD
HETATM   43  S2  UNL     1       4.789   6.461  39.713  1.00  0.00    -0.027 SA
BRANCH  41  44
HETATM   44  N1  UNL     1       3.798   5.844  37.220  1.00  0.00    -0.379 N
ATOM     45  H12 UNL     1       2.970   5.329  36.922  1.00  0.00     0.158 HD
ATOM     46  H11 UNL     1       4.484   5.552  36.524  1.00  0.00     0.158 HD
ENDBRANCH  41  44
ENDBRANCH  36  37
ENDBRANCH  35  36
ENDBRANCH  32  35
ENDBRANCH  28  31
ENDBRANCH   1  27
TORSDOF 11
ENDMDL