MODEL 2
REMARK VINA RESULT: -6.799803935      1.336      1.785
REMARK  16 active torsions:
REMARK  status: ('A' for Active; 'I' for Inactive)
REMARK    1  A    between atoms: O1_2  and  N1_3
REMARK    2  A    between atoms: N1_3  and  C2_4
REMARK    3  A    between atoms: C3_5  and  C4_6
REMARK    4  A    between atoms: C4_6  and  O2_7
REMARK    5  A    between atoms: O2_7  and  C5_8
REMARK    6  A    between atoms: C5_8  and  C6_10
REMARK    7  A    between atoms: C6_10  and  O4_11
REMARK    8  A    between atoms: O4_11  and  C7_12
REMARK    9  A    between atoms: C9_14  and  O5_15
REMARK   10  A    between atoms: C10_17  and  O6_18
REMARK   11  A    between atoms: C11_20  and  C12_21
REMARK   12  A    between atoms: C16_27  and  O8_28
REMARK   13  A    between atoms: C19_32  and  O9_33
REMARK   14  A    between atoms: C21_35  and  O10_36
REMARK   15  A    between atoms: C24_40  and  O11_41
REMARK   16  A    between atoms: C24_40  and  O12_43
ROOT
HETATM    1  C12 UNL     1       2.559   9.329  46.877  1.00  0.00     0.264 C
HETATM    2  O7  UNL     1       1.726   9.537  45.946  1.00  0.00    -0.275 OA
HETATM    3  C13 UNL     1       3.747  10.080  46.916  1.00  0.00     0.144 C
HETATM    4  N2  UNL     1       4.735  10.724  46.927  1.00  0.00    -0.188 NA
ENDROOT
BRANCH   1   5
HETATM    5  C11 UNL     1       2.233   8.310  47.860  1.00  0.00     0.064 A
HETATM    6  C10 UNL     1       1.772   7.032  47.514  1.00  0.00     0.114 A
HETATM    7  C9  UNL     1       1.475   6.096  48.472  1.00  0.00     0.102 A
HETATM    8  C8  UNL     1       1.633   6.418  49.808  1.00  0.00     0.076 A
HETATM    9  C7  UNL     1       2.080   7.654  50.205  1.00  0.00     0.073 A
HETATM   10  C14 UNL     1       2.368   8.568  49.212  1.00  0.00     0.056 A
BRANCH   6  11
HETATM   11  O6  UNL     1       1.637   6.779  46.158  1.00  0.00    -0.357 OA
ATOM     12  H6  UNL     1       1.062   6.104  45.819  1.00  0.00     0.217 HD
ENDBRANCH   6  11
BRANCH   7  13
HETATM   13  O5  UNL     1       1.020   4.837  48.100  1.00  0.00    -0.358 OA
ATOM     14  H5  UNL     1       1.630   4.115  47.998  1.00  0.00     0.217 HD
ENDBRANCH   7  13
BRANCH   9  15
HETATM   15  O4  UNL     1       2.241   7.991  51.540  1.00  0.00    -0.341 OA
BRANCH  15  16
HETATM   16  C6  UNL     1       3.421   7.986  52.278  1.00  0.00     0.286 C
BRANCH  16  17
HETATM   17  C5  UNL     1       3.147   8.063  53.716  1.00  0.00     0.283 C
HETATM   18  O3  UNL     1       2.872   9.153  54.279  1.00  0.00    -0.263 OA
BRANCH  17  19
HETATM   19  O2  UNL     1       3.170   6.956  54.559  1.00  0.00    -0.315 OA
BRANCH  19  20
HETATM   20  C4  UNL     1       2.222   5.937  54.452  1.00  0.00     0.216 C
BRANCH  20  21
HETATM   21  C3  UNL     1       2.551   4.888  53.464  1.00  0.00    -0.015 A
HETATM   22  C2  UNL     1       3.975   4.562  53.192  1.00  0.00     0.205 A
HETATM   23  C24 UNL     1       4.311   3.574  52.191  1.00  0.00     0.204 A
HETATM   24  C23 UNL     1       3.133   2.948  51.562  1.00  0.00     0.058 A
HETATM   25  C22 UNL     1       1.902   3.267  51.863  1.00  0.00     0.015 A
HETATM   26  C15 UNL     1       1.603   4.249  52.827  1.00  0.00     0.017 A
HETATM   27  C21 UNL     1       0.891   2.620  51.194  1.00  0.00     0.110 A
HETATM   28  C16 UNL     1       0.261   4.509  53.048  1.00  0.00     0.086 A
HETATM   29  C17 UNL     1      -0.773   3.871  52.384  1.00  0.00     0.008 A
HETATM   30  C18 UNL     1      -2.204   4.229  52.698  1.00  0.00     0.054 C
HETATM   31  C19 UNL     1      -0.462   2.925  51.458  1.00  0.00     0.110 A
BRANCH  22  32
HETATM   32  N1  UNL     1       4.680   4.328  54.463  1.00  0.00    -0.086 NA
BRANCH  32  33
HETATM   33  O1  UNL     1       4.182   3.280  55.116  1.00  0.00    -0.291 OA
HETATM   34  C1  UNL     1       4.129   3.423  56.486  1.00  0.00     0.231 C
ENDBRANCH  32  33
ENDBRANCH  22  32
BRANCH  23  35
HETATM   35  O11 UNL     1       5.210   2.581  52.644  1.00  0.00    -0.361 OA
ATOM     36  H11 UNL     1       6.124   2.806  52.520  1.00  0.00     0.213 HD
ENDBRANCH  23  35
BRANCH  23  37
HETATM   37  O12 UNL     1       4.984   4.211  51.104  1.00  0.00    -0.361 OA
ATOM     38  H12 UNL     1       5.181   3.567  50.435  1.00  0.00     0.213 HD
ENDBRANCH  23  37
BRANCH  28  39
HETATM   39  O8  UNL     1      -0.101   5.447  53.972  1.00  0.00    -0.359 OA
ATOM     40  H8  UNL     1      -0.946   5.382  54.400  1.00  0.00     0.217 HD
ENDBRANCH  28  39
BRANCH  31  41
HETATM   41  O9  UNL     1      -1.480   2.266  50.774  1.00  0.00    -0.352 OA
HETATM   42  C20 UNL     1      -1.883   2.803  49.535  1.00  0.00     0.210 C
ENDBRANCH  31  41
BRANCH  27  43
HETATM   43  O10 UNL     1       1.107   1.662  50.252  1.00  0.00    -0.357 OA
ATOM     44  H10 UNL     1       1.990   1.315  50.212  1.00  0.00     0.217 HD
ENDBRANCH  27  43
ENDBRANCH  20  21
ENDBRANCH  19  20
ENDBRANCH  17  19
ENDBRANCH  16  17
ENDBRANCH  15  16
ENDBRANCH   9  15
ENDBRANCH   1   5
TORSDOF 16
ENDMDL