MODEL 3
REMARK VINA RESULT: -7.892174058      3.109      8.612
REMARK  11 active torsions:
REMARK  status: ('A' for Active; 'I' for Inactive)
REMARK       I    between atoms: C1_4  and  N3_6
REMARK    1  A    between atoms: N3_6  and  C2_8
REMARK    2  A    between atoms: C2_8  and  C3_9
REMARK    3  A    between atoms: C2_8  and  C12_33
REMARK    4  A    between atoms: C3_9  and  C4_11
REMARK    5  A    between atoms: C6_14  and  C7_15
REMARK    6  A    between atoms: C7_15  and  C8_17
REMARK    7  A    between atoms: C8_17  and  S2_18
REMARK    8  A    between atoms: S2_18  and  C9_19
REMARK    9  A    between atoms: N6_26  and  N7_27
REMARK   10  A    between atoms: C11_30  and  O4_31
REMARK   11  A    between atoms: C15_36  and  N8_37
ROOT
HETATM    1  C4  UNL     1     -14.273  23.814  -4.253  1.00  0.00     0.053 A
HETATM    2  C5  UNL     1     -14.591  25.021  -4.844  1.00  0.00     0.068 A
HETATM    3  S1  UNL     1     -14.908  24.595  -6.460  1.00  0.00    -0.095 SA
HETATM    4  C6  UNL     1     -14.639  22.922  -6.364  1.00  0.00     0.085 A
HETATM    5  C11 UNL     1     -14.297  22.729  -5.042  1.00  0.00     0.101 A
ENDROOT
BRANCH   1   6
HETATM    6  C3  UNL     1     -13.980  23.815  -2.785  1.00  0.00     0.190 C
HETATM    7  O1  UNL     1     -12.838  24.129  -2.402  1.00  0.00    -0.290 OA
BRANCH   6   8
HETATM    8  C2  UNL     1     -14.978  23.455  -1.790  1.00  0.00     0.192 C
BRANCH   8   9
HETATM    9  N3  UNL     1     -15.469  22.127  -1.905  1.00  0.00    -0.349 N
HETATM   10  C1  UNL     1     -16.734  21.681  -2.310  1.00  0.00     0.182 C
HETATM   11  N1  UNL     1     -16.775  20.871  -3.348  1.00  0.00    -0.374 N
HETATM   12  N2  UNL     1     -17.988  21.983  -1.751  1.00  0.00    -0.064 NA
ATOM     13  H12 UNL     1     -17.696  20.546  -3.643  1.00  0.00     0.158 HD
ATOM     14  H11 UNL     1     -15.865  20.652  -3.753  1.00  0.00     0.158 HD
ATOM     15  H3  UNL     1     -14.805  21.393  -1.658  1.00  0.00     0.163 HD
ENDBRANCH   8   9
BRANCH   8  16
HETATM   16  C12 UNL     1     -14.461  23.599  -0.374  1.00  0.00    -0.028 A
HETATM   17  C13 UNL     1     -14.229  22.512   0.428  1.00  0.00     0.012 A
HETATM   18  C14 UNL     1     -13.739  22.730   1.706  1.00  0.00     0.037 A
HETATM   19  C15 UNL     1     -13.475  23.989   2.206  1.00  0.00     0.102 A
HETATM   20  C16 UNL     1     -13.714  25.077   1.387  1.00  0.00     0.037 A
HETATM   21  C17 UNL     1     -14.206  24.858   0.104  1.00  0.00     0.012 A
BRANCH  19  22
HETATM   22  N8  UNL     1     -12.973  24.164   3.517  1.00  0.00    -0.116 N
HETATM   23  O5  UNL     1     -13.568  24.828   4.376  1.00  0.00    -0.532 OA
HETATM   24  O6  UNL     1     -11.784  23.580   3.852  1.00  0.00    -0.532 OA
ENDBRANCH  19  22
ENDBRANCH   8  16
ENDBRANCH   6   8
ENDBRANCH   1   6
BRANCH   5  25
HETATM   25  O4  UNL     1     -14.004  21.418  -4.628  1.00  0.00    -0.358 OA
ATOM     26  H4  UNL     1     -14.633  20.804  -4.268  1.00  0.00     0.217 HD
ENDBRANCH   5  25
BRANCH   4  27
HETATM   27  C7  UNL     1     -14.761  21.939  -7.453  1.00  0.00     0.178 C
HETATM   28  O2  UNL     1     -15.685  21.067  -7.332  1.00  0.00    -0.291 OA
BRANCH  27  29
HETATM   29  C8  UNL     1     -13.919  21.886  -8.646  1.00  0.00     0.167 C
BRANCH  29  30
HETATM   30  S2  UNL     1     -14.858  22.164 -10.184  1.00  0.00    -0.083 SA
BRANCH  30  31
HETATM   31  C9  UNL     1     -15.247  20.532 -10.835  1.00  0.00     0.185 A
HETATM   32  N4  UNL     1     -14.556  19.787 -11.709  1.00  0.00    -0.274 N
HETATM   33  N5  UNL     1     -15.194  18.640 -11.919  1.00  0.00    -0.248 N
ATOM     34  H4  UNL     1     -13.675  20.059 -12.145  1.00  0.00     0.189 HD
HETATM   35  C10 UNL     1     -16.312  18.642 -11.174  1.00  0.00     0.361 A
ATOM     36  H5  UNL     1     -14.888  17.889 -12.539  1.00  0.00     0.192 HD
HETATM   37  O3  UNL     1     -17.140  17.689 -11.151  1.00  0.00    -0.243 OA
HETATM   38  N6  UNL     1     -16.345  19.799 -10.511  1.00  0.00    -0.186 N
BRANCH  38  39
HETATM   39  N7  UNL     1     -17.337  20.198  -9.629  1.00  0.00    -0.332 N
ATOM     40  H72 UNL     1     -18.332  19.992  -9.717  1.00  0.00     0.177 HD
ATOM     41  H71 UNL     1     -17.182  20.747  -8.783  1.00  0.00     0.177 HD
ENDBRANCH  38  39
ENDBRANCH  30  31
ENDBRANCH  29  30
ENDBRANCH  27  29
ENDBRANCH   4  27
TORSDOF 11
ENDMDL