MODEL 1
REMARK VINA RESULT: -7.332242375      0.000      0.000
REMARK  16 active torsions:
REMARK  status: ('A' for Active; 'I' for Inactive)
REMARK    1  A    between atoms: C2_2  and  O1_4
REMARK    2  A    between atoms: C2_2  and  C4_6
REMARK    3  A    between atoms: C5_7  and  C6_8
REMARK    4  A    between atoms: C6_8  and  N1_9
REMARK    5  A    between atoms: C7_10  and  C8_11
REMARK    6  A    between atoms: N3_14  and  C9_15
REMARK    7  A    between atoms: C9_15  and  C10_16
REMARK    8  A    between atoms: C10_16  and  C11_17
REMARK    9  A    between atoms: C11_17  and  C12_18
REMARK   10  A    between atoms: C12_18  and  C13_19
REMARK   11  A    between atoms: C13_19  and  C14_20
REMARK   12  A    between atoms: C14_20  and  O2_21
REMARK   13  A    between atoms: C15_23  and  N4_24
REMARK   14  A    between atoms: N4_24  and  N5_26
REMARK   15  A    between atoms: C17_37  and  N10_38
REMARK   16  A    between atoms: C19_43  and  N11_44
ROOT
HETATM    1  N1  UNL     1     -14.667  22.659  -5.074  1.00  0.00    -0.150 N
HETATM    2  C7  UNL     1     -15.762  22.543  -4.311  1.00  0.00     0.186 A
HETATM    3  N7  UNL     1     -16.692  22.019  -5.125  1.00  0.00    -0.259 N
ATOM      4  H7  UNL     1     -17.648  21.809  -4.839  1.00  0.00     0.190 HD
HETATM    5  N8  UNL     1     -16.217  21.810  -6.341  1.00  0.00    -0.066 N
HETATM    6  C16 UNL     1     -16.782  21.300  -7.494  1.00  0.00     0.168 A
HETATM    7  N9  UNL     1     -18.021  20.875  -7.645  1.00  0.00    -0.320 N
ATOM      8  H9  UNL     1     -18.679  20.898  -6.867  1.00  0.00     0.169 HD
HETATM    9  C17 UNL     1     -18.388  20.414  -8.835  1.00  0.00     0.144 A
HETATM   10  S1  UNL     1     -16.968  20.578  -9.771  1.00  0.00    -0.047 SA
HETATM   11  C18 UNL     1     -15.953  21.241  -8.573  1.00  0.00     0.099 A
HETATM   12  C19 UNL     1     -14.615  21.670  -8.515  1.00  0.00     0.136 A
HETATM   13  N12 UNL     1     -14.090  22.169  -7.361  1.00  0.00    -0.173 N
ATOM     14  H12 UNL     1     -13.124  22.489  -7.283  1.00  0.00     0.186 HD
HETATM   15  C20 UNL     1     -14.960  22.201  -6.330  1.00  0.00     0.711 A
ENDROOT
BRANCH   2  16
HETATM   16  C8  UNL     1     -15.978  22.890  -2.902  1.00  0.00     0.182 A
HETATM   17  N2  UNL     1     -15.650  22.195  -1.825  1.00  0.00    -0.265 N
HETATM   18  N3  UNL     1     -16.002  22.823  -0.718  1.00  0.00    -0.121 N
ATOM     19  H2  UNL     1     -15.183  21.289  -1.847  1.00  0.00     0.189 HD
HETATM   20  C15 UNL     1     -16.583  23.974  -1.093  1.00  0.00     0.715 A
HETATM   21  N6  UNL     1     -16.566  24.011  -2.437  1.00  0.00    -0.169 N
ATOM     22  H6  UNL     1     -16.938  24.766  -3.013  1.00  0.00     0.186 HD
BRANCH  18  23
HETATM   23  C9  UNL     1     -15.785  22.329   0.621  1.00  0.00     0.168 C
BRANCH  23  24
HETATM   24  C10 UNL     1     -14.548  21.505   0.723  1.00  0.00     0.022 C
BRANCH  24  25
HETATM   25  C11 UNL     1     -13.706  21.858   1.923  1.00  0.00     0.002 C
BRANCH  25  26
HETATM   26  C12 UNL     1     -13.517  23.328   2.092  1.00  0.00     0.002 C
BRANCH  26  27
HETATM   27  C13 UNL     1     -12.455  23.698   3.076  1.00  0.00     0.026 C
BRANCH  27  28
HETATM   28  C14 UNL     1     -12.757  25.021   3.745  1.00  0.00     0.164 C
BRANCH  28  29
HETATM   29  O2  UNL     1     -13.936  24.914   4.481  1.00  0.00    -0.401 OA
ATOM     30  H2  UNL     1     -14.406  25.739   4.451  1.00  0.00     0.209 HD
ENDBRANCH  28  29
ENDBRANCH  27  28
ENDBRANCH  26  27
ENDBRANCH  25  26
ENDBRANCH  24  25
ENDBRANCH  23  24
ENDBRANCH  18  23
BRANCH  20  31
HETATM   31  N4  UNL     1     -17.079  24.900  -0.307  1.00  0.00    -0.137 N
ATOM     32  H4  UNL     1     -18.028  24.785   0.046  1.00  0.00     0.205 HD
BRANCH  31  33
HETATM   33  N5  UNL     1     -16.371  26.022   0.059  1.00  0.00    -0.331 N
ATOM     34  H52 UNL     1     -16.817  26.928  -0.079  1.00  0.00     0.177 HD
ATOM     35  H51 UNL     1     -15.433  25.976   0.456  1.00  0.00     0.177 HD
ENDBRANCH  31  33
ENDBRANCH  20  31
ENDBRANCH   2  16
BRANCH   1  36
HETATM   36  C6  UNL     1     -13.391  23.179  -4.624  1.00  0.00     0.243 C
BRANCH  36  37
HETATM   37  C5  UNL     1     -13.352  24.653  -4.689  1.00  0.00    -0.083 C
HETATM   38  C4  UNL     1     -13.316  25.858  -4.742  1.00  0.00    -0.067 C
BRANCH  38  39
HETATM   39  C2  UNL     1     -13.248  27.325  -4.799  1.00  0.00     0.114 C
HETATM   40  C1  UNL     1     -13.628  27.716  -6.216  1.00  0.00     0.060 C
HETATM   41  C3  UNL     1     -14.235  27.975  -3.858  1.00  0.00     0.060 C
BRANCH  39  42
HETATM   42  O1  UNL     1     -11.981  27.805  -4.487  1.00  0.00    -0.378 OA
ATOM     43  H1  UNL     1     -11.669  27.417  -3.678  1.00  0.00     0.211 HD
ENDBRANCH  39  42
ENDBRANCH  38  39
ENDBRANCH  36  37
ENDBRANCH   1  36
BRANCH  12  44
HETATM   44  N11 UNL     1     -13.925  21.571  -9.584  1.00  0.00    -0.384 N
ATOM     45 2H11 UNL     1     -14.359  21.547 -10.507  1.00  0.00     0.157 HD
ATOM     46 1H11 UNL     1     -12.912  21.516  -9.481  1.00  0.00     0.157 HD
ENDBRANCH  12  44
BRANCH   9  47
HETATM   47  N10 UNL     1     -19.559  19.943  -9.212  1.00  0.00    -0.380 N
ATOM     48 2H10 UNL     1     -20.260  19.471  -8.640  1.00  0.00     0.158 HD
ATOM     49 1H10 UNL     1     -19.985  19.958 -10.138  1.00  0.00     0.158 HD
ENDBRANCH   9  47
TORSDOF 16
ENDMDL