MODEL 3
REMARK VINA RESULT: -7.530990679      2.400      4.693
REMARK  11 active torsions:
REMARK  status: ('A' for Active; 'I' for Inactive)
REMARK    1  A    between atoms: N1_2  and  C2_4
REMARK    2  A    between atoms: C3_5  and  C4_6
REMARK    3  A    between atoms: N5_17  and  C9_18
REMARK    4  A    between atoms: C10_22  and  C11_23
REMARK       I    between atoms: C11_23  and  N7_25
REMARK    5  A    between atoms: N7_25  and  N8_27
REMARK    6  A    between atoms: N8_27  and  C12_29
REMARK    7  A    between atoms: C12_29  and  N9_31
REMARK    8  A    between atoms: N9_31  and  N10_33
REMARK    9  A    between atoms: N10_33  and  C13_35
REMARK   10  A    between atoms: C13_35  and  C14_36
REMARK   11  A    between atoms: C16_42  and  N13_43
ROOT
HETATM    1  C9  UNL     1     -15.164  22.076  -5.874  1.00  0.00     0.729 A
HETATM    2  N6  UNL     1     -14.384  21.632  -4.883  1.00  0.00    -0.087 N
ATOM      3  H6  UNL     1     -13.715  20.865  -4.952  1.00  0.00     0.214 HD
HETATM    4  O1  UNL     1     -14.618  22.346  -3.802  1.00  0.00    -0.199 OA
HETATM    5  C10 UNL     1     -15.534  23.254  -4.043  1.00  0.00     0.255 A
HETATM    6  N14 UNL     1     -15.876  23.082  -5.352  1.00  0.00    -0.159 N
ATOM      7  H14 UNL     1     -16.570  23.635  -5.856  1.00  0.00     0.186 HD
ENDROOT
BRANCH   5   8
HETATM    8  C11 UNL     1     -16.074  24.239  -3.119  1.00  0.00     0.314 C
HETATM    9  O2  UNL     1     -16.701  23.862  -2.107  1.00  0.00    -0.262 OA
HETATM   10  N7  UNL     1     -15.902  25.622  -3.348  1.00  0.00    -0.261 N
ATOM     11  H7  UNL     1     -15.395  25.942  -4.174  1.00  0.00     0.190 HD
BRANCH  10  12
HETATM   12  N8  UNL     1     -16.417  26.543  -2.459  1.00  0.00    -0.272 N
ATOM     13  H8  UNL     1     -17.248  27.045  -2.772  1.00  0.00     0.189 HD
BRANCH  12  14
HETATM   14  C12 UNL     1     -15.949  26.878  -1.189  1.00  0.00     0.205 C
HETATM   15  S1  UNL     1     -14.750  28.064  -1.157  1.00  0.00    -0.038 SA
BRANCH  14  16
HETATM   16  N9  UNL     1     -16.377  26.333   0.032  1.00  0.00    -0.275 N
ATOM     17  H9  UNL     1     -17.002  26.902   0.604  1.00  0.00     0.189 HD
BRANCH  16  18
HETATM   18  N10 UNL     1     -16.030  25.117   0.514  1.00  0.00    -0.307 N
ATOM     19  H10 UNL     1     -16.735  24.425   0.769  1.00  0.00     0.186 HD
BRANCH  18  20
HETATM   20  C13 UNL     1     -14.656  24.848   0.650  1.00  0.00     0.140 C
BRANCH  20  21
HETATM   21  C14 UNL     1     -14.417  23.383   0.778  1.00  0.00     0.101 A
HETATM   22  N11 UNL     1     -14.876  22.437  -0.048  1.00  0.00    -0.348 N
HETATM   23  C15 UNL     1     -14.421  21.266   0.442  1.00  0.00     0.182 A
ATOM     24  H11 UNL     1     -15.452  22.572  -0.879  1.00  0.00     0.167 HD
HETATM   25  N12 UNL     1     -13.696  21.480   1.549  1.00  0.00    -0.332 N
HETATM   26  C16 UNL     1     -13.671  22.822   1.795  1.00  0.00     0.203 A
ATOM     27  H12 UNL     1     -13.240  20.762   2.112  1.00  0.00     0.168 HD
BRANCH  26  28
HETATM   28  N13 UNL     1     -13.005  23.457   2.879  1.00  0.00    -0.095 N
HETATM   29  O3  UNL     1     -13.661  24.129   3.700  1.00  0.00    -0.530 OA
HETATM   30  O4  UNL     1     -11.657  23.362   3.065  1.00  0.00    -0.530 OA
ENDBRANCH  26  28
ENDBRANCH  20  21
ENDBRANCH  18  20
ENDBRANCH  16  18
ENDBRANCH  14  16
ENDBRANCH  12  14
ENDBRANCH  10  12
ENDBRANCH   5   8
BRANCH   1  31
HETATM   31  N5  UNL     1     -15.227  21.589  -7.208  1.00  0.00    -0.051 N
HETATM   32  C2  UNL     1     -14.326  21.860  -8.231  1.00  0.00     0.171 A
HETATM   33  C3  UNL     1     -14.722  21.204  -9.354  1.00  0.00     0.106 A
HETATM   34  N3  UNL     1     -15.873  20.539  -8.998  1.00  0.00    -0.281 N
HETATM   35  N4  UNL     1     -16.126  20.793  -7.741  1.00  0.00    -0.219 N
ATOM     36  H3  UNL     1     -16.434  19.948  -9.611  1.00  0.00     0.188 HD
ATOM     37  H4  UNL     1     -16.928  20.418  -7.233  1.00  0.00     0.209 HD
BRANCH  32  38
HETATM   38  N1  UNL     1     -13.266  22.753  -8.031  1.00  0.00    -0.377 N
HETATM   39  C1  UNL     1     -13.312  24.181  -8.153  1.00  0.00     0.148 C
ATOM     40  H1  UNL     1     -12.367  22.346  -7.771  1.00  0.00     0.160 HD
ENDBRANCH  32  38
BRANCH  33  41
HETATM   41  C4  UNL     1     -14.157  21.138 -10.694  1.00  0.00    -0.002 A
HETATM   42  C5  UNL     1     -14.965  20.788 -11.785  1.00  0.00     0.031 A
HETATM   43  C6  UNL     1     -14.495  20.638 -13.063  1.00  0.00     0.088 A
HETATM   44  N2  UNL     1     -13.184  20.835 -13.297  1.00  0.00    -0.375 N
HETATM   45  C7  UNL     1     -12.364  21.173 -12.282  1.00  0.00     0.088 A
ATOM     46  H2  UNL     1     -12.812  20.729 -14.240  1.00  0.00     0.164 HD
HETATM   47  C8  UNL     1     -12.820  21.327 -10.992  1.00  0.00     0.031 A
ENDBRANCH  33  41
ENDBRANCH   1  31
TORSDOF 11
ENDMDL