MODEL 4
REMARK VINA RESULT: -7.355876974      3.537      7.702
REMARK  12 active torsions:
REMARK  status: ('A' for Active; 'I' for Inactive)
REMARK    1  A    between atoms: C2_2  and  C6_12
REMARK    2  A    between atoms: N1_3  and  N2_5
REMARK       I    between atoms: N2_5  and  C3_6
REMARK    3  A    between atoms: C3_6  and  C4_8
REMARK    4  A    between atoms: C4_8  and  O2_9
REMARK    5  A    between atoms: O2_9  and  C5_10
REMARK    6  A    between atoms: C7_13  and  C8_14
REMARK       I    between atoms: C8_14  and  N3_16
REMARK    7  A    between atoms: N3_16  and  S1_18
REMARK    8  A    between atoms: S1_18  and  C9_21
REMARK    9  A    between atoms: C12_24  and  N4_25
REMARK   10  A    between atoms: C16_31  and  O9_32
REMARK   11  A    between atoms: C17_34  and  O10_35
REMARK   12  A    between atoms: C18_37  and  O11_38
ROOT
HETATM    1  C6  UNL     1     -14.583  24.071  -0.794  1.00  0.00     0.040 A
HETATM    2  C7  UNL     1     -14.919  23.143  -1.733  1.00  0.00     0.050 A
HETATM    3  C15 UNL     1     -15.104  21.816  -1.322  1.00  0.00     0.057 A
HETATM    4  C16 UNL     1     -14.959  21.408  -0.025  1.00  0.00     0.102 A
HETATM    5  C17 UNL     1     -14.620  22.318   0.927  1.00  0.00     0.133 A
HETATM    6  C18 UNL     1     -14.420  23.673   0.574  1.00  0.00     0.115 A
ENDROOT
BRANCH   2   7
HETATM    7  C8  UNL     1     -15.011  23.416  -3.157  1.00  0.00     0.266 C
HETATM    8  O4  UNL     1     -16.124  23.924  -3.582  1.00  0.00    -0.267 OA
HETATM    9  N3  UNL     1     -13.993  23.184  -4.103  1.00  0.00    -0.246 N
ATOM     10  H3  UNL     1     -13.101  22.786  -3.808  1.00  0.00     0.182 HD
BRANCH   9  11
HETATM   11  S1  UNL     1     -14.263  23.576  -5.765  1.00  0.00     0.265 S
HETATM   12  O5  UNL     1     -12.879  23.627  -6.396  1.00  0.00    -0.200 OA
HETATM   13  O6  UNL     1     -14.853  24.928  -5.960  1.00  0.00    -0.200 OA
BRANCH  11  14
HETATM   14  C9  UNL     1     -15.212  22.390  -6.604  1.00  0.00     0.080 A
HETATM   15  C10 UNL     1     -16.492  22.039  -6.159  1.00  0.00     0.028 A
HETATM   16  C11 UNL     1     -17.231  21.087  -6.857  1.00  0.00     0.037 A
HETATM   17  C12 UNL     1     -16.707  20.480  -7.995  1.00  0.00     0.102 A
HETATM   18  C13 UNL     1     -15.465  20.821  -8.428  1.00  0.00     0.037 A
HETATM   19  C14 UNL     1     -14.747  21.770  -7.718  1.00  0.00     0.028 A
BRANCH  17  20
HETATM   20  N4  UNL     1     -17.470  19.525  -8.696  1.00  0.00    -0.116 N
HETATM   21  O7  UNL     1     -16.907  18.558  -9.241  1.00  0.00    -0.532 OA
HETATM   22  O8  UNL     1     -18.830  19.669  -8.783  1.00  0.00    -0.532 OA
ENDBRANCH  17  20
ENDBRANCH  11  14
ENDBRANCH   9  11
ENDBRANCH   2   7
BRANCH   1  23
HETATM   23  C2  UNL     1     -14.503  25.493  -1.020  1.00  0.00     0.049 C
HETATM   24  C1  UNL     1     -13.375  26.204  -1.625  1.00  0.00     0.072 C
HETATM   25  N1  UNL     1     -15.549  26.261  -0.772  1.00  0.00    -0.236 N
ATOM     26  H1  UNL     1     -16.361  25.809  -0.351  1.00  0.00     0.201 HD
BRANCH  25  27
HETATM   27  N2  UNL     1     -15.647  27.522  -1.007  1.00  0.00    -0.285 NA
HETATM   28  C3  UNL     1     -15.754  28.879  -1.269  1.00  0.00     0.336 C
HETATM   29  O1  UNL     1     -16.109  29.394  -2.369  1.00  0.00    -0.253 OA
BRANCH  28  30
HETATM   30  C4  UNL     1     -15.428  29.894  -0.206  1.00  0.00     0.299 C
BRANCH  30  31
HETATM   31  O2  UNL     1     -16.576  30.608   0.120  1.00  0.00    -0.318 OA
BRANCH  31  32
HETATM   32  C5  UNL     1     -16.677  31.387   1.238  1.00  0.00     0.398 C
HETATM   33  O3  UNL     1     -16.088  31.017   2.301  1.00  0.00    -0.276 OA
ENDBRANCH  31  32
ENDBRANCH  30  31
ENDBRANCH  28  30
ENDBRANCH  25  27
ENDBRANCH   1  23
BRANCH   6  34
HETATM   34  O11 UNL     1     -14.092  24.464   1.585  1.00  0.00    -0.357 OA
ATOM     35  H11 UNL     1     -13.805  24.183   2.446  1.00  0.00     0.217 HD
ENDBRANCH   6  34
BRANCH   4  36
HETATM   36  O9  UNL     1     -15.148  20.069   0.372  1.00  0.00    -0.358 OA
ATOM     37  H9  UNL     1     -14.421  19.489   0.568  1.00  0.00     0.217 HD
ENDBRANCH   4  36
BRANCH   5  38
HETATM   38  O10 UNL     1     -14.460  21.939   2.272  1.00  0.00    -0.356 OA
ATOM     39  H10 UNL     1     -14.694  22.528   2.980  1.00  0.00     0.218 HD
ENDBRANCH   5  38
TORSDOF 12
ENDMDL