MODEL 3
REMARK VINA RESULT: -7.476497109      1.264      2.372
REMARK  11 active torsions:
REMARK  status: ('A' for Active; 'I' for Inactive)
REMARK    1  A    between atoms: C3_3  and  C4_4
REMARK    2  A    between atoms: C4_4  and  N1_5
REMARK    3  A    between atoms: N1_5  and  C5_7
REMARK    4  A    between atoms: C5_7  and  C6_8
REMARK    5  A    between atoms: C11_16  and  N3_17
REMARK    6  A    between atoms: C12_20  and  N4_21
REMARK       I    between atoms: N4_21  and  C13_23
REMARK    7  A    between atoms: C13_23  and  C14_25
REMARK    8  A    between atoms: N6_28  and  C15_29
REMARK    9  A    between atoms: C16_35  and  N9_36
REMARK   10  A    between atoms: C17_41  and  C18_42
REMARK   11  A    between atoms: C18_42  and  O4_45
ROOT
HETATM    1  C1  UNL     1     -13.210  25.361   4.341  1.00  0.00     0.012 C
HETATM    2  C2  UNL     1     -12.610  26.032   3.542  1.00  0.00    -0.116 C
HETATM    3  C3  UNL     1     -11.880  26.879   2.570  1.00  0.00     0.112 C
ENDROOT
BRANCH   3   4
HETATM    4  C4  UNL     1     -12.877  27.831   1.993  1.00  0.00     0.126 C
BRANCH   4   5
HETATM    5  N1  UNL     1     -13.951  27.225   1.284  1.00  0.00    -0.418 N
ATOM      6  H1  UNL     1     -14.893  27.176   1.671  1.00  0.00     0.153 HD
BRANCH   5   7
HETATM    7  C5  UNL     1     -13.634  26.688   0.000  1.00  0.00     0.145 C
BRANCH   7   8
HETATM    8  C6  UNL     1     -14.320  25.333  -0.142  1.00  0.00     0.139 C
HETATM    9  C7  UNL     1     -14.472  24.917  -1.570  1.00  0.00     0.038 C
HETATM   10  C8  UNL     1     -15.687  23.997  -1.757  1.00  0.00     0.046 C
HETATM   11  C9  UNL     1     -15.410  22.692  -1.110  1.00  0.00    -0.000 A
HETATM   12  C10 UNL     1     -14.845  22.451   0.119  1.00  0.00     0.065 A
HETATM   13  C12 UNL     1     -15.792  21.641  -1.909  1.00  0.00     0.097 A
HETATM   14  N2  UNL     1     -14.681  21.177   0.508  1.00  0.00    -0.261 N
HETATM   15  C21 UNL     1     -14.367  23.440   1.126  1.00  0.00     0.227 C
HETATM   16  O1  UNL     1     -15.039  20.184  -0.240  1.00  0.00    -0.218 OA
ATOM     17  H2  UNL     1     -14.263  20.986   1.419  1.00  0.00     0.194 HD
HETATM   18  C11 UNL     1     -15.579  20.366  -1.415  1.00  0.00     0.191 A
HETATM   19  O5  UNL     1     -13.536  24.400   0.518  1.00  0.00    -0.378 OA
BRANCH  18  20
HETATM   20  N3  UNL     1     -15.922  19.370  -2.130  1.00  0.00    -0.376 N
ATOM     21  H32 UNL     1     -15.402  19.182  -2.987  1.00  0.00     0.158 HD
ATOM     22  H31 UNL     1     -16.701  18.774  -1.849  1.00  0.00     0.158 HD
ENDBRANCH  18  20
BRANCH  13  23
HETATM   23  N4  UNL     1     -16.374  21.883  -3.172  1.00  0.00    -0.317 N
HETATM   24  C13 UNL     1     -15.614  21.697  -4.374  1.00  0.00     0.276 C
HETATM   25  O2  UNL     1     -14.432  21.314  -4.232  1.00  0.00    -0.266 OA
ATOM     26  H4  UNL     1     -17.344  22.193  -3.230  1.00  0.00     0.169 HD
BRANCH  24  27
HETATM   27  C14 UNL     1     -16.206  21.945  -5.665  1.00  0.00     0.145 A
HETATM   28  N5  UNL     1     -17.195  21.219  -6.216  1.00  0.00    -0.271 N
HETATM   29  N6  UNL     1     -17.505  21.721  -7.406  1.00  0.00    -0.173 N
ATOM     30  H5  UNL     1     -17.640  20.408  -5.785  1.00  0.00     0.189 HD
HETATM   31  N10 UNL     1     -16.734  22.745  -7.616  1.00  0.00    -0.276 N
HETATM   32  C17 UNL     1     -15.900  22.931  -6.558  1.00  0.00     0.095 A
ATOM     33  H10 UNL     1     -16.751  23.327  -8.453  1.00  0.00     0.189 HD
BRANCH  29  34
HETATM   34  C15 UNL     1     -18.496  21.259  -8.327  1.00  0.00     0.212 A
HETATM   35  N7  UNL     1     -19.689  21.797  -8.630  1.00  0.00    -0.219 N
HETATM   36  O3  UNL     1     -20.276  21.068  -9.513  1.00  0.00    -0.153 OA
ATOM     37  H7  UNL     1     -20.071  22.651  -8.222  1.00  0.00     0.198 HD
HETATM   38  N8  UNL     1     -19.565  20.051  -9.847  1.00  0.00    -0.222 N
HETATM   39  C16 UNL     1     -18.413  20.121  -9.120  1.00  0.00     0.171 A
ATOM     40  H8  UNL     1     -19.813  19.330 -10.524  1.00  0.00     0.198 HD
BRANCH  39  41
HETATM   41  N9  UNL     1     -17.452  19.278  -9.179  1.00  0.00    -0.381 N
ATOM     42  H92 UNL     1     -16.547  19.384  -8.721  1.00  0.00     0.157 HD
ATOM     43  H91 UNL     1     -17.433  18.389  -9.679  1.00  0.00     0.157 HD
ENDBRANCH  39  41
ENDBRANCH  29  34
BRANCH  32  44
HETATM   44  C18 UNL     1     -14.905  24.003  -6.492  1.00  0.00     0.097 C
HETATM   45  C19 UNL     1     -13.518  23.376  -6.734  1.00  0.00     0.052 C
HETATM   46  C20 UNL     1     -14.843  24.745  -5.204  1.00  0.00     0.052 C
BRANCH  44  47
HETATM   47  O4  UNL     1     -15.166  24.883  -7.550  1.00  0.00    -0.384 OA
ATOM     48  H4  UNL     1     -14.364  25.360  -7.728  1.00  0.00     0.211 HD
ENDBRANCH  44  47
ENDBRANCH  32  44
ENDBRANCH  24  27
ENDBRANCH  13  23
ENDBRANCH   7   8
ENDBRANCH   5   7
ENDBRANCH   4   5
ENDBRANCH   3   4
TORSDOF 11
ENDMDL