MODEL 4
REMARK VINA RESULT: -7.833881998      2.563      4.024
REMARK  9 active torsions:
REMARK  status: ('A' for Active; 'I' for Inactive)
REMARK    1  A    between atoms: C1_4  and  C2_5
REMARK    2  A    between atoms: C1_4  and  N12_35
REMARK    3  A    between atoms: C2_5  and  S1_6
REMARK    4  A    between atoms: S1_6  and  C3_7
REMARK    5  A    between atoms: C4_8  and  C5_9
REMARK    6  A    between atoms: C5_9  and  C6_10
REMARK    7  A    between atoms: N7_24  and  C8_25
REMARK    8  A    between atoms: C8_25  and  C9_26
REMARK    9  A    between atoms: N12_35  and  C10_37
ROOT
HETATM    1  C3  UNL     1     -14.382  26.708  -0.193  1.00  0.00     0.114 A
HETATM    2  C4  UNL     1     -15.672  26.903  -0.618  1.00  0.00     0.068 A
HETATM    3  N5  UNL     1     -16.435  26.030   0.109  1.00  0.00    -0.287 N
ATOM      4  H5  UNL     1     -17.446  25.925   0.029  1.00  0.00     0.188 HD
HETATM    5  N6  UNL     1     -15.668  25.348   0.922  1.00  0.00    -0.239 N
ATOM      6  H6  UNL     1     -15.987  24.631   1.573  1.00  0.00     0.208 HD
HETATM    7  N7  UNL     1     -14.444  25.728   0.768  1.00  0.00    -0.262 N
ENDROOT
BRANCH   1   8
HETATM    8  S1  UNL     1     -12.879  27.451  -0.620  1.00  0.00    -0.101 SA
BRANCH   8   9
HETATM    9  C2  UNL     1     -12.325  27.525  -2.267  1.00  0.00     0.157 C
BRANCH   9  10
HETATM   10  C1  UNL     1     -11.803  26.319  -2.912  1.00  0.00     0.085 C
HETATM   11  N1  UNL     1     -10.644  25.805  -2.538  1.00  0.00    -0.388 N
ATOM     12  H12 UNL     1     -10.177  26.349  -1.811  1.00  0.00     0.157 HD
ATOM     13  H11 UNL     1     -10.280  24.965  -2.987  1.00  0.00     0.157 HD
BRANCH  10  14
HETATM   14  N12 UNL     1     -12.447  25.568  -3.916  1.00  0.00    -0.340 N
ATOM     15  H12 UNL     1     -12.381  25.850  -4.894  1.00  0.00     0.167 HD
BRANCH  14  16
HETATM   16  C10 UNL     1     -13.202  24.394  -3.545  1.00  0.00     0.076 A
HETATM   17  C11 UNL     1     -13.621  24.056  -2.283  1.00  0.00     0.055 A
HETATM   18  C12 UNL     1     -14.308  22.891  -2.148  1.00  0.00     0.049 A
HETATM   19  C13 UNL     1     -14.522  22.158  -3.271  1.00  0.00     0.018 A
HETATM   20  C15 UNL     1     -14.960  22.116  -1.057  1.00  0.00     0.253 A
HETATM   21  S3  UNL     1     -13.765  23.105  -4.497  1.00  0.00    -0.074 SA
HETATM   22  C14 UNL     1     -15.272  20.896  -3.001  1.00  0.00     0.170 A
HETATM   23  N13 UNL     1     -15.532  20.957  -1.594  1.00  0.00    -0.352 N
ATOM     24  H13 UNL     1     -16.054  20.261  -1.063  1.00  0.00     0.163 HD
HETATM   25  O1  UNL     1     -15.027  22.397   0.175  1.00  0.00    -0.268 OA
ENDBRANCH  14  16
ENDBRANCH  10  14
ENDBRANCH   9  10
ENDBRANCH   8   9
ENDBRANCH   1   8
BRANCH   2  26
HETATM   26  C5  UNL     1     -16.182  27.852  -1.642  1.00  0.00     0.128 C
BRANCH  26  27
HETATM   27  C6  UNL     1     -16.144  27.141  -2.966  1.00  0.00     0.075 A
HETATM   28  N2  UNL     1     -16.653  25.944  -3.233  1.00  0.00    -0.296 N
HETATM   29  N3  UNL     1     -16.551  25.458  -4.401  1.00  0.00    -0.279 N
ATOM     30  H2  UNL     1     -17.127  25.417  -2.501  1.00  0.00     0.187 HD
HETATM   31  C7  UNL     1     -15.926  26.166  -5.342  1.00  0.00     0.158 A
ATOM     32  H3  UNL     1     -16.940  24.540  -4.616  1.00  0.00     0.189 HD
HETATM   33  N4  UNL     1     -15.716  25.844  -6.597  1.00  0.00    -0.379 N
HETATM   34  S2  UNL     1     -15.485  27.579  -4.480  1.00  0.00    -0.038 SA
ATOM     35  H42 UNL     1     -15.978  25.003  -7.111  1.00  0.00     0.158 HD
ATOM     36  H41 UNL     1     -15.239  26.386  -7.317  1.00  0.00     0.158 HD
ENDBRANCH  26  27
ENDBRANCH   2  26
BRANCH   7  37
HETATM   37  C8  UNL     1     -13.321  25.152   1.524  1.00  0.00     0.230 C
BRANCH  37  38
HETATM   38  C9  UNL     1     -13.300  25.548   2.922  1.00  0.00     0.133 A
HETATM   39  N8  UNL     1     -13.110  24.739   4.008  1.00  0.00    -0.271 N
HETATM   40  N9  UNL     1     -13.167  25.465   5.100  1.00  0.00    -0.227 N
ATOM     41  H8  UNL     1     -12.951  23.733   3.975  1.00  0.00     0.190 HD
HETATM   42  N10 UNL     1     -13.384  26.713   4.781  1.00  0.00    -0.227 N
ATOM     43  H9  UNL     1     -13.060  25.110   6.050  1.00  0.00     0.210 HD
HETATM   44  N11 UNL     1     -13.467  26.778   3.433  1.00  0.00    -0.271 N
ATOM     45  H10 UNL     1     -13.474  27.496   5.429  1.00  0.00     0.210 HD
ATOM     46  H11 UNL     1     -13.631  27.626   2.890  1.00  0.00     0.190 HD
ENDBRANCH  37  38
ENDBRANCH   7  37
TORSDOF 9
ENDMDL