MODEL 5
REMARK VINA RESULT: -7.698859961      4.212      7.930
REMARK  10 active torsions:
REMARK  status: ('A' for Active; 'I' for Inactive)
REMARK    1  A    between atoms: C2_2  and  N1_4
REMARK    2  A    between atoms: N1_4  and  N2_6
REMARK       I    between atoms: N2_6  and  C4_8
REMARK       I    between atoms: C4_8  and  N3_10
REMARK    3  A    between atoms: N3_10  and  C5_11
REMARK    4  A    between atoms: C5_11  and  N4_12
REMARK    5  A    between atoms: C5_11  and  C6_15
REMARK    6  A    between atoms: C6_15  and  N5_16
REMARK    7  A    between atoms: C6_15  and  C12_27
REMARK       I    between atoms: N5_16  and  C7_18
REMARK    8  A    between atoms: C7_18  and  C8_20
REMARK       I    between atoms: C12_27  and  N7_29
REMARK    9  A    between atoms: C13_34  and  C14_35
REMARK   10  A    between atoms: C15_38  and  C16_39
ROOT
HETATM    1  C6  UNL     1     -15.507  23.027  -6.018  1.00  0.00     0.263 C
ENDROOT
BRANCH   1   2
HETATM    2  C5  UNL     1     -16.236  24.316  -6.213  1.00  0.00     0.187 C
BRANCH   2   3
HETATM    3  N3  UNL     1     -16.685  25.162  -5.267  1.00  0.00    -0.335 NA
HETATM    4  C4  UNL     1     -17.137  26.011  -4.316  1.00  0.00     0.414 C
HETATM    5  N2  UNL     1     -16.194  26.549  -3.314  1.00  0.00    -0.239 N
HETATM    6  O1  UNL     1     -18.315  26.472  -4.104  1.00  0.00    -0.228 OA
ATOM      7  H2  UNL     1     -15.209  26.285  -3.343  1.00  0.00     0.193 HD
BRANCH   5   8
HETATM    8  N1  UNL     1     -16.651  27.411  -2.340  1.00  0.00    -0.305 N
ATOM      9  H1  UNL     1     -17.559  27.853  -2.477  1.00  0.00     0.186 HD
BRANCH   8  10
HETATM   10  C2  UNL     1     -16.007  27.686  -1.282  1.00  0.00    -0.004 C
HETATM   11  C1  UNL     1     -15.333  26.591  -0.539  1.00  0.00     0.064 C
HETATM   12  C3  UNL     1     -15.912  29.057  -0.771  1.00  0.00     0.064 C
ENDBRANCH   8  10
ENDBRANCH   5   8
ENDBRANCH   2   3
BRANCH   2  13
HETATM   13  N4  UNL     1     -16.481  24.641  -7.473  1.00  0.00    -0.375 N
ATOM     14  H42 UNL     1     -16.391  23.878  -8.144  1.00  0.00     0.158 HD
ATOM     15  H41 UNL     1     -16.750  25.607  -7.657  1.00  0.00     0.158 HD
ENDBRANCH   2  13
ENDBRANCH   1   2
BRANCH   1  16
HETATM   16  N5  UNL     1     -14.707  22.721  -7.198  1.00  0.00    -0.335 N
HETATM   17  C7  UNL     1     -15.209  21.897  -8.242  1.00  0.00     0.269 C
HETATM   18  O2  UNL     1     -16.370  21.449  -8.113  1.00  0.00    -0.266 OA
ATOM     19  H5  UNL     1     -13.766  23.107  -7.276  1.00  0.00     0.164 HD
BRANCH  17  20
HETATM   20  C8  UNL     1     -14.366  21.593  -9.428  1.00  0.00     0.107 A
HETATM   21  C9  UNL     1     -13.187  22.282  -9.624  1.00  0.00     0.086 A
HETATM   22  S1  UNL     1     -12.628  21.600 -11.092  1.00  0.00    -0.087 SA
HETATM   23  C10 UNL     1     -13.903  20.502 -11.363  1.00  0.00     0.047 A
HETATM   24  C11 UNL     1     -14.104  19.529 -12.498  1.00  0.00     0.076 C
HETATM   25  N6  UNL     1     -14.686  20.711 -10.321  1.00  0.00    -0.349 N
ATOM     26  H6  UNL     1     -15.548  20.175 -10.219  1.00  0.00     0.166 HD
ENDBRANCH  17  20
ENDBRANCH   1  16
BRANCH   1  27
HETATM   27  C12 UNL     1     -14.579  23.028  -4.879  1.00  0.00     0.290 C
HETATM   28  O3  UNL     1     -13.338  23.124  -5.119  1.00  0.00    -0.267 OA
HETATM   29  N7  UNL     1     -15.011  22.917  -3.510  1.00  0.00    -0.142 N
HETATM   30  N8  UNL     1     -16.238  22.837  -3.065  1.00  0.00    -0.216 N
HETATM   31  N12 UNL     1     -14.210  22.820  -2.479  1.00  0.00    -0.256 N
HETATM   32  N9  UNL     1     -16.214  22.687  -1.731  1.00  0.00    -0.265 N
ATOM     33  H8  UNL     1     -17.080  22.883  -3.640  1.00  0.00     0.210 HD
HETATM   34  C13 UNL     1     -14.932  22.672  -1.340  1.00  0.00     0.182 A
ATOM     35  H9  UNL     1     -17.027  22.598  -1.122  1.00  0.00     0.190 HD
ATOM     36  H12 UNL     1     -13.191  22.852  -2.526  1.00  0.00     0.191 HD
BRANCH  34  37
HETATM   37  C14 UNL     1     -14.397  22.505   0.014  1.00  0.00     0.153 A
HETATM   38  N10 UNL     1     -13.941  23.460   0.830  1.00  0.00    -0.333 N
HETATM   39  C15 UNL     1     -13.501  22.951   1.999  1.00  0.00     0.127 A
ATOM     40  H10 UNL     1     -13.927  24.453   0.598  1.00  0.00     0.168 HD
HETATM   41  C17 UNL     1     -13.701  21.566   1.901  1.00  0.00     0.126 A
HETATM   42  N11 UNL     1     -14.246  21.355   0.678  1.00  0.00    -0.347 N
ATOM     43  H11 UNL     1     -14.507  20.439   0.313  1.00  0.00     0.167 HD
BRANCH  39  44
HETATM   44  C16 UNL     1     -12.929  23.643   3.137  1.00  0.00     0.228 C
HETATM   45  O4  UNL     1     -13.584  24.530   3.711  1.00  0.00    -0.643 OA
HETATM   46  O5  UNL     1     -11.672  23.312   3.562  1.00  0.00    -0.643 OA
ENDBRANCH  39  44
ENDBRANCH  34  37
ENDBRANCH   1  27
TORSDOF 10
ENDMDL