MODEL 1
REMARK VINA RESULT: -7.337717541      0.000      0.000
REMARK  12 active torsions:
REMARK  status: ('A' for Active; 'I' for Inactive)
REMARK    1  A    between atoms: C2_2  and  O1_3
REMARK    2  A    between atoms: O1_3  and  C3_4
REMARK    3  A    between atoms: C3_4  and  C4_6
REMARK    4  A    between atoms: N2_9  and  C5_10
REMARK    5  A    between atoms: C9_23  and  N7_24
REMARK    6  A    between atoms: C11_31  and  C12_32
REMARK    7  A    between atoms: C12_32  and  S1_33
REMARK    8  A    between atoms: S1_33  and  C13_34
REMARK    9  A    between atoms: C15_36  and  N10_37
REMARK   10  A    between atoms: N10_37  and  C16_39
REMARK   11  A    between atoms: C16_39  and  C17_40
REMARK   12  A    between atoms: C17_40  and  N11_41
ROOT
HETATM    1  C4  UNL     1     -15.227  21.757  -1.185  1.00  0.00     0.132 A
HETATM    2  N1  UNL     1     -14.364  21.818  -2.217  1.00  0.00    -0.273 N
ATOM      3  H1  UNL     1     -13.566  21.193  -2.336  1.00  0.00     0.188 HD
HETATM    4  N2  UNL     1     -14.680  22.789  -3.058  1.00  0.00    -0.087 N
HETATM    5  C11 UNL     1     -15.787  23.419  -2.601  1.00  0.00     0.070 A
HETATM    6  C18 UNL     1     -16.131  22.757  -1.410  1.00  0.00    -0.002 A
HETATM    7  C19 UNL     1     -17.311  23.132  -0.616  1.00  0.00     0.053 C
ENDROOT
BRANCH   4   8
HETATM    8  C5  UNL     1     -13.953  23.013  -4.266  1.00  0.00     0.720 C
HETATM    9  N3  UNL     1     -13.990  22.089  -5.251  1.00  0.00    -0.129 N
HETATM   10  N4  UNL     1     -14.099  22.386  -6.557  1.00  0.00    -0.269 N
ATOM     11  H3  UNL     1     -13.931  21.106  -4.987  1.00  0.00     0.205 HD
HETATM   12  C6  UNL     1     -14.034  23.557  -7.220  1.00  0.00     0.155 A
ATOM     13  H4  UNL     1     -14.261  21.577  -7.156  1.00  0.00     0.189 HD
HETATM   14  C7  UNL     1     -13.731  24.820  -6.722  1.00  0.00     0.100 A
HETATM   15  N9  UNL     1     -14.262  23.693  -8.540  1.00  0.00    -0.278 N
HETATM   16  C8  UNL     1     -13.447  25.113  -5.414  1.00  0.00     0.132 C
HETATM   17  C9  UNL     1     -13.782  25.702  -7.762  1.00  0.00     0.131 A
HETATM   18  N5  UNL     1     -13.401  26.354  -5.105  1.00  0.00    -0.384 N
HETATM   19  N6  UNL     1     -13.252  24.184  -4.414  1.00  0.00    -0.173 N
ATOM     20  H52 UNL     1     -13.545  27.041  -5.845  1.00  0.00     0.157 HD
ATOM     21  H51 UNL     1     -13.189  26.572  -4.131  1.00  0.00     0.157 HD
ATOM     22  H6  UNL     1     -12.527  24.385  -3.725  1.00  0.00     0.186 HD
HETATM   23  N8  UNL     1     -14.118  24.961  -8.881  1.00  0.00    -0.281 N
ATOM     24  H8  UNL     1     -14.236  25.335  -9.823  1.00  0.00     0.189 HD
HETATM   25  C10 UNL     1     -14.607  22.582  -9.417  1.00  0.00     0.179 C
BRANCH  17  26
HETATM   26  N7  UNL     1     -13.554  26.950  -7.778  1.00  0.00    -0.384 N
ATOM     27  H72 UNL     1     -12.625  27.362  -7.690  1.00  0.00     0.157 HD
ATOM     28  H71 UNL     1     -14.206  27.731  -7.855  1.00  0.00     0.157 HD
ENDBRANCH  17  26
ENDBRANCH   4   8
BRANCH   5  29
HETATM   29  C12 UNL     1     -16.461  24.524  -3.296  1.00  0.00     0.141 C
BRANCH  29  30
HETATM   30  S1  UNL     1     -16.117  26.161  -2.721  1.00  0.00    -0.105 SA
BRANCH  30  31
HETATM   31  C13 UNL     1     -14.957  26.276  -1.413  1.00  0.00     0.088 A
HETATM   32  C14 UNL     1     -15.337  26.166  -0.065  1.00  0.00     0.087 A
HETATM   33  C15 UNL     1     -14.168  26.268   0.648  1.00  0.00     0.118 A
HETATM   34  N12 UNL     1     -13.160  26.428  -0.222  1.00  0.00    -0.285 N
HETATM   35  N13 UNL     1     -13.632  26.434  -1.454  1.00  0.00    -0.293 N
ATOM     36  H12 UNL     1     -12.178  26.530   0.031  1.00  0.00     0.188 HD
ATOM     37  H13 UNL     1     -13.075  26.541  -2.301  1.00  0.00     0.187 HD
BRANCH  33  38
HETATM   38  N10 UNL     1     -14.037  26.226   1.906  1.00  0.00    -0.374 N
ATOM     39  H10 UNL     1     -14.594  25.543   2.420  1.00  0.00     0.161 HD
BRANCH  38  40
HETATM   40  C16 UNL     1     -13.151  27.083   2.667  1.00  0.00     0.148 C
BRANCH  40  41
HETATM   41  C17 UNL     1     -12.739  26.274   3.878  1.00  0.00     0.249 C
BRANCH  41  42
HETATM   42  N11 UNL     1     -13.542  26.603   5.020  1.00  0.00    -0.078 N
ATOM     43 3H11 UNL     1     -13.030  27.184   5.683  1.00  0.00     0.274 HD
ATOM     44 2H11 UNL     1     -14.286  27.259   4.779  1.00  0.00     0.274 HD
ATOM     45 1H11 UNL     1     -13.913  25.763   5.465  1.00  0.00     0.274 HD
ENDBRANCH  41  42
ENDBRANCH  40  41
ENDBRANCH  38  40
ENDBRANCH  33  38
ENDBRANCH  30  31
ENDBRANCH  29  30
ENDBRANCH   5  29
BRANCH   1  46
HETATM   46  C3  UNL     1     -15.195  20.833  -0.068  1.00  0.00     0.312 C
HETATM   47  O2  UNL     1     -15.779  19.736  -0.013  1.00  0.00    -0.258 OA
BRANCH  46  48
HETATM   48  O1  UNL     1     -14.449  21.150   1.094  1.00  0.00    -0.317 OA
BRANCH  48  49
HETATM   49  C2  UNL     1     -14.434  22.404   1.699  1.00  0.00     0.175 C
HETATM   50  C1  UNL     1     -13.173  22.754   2.426  1.00  0.00     0.034 C
ENDBRANCH  48  49
ENDBRANCH  46  48
ENDBRANCH   1  46
TORSDOF 12
ENDMDL