MODEL 3
REMARK VINA RESULT: -7.237542504      2.994      7.729
REMARK  12 active torsions:
REMARK  status: ('A' for Active; 'I' for Inactive)
REMARK    1  A    between atoms: O1_2  and  C2_3
REMARK    2  A    between atoms: C4_5  and  C5_6
REMARK    3  A    between atoms: N1_7  and  N2_9
REMARK    4  A    between atoms: N2_9  and  C6_11
REMARK    5  A    between atoms: C7_14  and  N4_15
REMARK    6  A    between atoms: C8_20  and  N6_21
REMARK    7  A    between atoms: C12_28  and  N8_29
REMARK       I    between atoms: N8_29  and  C13_31
REMARK    8  A    between atoms: C13_31  and  C14_33
REMARK    9  A    between atoms: C14_33  and  S1_34
REMARK   10  A    between atoms: S1_34  and  C15_35
REMARK   11  A    between atoms: C18_41  and  O5_42
REMARK   12  A    between atoms: C20_44  and  O6_45
ROOT
HETATM    1  C6  UNL     1     -14.314  22.435  -3.405  1.00  0.00     0.170 C
HETATM    2  N3  UNL     1     -14.702  21.179  -3.171  1.00  0.00    -0.173 N
ATOM      3  H3  UNL     1     -14.495  20.493  -3.897  1.00  0.00     0.186 HD
HETATM    4  C7  UNL     1     -15.339  20.728  -2.074  1.00  0.00     0.679 C
HETATM    5  N5  UNL     1     -15.662  21.334  -0.919  1.00  0.00    -0.176 N
ATOM      6  H5  UNL     1     -16.291  20.824  -0.299  1.00  0.00     0.186 HD
HETATM    7  C8  UNL     1     -15.246  22.548  -0.485  1.00  0.00     0.129 C
HETATM    8  C9  UNL     1     -14.490  23.481  -1.165  1.00  0.00     0.071 A
HETATM    9  C10 UNL     1     -13.993  24.667  -0.668  1.00  0.00     0.112 A
HETATM   10  C11 UNL     1     -14.181  25.146   0.670  1.00  0.00     0.105 C
HETATM   11  N7  UNL     1     -14.321  25.549   1.745  1.00  0.00    -0.191 NA
HETATM   12  C12 UNL     1     -13.288  25.315  -1.671  1.00  0.00     0.172 A
HETATM   13  O4  UNL     1     -13.366  24.535  -2.721  1.00  0.00    -0.287 OA
HETATM   14  C16 UNL     1     -14.059  23.449  -2.482  1.00  0.00     0.139 A
ENDROOT
BRANCH  12  15
HETATM   15  N8  UNL     1     -12.625  26.573  -1.541  1.00  0.00    -0.305 N
HETATM   16  C13 UNL     1     -11.238  26.710  -1.772  1.00  0.00     0.233 C
HETATM   17  O2  UNL     1     -10.583  25.701  -2.096  1.00  0.00    -0.272 OA
ATOM     18  H8  UNL     1     -13.168  27.395  -1.274  1.00  0.00     0.171 HD
BRANCH  16  19
HETATM   19  C14 UNL     1     -10.582  28.018  -1.631  1.00  0.00     0.186 C
BRANCH  19  20
HETATM   20  S1  UNL     1     -10.284  28.355   0.110  1.00  0.00    -0.063 SA
BRANCH  20  21
HETATM   21  C15 UNL     1     -10.021  26.891   1.057  1.00  0.00     0.293 C
HETATM   22  N9  UNL     1      -8.768  26.224   0.989  1.00  0.00    -0.051 NA
HETATM   23  O3  UNL     1     -10.914  26.412   1.798  1.00  0.00    -0.264 OA
ENDBRANCH  20  21
ENDBRANCH  19  20
ENDBRANCH  16  19
ENDBRANCH  12  15
BRANCH   7  24
HETATM   24  N6  UNL     1     -15.587  22.882   0.692  1.00  0.00    -0.384 N
ATOM     25  H62 UNL     1     -16.589  22.998   0.837  1.00  0.00     0.157 HD
ATOM     26  H61 UNL     1     -14.835  23.001   1.371  1.00  0.00     0.157 HD
ENDBRANCH   7  24
BRANCH   1  27
HETATM   27  N2  UNL     1     -14.141  22.796  -4.609  1.00  0.00    -0.283 N
ATOM     28  H2  UNL     1     -13.667  23.690  -4.738  1.00  0.00     0.188 HD
BRANCH  27  29
HETATM   29  N1  UNL     1     -14.506  22.146  -5.760  1.00  0.00    -0.309 N
HETATM   30  C5  UNL     1     -15.616  22.263  -6.379  1.00  0.00     0.118 C
ATOM     31  H1  UNL     1     -13.821  21.504  -6.161  1.00  0.00     0.186 HD
BRANCH  30  32
HETATM   32  C4  UNL     1     -15.926  21.536  -7.598  1.00  0.00    -0.014 A
HETATM   33  C3  UNL     1     -17.195  20.963  -7.748  1.00  0.00     0.052 A
HETATM   34  C2  UNL     1     -17.506  20.270  -8.896  1.00  0.00     0.104 A
HETATM   35  C20 UNL     1     -16.581  20.137  -9.894  1.00  0.00     0.133 A
HETATM   36  C18 UNL     1     -15.324  20.698  -9.757  1.00  0.00     0.104 A
HETATM   37  C17 UNL     1     -15.008  21.393  -8.610  1.00  0.00     0.052 A
BRANCH  34  38
HETATM   38  O1  UNL     1     -18.774  19.687  -9.069  1.00  0.00    -0.353 OA
HETATM   39  C1  UNL     1     -19.800  20.468  -9.644  1.00  0.00     0.210 C
ENDBRANCH  34  38
BRANCH  35  40
HETATM   40  O6  UNL     1     -16.858  19.436 -11.082  1.00  0.00    -0.356 OA
ATOM     41  H6  UNL     1     -17.032  19.882 -11.903  1.00  0.00     0.218 HD
ENDBRANCH  35  40
BRANCH  36  42
HETATM   42  O5  UNL     1     -14.403  20.545 -10.792  1.00  0.00    -0.353 OA
HETATM   43  C19 UNL     1     -13.227  21.324 -10.887  1.00  0.00     0.210 C
ENDBRANCH  36  42
ENDBRANCH  30  32
ENDBRANCH  27  29
ENDBRANCH   1  27
BRANCH   4  44
HETATM   44  N4  UNL     1     -15.697  19.480  -2.165  1.00  0.00    -0.234 N
ATOM     45  H42 UNL     1     -14.931  18.814  -2.264  1.00  0.00     0.174 HD
ATOM     46  H41 UNL     1     -16.708  19.347  -2.126  1.00  0.00     0.174 HD
ENDBRANCH   4  44
TORSDOF 12
ENDMDL