MODEL 2
REMARK VINA RESULT: -7.290717566      2.718      4.413
REMARK  9 active torsions:
REMARK  status: ('A' for Active; 'I' for Inactive)
REMARK    1  A    between atoms: C3_7  and  S1_8
REMARK    2  A    between atoms: S1_8  and  C4_9
REMARK    3  A    between atoms: C4_9  and  C5_10
REMARK    4  A    between atoms: C6_11  and  C7_12
REMARK    5  A    between atoms: C8_16  and  C9_17
REMARK    6  A    between atoms: C10_20  and  S2_21
REMARK    7  A    between atoms: S2_21  and  S3_22
REMARK    8  A    between atoms: S3_22  and  C11_23
REMARK    9  A    between atoms: N6_28  and  O5_29
ROOT
HETATM    1  C5  UNL     1     -15.376  23.167  -3.349  1.00  0.00     0.025 C
HETATM    2  C6  UNL     1     -14.395  23.445  -2.519  1.00  0.00     0.128 C
HETATM    3  N3  UNL     1     -14.443  22.716  -1.286  1.00  0.00    -0.302 N
HETATM    4  C8  UNL     1     -14.347  23.130   0.057  1.00  0.00     0.150 C
HETATM    5  C10 UNL     1     -14.125  22.226   1.015  1.00  0.00     0.127 C
HETATM    6  N7  UNL     1     -14.118  20.870   0.605  1.00  0.00    -0.292 N
ATOM      7  H7  UNL     1     -13.530  20.186   1.082  1.00  0.00     0.183 HD
HETATM    8  N8  UNL     1     -14.948  20.482  -0.489  1.00  0.00    -0.103 NA
HETATM    9  C12 UNL     1     -14.673  21.292  -1.608  1.00  0.00     0.272 C
HETATM   10  S4  UNL     1     -16.193  21.690  -2.597  1.00  0.00    -0.086 SA
ENDROOT
BRANCH   1  11
HETATM   11  C4  UNL     1     -15.824  23.666  -4.630  1.00  0.00     0.130 C
BRANCH  11  12
HETATM   12  S1  UNL     1     -16.234  22.285  -5.776  1.00  0.00    -0.098 SA
BRANCH  12  13
HETATM   13  C3  UNL     1     -15.009  22.171  -7.083  1.00  0.00     0.128 A
HETATM   14  N2  UNL     1     -13.749  22.593  -7.093  1.00  0.00    -0.287 N
HETATM   15  N1  UNL     1     -13.031  22.427  -8.115  1.00  0.00    -0.297 N
ATOM     16  H2  UNL     1     -13.362  23.053  -6.269  1.00  0.00     0.188 HD
HETATM   17  C2  UNL     1     -13.537  21.826  -9.186  1.00  0.00     0.065 A
ATOM     18  H1  UNL     1     -12.064  22.753  -8.120  1.00  0.00     0.187 HD
HETATM   19  C1  UNL     1     -12.839  21.541 -10.493  1.00  0.00     0.078 C
HETATM   20  S5  UNL     1     -15.129  21.496  -8.665  1.00  0.00    -0.050 SA
ENDBRANCH  12  13
ENDBRANCH  11  12
ENDBRANCH   1  11
BRANCH   2  21
HETATM   21  C7  UNL     1     -13.378  24.465  -2.733  1.00  0.00     0.228 C
HETATM   22  O1  UNL     1     -12.133  24.219  -2.899  1.00  0.00    -0.643 OA
HETATM   23  O2  UNL     1     -13.777  25.817  -2.762  1.00  0.00    -0.643 OA
ENDBRANCH   2  21
BRANCH   4  24
HETATM   24  C9  UNL     1     -14.515  24.514   0.480  1.00  0.00     0.230 C
HETATM   25  O3  UNL     1     -15.682  24.882   0.843  1.00  0.00    -0.643 OA
HETATM   26  O4  UNL     1     -13.546  25.466   0.516  1.00  0.00    -0.643 OA
ENDBRANCH   4  24
BRANCH   5  27
HETATM   27  S2  UNL     1     -13.979  22.677   2.718  1.00  0.00    -0.028 SA
BRANCH  27  28
HETATM   28  S3  UNL     1     -12.186  23.727   3.112  1.00  0.00    -0.009 SA
BRANCH  28  29
HETATM   29  C11 UNL     1     -12.578  25.220   4.013  1.00  0.00     0.218 A
HETATM   30  N4  UNL     1     -12.050  26.456   4.160  1.00  0.00    -0.259 N
HETATM   31  N5  UNL     1     -13.031  26.807   4.994  1.00  0.00    -0.212 N
ATOM     32  H4  UNL     1     -11.229  26.929   3.783  1.00  0.00     0.191 HD
HETATM   33  N6  UNL     1     -13.545  25.602   4.850  1.00  0.00    -0.122 N
ATOM     34  H5  UNL     1     -13.277  27.648   5.518  1.00  0.00     0.211 HD
BRANCH  33  35
HETATM   35  O5  UNL     1     -14.670  25.000   5.386  1.00  0.00    -0.265 OA
ATOM     36  H5  UNL     1     -15.491  24.677   5.034  1.00  0.00     0.247 HD
ENDBRANCH  33  35
ENDBRANCH  28  29
ENDBRANCH  27  28
ENDBRANCH   5  27
TORSDOF 9
ENDMDL