MODEL 3
REMARK VINA RESULT: -5.460191992      3.695      5.657
REMARK  7 active torsions:
REMARK  status: ('A' for Active; 'I' for Inactive)
REMARK    1  A    between atoms: C2_2  and  C3_3
REMARK    2  A    between atoms: C3_3  and  O1_4
REMARK    3  A    between atoms: O1_4  and  C4_5
REMARK    4  A    between atoms: C6_10  and  C7_11
REMARK    5  A    between atoms: C9_13  and  C10_14
REMARK    6  A    between atoms: C10_14  and  O2_15
REMARK    7  A    between atoms: C10_14  and  O3_17
ROOT
HETATM    1  C4  UNL     1      48.303  15.317   1.798  1.00  0.00     0.285 C
HETATM    2  C5  UNL     1      47.638  16.400   2.597  1.00  0.00     0.293 C
HETATM    3  N1  UNL     1      46.525  15.831   3.310  1.00  0.00    -0.064 N
ATOM      4  H11 UNL     1      46.131  16.456   4.013  1.00  0.00     0.277 HD
ATOM      5  H12 UNL     1      46.792  15.080   3.947  1.00  0.00     0.277 HD
HETATM    6  C6  UNL     1      45.554  15.414   2.286  1.00  0.00     0.219 C
HETATM    7  C9  UNL     1      46.197  14.342   1.478  1.00  0.00     0.209 C
HETATM    8  O4  UNL     1      47.544  14.207   1.578  1.00  0.00    -0.347 OA
ENDROOT
BRANCH   7   9
HETATM    9  C10 UNL     1      45.782  14.400   0.009  1.00  0.00     0.284 C
BRANCH   9  10
HETATM   10  O2  UNL     1      45.394  15.689  -0.348  1.00  0.00    -0.369 OA
ATOM     11  H2  UNL     1      44.601  15.671  -0.872  1.00  0.00     0.212 HD
ENDBRANCH   9  10
BRANCH   9  12
HETATM   12  O3  UNL     1      44.690  13.562  -0.187  1.00  0.00    -0.369 OA
ATOM     13  H3  UNL     1      43.916  14.092  -0.343  1.00  0.00     0.212 HD
ENDBRANCH   9  12
ENDBRANCH   7   9
BRANCH   6  14
HETATM   14  C7  UNL     1      44.356  14.902   3.063  1.00  0.00     0.031 C
HETATM   15  C8  UNL     1      43.076  15.580   2.675  1.00  0.00     0.007 C
ENDBRANCH   6  14
BRANCH   1  16
HETATM   16  O1  UNL     1      49.493  14.878   2.408  1.00  0.00    -0.360 OA
BRANCH  16  17
HETATM   17  C3  UNL     1      50.257  15.927   2.887  1.00  0.00     0.170 C
BRANCH  17  18
HETATM   18  C2  UNL     1      51.350  16.219   1.888  1.00  0.00     0.022 C
HETATM   19  C1  UNL     1      52.187  17.392   2.331  1.00  0.00     0.007 C
ENDBRANCH  17  18
ENDBRANCH  16  17
ENDBRANCH   1  16
TORSDOF 7
ENDMDL