MODEL 5
REMARK VINA RESULT: -5.141353472      1.107      1.174
REMARK  7 active torsions:
REMARK  status: ('A' for Active; 'I' for Inactive)
REMARK    1  A    between atoms: C2_2  and  C4_4
REMARK    2  A    between atoms: C4_4  and  C5_5
REMARK    3  A    between atoms: C5_5  and  O1_6
REMARK    4  A    between atoms: C5_5  and  C6_8
REMARK    5  A    between atoms: C6_8  and  C8_10
REMARK    6  A    between atoms: C8_10  and  O2_11
REMARK    7  A    between atoms: C8_10  and  C9_13
ROOT
HETATM    1  C6  UNL     1      43.964  16.924   1.609  1.00  0.00     0.042 C
HETATM    2  C7  UNL     1      42.949  15.911   1.946  1.00  0.00     0.015 C
ENDROOT
BRANCH   1   3
HETATM    3  C5  UNL     1      45.255  16.360   1.115  1.00  0.00     0.124 C
BRANCH   3   4
HETATM    4  C4  UNL     1      45.636  15.190   1.973  1.00  0.00     0.036 C
BRANCH   4   5
HETATM    5  C2  UNL     1      46.329  14.072   1.230  1.00  0.00    -0.020 C
HETATM    6  C1  UNL     1      45.548  12.798   1.423  1.00  0.00     0.009 C
HETATM    7  C3  UNL     1      47.678  13.871   1.906  1.00  0.00     0.009 C
ENDBRANCH   4   5
ENDBRANCH   3   4
BRANCH   3   8
HETATM    8  O1  UNL     1      45.224  15.964  -0.220  1.00  0.00    -0.395 OA
ATOM      9  H1  UNL     1      44.524  15.334  -0.345  1.00  0.00     0.210 HD
ENDBRANCH   3   8
ENDBRANCH   1   3
BRANCH   1  10
HETATM   10  C8  UNL     1      43.386  17.948   0.655  1.00  0.00     0.165 C
BRANCH  10  11
HETATM   11  O2  UNL     1      43.991  19.201   0.885  1.00  0.00    -0.392 OA
ATOM     12  H2  UNL     1      43.676  19.560   1.705  1.00  0.00     0.210 HD
ENDBRANCH  10  11
BRANCH  10  13
HETATM   13  C9  UNL     1      41.932  18.160   1.007  1.00  0.00     0.278 C
HETATM   14  N1  UNL     1      41.523  19.567   0.885  1.00  0.00    -0.051 N
HETATM   15  C10 UNL     1      41.144  19.416  -0.490  1.00  0.00     0.309 C
ATOM     16  H12 UNL     1      40.839  19.937   1.544  1.00  0.00     0.279 HD
ATOM     17  H11 UNL     1      42.194  20.296   1.130  1.00  0.00     0.279 HD
HETATM   18  S1  UNL     1      40.733  17.682  -0.268  1.00  0.00    -0.106 SA
ENDBRANCH  10  13
ENDBRANCH   1  10
TORSDOF 7
ENDMDL