MODEL 3
REMARK VINA RESULT: -6.024311923      7.401      8.822
REMARK  8 active torsions:
REMARK  status: ('A' for Active; 'I' for Inactive)
REMARK    1  A    between atoms: C2_2  and  C3_3
REMARK    2  A    between atoms: C3_3  and  C4_4
REMARK    3  A    between atoms: C4_4  and  C5_5
REMARK    4  A    between atoms: C5_5  and  O1_6
REMARK    5  A    between atoms: O1_6  and  C6_7
REMARK    6  A    between atoms: C9_10  and  O2_11
REMARK    7  A    between atoms: C10_13  and  O3_14
REMARK    8  A    between atoms: C11_16  and  O4_17
ROOT
HETATM    1  C6  UNL     1      47.984  15.404   3.049  1.00  0.00     0.152 C
HETATM    2  C7  UNL     1      48.002  14.515   1.845  1.00  0.00     0.037 C
HETATM    3  C8  UNL     1      49.381  13.838   1.859  1.00  0.00     0.037 C
HETATM    4  C9  UNL     1      50.317  14.877   1.255  1.00  0.00     0.149 C
HETATM    5  C10 UNL     1      49.948  16.271   1.711  1.00  0.00     0.178 C
HETATM    6  C11 UNL     1      49.234  16.263   3.041  1.00  0.00     0.178 C
ENDROOT
BRANCH   1   7
HETATM    7  O1  UNL     1      46.845  16.147   3.243  1.00  0.00    -0.383 OA
BRANCH   7   8
HETATM    8  C5  UNL     1      45.919  16.160   2.259  1.00  0.00     0.168 C
BRANCH   8   9
HETATM    9  C4  UNL     1      44.543  15.692   2.643  1.00  0.00     0.026 C
BRANCH   9  10
HETATM   10  C3  UNL     1      43.419  16.355   1.919  1.00  0.00     0.002 C
BRANCH  10  11
HETATM   11  C2  UNL     1      44.012  17.450   1.051  1.00  0.00    -0.004 C
HETATM   12  C1  UNL     1      42.976  18.481   0.679  1.00  0.00     0.005 C
ENDBRANCH  10  11
ENDBRANCH   9  10
ENDBRANCH   8   9
ENDBRANCH   7   8
ENDBRANCH   1   7
BRANCH   6  13
HETATM   13  O4  UNL     1      48.910  17.588   3.341  1.00  0.00    -0.390 OA
ATOM     14  H4  UNL     1      49.031  18.136   2.576  1.00  0.00     0.210 HD
ENDBRANCH   6  13
BRANCH   5  15
HETATM   15  O3  UNL     1      51.144  16.962   1.901  1.00  0.00    -0.390 OA
ATOM     16  H3  UNL     1      51.018  17.525   2.656  1.00  0.00     0.210 HD
ENDBRANCH   5  15
BRANCH   4  17
HETATM   17  O2  UNL     1      51.649  14.600   1.533  1.00  0.00    -0.393 OA
ATOM     18  H2  UNL     1      52.239  15.102   0.982  1.00  0.00     0.210 HD
ENDBRANCH   4  17
TORSDOF 8
ENDMDL