MODEL 1
REMARK VINA RESULT: -5.710308233      0.000      0.000
REMARK  8 active torsions:
REMARK  status: ('A' for Active; 'I' for Inactive)
REMARK    1  A    between atoms: C2_2  and  C3_3
REMARK    2  A    between atoms: C3_3  and  C4_4
REMARK    3  A    between atoms: C4_4  and  O1_5
REMARK    4  A    between atoms: C5_8  and  C6_9
REMARK    5  A    between atoms: C6_9  and  O3_10
REMARK    6  A    between atoms: C6_9  and  C7_12
REMARK    7  A    between atoms: C9_15  and  C10_16
REMARK    8  A    between atoms: C10_16  and  O5_17
ROOT
HETATM    1  C4  UNL     1      47.088  14.932   3.163  1.00  0.00     0.193 C
HETATM    2  O2  UNL     1      47.779  15.841   2.342  1.00  0.00    -0.320 OA
HETATM    3  C5  UNL     1      48.806  16.359   3.086  1.00  0.00     0.292 C
HETATM    4  O4  UNL     1      48.915  15.635   4.261  1.00  0.00    -0.346 OA
HETATM    5  C9  UNL     1      48.205  14.454   4.052  1.00  0.00     0.210 C
ENDROOT
BRANCH   1   6
HETATM    6  C3  UNL     1      46.533  13.843   2.277  1.00  0.00     0.071 C
BRANCH   6   7
HETATM    7  C2  UNL     1      46.582  14.392   0.846  1.00  0.00     0.001 C
HETATM    8  C1  UNL     1      45.323  14.015   0.108  1.00  0.00     0.005 C
ENDBRANCH   6   7
ENDBRANCH   1   6
BRANCH   1   9
HETATM    9  O1  UNL     1      46.108  15.557   3.910  1.00  0.00    -0.363 OA
ATOM     10  H1  UNL     1      46.084  16.496   3.767  1.00  0.00     0.213 HD
ENDBRANCH   1   9
BRANCH   5  11
HETATM   11  C10 UNL     1      47.718  13.962   5.391  1.00  0.00     0.201 C
BRANCH  11  12
HETATM   12  O5  UNL     1      48.178  14.866   6.351  1.00  0.00    -0.398 OA
ATOM     13  H5  UNL     1      48.002  14.481   7.202  1.00  0.00     0.209 HD
ENDBRANCH  11  12
ENDBRANCH   5  11
BRANCH   3  14
HETATM   14  C6  UNL     1      50.123  16.261   2.360  1.00  0.00     0.173 C
BRANCH  14  15
HETATM   15  O3  UNL     1      49.854  16.122   1.005  1.00  0.00    -0.391 OA
ATOM     16  H3  UNL     1      50.458  16.679   0.528  1.00  0.00     0.210 HD
ENDBRANCH  14  15
BRANCH  14  17
HETATM   17  C7  UNL     1      50.982  17.487   2.559  1.00  0.00     0.032 C
HETATM   18  C8  UNL     1      52.385  17.161   2.128  1.00  0.00     0.007 C
ENDBRANCH  14  17
ENDBRANCH   3  14
TORSDOF 8
ENDMDL