MODEL 2
REMARK VINA RESULT: -5.251142673      1.889      4.621
REMARK  7 active torsions:
REMARK  status: ('A' for Active; 'I' for Inactive)
REMARK    1  A    between atoms: C2_2  and  C3_3
REMARK    2  A    between atoms: C3_3  and  C4_4
REMARK    3  A    between atoms: C3_3  and  C9_18
REMARK    4  A    between atoms: C4_4  and  C5_5
REMARK    5  A    between atoms: C5_5  and  C6_6
REMARK    6  A    between atoms: N3_14  and  O1_16
REMARK    7  A    between atoms: C9_18  and  N4_21
ROOT
HETATM    1  C4  UNL     1      47.114  15.554   2.174  1.00  0.00     0.020 C
HETATM    2  N3  UNL     1      46.615  16.758   1.997  1.00  0.00    -0.275 N
ATOM      3  H3  UNL     1      47.204  17.570   1.816  1.00  0.00     0.193 HD
ENDROOT
BRANCH   1   4
HETATM    4  C3  UNL     1      46.265  14.388   2.435  1.00  0.00     0.068 C
BRANCH   4   5
HETATM    5  C2  UNL     1      46.123  13.401   1.341  1.00  0.00     0.008 C
HETATM    6  C1  UNL     1      45.272  13.698   0.188  1.00  0.00     0.006 C
ENDBRANCH   4   5
BRANCH   4   7
HETATM    7  C9  UNL     1      46.524  13.768   3.794  1.00  0.00     0.125 C
HETATM    8  C10 UNL     1      45.211  13.095   4.228  1.00  0.00     0.046 C
HETATM    9  C11 UNL     1      47.513  12.653   3.634  1.00  0.00     0.046 C
BRANCH   7  10
HETATM   10  N4  UNL     1      46.846  14.697   4.825  1.00  0.00    -0.070 N
ATOM     11  H43 UNL     1      47.616  14.343   5.392  1.00  0.00     0.275 HD
ATOM     12  H42 UNL     1      47.285  15.527   4.428  1.00  0.00     0.275 HD
ATOM     13  H41 UNL     1      46.062  14.964   5.422  1.00  0.00     0.275 HD
ENDBRANCH   7  10
ENDBRANCH   4   7
ENDBRANCH   1   4
BRANCH   1  14
HETATM   14  C5  UNL     1      48.602  15.488   2.085  1.00  0.00     0.117 C
BRANCH  14  15
HETATM   15  C6  UNL     1      49.255  16.721   2.662  1.00  0.00     0.391 C
HETATM   16  N1  UNL     1      49.768  16.630   3.993  1.00  0.00    -0.022 N
HETATM   17  C7  UNL     1      51.019  17.223   3.555  1.00  0.00     0.468 C
ATOM     18  H12 UNL     1      49.251  17.045   4.767  1.00  0.00     0.281 HD
ATOM     19  H11 UNL     1      49.772  15.731   4.476  1.00  0.00     0.281 HD
HETATM   20  N2  UNL     1      50.613  16.906   2.191  1.00  0.00    -0.022 N
ATOM     21  H22 UNL     1      51.084  16.165   1.671  1.00  0.00     0.281 HD
ATOM     22  H21 UNL     1      50.811  17.556   1.429  1.00  0.00     0.281 HD
ENDBRANCH  14  15
ENDBRANCH   1  14
BRANCH   2  23
HETATM   23  O1  UNL     1      45.249  16.846   2.072  1.00  0.00    -0.285 OA
HETATM   24  C8  UNL     1      44.419  17.249   1.030  1.00  0.00     0.237 C
ENDBRANCH   2  23
TORSDOF 7
ENDMDL