MODEL 5
REMARK VINA RESULT: -4.864120708      5.935      7.149
REMARK  6 active torsions:
REMARK  status: ('A' for Active; 'I' for Inactive)
REMARK    1  A    between atoms: C2_2  and  N1_3
REMARK    2  A    between atoms: C5_7  and  C6_8
REMARK    3  A    between atoms: C6_8  and  C7_9
REMARK    4  A    between atoms: C7_9  and  O2_10
REMARK    5  A    between atoms: C7_9  and  C8_12
REMARK    6  A    between atoms: C8_12  and  C9_13
ROOT
HETATM    1  N1  UNL     1      39.823  16.812   0.633  1.00  0.00     0.092 N
HETATM    2  C3  UNL     1      39.059  18.001   0.822  1.00  0.00     0.298 C
HETATM    3  C4  UNL     1      39.772  19.276   0.559  1.00  0.00     0.198 C
HETATM    4  O1  UNL     1      40.741  19.236  -0.419  1.00  0.00    -0.382 OA
HETATM    5  C5  UNL     1      41.633  18.189  -0.274  1.00  0.00     0.152 C
HETATM    6  C10 UNL     1      40.901  16.893  -0.293  1.00  0.00     0.304 C
ENDROOT
BRANCH   5   7
HETATM    7  C6  UNL     1      42.524  18.359   0.918  1.00  0.00     0.065 C
BRANCH   7   8
HETATM    8  C7  UNL     1      43.859  17.711   0.793  1.00  0.00     0.121 C
BRANCH   8   9
HETATM    9  O2  UNL     1      44.277  17.494  -0.509  1.00  0.00    -0.395 OA
ATOM     10  H2  UNL     1      44.342  18.278  -1.040  1.00  0.00     0.210 HD
ENDBRANCH   8   9
BRANCH   8  11
HETATM   11  C8  UNL     1      44.046  16.487   1.646  1.00  0.00     0.043 C
BRANCH  11  12
HETATM   12  C9  UNL     1      45.308  15.724   1.234  1.00  0.00     0.088 C
HETATM   13  S1  UNL     1      46.624  16.057   2.436  1.00  0.00    -0.098 SA
ENDBRANCH  11  12
ENDBRANCH   8  11
ENDBRANCH   7   8
ENDBRANCH   5   7
BRANCH   1  14
HETATM   14  C2  UNL     1      38.935  15.718   0.358  1.00  0.00     0.268 C
HETATM   15  C1  UNL     1      39.332  15.034  -0.954  1.00  0.00     0.037 C
ENDBRANCH   1  14
TORSDOF 6
ENDMDL