MODEL 2
REMARK VINA RESULT: -6.235565120      8.549      9.252
REMARK  7 active torsions:
REMARK  status: ('A' for Active; 'I' for Inactive)
REMARK    1  A    between atoms: C2_2  and  C3_3
REMARK    2  A    between atoms: C3_3  and  C4_4
REMARK    3  A    between atoms: C4_4  and  C5_5
REMARK    4  A    between atoms: C5_5  and  C6_6
REMARK    5  A    between atoms: C6_6  and  N1_7
REMARK    6  A    between atoms: C8_9  and  O1_10
REMARK    7  A    between atoms: C9_12  and  O2_13
ROOT
HETATM    1  N1  UNL     1      47.994  14.501   1.828  1.00  0.00    -0.311 N
HETATM    2  C7  UNL     1      49.368  14.069   1.731  1.00  0.00     0.178 C
HETATM    3  C8  UNL     1      50.367  15.165   1.600  1.00  0.00     0.173 C
HETATM    4  C9  UNL     1      50.446  16.078   2.809  1.00  0.00     0.216 C
HETATM    5  C10 UNL     1      49.292  17.020   2.837  1.00  0.00     0.122 C
HETATM    6  N2  UNL     1      49.503  18.078   3.521  1.00  0.00    -0.386 N
ATOM      7  H21 UNL     1      48.713  18.723   3.541  1.00  0.00     0.157 HD
ATOM      8  H22 UNL     1      50.417  18.168   3.965  1.00  0.00     0.157 HD
HETATM    9  N3  UNL     1      48.022  16.894   2.220  1.00  0.00    -0.273 N
ATOM     10  H3  UNL     1      47.481  17.751   2.100  1.00  0.00     0.190 HD
HETATM   11  N4  UNL     1      47.483  15.799   1.795  1.00  0.00    -0.243 N
ATOM     12  H4  UNL     1      46.557  15.897   1.379  1.00  0.00     0.208 HD
ENDROOT
BRANCH   1  13
HETATM   13  C6  UNL     1      47.045  13.437   1.984  1.00  0.00     0.144 C
BRANCH  13  14
HETATM   14  C5  UNL     1      45.859  13.567   1.077  1.00  0.00     0.021 C
BRANCH  14  15
HETATM   15  C4  UNL     1      44.567  13.726   1.850  1.00  0.00     0.002 C
BRANCH  15  16
HETATM   16  C3  UNL     1      43.698  14.813   1.285  1.00  0.00    -0.000 C
BRANCH  16  17
HETATM   17  C2  UNL     1      43.847  16.121   2.057  1.00  0.00    -0.005 C
HETATM   18  C1  UNL     1      44.230  17.202   1.034  1.00  0.00     0.005 C
ENDBRANCH  16  17
ENDBRANCH  15  16
ENDBRANCH  14  15
ENDBRANCH  13  14
ENDBRANCH   1  13
BRANCH   3  19
HETATM   19  O1  UNL     1      51.616  14.577   1.434  1.00  0.00    -0.391 OA
ATOM     20  H1  UNL     1      52.271  15.237   1.626  1.00  0.00     0.210 HD
ENDBRANCH   3  19
BRANCH   4  21
HETATM   21  O2  UNL     1      51.600  16.838   2.654  1.00  0.00    -0.385 OA
ATOM     22  H2  UNL     1      52.145  16.658   3.411  1.00  0.00     0.210 HD
ENDBRANCH   4  21
TORSDOF 7
ENDMDL