MODEL 5
REMARK VINA RESULT: -6.354937098      1.187      1.460
REMARK  5 active torsions:
REMARK  status: ('A' for Active; 'I' for Inactive)
REMARK    1  A    between atoms: C6_6  and  O1_7
REMARK    2  A    between atoms: O1_7  and  C7_8
REMARK    3  A    between atoms: C7_8  and  C8_9
REMARK    4  A    between atoms: C9_13  and  C10_14
REMARK    5  A    between atoms: C10_14  and  O2_15
ROOT
HETATM    1  C8  UNL     1      48.941  16.340   3.019  1.00  0.00     0.221 A
HETATM    2  N1  UNL     1      49.655  16.528   4.267  1.00  0.00    -0.112 NA
HETATM    3  N2  UNL     1      50.975  16.903   4.026  1.00  0.00    -0.289 N
ATOM      4  H2  UNL     1      51.672  17.120   4.737  1.00  0.00     0.183 HD
HETATM    5  C9  UNL     1      51.166  16.928   2.754  1.00  0.00     0.114 A
HETATM    6  N3  UNL     1      49.979  16.569   2.064  1.00  0.00    -0.355 N
ATOM      7  H3  UNL     1      49.882  16.489   1.051  1.00  0.00     0.162 HD
ENDROOT
BRANCH   1   8
HETATM    8  C7  UNL     1      48.379  14.915   2.932  1.00  0.00     0.212 C
BRANCH   8   9
HETATM    9  O1  UNL     1      47.970  14.746   1.621  1.00  0.00    -0.382 OA
BRANCH   9  10
HETATM   10  C6  UNL     1      46.892  13.868   1.496  1.00  0.00     0.121 C
HETATM   11  C5  UNL     1      45.954  14.364   0.458  1.00  0.00     0.032 C
HETATM   12  C4  UNL     1      44.938  15.350   0.908  1.00  0.00     0.003 C
HETATM   13  C3  UNL     1      44.917  15.575   2.398  1.00  0.00     0.004 C
HETATM   14  C2  UNL     1      44.942  14.207   3.045  1.00  0.00    -0.016 C
HETATM   15  C1  UNL     1      44.717  14.317   4.547  1.00  0.00     0.010 C
HETATM   16  C11 UNL     1      46.330  13.663   2.849  1.00  0.00     0.036 C
ENDBRANCH   9  10
ENDBRANCH   8   9
ENDBRANCH   1   8
BRANCH   5  17
HETATM   17  C10 UNL     1      52.457  17.284   2.052  1.00  0.00     0.241 C
BRANCH  17  18
HETATM   18  O2  UNL     1      52.473  18.648   1.819  1.00  0.00    -0.393 OA
ATOM     19  H2  UNL     1      52.535  18.795   0.882  1.00  0.00     0.209 HD
ENDBRANCH  17  18
ENDBRANCH   5  17
TORSDOF 5
ENDMDL