MODEL 4
REMARK VINA RESULT: -7.419584524      2.464      4.299
REMARK  8 active torsions:
REMARK  status: ('A' for Active; 'I' for Inactive)
REMARK    1  A    between atoms: O1_2  and  C2_3
REMARK    2  A    between atoms: C4_5  and  O2_6
REMARK    3  A    between atoms: C6_10  and  O3_11
REMARK    4  A    between atoms: O3_11  and  C7_12
REMARK    5  A    between atoms: C8_13  and  O4_14
REMARK    6  A    between atoms: C9_16  and  O5_17
REMARK    7  A    between atoms: C24_35  and  N3_36
REMARK    8  A    between atoms: N3_36  and  C26_38
ROOT
HETATM    1  C7  UNL     1      17.902   2.979   9.943  1.00  0.00     0.206 C
HETATM    2  C8  UNL     1      17.890   1.617  10.485  1.00  0.00     0.182 C
HETATM    3  C9  UNL     1      18.295   1.444  11.882  1.00  0.00     0.172 C
HETATM    4  C10 UNL     1      19.009   2.516  12.599  1.00  0.00     0.120 C
HETATM    5  C11 UNL     1      18.367   2.639  13.963  1.00  0.00     0.028 C
HETATM    6  C12 UNL     1      18.796   1.631  14.969  1.00  0.00     0.002 C
HETATM    7  C13 UNL     1      20.193   1.151  14.912  1.00  0.00     0.000 C
HETATM    8  C14 UNL     1      20.698   0.577  16.215  1.00  0.00     0.000 C
HETATM    9  C15 UNL     1      20.606   1.519  17.375  1.00  0.00     0.000 C
HETATM   10  C16 UNL     1      21.391   2.791  17.222  1.00  0.00     0.000 C
HETATM   11  C17 UNL     1      20.613   3.912  17.874  1.00  0.00     0.000 C
HETATM   12  C18 UNL     1      20.860   5.194  17.069  1.00  0.00     0.000 C
HETATM   13  C19 UNL     1      19.527   5.646  16.580  1.00  0.00     0.000 C
HETATM   14  C20 UNL     1      19.508   6.526  15.391  1.00  0.00     0.000 C
HETATM   15  C21 UNL     1      20.562   6.350  14.377  1.00  0.00     0.009 C
HETATM   16  C22 UNL     1      20.597   5.065  13.621  1.00  0.00     0.103 C
HETATM   17  C23 UNL     1      19.519   4.935  12.626  1.00  0.00     0.222 C
HETATM   18  O6  UNL     1      18.849   6.021  12.413  1.00  0.00    -0.273 OA
HETATM   19  N2  UNL     1      19.160   3.774  11.907  1.00  0.00    -0.321 N
HETATM   20  C24 UNL     1      18.947   3.895  10.470  1.00  0.00     0.224 C
ENDROOT
BRANCH   1  21
HETATM   21  O3  UNL     1      18.154   2.861   8.531  1.00  0.00    -0.310 OA
BRANCH  21  22
HETATM   22  C6  UNL     1      17.173   2.582   7.606  1.00  0.00     0.228 A
HETATM   23  N1  UNL     1      17.382   2.620   6.274  1.00  0.00    -0.302 N
HETATM   24  C4  UNL     1      16.405   2.340   5.382  1.00  0.00     0.148 A
ATOM     25  H1  UNL     1      18.309   2.867   5.927  1.00  0.00     0.171 HD
HETATM   26  C3  UNL     1      15.158   2.005   5.838  1.00  0.00     0.112 A
HETATM   27  C2  UNL     1      14.925   1.962   7.193  1.00  0.00     0.148 A
HETATM   28  N4  UNL     1      15.943   2.251   8.026  1.00  0.00    -0.302 N
ATOM     29  H4  UNL     1      15.769   2.216   9.030  1.00  0.00     0.171 HD
BRANCH  24  30
HETATM   30  O2  UNL     1      16.613   2.376   4.006  1.00  0.00    -0.341 OA
HETATM   31  C5  UNL     1      15.645   1.743   3.193  1.00  0.00     0.211 C
ENDBRANCH  24  30
BRANCH  27  32
HETATM   32  O1  UNL     1      13.661   1.622   7.660  1.00  0.00    -0.341 OA
HETATM   33  C1  UNL     1      12.602   1.619   6.722  1.00  0.00     0.211 C
ENDBRANCH  27  32
ENDBRANCH  21  22
ENDBRANCH   1  21
BRANCH   2  34
HETATM   34  O4  UNL     1      18.483   0.670   9.616  1.00  0.00    -0.390 OA
ATOM     35  H4  UNL     1      19.134   0.128  10.045  1.00  0.00     0.210 HD
ENDBRANCH   2  34
BRANCH  20  36
HETATM   36  N3  UNL     1      20.089   3.904   9.661  1.00  0.00    -0.304 N
HETATM   37  C25 UNL     1      21.151   3.016   9.858  1.00  0.00     0.154 C
BRANCH  36  38
HETATM   38  C26 UNL     1      20.275   4.929   8.706  1.00  0.00     0.483 C
HETATM   39  F1  UNL     1      21.334   5.735   9.182  1.00  0.00    -0.150 F
HETATM   40  F2  UNL     1      19.196   5.835   8.708  1.00  0.00    -0.150 F
HETATM   41  F3  UNL     1      20.609   4.555   7.446  1.00  0.00    -0.150 F
ENDBRANCH  36  38
ENDBRANCH  20  36
BRANCH   3  42
HETATM   42  O5  UNL     1      17.175   0.960  12.617  1.00  0.00    -0.391 OA
ATOM     43  H5  UNL     1      17.435   0.858  13.525  1.00  0.00     0.210 HD
ENDBRANCH   3  42
TORSDOF 8
ENDMDL