MODEL 2
REMARK VINA RESULT: -9.268497701      1.642      2.261
REMARK  9 active torsions:
REMARK  status: ('A' for Active; 'I' for Inactive)
REMARK    1  A    between atoms: O1_2  and  C2_3
REMARK    2  A    between atoms: C2_3  and  C3_4
REMARK    3  A    between atoms: C3_4  and  C4_5
REMARK    4  A    between atoms: C3_4  and  N2_18
REMARK       I    between atoms: N1_8  and  C7_9
REMARK    5  A    between atoms: C7_9  and  O3_11
REMARK    6  A    between atoms: O3_11  and  C8_12
REMARK    7  A    between atoms: C15_24  and  C16_25
REMARK    8  A    between atoms: N5_28  and  C19_29
REMARK    9  A    between atoms: C24_39  and  C25_40
ROOT
HETATM    1  N2  UNL     1      19.207   2.885  13.852  1.00  0.00    -0.272 N
HETATM    2  N3  UNL     1      19.876   3.911  14.355  1.00  0.00    -0.292 N
ATOM      3  H3  UNL     1      20.351   3.910  15.258  1.00  0.00     0.188 HD
HETATM    4  C14 UNL     1      19.840   4.950  13.510  1.00  0.00     0.199 A
HETATM    5  N4  UNL     1      19.131   4.564  12.452  1.00  0.00    -0.340 N
ATOM      6  H4  UNL     1      18.922   5.132  11.631  1.00  0.00     0.168 HD
HETATM    7  C15 UNL     1      18.733   3.274  12.659  1.00  0.00     0.104 A
ENDROOT
BRANCH   7   8
HETATM    8  C16 UNL     1      17.922   2.542  11.662  1.00  0.00     0.058 C
HETATM    9  C17 UNL     1      18.880   1.904  10.660  1.00  0.00     0.032 C
HETATM   10  C18 UNL     1      18.038   1.374   9.484  1.00  0.00     0.123 C
HETATM   11  N5  UNL     1      17.734   2.575   8.685  1.00  0.00    -0.380 N
HETATM   12  C26 UNL     1      17.585   3.779   9.514  1.00  0.00     0.123 C
HETATM   13  C27 UNL     1      17.025   3.479  10.865  1.00  0.00     0.032 C
BRANCH  11  14
HETATM   14  C19 UNL     1      17.646   2.585   7.288  1.00  0.00     0.056 A
HETATM   15  C20 UNL     1      18.817   2.884   6.564  1.00  0.00    -0.019 A
HETATM   16  C21 UNL     1      20.069   3.176   7.273  1.00  0.00     0.052 C
HETATM   17  C22 UNL     1      18.820   2.911   5.174  1.00  0.00     0.098 A
HETATM   18  N6  UNL     1      17.691   2.648   4.525  1.00  0.00    -0.351 N
HETATM   19  C23 UNL     1      16.579   2.363   5.200  1.00  0.00     0.116 A
ATOM     20  H6  UNL     1      17.677   2.663   3.506  1.00  0.00     0.166 HD
HETATM   21  N7  UNL     1      15.511   2.115   4.512  1.00  0.00    -0.385 N
HETATM   22  C24 UNL     1      16.517   2.322   6.600  1.00  0.00     0.118 A
ATOM     23  H72 UNL     1      15.557   2.145   3.493  1.00  0.00     0.157 HD
ATOM     24  H71 UNL     1      14.659   1.898   5.029  1.00  0.00     0.157 HD
BRANCH  22  25
HETATM   25  C25 UNL     1      15.244   1.973   7.242  1.00  0.00     0.423 C
HETATM   26  F1  UNL     1      15.265   1.961   8.616  1.00  0.00    -0.166 F
HETATM   27  F2  UNL     1      14.668   0.821   6.701  1.00  0.00    -0.166 F
HETATM   28  F3  UNL     1      14.299   2.985   6.929  1.00  0.00    -0.166 F
ENDBRANCH  22  25
ENDBRANCH  11  14
ENDBRANCH   7   8
BRANCH   1  29
HETATM   29  C3  UNL     1      19.005   1.587  14.433  1.00  0.00     0.137 C
BRANCH  29  30
HETATM   30  C2  UNL     1      20.310   0.898  14.763  1.00  0.00     0.194 C
BRANCH  30  31
HETATM   31  O1  UNL     1      20.213  -0.487  14.592  1.00  0.00    -0.394 OA
HETATM   32  C1  UNL     1      21.346  -1.049  15.172  1.00  0.00     0.201 C
ENDBRANCH  30  31
ENDBRANCH  29  30
BRANCH  29  33
HETATM   33  C4  UNL     1      18.199   1.704  15.679  1.00  0.00     0.016 C
HETATM   34  C5  UNL     1      17.426   0.501  16.081  1.00  0.00     0.027 C
HETATM   35  C6  UNL     1      17.286   0.557  17.610  1.00  0.00     0.128 C
HETATM   36  N1  UNL     1      16.903   1.934  17.916  1.00  0.00    -0.328 N
HETATM   37  C7  UNL     1      17.068   2.362  19.262  1.00  0.00     0.363 C
HETATM   38  C12 UNL     1      16.384   2.821  16.907  1.00  0.00     0.128 C
HETATM   39  O2  UNL     1      16.754   3.547  19.596  1.00  0.00    -0.238 OA
HETATM   40  C13 UNL     1      17.252   2.883  15.670  1.00  0.00     0.027 C
BRANCH  37  41
HETATM   41  O3  UNL     1      17.561   1.547  20.256  1.00  0.00    -0.294 OA
BRANCH  41  42
HETATM   42  C8  UNL     1      16.768   0.903  21.226  1.00  0.00     0.061 C
HETATM   43  C9  UNL     1      16.836   1.557  22.577  1.00  0.00     0.046 C
HETATM   44  C10 UNL     1      15.311   0.831  20.823  1.00  0.00     0.046 C
HETATM   45  C11 UNL     1      17.270  -0.518  21.364  1.00  0.00     0.046 C
ENDBRANCH  41  42
ENDBRANCH  37  41
ENDBRANCH  29  33
ENDBRANCH   1  29
TORSDOF 9
ENDMDL