MODEL 3
REMARK VINA RESULT: -7.427090648      1.403      1.856
REMARK  8 active torsions:
REMARK  status: ('A' for Active; 'I' for Inactive)
REMARK    1  A    between atoms: C3_3  and  C4_4
REMARK    2  A    between atoms: C4_4  and  N1_5
REMARK    3  A    between atoms: C5_6  and  C6_7
REMARK    4  A    between atoms: C6_7  and  O1_8
REMARK    5  A    between atoms: C6_7  and  C7_10
REMARK    6  A    between atoms: C6_7  and  C8_13
REMARK    7  A    between atoms: C11_16  and  O2_17
REMARK    8  A    between atoms: C12_19  and  N2_20
ROOT
HETATM    1  C1  UNL     1      16.334   3.577  10.553  1.00  0.00     0.050 C
HETATM    2  C2  UNL     1      16.652   2.578   9.448  1.00  0.00    -0.040 A
HETATM    3  C3  UNL     1      17.884   2.034   9.362  1.00  0.00     0.008 A
HETATM    4  S1  UNL     1      17.692   0.999   7.955  1.00  0.00    -0.096 SA
HETATM    5  C21 UNL     1      16.076   1.324   7.575  1.00  0.00    -0.009 A
HETATM    6  C22 UNL     1      15.717   2.226   8.543  1.00  0.00    -0.038 A
HETATM    7  C23 UNL     1      14.266   2.667   8.384  1.00  0.00     0.041 C
HETATM    8  C24 UNL     1      14.192   3.174   6.945  1.00  0.00     0.024 C
HETATM    9  C25 UNL     1      14.281   2.015   5.989  1.00  0.00     0.098 C
HETATM   10  C26 UNL     1      12.910   1.588   5.636  1.00  0.00     0.064 C
HETATM   11  N4  UNL     1      11.827   1.262   5.376  1.00  0.00    -0.197 NA
HETATM   12  C27 UNL     1      15.086   0.878   6.520  1.00  0.00     0.066 C
ENDROOT
BRANCH   3  13
HETATM   13  C4  UNL     1      19.156   2.112  10.125  1.00  0.00     0.179 C
BRANCH  13  14
HETATM   14  N1  UNL     1      19.091   2.405  11.508  1.00  0.00    -0.306 N
HETATM   15  C5  UNL     1      19.649   3.496  12.073  1.00  0.00     0.091 A
HETATM   16  C11 UNL     1      19.570   3.534  13.487  1.00  0.00     0.120 A
HETATM   17  C12 UNL     1      18.971   2.544  14.229  1.00  0.00     0.093 A
HETATM   18  C19 UNL     1      18.412   1.452  13.611  1.00  0.00     0.131 A
HETATM   19 CL1  UNL     1      17.645   0.187  14.543  1.00  0.00    -0.076 Cl
HETATM   20  C20 UNL     1      18.492   1.420  12.251  1.00  0.00     0.272 A
HETATM   21  O3  UNL     1      17.993   0.443  11.648  1.00  0.00    -0.266 OA
BRANCH  15  22
HETATM   22  C6  UNL     1      20.183   4.667  11.459  1.00  0.00     0.165 C
BRANCH  22  23
HETATM   23  O1  UNL     1      21.391   5.193  11.862  1.00  0.00    -0.377 OA
ATOM     24  H1  UNL     1      22.209   4.884  11.489  1.00  0.00     0.211 HD
ENDBRANCH  22  23
BRANCH  22  25
HETATM   25  C7  UNL     1      19.231   5.819  11.274  1.00  0.00     0.393 C
HETATM   26  F1  UNL     1      17.933   5.595  11.635  1.00  0.00    -0.211 F
HETATM   27  F2  UNL     1      19.613   6.828  12.264  1.00  0.00    -0.211 F
ENDBRANCH  22  25
BRANCH  22  28
HETATM   28  C8  UNL     1      20.568   4.342   9.959  1.00  0.00     0.032 A
HETATM   29  C9  UNL     1      19.902   5.225   8.928  1.00  0.00     0.009 A
HETATM   30  C10 UNL     1      21.391   5.167   9.125  1.00  0.00     0.009 A
ENDBRANCH  22  28
ENDBRANCH  15  22
BRANCH  16  31
HETATM   31  O2  UNL     1      20.088   4.568  14.247  1.00  0.00    -0.357 OA
ATOM     32  H2  UNL     1      19.547   5.216  14.681  1.00  0.00     0.218 HD
ENDBRANCH  16  31
BRANCH  17  33
HETATM   33  N2  UNL     1      18.919   2.616  15.654  1.00  0.00    -0.375 N
HETATM   34  C13 UNL     1      20.114   1.995  16.238  1.00  0.00     0.125 C
HETATM   35  C14 UNL     1      19.999   1.831  17.718  1.00  0.00     0.050 C
HETATM   36  C15 UNL     1      19.721   3.176  18.327  1.00  0.00     0.273 C
HETATM   37  N3  UNL     1      18.326   3.339  18.594  1.00  0.00     0.085 N
HETATM   38  C16 UNL     1      18.076   2.841  19.938  1.00  0.00     0.309 C
HETATM   39  C17 UNL     1      17.455   2.719  17.626  1.00  0.00     0.291 C
HETATM   40  C18 UNL     1      17.780   3.245  16.259  1.00  0.00     0.153 C
ENDBRANCH  17  33
ENDBRANCH  13  14
ENDBRANCH   3  13
TORSDOF 8
ENDMDL