MODEL 3
REMARK VINA RESULT: -6.947383893      1.236      1.369
REMARK  10 active torsions:
REMARK  status: ('A' for Active; 'I' for Inactive)
REMARK    1  A    between atoms: C17_19  and  O3_20
REMARK    2  A    between atoms: C19_23  and  O4_24
REMARK    3  A    between atoms: C19_23  and  C20_26
REMARK    4  A    between atoms: C21_30  and  O5_31
REMARK    5  A    between atoms: O5_31  and  C22_32
REMARK    6  A    between atoms: C22_32  and  C23_34
REMARK    7  A    between atoms: C23_34  and  C24_35
REMARK    8  A    between atoms: C24_35  and  C25_36
REMARK    9  A    between atoms: C25_36  and  C26_37
REMARK   10  A    between atoms: C26_37  and  O7_38
ROOT
HETATM    1  C1  UNL     1      11.276   0.419  11.095  1.00  0.00     0.046 C
HETATM    2  C2  UNL     1      11.469   0.812   9.854  1.00  0.00     0.038 C
HETATM    3  C3  UNL     1      10.257   0.632   9.024  1.00  0.00     0.073 C
HETATM    4  C4  UNL     1       9.997   1.878   8.167  1.00  0.00     0.117 C
HETATM    5  C5  UNL     1      10.778   1.809   6.903  1.00  0.00     0.259 C
HETATM    6  O1  UNL     1      10.102   2.130   5.867  1.00  0.00    -0.265 OA
HETATM    7  O2  UNL     1      12.073   1.477   6.586  1.00  0.00    -0.313 OA
HETATM    8  C6  UNL     1      13.274   1.114   7.286  1.00  0.00     0.161 C
HETATM    9  C7  UNL     1      14.402   1.503   6.341  1.00  0.00     0.036 C
HETATM   10  C8  UNL     1      14.626   2.998   6.530  1.00  0.00     0.012 C
HETATM   11  C9  UNL     1      15.248   3.365   7.805  1.00  0.00    -0.031 C
HETATM   12  C10 UNL     1      14.641   4.720   8.223  1.00  0.00     0.016 C
HETATM   13  C11 UNL     1      14.741   2.347   8.840  1.00  0.00     0.026 C
HETATM   14  C12 UNL     1      14.961   2.835  10.230  1.00  0.00     0.009 C
HETATM   15  C13 UNL     1      16.174   3.690  10.402  1.00  0.00     0.013 C
HETATM   16  C14 UNL     1      17.213   3.279   9.349  1.00  0.00    -0.007 C
HETATM   17  C15 UNL     1      17.666   1.937   9.786  1.00  0.00     0.018 C
HETATM   18  C16 UNL     1      16.711   3.450   7.947  1.00  0.00     0.034 C
HETATM   19  C17 UNL     1      17.588   2.643   7.050  1.00  0.00     0.127 C
HETATM   20  C18 UNL     1      19.025   3.042   7.259  1.00  0.00     0.082 C
HETATM   21  C19 UNL     1      19.303   4.111   8.243  1.00  0.00     0.185 C
HETATM   22  C21 UNL     1      18.445   4.193   9.455  1.00  0.00     0.184 C
HETATM   23  C28 UNL     1      13.288   2.040   8.514  1.00  0.00     0.163 C
HETATM   24  O8  UNL     1      12.738   1.299   9.604  1.00  0.00    -0.348 OA
ENDROOT
BRANCH  22  25
HETATM   25  O5  UNL     1      19.105   4.065  10.679  1.00  0.00    -0.312 OA
BRANCH  25  26
HETATM   26  C22 UNL     1      19.287   5.129  11.575  1.00  0.00     0.259 C
HETATM   27  O6  UNL     1      19.465   6.265  11.070  1.00  0.00    -0.265 OA
BRANCH  26  28
HETATM   28  C23 UNL     1      19.284   4.990  13.035  1.00  0.00     0.111 C
BRANCH  28  29
HETATM   29  C24 UNL     1      18.999   3.534  13.397  1.00  0.00     0.012 C
BRANCH  29  30
HETATM   30  C25 UNL     1      19.262   3.287  14.863  1.00  0.00     0.027 C
BRANCH  30  31
HETATM   31  C26 UNL     1      18.627   1.966  15.284  1.00  0.00     0.167 C
BRANCH  31  32
HETATM   32  O7  UNL     1      17.222   2.087  15.255  1.00  0.00    -0.396 OA
HETATM   33  C27 UNL     1      16.788   2.764  16.391  1.00  0.00     0.201 C
ENDBRANCH  31  32
ENDBRANCH  30  31
ENDBRANCH  29  30
ENDBRANCH  28  29
ENDBRANCH  26  28
ENDBRANCH  25  26
ENDBRANCH  22  25
BRANCH  21  34
HETATM   34  O4  UNL     1      19.358   5.357   7.566  1.00  0.00    -0.378 OA
ATOM     35  H4  UNL     1      20.250   5.682   7.590  1.00  0.00     0.211 HD
ENDBRANCH  21  34
BRANCH  21  36
HETATM   36  C20 UNL     1      20.764   3.904   8.685  1.00  0.00     0.420 C
HETATM   37  F1  UNL     1      20.897   2.892   9.578  1.00  0.00    -0.168 F
HETATM   38  F2  UNL     1      21.390   5.069   8.989  1.00  0.00    -0.168 F
HETATM   39  F3  UNL     1      21.387   3.441   7.507  1.00  0.00    -0.168 F
ENDBRANCH  21  36
BRANCH  19  40
HETATM   40  O3  UNL     1      17.334   2.819   5.686  1.00  0.00    -0.395 OA
ATOM     41  H3  UNL     1      17.313   2.012   5.186  1.00  0.00     0.210 HD
ENDBRANCH  19  40
TORSDOF 10
ENDMDL