MODEL 2
REMARK VINA RESULT: -7.216088115      4.201      8.667
REMARK  9 active torsions:
REMARK  status: ('A' for Active; 'I' for Inactive)
REMARK    1  A    between atoms: O1_2  and  C2_3
REMARK    2  A    between atoms: C2_3  and  C3_4
REMARK    3  A    between atoms: C5_8  and  C6_9
REMARK    4  A    between atoms: C7_11  and  C8_12
REMARK    5  A    between atoms: C10_15  and  C11_17
REMARK    6  A    between atoms: C16_25  and  O7_26
REMARK    7  A    between atoms: O7_26  and  C17_27
REMARK    8  A    between atoms: C17_27  and  C18_29
REMARK    9  A    between atoms: C18_29  and  O9_32
ROOT
HETATM    1  C3  UNL     1      19.914   3.742  16.274  1.00  0.00     0.164 C
HETATM    2  O2  UNL     1      20.813   2.701  16.608  1.00  0.00    -0.310 OA
HETATM    3  C4  UNL     1      20.316   1.581  15.966  1.00  0.00     0.303 C
HETATM    4  O3  UNL     1      20.992   0.606  15.589  1.00  0.00    -0.261 OA
HETATM    5  C5  UNL     1      18.851   1.711  15.793  1.00  0.00     0.227 C
HETATM    6  O5  UNL     1      18.111   0.842  16.584  1.00  0.00    -0.212 OA
HETATM    7  O6  UNL     1      16.869   1.197  16.609  1.00  0.00    -0.228 OA
HETATM    8  C13 UNL     1      16.604   2.330  17.392  1.00  0.00     0.099 C
HETATM    9  C14 UNL     1      15.730   3.240  16.553  1.00  0.00     0.050 C
HETATM   10  C15 UNL     1      15.849   1.992  18.630  1.00  0.00     0.074 C
HETATM   11  C16 UNL     1      16.732   0.998  19.398  1.00  0.00     0.135 C
HETATM   12  C21 UNL     1      17.898   1.800  19.887  1.00  0.00     0.033 C
HETATM   13  C22 UNL     1      18.708   2.390  18.773  1.00  0.00     0.011 C
HETATM   14  C23 UNL     1      17.950   3.015  17.679  1.00  0.00     0.033 C
HETATM   15  C24 UNL     1      18.601   3.102  16.345  1.00  0.00     0.078 C
ENDROOT
BRANCH   5  16
HETATM   16  C6  UNL     1      18.487   1.547  14.380  1.00  0.00     0.057 C
HETATM   17 CL1  UNL     1      17.647   0.105  13.793  1.00  0.00    -0.085 Cl
HETATM   18  C7  UNL     1      18.784   2.516  13.525  1.00  0.00     0.011 C
BRANCH  18  19
HETATM   19  C8  UNL     1      18.463   2.458  12.071  1.00  0.00     0.114 A
HETATM   20  C9  UNL     1      17.353   3.229  11.518  1.00  0.00     0.163 A
HETATM   21  O4  UNL     1      16.187   3.520  11.268  1.00  0.00    -0.295 OA
HETATM   22  C10 UNL     1      18.768   3.689  11.300  1.00  0.00     0.128 A
HETATM   23 CL2  UNL     1      19.251   5.181  12.105  1.00  0.00    -0.108 Cl
BRANCH  22  24
HETATM   24  C11 UNL     1      19.189   3.585   9.845  1.00  0.00     0.110 C
HETATM   25  C12 UNL     1      20.007   4.806   9.477  1.00  0.00     0.029 C
HETATM   26 CL3  UNL     1      20.277   2.166   9.731  1.00  0.00    -0.123 Cl
ENDBRANCH  22  24
ENDBRANCH  18  19
ENDBRANCH   5  16
BRANCH   1  27
HETATM   27  C2  UNL     1      20.130   5.024  16.968  1.00  0.00     0.200 C
BRANCH  27  28
HETATM   28  O1  UNL     1      19.312   5.992  16.339  1.00  0.00    -0.393 OA
HETATM   29  C1  UNL     1      20.115   7.125  16.152  1.00  0.00     0.201 C
ENDBRANCH  27  28
ENDBRANCH   1  27
BRANCH  11  30
HETATM   30  O7  UNL     1      15.972   0.487  20.445  1.00  0.00    -0.314 OA
BRANCH  30  31
HETATM   31  C17 UNL     1      16.414  -0.644  21.115  1.00  0.00     0.293 C
HETATM   32  O8  UNL     1      17.123  -1.517  20.549  1.00  0.00    -0.262 OA
BRANCH  31  33
HETATM   33  C18 UNL     1      16.073  -0.884  22.542  1.00  0.00     0.138 C
HETATM   34  C19 UNL     1      15.239   0.296  23.007  1.00  0.00     0.056 C
HETATM   35  C20 UNL     1      17.367  -0.865  23.337  1.00  0.00     0.056 C
BRANCH  33  36
HETATM   36  O9  UNL     1      15.390  -2.087  22.711  1.00  0.00    -0.380 OA
ATOM     37  H9  UNL     1      14.809  -2.057  23.461  1.00  0.00     0.211 HD
ENDBRANCH  33  36
ENDBRANCH  31  33
ENDBRANCH  30  31
ENDBRANCH  11  30
TORSDOF 9
ENDMDL