MODEL 2
REMARK VINA RESULT: -4.460008015      9.316     13.581
REMARK  8 active torsions:
REMARK  status: ('A' for Active; 'I' for Inactive)
REMARK    1  A    between atoms: C2_2  and  C3_3
REMARK    2  A    between atoms: C3_3  and  C4_4
REMARK    3  A    between atoms: C9_10  and  O1_11
REMARK    4  A    between atoms: C9_10  and  C10_13
REMARK    5  A    between atoms: C22_29  and  C23_30
REMARK    6  A    between atoms: C23_30  and  N2_31
REMARK    7  A    between atoms: C23_30  and  C24_35
REMARK    8  A    between atoms: C24_35  and  C25_37
ROOT
HETATM    1  C4  UNL     1      19.964   4.561  10.414  1.00  0.00     0.060 C
HETATM    2  C5  UNL     1      20.146   5.475   9.347  1.00  0.00     0.070 C
HETATM    3  N1  UNL     1      20.267   6.238   8.487  1.00  0.00    -0.196 NA
HETATM    4  C6  UNL     1      18.798   5.212  11.286  1.00  0.00     0.064 C
HETATM    5  C7  UNL     1      17.777   4.071  11.249  1.00  0.00    -0.052 C
HETATM    6  C8  UNL     1      16.720   4.037  10.520  1.00  0.00     0.021 C
HETATM    7  C9  UNL     1      15.760   2.822  10.490  1.00  0.00     0.108 C
HETATM    8  C14 UNL     1      16.294   2.096   9.220  1.00  0.00     0.178 C
HETATM    9  O3  UNL     1      16.174   3.073   8.317  1.00  0.00    -0.379 OA
HETATM   10  C15 UNL     1      16.405   3.160   7.044  1.00  0.00     0.201 C
HETATM   11  C16 UNL     1      17.452   2.519   6.292  1.00  0.00     0.162 C
HETATM   12  O4  UNL     1      17.321   1.101   6.676  1.00  0.00    -0.313 OA
HETATM   13  C17 UNL     1      17.626   0.746   7.965  1.00  0.00     0.270 C
HETATM   14  O5  UNL     1      17.860  -0.483   8.003  1.00  0.00    -0.264 OA
HETATM   15  C18 UNL     1      17.704   1.597   9.258  1.00  0.00     0.078 C
HETATM   16  C19 UNL     1      18.080   0.520  10.178  1.00  0.00     0.029 C
HETATM   17  C20 UNL     1      18.687   2.723   9.031  1.00  0.00     0.016 C
HETATM   18  C21 UNL     1      19.504   2.366   7.746  1.00  0.00     0.016 C
HETATM   19  C22 UNL     1      18.883   2.722   6.443  1.00  0.00     0.056 C
HETATM   20  C26 UNL     1      19.635   3.135  10.107  1.00  0.00     0.037 C
HETATM   21  C27 UNL     1      19.397   2.544  11.452  1.00  0.00    -0.013 C
HETATM   22  C28 UNL     1      18.327   3.041  12.178  1.00  0.00    -0.059 C
HETATM   23  C29 UNL     1      18.127   2.430  13.499  1.00  0.00     0.048 C
ENDROOT
BRANCH   1  24
HETATM   24  C3  UNL     1      21.212   4.523  11.269  1.00  0.00     0.025 C
BRANCH  24  25
HETATM   25  C2  UNL     1      21.318   5.444  12.408  1.00  0.00    -0.003 C
HETATM   26  C1  UNL     1      21.305   4.891  13.783  1.00  0.00     0.005 C
ENDBRANCH  24  25
ENDBRANCH   1  24
BRANCH   7  27
HETATM   27  O1  UNL     1      15.916   2.202  11.650  1.00  0.00    -0.383 OA
ATOM     28  H1  UNL     1      15.341   1.446  11.624  1.00  0.00     0.211 HD
ENDBRANCH   7  27
BRANCH   7  29
HETATM   29  C10 UNL     1      14.354   3.200  10.399  1.00  0.00     0.040 C
HETATM   30  C11 UNL     1      13.523   3.124  11.656  1.00  0.00     0.086 C
HETATM   31  C12 UNL     1      12.367   3.262  10.713  1.00  0.00     0.128 C
HETATM   32  O2  UNL     1      11.292   3.763  10.744  1.00  0.00    -0.298 OA
HETATM   33  C13 UNL     1      13.267   2.465   9.771  1.00  0.00     0.086 C
ENDBRANCH   7  29
BRANCH  19  34
HETATM   34  C23 UNL     1      19.418   3.902   5.704  1.00  0.00     0.268 C
BRANCH  34  35
HETATM   35  N2  UNL     1      20.855   3.536   5.469  1.00  0.00    -0.068 N
ATOM     36  H23 UNL     1      21.413   3.441   6.318  1.00  0.00     0.275 HD
ATOM     37  H22 UNL     1      21.001   2.582   5.141  1.00  0.00     0.275 HD
ATOM     38  H21 UNL     1      21.177   4.260   4.828  1.00  0.00     0.275 HD
ENDBRANCH  34  35
BRANCH  34  39
HETATM   39  C24 UNL     1      18.856   3.948   4.338  1.00  0.00     0.263 C
HETATM   40  O6  UNL     1      17.964   4.753   4.132  1.00  0.00    -0.286 OA
BRANCH  39  41
HETATM   41  C25 UNL     1      19.281   3.093   3.210  1.00  0.00     0.453 C
HETATM   42  F1  UNL     1      20.056   3.881   2.349  1.00  0.00    -0.163 F
HETATM   43  F2  UNL     1      19.854   1.913   3.542  1.00  0.00    -0.163 F
HETATM   44  F3  UNL     1      18.118   2.839   2.421  1.00  0.00    -0.163 F
ENDBRANCH  39  41
ENDBRANCH  34  39
ENDBRANCH  19  34
TORSDOF 8
ENDMDL