MODEL 3
REMARK VINA RESULT: -7.444235687      1.437      2.277
REMARK  10 active torsions:
REMARK  status: ('A' for Active; 'I' for Inactive)
REMARK    1  A    between atoms: C2_2  and  C3_3
REMARK    2  A    between atoms: C3_3  and  O2_5
REMARK    3  A    between atoms: O2_5  and  C4_6
REMARK    4  A    between atoms: C18_24  and  C19_25
REMARK    5  A    between atoms: C19_25  and  O7_26
REMARK    6  A    between atoms: C19_25  and  C20_28
REMARK    7  A    between atoms: C19_25  and  C21_31
REMARK    8  A    between atoms: C20_28  and  O8_29
REMARK    9  A    between atoms: C21_31  and  C22_32
REMARK   10  A    between atoms: C27_37  and  C28_38
ROOT
HETATM    1  C4  UNL     1      20.084   3.632  13.798  1.00  0.00     0.234 C
HETATM    2  C5  UNL     1      20.532   2.983  15.143  1.00  0.00     0.166 C
HETATM    3  O3  UNL     1      21.391   2.166  15.069  1.00  0.00    -0.294 OA
HETATM    4  C6  UNL     1      20.003   3.279  16.469  1.00  0.00     0.101 C
HETATM    5  C7  UNL     1      21.021   2.793  17.490  1.00  0.00     0.016 C
HETATM    6  C8  UNL     1      20.474   2.929  18.867  1.00  0.00     0.005 C
HETATM    7  C9  UNL     1      19.282   2.013  18.960  1.00  0.00    -0.011 C
HETATM    8  C10 UNL     1      19.669   0.773  19.788  1.00  0.00     0.010 C
HETATM    9  C11 UNL     1      18.738   1.578  17.622  1.00  0.00     0.033 C
HETATM   10  C12 UNL     1      17.557   0.737  17.849  1.00  0.00     0.014 C
HETATM   11  C13 UNL     1      16.291   1.056  17.148  1.00  0.00     0.071 C
HETATM   12  C14 UNL     1      16.101   2.528  17.066  1.00  0.00     0.196 C
HETATM   13  C15 UNL     1      14.642   2.909  17.359  1.00  0.00     0.082 C
HETATM   14  O4  UNL     1      16.861   3.225  18.010  1.00  0.00    -0.200 OA
HETATM   15  O5  UNL     1      17.926   3.744  17.497  1.00  0.00    -0.220 OA
HETATM   16  C16 UNL     1      18.607   2.770  16.708  1.00  0.00     0.160 C
HETATM   17  C17 UNL     1      17.758   2.524  15.526  1.00  0.00     0.303 C
HETATM   18  O6  UNL     1      17.941   3.089  14.317  1.00  0.00    -0.346 OA
HETATM   19  C18 UNL     1      18.905   2.738  13.438  1.00  0.00     0.202 C
HETATM   20  O9  UNL     1      16.401   2.964  15.820  1.00  0.00    -0.320 OA
ENDROOT
BRANCH  19  21
HETATM   21  C19 UNL     1      18.671   2.481  12.045  1.00  0.00     0.126 C
BRANCH  21  22
HETATM   22  O7  UNL     1      19.944   2.303  11.315  1.00  0.00    -0.381 OA
ATOM     23  H7  UNL     1      20.469   3.095  11.343  1.00  0.00     0.211 HD
ENDBRANCH  21  22
BRANCH  21  24
HETATM   24  C20 UNL     1      18.019   1.141  11.695  1.00  0.00     0.209 C
BRANCH  24  25
HETATM   25  O8  UNL     1      17.756   0.344  12.802  1.00  0.00    -0.397 OA
ATOM     26  H8  UNL     1      18.103  -0.537  12.727  1.00  0.00     0.209 HD
ENDBRANCH  24  25
ENDBRANCH  21  24
BRANCH  21  27
HETATM   27  C21 UNL     1      18.019   3.469  11.131  1.00  0.00     0.027 C
BRANCH  27  28
HETATM   28  C22 UNL     1      16.874   3.134  10.319  1.00  0.00    -0.022 A
HETATM   29  C23 UNL     1      15.597   3.178  10.873  1.00  0.00     0.012 A
HETATM   30  C24 UNL     1      14.421   3.029  10.171  1.00  0.00     0.001 A
HETATM   31  C25 UNL     1      14.541   2.819   8.823  1.00  0.00     0.001 A
HETATM   32  C26 UNL     1      15.781   2.762   8.239  1.00  0.00     0.017 A
HETATM   33  C27 UNL     1      16.971   2.911   8.953  1.00  0.00     0.058 A
BRANCH  33  34
HETATM   34  C28 UNL     1      18.240   2.593   8.253  1.00  0.00     0.418 C
HETATM   35  F1  UNL     1      19.027   3.753   8.278  1.00  0.00    -0.166 F
HETATM   36  F2  UNL     1      18.976   1.564   8.598  1.00  0.00    -0.166 F
HETATM   37  F3  UNL     1      17.931   2.532   6.837  1.00  0.00    -0.166 F
ENDBRANCH  33  34
ENDBRANCH  27  28
ENDBRANCH  21  27
ENDBRANCH  19  21
BRANCH   1  38
HETATM   38  O2  UNL     1      19.857   4.931  13.988  1.00  0.00    -0.305 OA
BRANCH  38  39
HETATM   39  C3  UNL     1      20.602   6.040  14.026  1.00  0.00     0.259 C
HETATM   40  O1  UNL     1      20.990   6.471  12.932  1.00  0.00    -0.265 OA
BRANCH  39  41
HETATM   41  C2  UNL     1      20.992   6.781  15.261  1.00  0.00     0.106 C
HETATM   42  C1  UNL     1      19.826   6.916  16.211  1.00  0.00     0.015 C
ENDBRANCH  39  41
ENDBRANCH  38  39
ENDBRANCH   1  38
TORSDOF 10
ENDMDL