MODEL 1
REMARK VINA RESULT: -8.038469901      0.000      0.000
REMARK  9 active torsions:
REMARK  status: ('A' for Active; 'I' for Inactive)
REMARK    1  A    between atoms: C5_8  and  C6_9
REMARK    2  A    between atoms: N3_13  and  C8_14
REMARK    3  A    between atoms: C8_14  and  C9_15
REMARK    4  A    between atoms: N5_21  and  C14_22
REMARK    5  A    between atoms: C18_28  and  C19_29
REMARK    6  A    between atoms: C19_29  and  O2_30
REMARK    7  A    between atoms: C19_29  and  N7_32
REMARK    8  A    between atoms: C22_35  and  N8_36
REMARK    9  A    between atoms: C26_43  and  C27_44
ROOT
HETATM    1  C9  UNL     1      19.661   3.638   6.882  1.00  0.00     0.162 C
HETATM    2  C10 UNL     1      18.622   3.641   5.807  1.00  0.00     0.062 C
HETATM    3  N4  UNL     1      17.821   3.654   4.951  1.00  0.00    -0.197 NA
ENDROOT
BRANCH   1   4
HETATM    4  C8  UNL     1      19.013   3.403   8.218  1.00  0.00     0.098 C
HETATM    5  C11 UNL     1      19.392   4.732   8.985  1.00  0.00     0.045 C
HETATM    6  C12 UNL     1      20.856   4.816   9.185  1.00  0.00     0.048 C
HETATM    7  C13 UNL     1      21.391   3.749  10.108  1.00  0.00     0.069 C
HETATM    8  N5  UNL     1      20.403   2.754  10.195  1.00  0.00    -0.344 N
HETATM    9  C25 UNL     1      19.622   2.379   9.102  1.00  0.00     0.102 C
BRANCH   4  10
HETATM   10  N3  UNL     1      17.566   3.439   8.178  1.00  0.00    -0.271 N
HETATM   11  N2  UNL     1      16.831   4.568   8.321  1.00  0.00    -0.307 N
HETATM   12  C7  UNL     1      15.552   4.365   8.255  1.00  0.00     0.122 A
ATOM     13  H2  UNL     1      17.243   5.490   8.467  1.00  0.00     0.186 HD
HETATM   14  C6  UNL     1      15.415   2.978   8.049  1.00  0.00     0.029 A
HETATM   15  C26 UNL     1      16.682   2.411   8.003  1.00  0.00     0.148 A
BRANCH  14  16
HETATM   16  C5  UNL     1      14.115   2.333   7.872  1.00  0.00     0.033 A
HETATM   17  C2  UNL     1      13.545   1.863   6.703  1.00  0.00     0.042 A
HETATM   18  C1  UNL     1      14.152   1.972   5.354  1.00  0.00     0.071 C
HETATM   19  N1  UNL     1      12.339   1.338   6.987  1.00  0.00    -0.265 N
HETATM   20  O1  UNL     1      12.137   1.463   8.261  1.00  0.00    -0.242 OA
ATOM     21  H1  UNL     1      11.696   0.917   6.317  1.00  0.00     0.194 HD
HETATM   22  C3  UNL     1      13.183   2.061   8.840  1.00  0.00     0.085 A
HETATM   23  C4  UNL     1      13.246   2.351  10.283  1.00  0.00     0.079 C
ENDBRANCH  14  16
BRANCH  15  24
HETATM   24  C27 UNL     1      16.967   1.006   7.855  1.00  0.00     0.435 C
HETATM   25  F1  UNL     1      15.960   0.235   7.234  1.00  0.00    -0.165 F
HETATM   26  F2  UNL     1      17.914   0.904   6.771  1.00  0.00    -0.165 F
HETATM   27  F3  UNL     1      17.655   0.310   8.772  1.00  0.00    -0.165 F
ENDBRANCH  15  24
ENDBRANCH   4  10
BRANCH   8  28
HETATM   28  C14 UNL     1      20.198   2.265  11.483  1.00  0.00     0.011 C
HETATM   29  C15 UNL     1      21.195   2.423  12.544  1.00  0.00     0.098 C
HETATM   30  C16 UNL     1      20.848   1.419  13.636  1.00  0.00     0.061 C
HETATM   31  N6  UNL     1      19.537   0.914  13.575  1.00  0.00    -0.401 N
HETATM   32  C17 UNL     1      18.472   1.718  13.099  1.00  0.00     0.137 C
ATOM     33  H6  UNL     1      19.351  -0.042  13.877  1.00  0.00     0.158 HD
HETATM   34  C18 UNL     1      18.772   2.599  11.921  1.00  0.00     0.124 C
BRANCH  34  35
HETATM   35  C19 UNL     1      18.409   3.981  11.958  1.00  0.00     0.124 C
BRANCH  35  36
HETATM   36  O2  UNL     1      17.411   4.403  11.185  1.00  0.00    -0.349 OA
ATOM     37  H2  UNL     1      16.954   5.201  11.422  1.00  0.00     0.219 HD
ENDBRANCH  35  36
BRANCH  35  38
HETATM   38  N7  UNL     1      18.941   5.024  12.687  1.00  0.00    -0.365 N
HETATM   39  C20 UNL     1      18.845   4.997  14.198  1.00  0.00     0.126 C
HETATM   40  C21 UNL     1      20.217   4.832  14.748  1.00  0.00     0.052 C
HETATM   41  C22 UNL     1      21.227   5.761  14.168  1.00  0.00     0.186 C
HETATM   42  C23 UNL     1      21.074   6.089  12.730  1.00  0.00     0.052 C
HETATM   43  C24 UNL     1      19.633   6.188  12.242  1.00  0.00     0.126 C
BRANCH  41  44
HETATM   44  N8  UNL     1      21.391   6.995  14.918  1.00  0.00    -0.075 N
ATOM     45  H83 UNL     1      20.491   7.455  15.053  1.00  0.00     0.274 HD
ATOM     46  H82 UNL     1      21.630   6.796  15.890  1.00  0.00     0.274 HD
ATOM     47  H81 UNL     1      22.066   7.641  14.509  1.00  0.00     0.274 HD
ENDBRANCH  41  44
ENDBRANCH  35  38
ENDBRANCH  34  35
ENDBRANCH   8  28
ENDBRANCH   1   4
TORSDOF 9
ENDMDL