MODEL 5
REMARK VINA RESULT: -9.167483933      3.611      5.958
REMARK  9 active torsions:
REMARK  status: ('A' for Active; 'I' for Inactive)
REMARK    1  A    between atoms: O1_3  and  N2_4
REMARK    2  A    between atoms: C2_6  and  C3_7
REMARK    3  A    between atoms: C2_6  and  C7_12
REMARK    4  A    between atoms: N3_15  and  C10_16
REMARK    5  A    between atoms: C13_19  and  N4_20
REMARK    6  A    between atoms: N4_20  and  C14_21
REMARK    7  A    between atoms: C16_25  and  C17_26
REMARK       I    between atoms: C17_26  and  N6_28
REMARK    8  A    between atoms: N6_28  and  C18_30
REMARK    9  A    between atoms: C22_34  and  C23_35
ROOT
HETATM    1  N1  UNL     1      12.277  -2.222  -3.637  1.00  0.00    -0.162 NA
HETATM    2  C1  UNL     1      12.765  -2.090  -2.608  1.00  0.00     0.253 C
HETATM    3  O1  UNL     1      13.367  -1.921  -1.384  1.00  0.00    -0.159 OA
ENDROOT
BRANCH   3   4
HETATM    4  N2  UNL     1      14.499  -1.252  -1.197  1.00  0.00    -0.252 N
HETATM    5  C2  UNL     1      15.663  -1.613  -1.476  1.00  0.00     0.057 C
ATOM      6  H2  UNL     1      14.408  -0.330  -0.772  1.00  0.00     0.195 HD
BRANCH   5   7
HETATM    7  C3  UNL     1      15.953  -2.909  -2.091  1.00  0.00     0.029 A
HETATM    8  C4  UNL     1      16.140  -4.146  -1.553  1.00  0.00     0.021 A
HETATM    9  C5  UNL     1      16.363  -5.173  -2.394  1.00  0.00     0.008 A
HETATM   10  C6  UNL     1      16.388  -4.911  -3.730  1.00  0.00     0.050 A
HETATM   11  S1  UNL     1      16.101  -3.239  -3.793  1.00  0.00    -0.100 SA
ENDBRANCH   5   7
BRANCH   5  12
HETATM   12  C7  UNL     1      16.825  -0.721  -1.157  1.00  0.00     0.066 C
HETATM   13  C8  UNL     1      17.365  -1.039   0.185  1.00  0.00     0.030 C
HETATM   14  C9  UNL     1      16.505  -0.436   1.271  1.00  0.00     0.122 C
HETATM   15  N3  UNL     1      16.071   0.894   1.004  1.00  0.00    -0.193 NA
HETATM   16  O3  UNL     1      15.532   1.056  -0.212  1.00  0.00    -0.302 OA
HETATM   17  C26 UNL     1      16.423   0.715  -1.228  1.00  0.00     0.205 C
BRANCH  15  18
HETATM   18  C10 UNL     1      15.166   1.345   2.044  1.00  0.00     0.086 C
HETATM   19  C11 UNL     1      15.896   2.088   3.142  1.00  0.00     0.025 C
HETATM   20  C12 UNL     1      15.425   1.642   4.513  1.00  0.00     0.041 C
HETATM   21  C13 UNL     1      13.911   1.779   4.536  1.00  0.00     0.165 C
HETATM   22  C24 UNL     1      13.426   0.582   3.673  1.00  0.00     0.041 C
HETATM   23  C25 UNL     1      14.416   0.194   2.632  1.00  0.00     0.025 C
BRANCH  21  24
HETATM   24  N4  UNL     1      13.291   1.742   5.716  1.00  0.00    -0.424 NA
BRANCH  24  25
HETATM   25  C14 UNL     1      12.740   1.708   6.766  1.00  0.00     0.188 A
HETATM   26  N5  UNL     1      11.398   1.435   6.905  1.00  0.00    -0.340 N
HETATM   27  C15 UNL     1      10.760   1.396   8.069  1.00  0.00     0.107 A
ATOM     28  H5  UNL     1      10.859   1.250   6.059  1.00  0.00     0.167 HD
HETATM   29  C16 UNL     1      11.435   1.639   9.251  1.00  0.00     0.048 A
HETATM   30  C21 UNL     1      12.778   1.917   9.169  1.00  0.00     0.039 A
HETATM   31  C22 UNL     1      13.426   1.954   7.954  1.00  0.00     0.106 A
BRANCH  29  32
HETATM   32  C17 UNL     1      10.745   1.613  10.535  1.00  0.00     0.253 C
HETATM   33  O2  UNL     1      10.109   0.595  10.873  1.00  0.00    -0.268 OA
HETATM   34  N6  UNL     1      10.783   2.735  11.422  1.00  0.00    -0.352 N
ATOM     35  H6  UNL     1      11.307   3.565  11.143  1.00  0.00     0.163 HD
BRANCH  34  36
HETATM   36  C18 UNL     1      10.106   2.735  12.698  1.00  0.00     0.084 A
HETATM   37  C19 UNL     1      10.818   3.476  13.849  1.00  0.00     0.027 A
HETATM   38  C20 UNL     1       9.542   3.972  13.247  1.00  0.00     0.027 A
ENDBRANCH  34  36
ENDBRANCH  29  32
BRANCH  31  39
HETATM   39  C23 UNL     1      14.881   2.265   7.988  1.00  0.00     0.422 C
HETATM   40  F1  UNL     1      15.173   3.399   7.264  1.00  0.00    -0.166 F
HETATM   41  F2  UNL     1      15.281   2.572   9.300  1.00  0.00    -0.166 F
HETATM   42  F3  UNL     1      15.594   1.157   7.638  1.00  0.00    -0.166 F
ENDBRANCH  31  39
ENDBRANCH  24  25
ENDBRANCH  21  24
ENDBRANCH  15  18
ENDBRANCH   5  12
ENDBRANCH   3   4
TORSDOF 9
ENDMDL