MODEL 5
REMARK VINA RESULT: -7.095220258      1.772      6.760
REMARK  6 active torsions:
REMARK  status: ('A' for Active; 'I' for Inactive)
REMARK    1  A    between atoms: O1_2  and  C2_3
REMARK    2  A    between atoms: C8_11  and  O3_12
REMARK    3  A    between atoms: C13_17  and  O4_18
REMARK    4  A    between atoms: C16_23  and  O6_24
REMARK    5  A    between atoms: O6_24  and  C17_25
REMARK    6  A    between atoms: C17_25  and  C18_27
ROOT
HETATM    1  C2  UNL     1      18.561  10.952 -11.769  1.00  0.00     0.127 A
HETATM    2  C3  UNL     1      19.838  10.687 -12.220  1.00  0.00     0.071 A
HETATM    3 CL1  UNL     1      20.434  11.300 -13.746  1.00  0.00    -0.081 Cl
HETATM    4  C4  UNL     1      20.706   9.914 -11.469  1.00  0.00     0.045 A
HETATM    5  C5  UNL     1      20.279   9.412 -10.263  1.00  0.00     0.053 A
HETATM    6  C6  UNL     1      21.153   8.645  -9.527  1.00  0.00     0.201 A
HETATM    7  O2  UNL     1      22.324   8.368  -9.881  1.00  0.00    -0.286 OA
HETATM    8  C7  UNL     1      20.657   8.165  -8.311  1.00  0.00     0.085 A
HETATM    9  C8  UNL     1      21.493   7.379  -7.514  1.00  0.00     0.086 A
HETATM   10  C10 UNL     1      21.011   6.903  -6.315  1.00  0.00     0.047 A
HETATM   11  C11 UNL     1      19.713   7.224  -5.948  1.00  0.00    -0.023 A
HETATM   12  C12 UNL     1      19.209   6.693  -4.635  1.00  0.00     0.051 C
HETATM   13  C13 UNL     1      18.879   7.992  -6.716  1.00  0.00     0.106 A
HETATM   14  C14 UNL     1      19.373   8.472  -7.932  1.00  0.00     0.126 A
HETATM   15  O5  UNL     1      18.577   9.224  -8.696  1.00  0.00    -0.303 OA
HETATM   16  C15 UNL     1      18.998   9.687  -9.826  1.00  0.00     0.127 A
HETATM   17  C16 UNL     1      18.108  10.460 -10.563  1.00  0.00     0.148 A
ENDROOT
BRANCH  17  18
HETATM   18  O6  UNL     1      16.836  10.750 -10.158  1.00  0.00    -0.273 OA
BRANCH  18  19
HETATM   19  C17 UNL     1      15.692  10.135 -10.579  1.00  0.00     0.267 C
HETATM   20  O7  UNL     1      15.667   8.879 -10.617  1.00  0.00    -0.264 OA
BRANCH  19  21
HETATM   21  C18 UNL     1      14.526  10.972 -10.975  1.00  0.00     0.078 C
HETATM   22  C19 UNL     1      14.332  10.950 -12.481  1.00  0.00     0.020 C
HETATM   23  C20 UNL     1      13.283  10.390 -10.286  1.00  0.00     0.020 C
ENDBRANCH  19  21
ENDBRANCH  18  19
ENDBRANCH  17  18
BRANCH   1  24
HETATM   24  O1  UNL     1      17.748  11.734 -12.577  1.00  0.00    -0.351 OA
HETATM   25  C1  UNL     1      17.687  13.119 -12.292  1.00  0.00     0.210 C
ENDBRANCH   1  24
BRANCH  13  26
HETATM   26  O4  UNL     1      17.587   8.297  -6.325  1.00  0.00    -0.357 OA
ATOM     27  H4  UNL     1      17.107   9.033  -6.688  1.00  0.00     0.217 HD
ENDBRANCH  13  26
BRANCH   9  28
HETATM   28  O3  UNL     1      22.762   7.125  -7.979  1.00  0.00    -0.355 OA
HETATM   29  C9  UNL     1      23.483   5.968  -7.644  1.00  0.00     0.210 C
ENDBRANCH   9  28
TORSDOF 6
ENDMDL