MODEL 5
REMARK VINA RESULT: -7.917839489      2.846      4.720
REMARK  2 active torsions:
REMARK  status: ('A' for Active; 'I' for Inactive)
REMARK    1  A    between atoms: C6_7  and  N1_8
REMARK    2  A    between atoms: N1_8  and  C7_10
ROOT
HETATM    1  C1  UNL     1      17.750  14.311 -15.619  1.00  0.00     0.017 C
HETATM    2  C2  UNL     1      18.026  13.011 -14.879  1.00  0.00     0.044 C
HETATM    3  C3  UNL     1      18.192  13.293 -13.414  1.00  0.00     0.021 C
HETATM    4  C4  UNL     1      18.611  12.062 -12.758  1.00  0.00     0.055 C
HETATM    5  C5  UNL     1      20.066  11.921 -12.958  1.00  0.00     0.201 C
HETATM    6  O1  UNL     1      20.165  10.621 -12.737  1.00  0.00    -0.350 OA
HETATM    7  C6  UNL     1      20.805  10.075 -11.695  1.00  0.00     0.277 C
HETATM    8  C13 UNL     1      20.890  11.330 -10.810  1.00  0.00     0.315 C
HETATM    9  O2  UNL     1      22.084  11.885 -11.220  1.00  0.00    -0.296 OA
HETATM   10  C14 UNL     1      22.407  12.255 -12.444  1.00  0.00     0.312 C
HETATM   11  C15 UNL     1      23.961  12.294 -12.455  1.00  0.00     0.118 C
HETATM   12  O3  UNL     1      22.091  13.585 -12.814  1.00  0.00    -0.168 OA
HETATM   13  O4  UNL     1      21.573  13.537 -14.040  1.00  0.00    -0.188 OA
HETATM   14  C16 UNL     1      20.943  12.268 -14.051  1.00  0.00     0.250 C
HETATM   15  C17 UNL     1      20.347  11.925 -15.299  1.00  0.00     0.084 C
HETATM   16  C18 UNL     1      19.071  12.294 -15.567  1.00  0.00     0.099 C
HETATM   17  F1  UNL     1      18.694  11.867 -16.820  1.00  0.00    -0.211 F
HETATM   18  O5  UNL     1      22.115  11.588 -13.616  1.00  0.00    -0.285 OA
HETATM   19  O6  UNL     1      19.784  11.972 -10.588  1.00  0.00    -0.346 OA
HETATM   20  C19 UNL     1      18.574  12.015 -11.206  1.00  0.00     0.063 C
HETATM   21  C20 UNL     1      17.512  11.105 -10.693  1.00  0.00     0.046 C
HETATM   22  C21 UNL     1      18.045  13.436 -10.868  1.00  0.00     0.046 C
ENDROOT
BRANCH   7  23
HETATM   23  N1  UNL     1      20.213   8.949 -11.076  1.00  0.00    -0.360 N
ATOM     24  H1  UNL     1      19.592   8.369 -11.641  1.00  0.00     0.162 HD
BRANCH  23  25
HETATM   25  C7  UNL     1      20.422   8.571  -9.731  1.00  0.00     0.029 A
HETATM   26  C8  UNL     1      19.594   8.956  -8.697  1.00  0.00     0.029 A
HETATM   27  C9  UNL     1      19.790   8.583  -7.384  1.00  0.00     0.002 A
HETATM   28  C10 UNL     1      20.863   7.784  -7.051  1.00  0.00     0.000 A
HETATM   29  C11 UNL     1      21.711   7.382  -8.058  1.00  0.00     0.002 A
HETATM   30  C12 UNL     1      21.499   7.762  -9.364  1.00  0.00     0.029 A
ENDBRANCH  23  25
ENDBRANCH   7  23
TORSDOF 2
ENDMDL