MODEL 2
REMARK VINA RESULT: -7.223278984      4.097      5.996
REMARK  5 active torsions:
REMARK  status: ('A' for Active; 'I' for Inactive)
REMARK    1  A    between atoms: C4_6  and  C6_8
REMARK       I    between atoms: N2_12  and  C9_13
REMARK       I    between atoms: C9_13  and  N3_15
REMARK    2  A    between atoms: N3_15  and  C10_17
REMARK    3  A    between atoms: C11_22  and  S1_23
REMARK    4  A    between atoms: S1_23  and  C12_24
REMARK    5  A    between atoms: C12_24  and  C13_25
ROOT
HETATM    1  C1  UNL     1      25.092  14.108 -16.220  1.00  0.00     0.089 C
HETATM    2  C2  UNL     1      24.963  12.627 -15.965  1.00  0.00     0.080 C
HETATM    3  N1  UNL     1      25.026  11.729 -16.877  1.00  0.00    -0.377 N
ATOM      4  H1  UNL     1      25.170  11.914 -17.870  1.00  0.00     0.160 HD
HETATM    5  C3  UNL     1      24.864  10.416 -16.297  1.00  0.00     0.155 C
HETATM    6  C4  UNL     1      25.124  10.682 -14.820  1.00  0.00     0.090 C
HETATM    7  C5  UNL     1      24.188   9.793 -14.037  1.00  0.00     0.044 C
HETATM    8  N2  UNL     1      24.754  12.061 -14.673  1.00  0.00    -0.275 N
HETATM    9  C9  UNL     1      24.279  12.814 -13.570  1.00  0.00     0.330 C
HETATM   10  O1  UNL     1      24.010  14.038 -13.658  1.00  0.00    -0.246 OA
HETATM   11  N3  UNL     1      24.067  12.240 -12.276  1.00  0.00    -0.287 N
ATOM     12  H3  UNL     1      24.822  11.810 -11.740  1.00  0.00     0.172 HD
ENDROOT
BRANCH  11  13
HETATM   13  C10 UNL     1      22.832  12.304 -11.825  1.00  0.00     0.169 A
HETATM   14  N4  UNL     1      22.080  13.392 -11.664  1.00  0.00    -0.278 N
HETATM   15  N5  UNL     1      20.894  13.249 -11.208  1.00  0.00    -0.286 N
ATOM     16  H4  UNL     1      22.442  14.317 -11.898  1.00  0.00     0.189 HD
HETATM   17  C11 UNL     1      20.438  12.047 -10.909  1.00  0.00     0.130 A
ATOM     18  H5  UNL     1      20.298  14.066 -11.076  1.00  0.00     0.188 HD
HETATM   19  S2  UNL     1      21.778  11.063 -11.299  1.00  0.00    -0.026 SA
BRANCH  17  20
HETATM   20  S1  UNL     1      18.810  11.592 -10.256  1.00  0.00    -0.097 SA
BRANCH  20  21
HETATM   21  C12 UNL     1      18.718   9.780 -10.180  1.00  0.00     0.146 C
BRANCH  21  22
HETATM   22  C13 UNL     1      19.381   9.244  -8.962  1.00  0.00     0.063 A
HETATM   23  C14 UNL     1      19.160   9.641  -7.666  1.00  0.00     0.036 A
HETATM   24  C15 UNL     1      19.981   8.885  -6.876  1.00  0.00     0.035 A
HETATM   25  C16 UNL     1      20.673   8.056  -7.712  1.00  0.00     0.049 A
HETATM   26  C17 UNL     1      21.694   7.044  -7.291  1.00  0.00     0.076 C
HETATM   27  O2  UNL     1      20.280   8.309  -8.935  1.00  0.00    -0.319 OA
ENDBRANCH  21  22
ENDBRANCH  20  21
ENDBRANCH  17  20
ENDBRANCH  11  13
BRANCH   6  28
HETATM   28  C6  UNL     1      26.535  10.362 -14.464  1.00  0.00     0.123 C
HETATM   29  C7  UNL     1      27.294   9.592 -15.481  1.00  0.00     0.054 C
HETATM   30  C8  UNL     1      26.655   9.647 -13.132  1.00  0.00     0.054 C
HETATM   31  F1  UNL     1      27.194  11.588 -14.294  1.00  0.00    -0.241 F
ENDBRANCH   6  28
TORSDOF 5
ENDMDL