MODEL 4
REMARK VINA RESULT: -7.611154508      2.295      2.988
REMARK  4 active torsions:
REMARK  status: ('A' for Active; 'I' for Inactive)
REMARK    1  A    between atoms: C2_2  and  C3_3
REMARK    2  A    between atoms: C6_6  and  N1_7
REMARK       I    between atoms: N1_7  and  C7_9
REMARK    3  A    between atoms: C7_9  and  O2_11
REMARK    4  A    between atoms: O2_11  and  N2_12
ROOT
HETATM    1  N2  UNL     1      20.767  11.756 -10.755  1.00  0.00    -0.258 N
ATOM      2  H2  UNL     1      20.116  11.819  -9.972  1.00  0.00     0.194 HD
HETATM    3  C8  UNL     1      20.770  12.798 -11.467  1.00  0.00     0.063 C
HETATM    4  C9  UNL     1      19.882  13.950 -11.122  1.00  0.00     0.058 C
HETATM    5 CL1  UNL     1      18.324  13.538 -10.453  1.00  0.00    -0.082 Cl
HETATM    6  C10 UNL     1      20.288  15.197 -11.316  1.00  0.00     0.031 C
HETATM    7  C11 UNL     1      21.664  15.275 -11.885  1.00  0.00     0.160 C
HETATM    8  O3  UNL     1      21.956  16.490 -12.481  1.00  0.00    -0.363 OA
HETATM    9  C12 UNL     1      23.013  16.206 -13.369  1.00  0.00     0.115 C
HETATM   10  C13 UNL     1      22.966  17.168 -14.511  1.00  0.00     0.054 C
HETATM   11  C14 UNL     1      24.344  16.231 -12.675  1.00  0.00     0.054 C
HETATM   12  C15 UNL     1      22.693  14.844 -13.912  1.00  0.00     0.168 C
HETATM   13  O4  UNL     1      23.316  14.416 -14.871  1.00  0.00    -0.294 OA
HETATM   14  C16 UNL     1      21.627  14.343 -13.080  1.00  0.00     0.105 C
HETATM   15  C17 UNL     1      21.655  12.901 -12.661  1.00  0.00     0.012 C
HETATM   16  C18 UNL     1      23.006  12.319 -12.491  1.00  0.00     0.022 C
HETATM   17  C19 UNL     1      20.955  12.125 -13.787  1.00  0.00     0.022 C
ENDROOT
BRANCH   1  18
HETATM   18  O2  UNL     1      21.412  10.603 -10.789  1.00  0.00    -0.181 OA
BRANCH  18  19
HETATM   19  C7  UNL     1      20.982   9.566  -9.907  1.00  0.00     0.387 C
HETATM   20  N1  UNL     1      21.225   9.625  -8.552  1.00  0.00    -0.295 N
ATOM     21  H1  UNL     1      21.722  10.443  -8.198  1.00  0.00     0.172 HD
HETATM   22  O1  UNL     1      20.376   8.601 -10.427  1.00  0.00    -0.236 OA
BRANCH  20  23
HETATM   23  C6  UNL     1      20.838   8.635  -7.607  1.00  0.00     0.078 A
HETATM   24  C5  UNL     1      21.491   7.553  -7.090  1.00  0.00     0.038 A
HETATM   25  C4  UNL     1      20.848   6.783  -6.203  1.00  0.00     0.017 A
HETATM   26  C3  UNL     1      19.570   7.132  -5.869  1.00  0.00    -0.016 A
HETATM   27  S1  UNL     1      19.298   8.525  -6.801  1.00  0.00    -0.077 SA
BRANCH  26  28
HETATM   28  C2  UNL     1      18.657   6.419  -4.899  1.00  0.00     0.041 C
HETATM   29  C1  UNL     1      17.235   6.697  -5.286  1.00  0.00     0.010 C
ENDBRANCH  26  28
ENDBRANCH  20  23
ENDBRANCH  18  19
ENDBRANCH   1  18
TORSDOF 4
ENDMDL