MODEL 2
REMARK VINA RESULT: -9.129563060      0.141      1.604
REMARK  5 active torsions:
REMARK  status: ('A' for Active; 'I' for Inactive)
REMARK    1  A    between atoms: O1_2  and  C2_3
REMARK    2  A    between atoms: C2_3  and  C3_5
REMARK    3  A    between atoms: C8_12  and  C9_13
REMARK    4  A    between atoms: C9_13  and  O5_14
REMARK    5  A    between atoms: C9_13  and  C10_16
ROOT
HETATM    1  C3  UNL     1      20.519   7.628  -6.831  1.00  0.00     0.154 A
HETATM    2  C4  UNL     1      21.345   7.600  -7.936  1.00  0.00     0.062 A
HETATM    3  C5  UNL     1      20.902   8.609  -8.768  1.00  0.00     0.055 A
HETATM    4  C6  UNL     1      19.834   9.208  -8.142  1.00  0.00     0.204 A
HETATM    5  O3  UNL     1      19.637   8.603  -7.002  1.00  0.00    -0.281 OA
HETATM    6  O4  UNL     1      19.355  10.198  -8.898  1.00  0.00    -0.284 OA
HETATM    7  C7  UNL     1      20.073  10.276 -10.014  1.00  0.00     0.119 A
HETATM    8  C8  UNL     1      19.962  11.140 -11.112  1.00  0.00     0.040 A
HETATM    9  C18 UNL     1      20.872  10.951 -12.118  1.00  0.00     0.091 A
HETATM   10  C19 UNL     1      21.848   9.945 -12.028  1.00  0.00     0.246 A
HETATM   11  O6  UNL     1      22.650   9.839 -12.998  1.00  0.00    -0.268 OA
HETATM   12  N1  UNL     1      21.919   9.139 -10.958  1.00  0.00    -0.320 N
ATOM     13  H1  UNL     1      22.634   8.413 -10.907  1.00  0.00     0.169 HD
HETATM   14  C20 UNL     1      21.040   9.297  -9.954  1.00  0.00     0.085 A
ENDROOT
BRANCH   8  15
HETATM   15  C9  UNL     1      18.919  12.126 -11.133  1.00  0.00     0.089 C
BRANCH  15  16
HETATM   16  O5  UNL     1      19.215  13.292 -10.635  1.00  0.00    -0.359 OA
ATOM     17  H5  UNL     1      18.918  14.049 -11.127  1.00  0.00     0.217 HD
ENDBRANCH  15  16
BRANCH  15  18
HETATM   18  C10 UNL     1      17.575  12.007 -11.628  1.00  0.00    -0.001 A
HETATM   19  C11 UNL     1      16.607  11.252 -11.008  1.00  0.00     0.022 A
HETATM   20  C12 UNL     1      15.330  11.253 -11.555  1.00  0.00    -0.039 A
HETATM   21  C13 UNL     1      14.236  10.443 -10.904  1.00  0.00     0.050 C
HETATM   22  C14 UNL     1      15.017  11.978 -12.684  1.00  0.00     0.045 A
HETATM   23 CL1  UNL     1      13.376  11.975 -13.363  1.00  0.00    -0.083 Cl
HETATM   24  C15 UNL     1      15.972  12.736 -13.320  1.00  0.00    -0.039 A
HETATM   25  C16 UNL     1      15.597  13.497 -14.538  1.00  0.00     0.050 C
HETATM   26  C17 UNL     1      17.238  12.732 -12.769  1.00  0.00     0.022 A
ENDBRANCH  15  18
ENDBRANCH   8  15
BRANCH   1  27
HETATM   27  C2  UNL     1      20.575   6.753  -5.655  1.00  0.00     0.317 C
HETATM   28  O2  UNL     1      21.496   5.877  -5.577  1.00  0.00    -0.257 OA
BRANCH  27  29
HETATM   29  O1  UNL     1      19.677   6.815  -4.610  1.00  0.00    -0.321 OA
HETATM   30  C1  UNL     1      18.326   6.396  -4.871  1.00  0.00     0.213 C
ENDBRANCH  27  29
ENDBRANCH   1  27
TORSDOF 5
ENDMDL