MODEL 4
REMARK VINA RESULT: -6.968775118      3.750      5.515
REMARK  6 active torsions:
REMARK  status: ('A' for Active; 'I' for Inactive)
REMARK    1  A    between atoms: C6_6  and  C7_7
REMARK    2  A    between atoms: C8_12  and  N3_13
REMARK    3  A    between atoms: N3_13  and  C9_15
REMARK    4  A    between atoms: C13_20  and  C14_21
REMARK    5  A    between atoms: C14_21  and  O1_22
REMARK    6  A    between atoms: O1_22  and  C15_23
ROOT
HETATM    1  C1  UNL     1      11.324   9.025 -11.001  1.00  0.00     0.056 C
HETATM    2  C2  UNL     1      12.816   9.173 -10.780  1.00  0.00    -0.018 A
HETATM    3  C3  UNL     1      13.611  10.198 -11.195  1.00  0.00     0.028 A
HETATM    4  C4  UNL     1      14.927  10.120 -10.881  1.00  0.00    -0.000 A
HETATM    5  C5  UNL     1      15.934  11.056 -11.202  1.00  0.00     0.030 A
HETATM    6  C6  UNL     1      17.229  10.810 -10.799  1.00  0.00     0.025 A
HETATM    7  C13 UNL     1      17.628   9.707 -10.095  1.00  0.00     0.047 A
HETATM    8  N4  UNL     1      16.638   8.824  -9.799  1.00  0.00    -0.351 N
ATOM      9  H4  UNL     1      16.871   7.980  -9.276  1.00  0.00     0.166 HD
HETATM   10  C18 UNL     1      15.339   9.026 -10.180  1.00  0.00     0.085 A
HETATM   11  S2  UNL     1      13.898   8.136  -9.974  1.00  0.00    -0.077 SA
ENDROOT
BRANCH   6  12
HETATM   12  C7  UNL     1      18.244  11.817 -11.157  1.00  0.00     0.104 A
HETATM   13  N1  UNL     1      18.711  12.823 -10.453  1.00  0.00    -0.291 N
HETATM   14  N2  UNL     1      19.596  13.597 -10.931  1.00  0.00    -0.279 N
ATOM     15  H1  UNL     1      18.357  12.984  -9.509  1.00  0.00     0.187 HD
HETATM   16  C8  UNL     1      20.048  13.370 -12.167  1.00  0.00     0.162 A
ATOM     17  H2  UNL     1      19.956  14.377 -10.382  1.00  0.00     0.189 HD
HETATM   18  S1  UNL     1      19.137  11.988 -12.611  1.00  0.00    -0.033 SA
BRANCH  16  19
HETATM   19  N3  UNL     1      20.944  14.053 -12.809  1.00  0.00    -0.361 N
ATOM     20  H3  UNL     1      20.687  14.574 -13.647  1.00  0.00     0.162 HD
BRANCH  19  21
HETATM   21  C9  UNL     1      22.306  14.070 -12.334  1.00  0.00     0.021 C
HETATM   22  C10 UNL     1      23.180  14.511 -13.510  1.00  0.00     0.037 C
HETATM   23  C11 UNL     1      22.533  15.054 -11.221  1.00  0.00     0.037 C
HETATM   24  C12 UNL     1      22.783  12.669 -11.970  1.00  0.00     0.037 C
ENDBRANCH  19  21
ENDBRANCH  16  19
ENDBRANCH   6  12
BRANCH   7  25
HETATM   25  C14 UNL     1      18.989   9.410  -9.648  1.00  0.00     0.228 C
BRANCH  25  26
HETATM   26  O1  UNL     1      19.648   8.691 -10.650  1.00  0.00    -0.360 OA
BRANCH  26  27
HETATM   27  C15 UNL     1      21.012   8.975 -10.670  1.00  0.00     0.130 C
HETATM   28  C16 UNL     1      21.336  10.134  -9.720  1.00  0.00     0.064 C
HETATM   29  C17 UNL     1      21.711   7.761 -10.095  1.00  0.00     0.064 C
HETATM   30 CL1  UNL     1      21.627   9.309 -12.282  1.00  0.00    -0.089 Cl
ENDBRANCH  26  27
ENDBRANCH  25  26
ENDBRANCH   7  25
TORSDOF 6
ENDMDL