MODEL 2
REMARK VINA RESULT: -7.238109643      7.760     10.111
REMARK  6 active torsions:
REMARK  status: ('A' for Active; 'I' for Inactive)
REMARK    1  A    between atoms: C2_2  and  O1_5
REMARK    2  A    between atoms: O1_5  and  C5_6
REMARK       I    between atoms: C5_6  and  N1_8
REMARK       I    between atoms: N2_10  and  C6_12
REMARK    3  A    between atoms: C6_12  and  C7_14
REMARK    4  A    between atoms: C7_14  and  O4_15
REMARK    5  A    between atoms: O4_15  and  C8_16
REMARK    6  A    between atoms: C8_16  and  C9_18
ROOT
HETATM    1  O4  UNL     1      22.503  10.186 -12.917  1.00  0.00    -0.308 OA
ENDROOT
BRANCH   1   2
HETATM    2  C7  UNL     1      23.123  10.951 -13.902  1.00  0.00     0.283 C
BRANCH   2   3
HETATM    3  C6  UNL     1      23.705  12.231 -13.418  1.00  0.00     0.260 C
HETATM    4  N2  UNL     1      23.764  12.523 -12.032  1.00  0.00    -0.264 N
HETATM    5  N1  UNL     1      23.632  13.636 -11.491  1.00  0.00    -0.243 N
ATOM      6  H2  UNL     1      23.933  11.733 -11.408  1.00  0.00     0.190 HD
HETATM    7  C5  UNL     1      23.392  14.835 -12.196  1.00  0.00     0.380 C
ATOM      8  H1  UNL     1      23.702  13.685 -10.475  1.00  0.00     0.192 HD
HETATM    9  O2  UNL     1      24.086  15.866 -12.069  1.00  0.00    -0.237 OA
HETATM   10  O3  UNL     1      24.129  13.014 -14.318  1.00  0.00    -0.269 OA
BRANCH   7  11
HETATM   11  O1  UNL     1      22.328  14.883 -13.082  1.00  0.00    -0.293 OA
BRANCH  11  12
HETATM   12  C2  UNL     1      20.978  14.915 -12.716  1.00  0.00     0.061 C
HETATM   13  C1  UNL     1      20.738  15.073 -11.243  1.00  0.00     0.046 C
HETATM   14  C3  UNL     1      20.368  16.146 -13.391  1.00  0.00     0.046 C
HETATM   15  C4  UNL     1      20.216  13.724 -13.264  1.00  0.00     0.046 C
ENDBRANCH  11  12
ENDBRANCH   7  11
ENDBRANCH   2   3
ENDBRANCH   1   2
BRANCH   1  16
HETATM   16  C8  UNL     1      21.145  10.137 -12.659  1.00  0.00     0.295 C
HETATM   17  O5  UNL     1      20.375  10.156 -13.654  1.00  0.00    -0.259 OA
BRANCH  16  18
HETATM   18  C9  UNL     1      20.564  10.066 -11.334  1.00  0.00     0.063 A
HETATM   19  C10 UNL     1      19.605  10.936 -10.863  1.00  0.00     0.020 A
HETATM   20  C11 UNL     1      19.075  10.841  -9.596  1.00  0.00     0.015 A
HETATM   21  C12 UNL     1      19.509   9.850  -8.758  1.00  0.00    -0.008 A
HETATM   22  C13 UNL     1      18.969   9.768  -7.491  1.00  0.00     0.017 A
HETATM   23  C16 UNL     1      20.465   8.961  -9.191  1.00  0.00     0.066 A
HETATM   24  C14 UNL     1      19.411   8.763  -6.645  1.00  0.00     0.042 A
HETATM   25  C15 UNL     1      20.377   7.900  -7.143  1.00  0.00     0.101 A
HETATM   26  S1  UNL     1      20.908   6.710  -6.154  1.00  0.00    -0.060 SA
HETATM   27  N3  UNL     1      20.882   7.998  -8.369  1.00  0.00    -0.345 N
ATOM     28  H3  UNL     1      21.590   7.334  -8.681  1.00  0.00     0.167 HD
HETATM   29  C17 UNL     1      20.973   9.083 -10.460  1.00  0.00     0.077 A
HETATM   30 CL1  UNL     1      22.189   7.914 -10.947  1.00  0.00    -0.081 Cl
ENDBRANCH  16  18
ENDBRANCH   1  16
TORSDOF 6
ENDMDL