MODEL 1
REMARK VINA RESULT: -7.927053194      0.000      0.000
REMARK  3 active torsions:
REMARK  status: ('A' for Active; 'I' for Inactive)
REMARK    1  A    between atoms: O1_2  and  C2_3
REMARK    2  A    between atoms: C3_4  and  C4_5
REMARK    3  A    between atoms: C13_19  and  N2_20
ROOT
HETATM    1  C2  UNL     1      12.732  10.370 -11.370  1.00  0.00     0.117 C
HETATM    2  C3  UNL     1      12.981  11.453 -12.229  1.00  0.00     0.016 C
HETATM    3  C5  UNL     1      14.223  11.796 -12.716  1.00  0.00     0.030 C
HETATM    4  C6  UNL     1      15.494  11.560 -12.206  1.00  0.00     0.001 A
HETATM    5  C7  UNL     1      16.435  12.460 -12.650  1.00  0.00     0.052 A
HETATM    6 CL1  UNL     1      15.943  13.727 -13.753  1.00  0.00    -0.083 Cl
HETATM    7  C8  UNL     1      17.761  12.349 -12.221  1.00  0.00    -0.027 A
HETATM    8  C9  UNL     1      18.120  11.364 -11.372  1.00  0.00    -0.022 A
HETATM    9  C10 UNL     1      17.142  10.467 -10.940  1.00  0.00     0.026 A
HETATM   10  C11 UNL     1      15.827  10.541 -11.339  1.00  0.00     0.029 A
HETATM   11  C12 UNL     1      15.032   9.550 -10.786  1.00  0.00     0.218 C
HETATM   12  O2  UNL     1      15.633   8.552 -10.321  1.00  0.00    -0.285 OA
HETATM   13  C13 UNL     1      13.649   9.574 -10.708  1.00  0.00     0.187 C
HETATM   14  C14 UNL     1      19.405  10.989 -10.752  1.00  0.00     0.047 C
HETATM   15  C15 UNL     1      19.804   9.654 -11.404  1.00  0.00     0.043 C
HETATM   16  C16 UNL     1      19.075  10.629  -9.298  1.00  0.00     0.043 C
HETATM   17  N3  UNL     1      20.436  11.920 -10.728  1.00  0.00    -0.401 N
ATOM     18  H3  UNL     1      20.938  12.082  -9.855  1.00  0.00     0.155 HD
HETATM   19  C17 UNL     1      20.803  12.643 -11.874  1.00  0.00     0.019 C
HETATM   20  C18 UNL     1      21.093  11.833 -13.105  1.00  0.00     0.037 C
HETATM   21  C19 UNL     1      22.121  13.344 -11.543  1.00  0.00     0.037 C
HETATM   22  C20 UNL     1      19.827  13.754 -12.099  1.00  0.00     0.034 C
HETATM   23  C21 UNL     1      18.590  13.410 -12.813  1.00  0.00     0.043 C
ENDROOT
BRANCH   2  24
HETATM   24  C4  UNL     1      11.822  12.225 -12.600  1.00  0.00     0.094 C
HETATM   25  N1  UNL     1      11.917  13.387 -13.083  1.00  0.00    -0.407 N
ATOM     26  H12 UNL     1      12.851  13.777 -13.209  1.00  0.00     0.155 HD
ATOM     27  H11 UNL     1      11.096  13.933 -13.346  1.00  0.00     0.155 HD
ENDBRANCH   2  24
BRANCH   1  28
HETATM   28  O1  UNL     1      11.380  10.109 -11.199  1.00  0.00    -0.352 OA
HETATM   29  C1  UNL     1      10.564  10.701 -10.224  1.00  0.00     0.210 C
ENDBRANCH   1  28
BRANCH  13  30
HETATM   30  N2  UNL     1      13.069   8.635  -9.806  1.00  0.00    -0.108 N
HETATM   31  O3  UNL     1      12.750   7.525 -10.245  1.00  0.00    -0.532 OA
HETATM   32  O4  UNL     1      12.846   8.902  -8.483  1.00  0.00    -0.532 OA
ENDBRANCH  13  30
TORSDOF 3
ENDMDL