MODEL 1
REMARK VINA RESULT: -7.721164410      0.000      0.000
REMARK  7 active torsions:
REMARK  status: ('A' for Active; 'I' for Inactive)
REMARK    1  A    between atoms: C2_2  and  C3_3
REMARK    2  A    between atoms: C4_4  and  C5_5
REMARK    3  A    between atoms: C5_5  and  C8_8
REMARK    4  A    between atoms: C11_16  and  N3_17
REMARK    5  A    between atoms: N3_17  and  C12_19
REMARK    6  A    between atoms: C17_25  and  O1_26
REMARK    7  A    between atoms: C20_29  and  N4_30
ROOT
HETATM    1  C8  UNL     1      17.495  12.230 -12.249  1.00  0.00     0.039 A
HETATM    2  S1  UNL     1      15.941  11.526 -12.164  1.00  0.00    -0.072 SA
HETATM    3  C9  UNL     1      16.256  10.269 -11.045  1.00  0.00     0.092 A
HETATM    4  N1  UNL     1      15.468   9.299 -10.500  1.00  0.00    -0.346 N
ATOM      5  H1  UNL     1      14.483   9.234 -10.757  1.00  0.00     0.167 HD
HETATM    6  C10 UNL     1      16.001   8.420  -9.617  1.00  0.00     0.182 A
HETATM    7  N2  UNL     1      17.295   8.564  -9.329  1.00  0.00    -0.338 N
ATOM      8  H2  UNL     1      17.706   7.907  -8.666  1.00  0.00     0.168 HD
HETATM    9  C11 UNL     1      18.097   9.505  -9.843  1.00  0.00     0.122 A
HETATM   10  C19 UNL     1      17.581  10.436 -10.764  1.00  0.00     0.076 A
HETATM   11  C20 UNL     1      18.222  11.453 -11.391  1.00  0.00     0.134 A
ENDROOT
BRANCH   9  12
HETATM   12  N3  UNL     1      19.345   9.530  -9.473  1.00  0.00    -0.339 N
ATOM     13  H3  UNL     1      19.993  10.143  -9.967  1.00  0.00     0.167 HD
BRANCH  12  14
HETATM   14  C12 UNL     1      19.834   8.737  -8.408  1.00  0.00     0.067 A
HETATM   15  C13 UNL     1      19.115   8.545  -7.243  1.00  0.00     0.035 A
HETATM   16  C14 UNL     1      19.570   7.782  -6.200  1.00  0.00     0.044 A
HETATM   17  C15 UNL     1      20.788   7.169  -6.286  1.00  0.00     0.119 A
HETATM   18  F1  UNL     1      21.291   6.396  -5.271  1.00  0.00    -0.206 F
HETATM   19  C16 UNL     1      21.538   7.332  -7.424  1.00  0.00     0.081 A
HETATM   20  C17 UNL     1      21.062   8.115  -8.486  1.00  0.00     0.097 A
BRANCH  20  21
HETATM   21  O1  UNL     1      21.822   8.271  -9.620  1.00  0.00    -0.354 OA
HETATM   22  C18 UNL     1      21.695   7.490 -10.775  1.00  0.00     0.210 C
ENDBRANCH  20  21
ENDBRANCH  12  14
ENDBRANCH   9  12
BRANCH  11  23
HETATM   23  N4  UNL     1      19.636  11.721 -11.215  1.00  0.00    -0.113 N
HETATM   24  O2  UNL     1      20.117  12.496 -10.414  1.00  0.00    -0.532 OA
HETATM   25  O3  UNL     1      20.477  10.996 -12.038  1.00  0.00    -0.532 OA
ENDBRANCH  11  23
BRANCH   1  26
HETATM   26  C5  UNL     1      17.851  13.408 -13.070  1.00  0.00     0.052 C
HETATM   27  C6  UNL     1      16.537  13.900 -13.720  1.00  0.00     0.035 C
HETATM   28  C7  UNL     1      18.807  13.130 -14.177  1.00  0.00     0.035 C
BRANCH  26  29
HETATM   29  C4  UNL     1      18.341  14.526 -12.248  1.00  0.00    -0.092 C
HETATM   30  C3  UNL     1      18.751  15.421 -11.548  1.00  0.00    -0.106 C
BRANCH  30  31
HETATM   31  C2  UNL     1      19.264  16.502 -10.692  1.00  0.00     0.089 C
HETATM   32  C1  UNL     1      20.618  16.200 -10.138  1.00  0.00     0.018 C
ENDBRANCH  30  31
ENDBRANCH  26  29
ENDBRANCH   1  26
TORSDOF 7
ENDMDL