MODEL 1
REMARK VINA RESULT: -8.079770681      0.000      0.000
REMARK  4 active torsions:
REMARK  status: ('A' for Active; 'I' for Inactive)
REMARK    1  A    between atoms: C5_6  and  N2_7
REMARK    2  A    between atoms: N2_7  and  C6_9
REMARK    3  A    between atoms: C6_9  and  C7_11
REMARK       I    between atoms: N3_13  and  C9_15
REMARK    4  A    between atoms: C9_15  and  C10_17
ROOT
HETATM    1  C1  UNL     1      20.217  15.727 -10.095  1.00  0.00     0.229 C
HETATM    2  N1  UNL     1      20.647  14.800 -10.621  1.00  0.00    -0.427 NA
HETATM    3  C2  UNL     1      21.161  13.679 -11.243  1.00  0.00     0.136 A
HETATM    4  C3  UNL     1      20.480  12.485 -11.215  1.00  0.00     0.008 A
HETATM    5  C4  UNL     1      19.157  12.371 -10.503  1.00  0.00     0.054 C
HETATM    6  C5  UNL     1      21.017  11.383 -11.845  1.00  0.00     0.050 A
HETATM    7  C13 UNL     1      22.234  11.494 -12.498  1.00  0.00    -0.011 A
HETATM    8  C14 UNL     1      22.779  10.261 -13.173  1.00  0.00     0.052 C
HETATM    9  C15 UNL     1      22.912  12.675 -12.529  1.00  0.00     0.066 A
HETATM   10 CL1  UNL     1      24.444  12.817 -13.351  1.00  0.00    -0.082 Cl
HETATM   11  C16 UNL     1      22.381  13.780 -11.902  1.00  0.00     0.108 A
HETATM   12  C17 UNL     1      23.078  15.038 -11.920  1.00  0.00     0.104 C
HETATM   13  N5  UNL     1      23.639  16.038 -11.916  1.00  0.00    -0.191 NA
ENDROOT
BRANCH   6  14
HETATM   14  N2  UNL     1      20.319  10.150 -11.819  1.00  0.00    -0.345 N
ATOM     15  H2  UNL     1      19.648   9.953 -12.562  1.00  0.00     0.167 HD
BRANCH  14  16
HETATM   16  C6  UNL     1      20.514   9.180 -10.804  1.00  0.00     0.123 C
HETATM   17  S1  UNL     1      21.734   8.076 -10.968  1.00  0.00    -0.058 SA
BRANCH  16  18
HETATM   18  C7  UNL     1      19.660   9.143  -9.625  1.00  0.00     0.046 C
HETATM   19  C8  UNL     1      18.193   9.198  -9.759  1.00  0.00     0.071 C
HETATM   20  N3  UNL     1      20.180   9.061  -8.466  1.00  0.00    -0.322 N
HETATM   21  C9  UNL     1      19.435   9.018  -7.261  1.00  0.00     0.279 C
ATOM     22  H3  UNL     1      21.198   9.023  -8.402  1.00  0.00     0.169 HD
HETATM   23  O1  UNL     1      18.667   9.930  -6.893  1.00  0.00    -0.265 OA
BRANCH  21  24
HETATM   24  C10 UNL     1      19.576   7.841  -6.400  1.00  0.00     0.142 A
HETATM   25  N4  UNL     1      18.635   7.287  -5.654  1.00  0.00    -0.355 N
HETATM   26  C11 UNL     1      18.908   6.244  -4.941  1.00  0.00     0.096 A
ATOM     27  H4  UNL     1      17.695   7.683  -5.641  1.00  0.00     0.166 HD
HETATM   28  C12 UNL     1      20.184   5.748  -4.990  1.00  0.00     0.069 A
HETATM   29  S2  UNL     1      20.924   6.842  -6.085  1.00  0.00    -0.077 SA
ENDBRANCH  21  24
ENDBRANCH  16  18
ENDBRANCH  14  16
ENDBRANCH   6  14
TORSDOF 4
ENDMDL