MODEL 4
REMARK VINA RESULT: -7.298646243      2.872      6.146
REMARK  5 active torsions:
REMARK  status: ('A' for Active; 'I' for Inactive)
REMARK    1  A    between atoms: C2_2  and  C4_4
REMARK    2  A    between atoms: C6_6  and  S1_7
REMARK    3  A    between atoms: S1_7  and  C7_8
REMARK    4  A    between atoms: C13_15  and  O1_16
REMARK    5  A    between atoms: C17_22  and  O3_23
ROOT
HETATM    1  C7  UNL     1      12.658   5.042 -14.332  1.00  0.00     0.103 C
HETATM    2  C8  UNL     1      14.008   4.644 -13.863  1.00  0.00     0.022 C
HETATM    3 CL1  UNL     1      14.260   4.215 -12.209  1.00  0.00    -0.088 Cl
HETATM    4  C9  UNL     1      14.995   4.628 -14.732  1.00  0.00    -0.005 C
HETATM    5  C10 UNL     1      14.822   4.991 -16.168  1.00  0.00     0.040 C
HETATM    6  C11 UNL     1      13.513   5.597 -16.511  1.00  0.00    -0.010 C
HETATM    7  C12 UNL     1      12.571   4.645 -17.200  1.00  0.00     0.018 C
HETATM    8  C13 UNL     1      13.615   6.845 -17.357  1.00  0.00     0.127 C
HETATM    9  C14 UNL     1      12.251   7.474 -17.123  1.00  0.00     0.033 C
HETATM   10  C15 UNL     1      11.735   6.904 -15.799  1.00  0.00     0.009 C
HETATM   11  C16 UNL     1      12.905   6.188 -15.248  1.00  0.00     0.016 C
ENDROOT
BRANCH   1  12
HETATM   12  S1  UNL     1      11.527   5.252 -13.006  1.00  0.00    -0.094 SA
BRANCH  12  13
HETATM   13  C6  UNL     1      10.860   6.860 -12.766  1.00  0.00     0.116 A
HETATM   14  C5  UNL     1       9.532   7.179 -12.984  1.00  0.00     0.057 A
HETATM   15  C4  UNL     1       9.351   8.508 -12.705  1.00  0.00     0.007 A
HETATM   16  C17 UNL     1      10.593   8.965 -12.321  1.00  0.00     0.191 A
HETATM   17  O2  UNL     1      11.435   7.971 -12.373  1.00  0.00    -0.281 OA
BRANCH  15  18
HETATM   18  C2  UNL     1       8.079   9.280 -12.816  1.00  0.00     0.015 C
HETATM   19  C1  UNL     1       7.353   9.221 -11.467  1.00  0.00     0.015 C
HETATM   20  C3  UNL     1       7.202   8.689 -13.914  1.00  0.00     0.015 C
ENDBRANCH  15  18
BRANCH  16  21
HETATM   21  O3  UNL     1      10.822  10.298 -11.952  1.00  0.00    -0.340 OA
ATOM     22  H3  UNL     1      10.427  11.028 -12.412  1.00  0.00     0.220 HD
ENDBRANCH  16  21
ENDBRANCH  12  13
ENDBRANCH   1  12
BRANCH   8  23
HETATM   23  O1  UNL     1      13.844   6.503 -18.673  1.00  0.00    -0.395 OA
ATOM     24  H1  UNL     1      14.636   5.983 -18.739  1.00  0.00     0.210 HD
ENDBRANCH   8  23
TORSDOF 5
ENDMDL