MODEL 1
REMARK VINA RESULT: -7.537594389      0.000      0.000
REMARK  3 active torsions:
REMARK  status: ('A' for Active; 'I' for Inactive)
REMARK    1  A    between atoms: C8_11  and  S1_12
REMARK    2  A    between atoms: S1_12  and  C9_13
REMARK    3  A    between atoms: C11_15  and  C12_16
ROOT
HETATM    1  C1  UNL     1      10.608   8.244 -16.296  1.00  0.00     0.049 C
HETATM    2  C2  UNL     1      11.721   7.288 -16.040  1.00  0.00    -0.042 A
HETATM    3  C3  UNL     1      12.737   7.116 -16.951  1.00  0.00     0.034 A
HETATM    4  C4  UNL     1      13.758   6.219 -16.700  1.00  0.00     0.060 A
HETATM    5 CL1  UNL     1      15.050   6.006 -17.866  1.00  0.00    -0.082 Cl
HETATM    6  C5  UNL     1      13.735   5.502 -15.514  1.00  0.00     0.090 A
HETATM    7  N1  UNL     1      14.788   4.597 -15.285  1.00  0.00    -0.099 NA
HETATM    8  C6  UNL     1      12.688   5.697 -14.604  1.00  0.00     0.087 A
HETATM    9  C7  UNL     1      12.735   4.955 -13.400  1.00  0.00     0.103 C
HETATM   10  N2  UNL     1      12.768   4.367 -12.406  1.00  0.00    -0.191 NA
HETATM   11  C8  UNL     1      11.662   6.582 -14.832  1.00  0.00     0.029 A
ENDROOT
BRANCH  11  12
HETATM   12  S1  UNL     1      10.340   6.878 -13.686  1.00  0.00    -0.120 SA
BRANCH  12  13
HETATM   13  C9  UNL     1      10.645   8.117 -12.458  1.00  0.00     0.081 C
HETATM   14  C10 UNL     1      10.348   9.521 -12.780  1.00  0.00     0.025 C
HETATM   15  C11 UNL     1       8.963  10.006 -12.440  1.00  0.00     0.019 C
HETATM   16  C15 UNL     1       8.270   9.192 -11.408  1.00  0.00     0.122 C
HETATM   17  C16 UNL     1       6.778   9.467 -11.526  1.00  0.00     0.040 C
HETATM   18  O1  UNL     1       8.547   7.830 -11.475  1.00  0.00    -0.380 OA
HETATM   19  C17 UNL     1       9.902   7.686 -11.180  1.00  0.00     0.132 C
HETATM   20  C18 UNL     1      10.172   6.225 -10.908  1.00  0.00     0.040 C
BRANCH  15  21
HETATM   21  C12 UNL     1       8.988  11.455 -11.945  1.00  0.00    -0.016 C
HETATM   22  C13 UNL     1       9.313  12.420 -13.060  1.00  0.00     0.010 C
HETATM   23  C14 UNL     1       9.934  11.646 -10.799  1.00  0.00     0.010 C
ENDBRANCH  15  21
ENDBRANCH  12  13
ENDBRANCH  11  12
TORSDOF 3
ENDMDL