MODEL 2
REMARK VINA RESULT: -8.110728400      2.779      3.546
REMARK  4 active torsions:
REMARK  status: ('A' for Active; 'I' for Inactive)
REMARK    1  A    between atoms: C2_2  and  N1_3
REMARK       I    between atoms: N1_3  and  C3_5
REMARK    2  A    between atoms: C3_5  and  C4_7
REMARK    3  A    between atoms: C10_13  and  N2_14
REMARK    4  A    between atoms: N2_14  and  C11_16
ROOT
HETATM    1  C1  UNL     1       9.299   8.963 -17.225  1.00  0.00     0.038 C
HETATM    2  C2  UNL     1       8.844  10.119 -16.326  1.00  0.00     0.029 C
HETATM    3  C8  UNL     1       7.736   9.661 -15.425  1.00  0.00     0.032 C
HETATM    4  C9  UNL     1       8.138   8.407 -14.703  1.00  0.00     0.027 C
HETATM    5  C10 UNL     1       9.593   8.435 -14.239  1.00  0.00     0.082 C
HETATM    6  C18 UNL     1       9.923   9.909 -14.083  1.00  0.00     0.027 C
HETATM    7  C19 UNL     1      10.016  10.517 -15.445  1.00  0.00     0.032 C
ENDROOT
BRANCH   5   8
HETATM    8  N2  UNL     1       9.712   7.765 -12.964  1.00  0.00    -0.383 N
ATOM      9  H2  UNL     1       9.077   8.056 -12.221  1.00  0.00     0.160 HD
BRANCH   8  10
HETATM   10  C11 UNL     1      10.634   6.739 -12.663  1.00  0.00     0.070 A
HETATM   11  C12 UNL     1      11.678   6.481 -13.506  1.00  0.00     0.072 A
HETATM   12  C13 UNL     1      12.584   5.453 -13.210  1.00  0.00     0.105 A
HETATM   13  O2  UNL     1      13.643   5.017 -13.845  1.00  0.00    -0.304 OA
HETATM   14  C15 UNL     1      12.454   4.689 -12.090  1.00  0.00     0.070 A
HETATM   15  C14 UNL     1      14.199   4.021 -13.199  1.00  0.00     0.234 A
HETATM   16  N3  UNL     1      13.466   3.798 -12.090  1.00  0.00    -0.344 N
ATOM     17  H3  UNL     1      13.644   3.086 -11.381  1.00  0.00     0.167 HD
HETATM   18  C16 UNL     1      11.398   4.946 -11.231  1.00  0.00     0.077 A
HETATM   19  C17 UNL     1      10.515   5.959 -11.533  1.00  0.00     0.145 A
HETATM   20  F1  UNL     1       9.477   6.223 -10.702  1.00  0.00    -0.204 F
ENDBRANCH   8  10
ENDBRANCH   5   8
BRANCH   2  21
HETATM   21  N1  UNL     1       8.518  11.223 -17.173  1.00  0.00    -0.352 N
HETATM   22  C3  UNL     1       8.047  12.484 -16.751  1.00  0.00     0.226 C
HETATM   23  O1  UNL     1       7.885  12.700 -15.531  1.00  0.00    -0.273 OA
ATOM     24  H1  UNL     1       8.637  11.086 -18.177  1.00  0.00     0.163 HD
BRANCH  22  25
HETATM   25  C4  UNL     1       7.748  13.535 -17.720  1.00  0.00     0.030 C
HETATM   26  C5  UNL     1       8.931  14.499 -17.877  1.00  0.00     0.024 C
HETATM   27  C6  UNL     1       6.554  14.380 -17.326  1.00  0.00     0.024 C
HETATM   28  C7  UNL     1       7.466  12.998 -19.106  1.00  0.00     0.024 C
ENDBRANCH  22  25
ENDBRANCH   2  21
TORSDOF 4
ENDMDL