MODEL 2
REMARK VINA RESULT: -7.046433435      0.714      1.052
REMARK  7 active torsions:
REMARK  status: ('A' for Active; 'I' for Inactive)
REMARK    1  A    between atoms: C4_4  and  C5_5
REMARK    2  A    between atoms: C5_5  and  N1_6
REMARK       I    between atoms: N1_6  and  C6_8
REMARK    3  A    between atoms: C6_8  and  S1_10
REMARK    4  A    between atoms: S1_10  and  S2_11
REMARK    5  A    between atoms: S2_11  and  C7_12
REMARK    6  A    between atoms: C7_12  and  N2_14
REMARK    7  A    between atoms: N2_14  and  C8_16
ROOT
HETATM    1  C7  UNL     1       9.288   8.253 -12.881  1.00  0.00     0.150 C
HETATM    2  S3  UNL     1       7.780   7.912 -13.553  1.00  0.00    -0.052 SA
ENDROOT
BRANCH   1   3
HETATM    3  S2  UNL     1       9.925   9.845 -13.290  1.00  0.00    -0.018 SA
BRANCH   3   4
HETATM    4  S1  UNL     1       9.600  10.397 -15.315  1.00  0.00     0.011 SA
BRANCH   4   5
HETATM    5  C6  UNL     1      10.024   9.049 -16.420  1.00  0.00     0.291 C
HETATM    6  N1  UNL     1      11.270   8.384 -16.320  1.00  0.00    -0.348 N
ATOM      7  H1  UNL     1      11.929   8.688 -15.603  1.00  0.00     0.163 HD
HETATM    8  O1  UNL     1       9.161   8.747 -17.263  1.00  0.00    -0.260 OA
BRANCH   6   9
HETATM    9  C5  UNL     1      11.644   7.304 -17.181  1.00  0.00     0.151 C
BRANCH   9  10
HETATM   10  C4  UNL     1      13.069   6.994 -17.116  1.00  0.00    -0.005 C
HETATM   11  C2  UNL     1      13.544   5.755 -17.117  1.00  0.00    -0.090 C
HETATM   12  C1  UNL     1      15.038   5.525 -17.050  1.00  0.00     0.042 C
HETATM   13  C3  UNL     1      12.698   4.540 -17.159  1.00  0.00     0.042 C
ENDBRANCH   9  10
ENDBRANCH   6   9
ENDBRANCH   4   5
ENDBRANCH   3   4
ENDBRANCH   1   3
BRANCH   1  14
HETATM   14  N2  UNL     1       9.868   7.291 -12.096  1.00  0.00    -0.339 N
ATOM     15  H2  UNL     1       9.500   7.229 -11.146  1.00  0.00     0.167 HD
BRANCH  14  16
HETATM   16  C8  UNL     1      10.884   6.383 -12.397  1.00  0.00     0.072 A
HETATM   17  C9  UNL     1      11.688   6.582 -13.486  1.00  0.00     0.033 A
HETATM   18  C10 UNL     1      12.758   5.722 -13.698  1.00  0.00     0.009 A
HETATM   19  C11 UNL     1      13.013   4.695 -12.838  1.00  0.00    -0.059 A
HETATM   20  C12 UNL     1      14.154   3.773 -13.057  1.00  0.00     0.048 C
HETATM   21  C13 UNL     1      12.204   4.505 -11.750  1.00  0.00     0.051 A
HETATM   22  C14 UNL     1      11.160   5.329 -11.529  1.00  0.00     0.143 A
HETATM   23  F1  UNL     1      10.354   5.150 -10.455  1.00  0.00    -0.204 F
ENDBRANCH  14  16
ENDBRANCH   1  14
TORSDOF 7
ENDMDL