MODEL 2
REMARK VINA RESULT: -7.996921953      2.692      6.085
REMARK  5 active torsions:
REMARK  status: ('A' for Active; 'I' for Inactive)
REMARK    1  A    between atoms: C1_4  and  O1_5
REMARK    2  A    between atoms: C1_4  and  C9_15
REMARK    3  A    between atoms: O1_5  and  N2_6
REMARK    4  A    between atoms: C9_15  and  C10_16
REMARK    5  A    between atoms: C20_27  and  N3_28
ROOT
HETATM    1  C9  UNL     1       9.546   9.515 -14.144  1.00  0.00     0.085 C
HETATM    2  C16 UNL     1       9.798   9.326 -12.681  1.00  0.00     0.025 C
HETATM    3  C17 UNL     1       8.722  10.033 -11.875  1.00  0.00     0.002 C
HETATM    4  C18 UNL     1       7.473   9.235 -12.106  1.00  0.00     0.002 C
HETATM    5  C19 UNL     1       7.096   9.110 -13.546  1.00  0.00     0.034 C
HETATM    6  C20 UNL     1       8.110   9.516 -14.546  1.00  0.00     0.204 C
ENDROOT
BRANCH   1   7
HETATM    7  C1  UNL     1      10.045  10.914 -14.441  1.00  0.00     0.156 C
HETATM    8  N1  UNL     1      11.073  11.424 -13.920  1.00  0.00    -0.381 N
ATOM      9  H12 UNL     1      11.408  12.366 -14.120  1.00  0.00     0.158 HD
ATOM     10  H11 UNL     1      11.636  10.897 -13.253  1.00  0.00     0.158 HD
BRANCH   7  11
HETATM   11  O1  UNL     1       9.272  11.637 -15.357  1.00  0.00    -0.224 OA
BRANCH  11  12
HETATM   12  N2  UNL     1       9.802  12.557 -16.203  1.00  0.00    -0.268 N
HETATM   13  C2  UNL     1       9.103  13.559 -16.600  1.00  0.00     0.010 C
HETATM   14  C3  UNL     1       9.721  14.540 -17.525  1.00  0.00     0.054 C
HETATM   15  C8  UNL     1       7.719  13.625 -16.075  1.00  0.00     0.054 C
HETATM   16  C4  UNL     1       8.862  14.798 -18.746  1.00  0.00     0.006 C
HETATM   17  C5  UNL     1       8.285  13.525 -19.309  1.00  0.00     0.000 C
HETATM   18  C6  UNL     1       7.272  12.884 -18.433  1.00  0.00     0.000 C
HETATM   19  C7  UNL     1       6.798  13.720 -17.294  1.00  0.00     0.006 C
ATOM     20  H2  UNL     1      10.763  12.452 -16.527  1.00  0.00     0.194 HD
ENDBRANCH  11  12
ENDBRANCH   7  11
ENDBRANCH   1   7
BRANCH   1  21
HETATM   21  C10 UNL     1      10.428   8.590 -14.895  1.00  0.00    -0.001 A
HETATM   22  C11 UNL     1      11.041   8.889 -16.094  1.00  0.00     0.011 A
HETATM   23  C12 UNL     1      11.861   8.007 -16.761  1.00  0.00     0.001 A
HETATM   24  C13 UNL     1      12.111   6.753 -16.246  1.00  0.00     0.003 A
HETATM   25  C14 UNL     1      11.518   6.428 -15.059  1.00  0.00     0.043 A
HETATM   26  C15 UNL     1      10.707   7.326 -14.417  1.00  0.00     0.123 A
HETATM   27  F1  UNL     1      10.174   6.924 -13.253  1.00  0.00    -0.206 F
ENDBRANCH   1  21
BRANCH   6  28
HETATM   28  N3  UNL     1       7.835   8.782 -15.777  1.00  0.00    -0.074 N
ATOM     29  H33 UNL     1       7.094   9.238 -16.308  1.00  0.00     0.274 HD
ATOM     30  H32 UNL     1       8.608   8.885 -16.435  1.00  0.00     0.274 HD
ATOM     31  H31 UNL     1       7.618   7.796 -15.634  1.00  0.00     0.274 HD
ENDBRANCH   6  28
TORSDOF 5
ENDMDL