MODEL 5
REMARK VINA RESULT: -7.144481088      1.360      1.953
REMARK  6 active torsions:
REMARK  status: ('A' for Active; 'I' for Inactive)
REMARK    1  A    between atoms: C2_2  and  C3_3
REMARK    2  A    between atoms: C3_3  and  C4_4
REMARK    3  A    between atoms: C4_4  and  C5_5
REMARK    4  A    between atoms: C8_8  and  N1_9
REMARK    5  A    between atoms: C12_16  and  O1_17
REMARK    6  A    between atoms: C15_22  and  C16_23
ROOT
HETATM    1  C5  UNL     1      10.202   7.259 -13.802  1.00  0.00     0.025 A
HETATM    2  C6  UNL     1       9.273   7.415 -12.739  1.00  0.00    -0.011 A
HETATM    3  C7  UNL     1       8.092   8.308 -12.883  1.00  0.00     0.052 C
HETATM    4  C8  UNL     1       9.373   6.712 -11.563  1.00  0.00     0.057 A
HETATM    5  C9  UNL     1      10.422   5.835 -11.447  1.00  0.00     0.101 A
HETATM    6  C10 UNL     1      10.582   5.075 -10.239  1.00  0.00     0.104 C
HETATM    7  N2  UNL     1      10.668   4.471  -9.227  1.00  0.00    -0.191 NA
HETATM    8  C11 UNL     1      11.311   5.685 -12.485  1.00  0.00     0.096 A
HETATM    9  C12 UNL     1      12.381   4.872 -12.294  1.00  0.00     0.096 A
HETATM   10  C13 UNL     1      13.328   4.749 -13.274  1.00  0.00     0.065 A
HETATM   11  C14 UNL     1      13.168   5.450 -14.447  1.00  0.00     0.060 A
HETATM   12 CL1  UNL     1      14.461   5.470 -15.634  1.00  0.00    -0.082 Cl
HETATM   13  C15 UNL     1      12.067   6.302 -14.706  1.00  0.00     0.046 A
HETATM   14  N3  UNL     1      11.202   6.388 -13.681  1.00  0.00    -0.312 N
ENDROOT
BRANCH   4  15
HETATM   15  N1  UNL     1       8.553   6.824 -10.580  1.00  0.00    -0.397 N
ATOM     16  H12 UNL     1       8.121   7.731 -10.405  1.00  0.00     0.156 HD
ATOM     17  H11 UNL     1       8.300   6.061  -9.952  1.00  0.00     0.156 HD
ENDBRANCH   4  15
BRANCH   9  18
HETATM   18  O1  UNL     1      12.587   4.132 -11.136  1.00  0.00    -0.358 OA
ATOM     19  H1  UNL     1      12.568   4.507 -10.264  1.00  0.00     0.217 HD
ENDBRANCH   9  18
BRANCH   1  20
HETATM   20  C4  UNL     1      10.211   8.305 -14.712  1.00  0.00     0.058 C
BRANCH  20  21
HETATM   21  C3  UNL     1      10.884   9.398 -13.751  1.00  0.00     0.006 C
BRANCH  21  22
HETATM   22  C2  UNL     1      10.578  10.778 -14.104  1.00  0.00    -0.004 C
HETATM   23  C1  UNL     1       9.902  11.686 -13.169  1.00  0.00     0.005 C
ENDBRANCH  21  22
ENDBRANCH  20  21
ENDBRANCH   1  20
BRANCH  13  24
HETATM   24  C16 UNL     1      11.803   6.709 -16.111  1.00  0.00    -0.006 C
HETATM   25  C17 UNL     1      12.989   7.366 -16.786  1.00  0.00     0.021 C
HETATM   26  C18 UNL     1      12.141   5.309 -16.811  1.00  0.00     0.021 C
HETATM   27  C19 UNL     1      10.504   6.653 -16.812  1.00  0.00     0.021 C
ENDBRANCH  13  24
TORSDOF 6
ENDMDL