MODEL 2
REMARK VINA RESULT: -9.071302336      1.064      1.438
REMARK  4 active torsions:
REMARK  status: ('A' for Active; 'I' for Inactive)
REMARK    1  A    between atoms: C4_4  and  C5_5
REMARK    2  A    between atoms: C5_5  and  O1_8
REMARK    3  A    between atoms: C12_15  and  C13_16
REMARK    4  A    between atoms: N1_17  and  N2_19
ROOT
HETATM    1  C1  UNL     1      10.030   7.828 -14.339  1.00  0.00     0.051 C
HETATM    2  C2  UNL     1      11.170   6.898 -14.541  1.00  0.00    -0.027 A
HETATM    3  C3  UNL     1      11.814   6.834 -15.762  1.00  0.00     0.019 A
HETATM    4  C4  UNL     1      12.880   5.978 -16.005  1.00  0.00    -0.023 A
HETATM    5  C8  UNL     1      13.286   5.178 -14.967  1.00  0.00     0.026 A
HETATM    6  C9  UNL     1      12.679   5.199 -13.719  1.00  0.00     0.021 A
HETATM    7  C10 UNL     1      11.626   6.070 -13.543  1.00  0.00     0.087 A
HETATM    8  O2  UNL     1      11.040   6.067 -12.287  1.00  0.00    -0.345 OA
HETATM    9  C11 UNL     1      11.450   5.260 -11.208  1.00  0.00     0.217 A
HETATM   10  C12 UNL     1      12.570   4.370 -11.469  1.00  0.00     0.005 A
HETATM   11  C19 UNL     1      13.146   4.341 -12.653  1.00  0.00     0.057 A
HETATM   12 CL1  UNL     1      14.499   3.253 -12.924  1.00  0.00    -0.083 Cl
ENDROOT
BRANCH  10  13
HETATM   13  C13 UNL     1      13.076   3.471 -10.406  1.00  0.00     0.118 C
HETATM   14  N1  UNL     1      12.405   3.114  -9.424  1.00  0.00    -0.311 N
ATOM     15  H1  UNL     1      12.960   2.500  -8.827  1.00  0.00     0.186 HD
BRANCH  14  16
HETATM   16  N2  UNL     1      11.188   3.278  -8.903  1.00  0.00    -0.309 N
HETATM   17  C14 UNL     1      10.875   3.668  -7.732  1.00  0.00     0.003 C
HETATM   18  C15 UNL     1       9.491   3.824  -7.223  1.00  0.00     0.054 C
HETATM   19  C18 UNL     1      11.733   4.070  -6.566  1.00  0.00     0.054 C
HETATM   20  C16 UNL     1       9.662   3.154  -5.848  1.00  0.00     0.006 C
HETATM   21  C17 UNL     1      10.920   3.781  -5.345  1.00  0.00     0.006 C
ATOM     22  H2  UNL     1      10.407   3.064  -9.523  1.00  0.00     0.186 HD
ENDBRANCH  14  16
ENDBRANCH  10  13
BRANCH   4  23
HETATM   23  C5  UNL     1      13.593   5.880 -17.290  1.00  0.00     0.078 C
HETATM   24  C6  UNL     1      13.184   4.647 -18.042  1.00  0.00     0.051 C
HETATM   25  C7  UNL     1      15.084   5.966 -17.113  1.00  0.00     0.051 C
BRANCH  23  26
HETATM   26  O1  UNL     1      13.224   7.011 -18.042  1.00  0.00    -0.386 OA
ATOM     27  H1  UNL     1      12.659   7.534 -17.485  1.00  0.00     0.211 HD
ENDBRANCH  23  26
ENDBRANCH   4  23
TORSDOF 4
ENDMDL