MODEL 1
REMARK VINA RESULT: -7.983299449      0.000      0.000
REMARK  3 active torsions:
REMARK  status: ('A' for Active; 'I' for Inactive)
REMARK    1  A    between atoms: C5_5  and  N1_6
REMARK    2  A    between atoms: N1_6  and  C6_8
REMARK    3  A    between atoms: C15_21  and  N3_22
ROOT
HETATM    1  C6  UNL     1      10.345   9.181 -14.312  1.00  0.00     0.125 C
HETATM    2  C7  UNL     1      10.181  10.127 -15.461  1.00  0.00     0.058 C
HETATM    3  C8  UNL     1       8.881  10.744 -15.722  1.00  0.00     0.021 C
HETATM    4  C9  UNL     1       8.357  10.355 -17.119  1.00  0.00     0.037 C
HETATM    5  C10 UNL     1       8.981  12.278 -15.786  1.00  0.00     0.037 C
HETATM    6  N2  UNL     1       7.825  10.442 -14.839  1.00  0.00    -0.402 N
ATOM      7  H2  UNL     1       6.860  10.439 -15.169  1.00  0.00     0.154 HD
HETATM    8  C11 UNL     1       8.119  10.147 -13.509  1.00  0.00     0.056 C
HETATM    9  C12 UNL     1       6.858   9.440 -12.966  1.00  0.00     0.041 C
HETATM   10  C13 UNL     1       8.155  11.462 -12.727  1.00  0.00     0.041 C
HETATM   11  C14 UNL     1       9.313   9.304 -13.235  1.00  0.00     0.157 C
HETATM   12 CL1  UNL     1       9.998   9.921 -11.700  1.00  0.00    -0.097 Cl
HETATM   13 CL2  UNL     1       8.735   7.664 -12.834  1.00  0.00    -0.097 Cl
ENDROOT
BRANCH   1  14
HETATM   14  N1  UNL     1      10.454   7.827 -14.858  1.00  0.00    -0.380 N
ATOM     15  H1  UNL     1       9.644   7.502 -15.386  1.00  0.00     0.160 HD
BRANCH  14  16
HETATM   16  C5  UNL     1      11.494   6.933 -14.760  1.00  0.00     0.061 A
HETATM   17  C4  UNL     1      11.774   6.306 -13.566  1.00  0.00     0.032 A
HETATM   18  C3  UNL     1      12.854   5.448 -13.424  1.00  0.00     0.009 A
HETATM   19  C2  UNL     1      13.683   5.200 -14.486  1.00  0.00    -0.059 A
HETATM   20  C1  UNL     1      14.866   4.273 -14.360  1.00  0.00     0.048 C
HETATM   21  C16 UNL     1      13.426   5.807 -15.669  1.00  0.00     0.045 A
HETATM   22  C15 UNL     1      12.334   6.677 -15.821  1.00  0.00     0.129 A
BRANCH  22  23
HETATM   23  N3  UNL     1      12.198   7.223 -17.109  1.00  0.00    -0.113 N
HETATM   24  O1  UNL     1      11.235   7.843 -17.575  1.00  0.00    -0.532 OA
HETATM   25  O2  UNL     1      13.254   7.040 -17.999  1.00  0.00    -0.532 OA
ENDBRANCH  22  23
ENDBRANCH  14  16
ENDBRANCH   1  14
TORSDOF 3
ENDMDL