MODEL 3
REMARK VINA RESULT: -7.498150734      3.373      6.776
REMARK  5 active torsions:
REMARK  status: ('A' for Active; 'I' for Inactive)
REMARK    1  A    between atoms: C2_2  and  C4_4
REMARK    2  A    between atoms: C4_4  and  C5_5
REMARK    3  A    between atoms: C5_5  and  S1_6
REMARK    4  A    between atoms: S1_6  and  C6_7
REMARK    5  A    between atoms: C7_10  and  O1_12
ROOT
HETATM    1  C6  UNL     1      10.766   7.079 -13.785  1.00  0.00     0.142 C
HETATM    2  N1  UNL     1      10.456   8.218 -14.334  1.00  0.00    -0.339 N
ATOM      3  H1  UNL     1      10.081   8.890 -13.665  1.00  0.00     0.164 HD
HETATM    4  C7  UNL     1      10.522   8.733 -15.651  1.00  0.00     0.133 C
HETATM    5  C8  UNL     1      10.294  10.243 -15.541  1.00  0.00     0.071 C
HETATM    6  C9  UNL     1      11.780   8.536 -16.406  1.00  0.00     0.101 C
HETATM    7  C10 UNL     1      12.267   7.160 -16.524  1.00  0.00    -0.025 A
HETATM    8  C11 UNL     1      13.050   7.025 -17.654  1.00  0.00     0.028 A
HETATM    9  C12 UNL     1      13.646   5.839 -18.022  1.00  0.00     0.011 A
HETATM   10 BR1  UNL     1      14.726   5.705 -19.605  1.00  0.00    -0.051 Br
HETATM   11  C13 UNL     1      13.446   4.741 -17.218  1.00  0.00     0.021 A
HETATM   12  C14 UNL     1      12.660   4.845 -16.070  1.00  0.00     0.031 A
HETATM   13  C15 UNL     1      12.079   6.045 -15.731  1.00  0.00     0.040 A
HETATM   14  N2  UNL     1      11.306   6.000 -14.538  1.00  0.00    -0.337 N
ATOM     15  H2  UNL     1      11.113   5.067 -14.173  1.00  0.00     0.168 HD
ENDROOT
BRANCH   1  16
HETATM   16  S1  UNL     1      10.525   6.832 -12.063  1.00  0.00    -0.094 SA
BRANCH  16  17
HETATM   17  C5  UNL     1      11.246   5.273 -11.522  1.00  0.00     0.082 C
BRANCH  17  18
HETATM   18  C4  UNL     1      10.930   4.884 -10.121  1.00  0.00     0.014 C
BRANCH  18  19
HETATM   19  C2  UNL     1      11.259   3.483  -9.740  1.00  0.00    -0.022 C
HETATM   20  C1  UNL     1      10.909   3.288  -8.258  1.00  0.00     0.009 C
HETATM   21  C3  UNL     1      12.669   3.055  -9.952  1.00  0.00     0.009 C
ENDBRANCH  18  19
ENDBRANCH  17  18
ENDBRANCH  16  17
ENDBRANCH   1  16
BRANCH   4  22
HETATM   22  O1  UNL     1       9.463   8.272 -16.470  1.00  0.00    -0.371 OA
ATOM     23  H1  UNL     1       8.995   8.980 -16.895  1.00  0.00     0.212 HD
ENDBRANCH   4  22
TORSDOF 5
ENDMDL