MODEL 2
REMARK VINA RESULT: -7.873089080      2.202      3.965
REMARK  6 active torsions:
REMARK  status: ('A' for Active; 'I' for Inactive)
REMARK    1  A    between atoms: C2_2  and  C4_4
REMARK    2  A    between atoms: C6_6  and  C7_7
REMARK    3  A    between atoms: C7_7  and  O1_8
REMARK    4  A    between atoms: O1_8  and  C8_9
REMARK    5  A    between atoms: C12_14  and  O3_15
REMARK    6  A    between atoms: C14_18  and  O4_19
ROOT
HETATM    1  C8  UNL     1      12.058   7.048 -15.642  1.00  0.00     0.113 A
HETATM    2  C9  UNL     1      12.472   7.065 -17.010  1.00  0.00     0.084 A
HETATM    3  C10 UNL     1      13.702   6.364 -17.462  1.00  0.00     0.079 C
HETATM    4  O2  UNL     1      11.628   7.751 -17.672  1.00  0.00    -0.309 OA
HETATM    5  C11 UNL     1      10.675   8.202 -16.874  1.00  0.00     0.123 A
HETATM    6  C12 UNL     1       9.548   8.968 -17.090  1.00  0.00     0.103 A
HETATM    7  C13 UNL     1       8.680   9.324 -16.119  1.00  0.00     0.077 A
HETATM    8  C14 UNL     1       8.952   8.887 -14.807  1.00  0.00     0.086 A
HETATM    9  C15 UNL     1      10.055   8.130 -14.561  1.00  0.00     0.060 A
HETATM   10 BR1  UNL     1      10.415   7.583 -12.773  1.00  0.00    -0.047 Br
HETATM   11  C16 UNL     1      10.938   7.767 -15.584  1.00  0.00     0.057 A
ENDROOT
BRANCH   1  12
HETATM   12  O1  UNL     1      12.773   6.359 -14.658  1.00  0.00    -0.344 OA
BRANCH  12  13
HETATM   13  C7  UNL     1      12.609   4.936 -14.580  1.00  0.00     0.204 C
BRANCH  13  14
HETATM   14  C6  UNL     1      12.345   4.560 -13.187  1.00  0.00     0.007 C
HETATM   15  C4  UNL     1      13.134   4.085 -12.262  1.00  0.00    -0.059 C
HETATM   16  C5  UNL     1      14.582   3.805 -12.430  1.00  0.00     0.048 C
BRANCH  15  17
HETATM   17  C2  UNL     1      12.580   3.817 -10.943  1.00  0.00    -0.066 C
HETATM   18  C1  UNL     1      13.075   2.996 -10.130  1.00  0.00     0.019 C
HETATM   19  C3  UNL     1      11.408   4.708 -10.529  1.00  0.00     0.048 C
ENDBRANCH  15  17
ENDBRANCH  13  14
ENDBRANCH  12  13
ENDBRANCH   1  12
BRANCH   6  20
HETATM   20  O3  UNL     1       9.279   9.416 -18.454  1.00  0.00    -0.358 OA
ATOM     21  H3  UNL     1       8.564   9.003 -18.924  1.00  0.00     0.217 HD
ENDBRANCH   6  20
BRANCH   8  22
HETATM   22  O4  UNL     1       8.054   9.264 -13.790  1.00  0.00    -0.359 OA
ATOM     23  H4  UNL     1       8.372   9.851 -13.114  1.00  0.00     0.217 HD
ENDBRANCH   8  22
TORSDOF 6
ENDMDL