MODEL 4
REMARK VINA RESULT: -6.215325051      1.610      1.981
REMARK  14 active torsions:
REMARK  status: ('A' for Active; 'I' for Inactive)
REMARK    1  A    between atoms: O1_2  and  C2_3
REMARK    2  A    between atoms: C2_3  and  O2_4
REMARK    3  A    between atoms: O2_4  and  C3_5
REMARK    4  A    between atoms: C5_8  and  C6_9
REMARK    5  A    between atoms: C6_9  and  O4_10
REMARK    6  A    between atoms: C10_16  and  S1_17
REMARK    7  A    between atoms: S1_17  and  C11_18
REMARK    8  A    between atoms: C13_26  and  C14_27
REMARK       I    between atoms: N5_30  and  C15_31
REMARK       I    between atoms: C15_31  and  N6_33
REMARK    9  A    between atoms: N6_33  and  S2_35
REMARK   10  A    between atoms: S2_35  and  N7_38
REMARK   11  A    between atoms: N7_38  and  C16_40
REMARK   12  A    between atoms: C16_40  and  C17_41
REMARK   13  A    between atoms: C17_41  and  N8_42
REMARK   14  A    between atoms: C18_46  and  C19_47
ROOT
HETATM    1  C2  UNL     1     -65.173  27.832 -34.421  1.00  0.00     0.217 C
HETATM    2  C5  UNL     1     -64.653  26.422 -34.232  1.00  0.00     0.210 C
HETATM    3  O5  UNL     1     -64.640  26.141 -32.906  1.00  0.00    -0.363 OA
HETATM    4  C7  UNL     1     -64.584  27.334 -32.167  1.00  0.00     0.114 C
HETATM    5  C8  UNL     1     -65.678  27.175 -31.094  1.00  0.00     0.079 C
HETATM    6  C9  UNL     1     -65.406  25.964 -30.284  1.00  0.00    -0.037 C
HETATM    7  C10 UNL     1     -66.206  24.944 -30.162  1.00  0.00     0.059 C
HETATM    8  C13 UNL     1     -64.071  26.013 -29.578  1.00  0.00     0.221 C
HETATM    9  N5  UNL     1     -63.086  26.769 -30.278  1.00  0.00    -0.297 N
HETATM   10  C15 UNL     1     -61.768  26.782 -29.725  1.00  0.00     0.335 C
HETATM   11  O8  UNL     1     -60.886  27.481 -30.343  1.00  0.00    -0.246 OA
HETATM   12  N6  UNL     1     -61.334  26.113 -28.575  1.00  0.00    -0.219 N
ATOM     13  H6  UNL     1     -61.967  25.530 -28.028  1.00  0.00     0.185 HD
HETATM   14  C18 UNL     1     -63.240  27.485 -31.540  1.00  0.00     0.227 C
HETATM   15  C20 UNL     1     -65.067  28.420 -33.073  1.00  0.00     0.161 C
HETATM   16  S3  UNL     1     -66.636  29.178 -32.473  1.00  0.00    -0.083 SA
ENDROOT
BRANCH   8  17
HETATM   17  C14 UNL     1     -64.373  26.607 -28.258  1.00  0.00     0.201 C
HETATM   18  O6  UNL     1     -64.378  25.971 -27.185  1.00  0.00    -0.646 OA
HETATM   19  O7  UNL     1     -64.681  27.971 -28.144  1.00  0.00    -0.646 OA
ENDBRANCH   8  17
BRANCH  14  20
HETATM   20  C19 UNL     1     -62.736  28.842 -31.356  1.00  0.00     0.200 C
HETATM   21  O11 UNL     1     -61.809  29.292 -32.117  1.00  0.00    -0.646 OA
HETATM   22  O12 UNL     1     -63.172  29.731 -30.407  1.00  0.00    -0.646 OA
ENDBRANCH  14  20
BRANCH  12  23
HETATM   23  S2  UNL     1     -59.660  26.321 -28.119  1.00  0.00     0.322 S
HETATM   24  O9  UNL     1     -59.432  27.779 -27.739  1.00  0.00    -0.182 OA
HETATM   25  O10 UNL     1     -59.316  25.502 -26.910  1.00  0.00    -0.182 OA
BRANCH  23  26
HETATM   26  N7  UNL     1     -58.579  25.920 -29.380  1.00  0.00    -0.301 N
ATOM     27  H7  UNL     1     -57.805  26.519 -29.665  1.00  0.00     0.173 HD
BRANCH  26  28
HETATM   28  C16 UNL     1     -58.866  24.652 -30.005  1.00  0.00     0.161 C
BRANCH  28  29
HETATM   29  C17 UNL     1     -58.719  24.730 -31.505  1.00  0.00     0.250 C
BRANCH  29  30
HETATM   30  N8  UNL     1     -60.016  24.955 -32.121  1.00  0.00    -0.078 N
ATOM     31  H83 UNL     1     -60.156  24.371 -32.945  1.00  0.00     0.274 HD
ATOM     32  H82 UNL     1     -60.779  24.591 -31.549  1.00  0.00     0.274 HD
ATOM     33  H81 UNL     1     -60.136  25.946 -32.330  1.00  0.00     0.274 HD
ENDBRANCH  29  30
ENDBRANCH  28  29
ENDBRANCH  26  28
ENDBRANCH  23  26
ENDBRANCH  12  23
BRANCH   7  34
HETATM   34  S1  UNL     1     -67.787  24.884 -30.989  1.00  0.00    -0.063 SA
BRANCH  34  35
HETATM   35  C11 UNL     1     -67.634  24.645 -32.741  1.00  0.00     0.179 A
HETATM   36  N1  UNL     1     -66.960  23.689 -33.415  1.00  0.00    -0.261 N
HETATM   37  N2  UNL     1     -67.109  23.865 -34.729  1.00  0.00    -0.005 NA
ATOM     38  H1  UNL     1     -66.416  22.943 -32.983  1.00  0.00     0.186 HD
HETATM   39  N3  UNL     1     -67.885  24.940 -34.868  1.00  0.00    -0.223 N
HETATM   40  N4  UNL     1     -68.205  25.417 -33.680  1.00  0.00    -0.261 N
ATOM     41  H3  UNL     1     -68.187  25.335 -35.759  1.00  0.00     0.206 HD
HETATM   42  C12 UNL     1     -69.025  26.565 -33.457  1.00  0.00     0.181 C
ENDBRANCH  34  35
ENDBRANCH   7  34
BRANCH   2  43
HETATM   43  C6  UNL     1     -63.331  26.180 -34.918  1.00  0.00     0.201 C
BRANCH  43  44
HETATM   44  O4  UNL     1     -62.493  25.427 -34.049  1.00  0.00    -0.398 OA
ATOM     45  H4  UNL     1     -61.754  25.966 -33.794  1.00  0.00     0.209 HD
ENDBRANCH  43  44
ENDBRANCH   2  43
BRANCH   1  46
HETATM   46  O1  UNL     1     -64.171  28.477 -35.219  1.00  0.00    -0.356 OA
HETATM   47  C1  UNL     1     -64.032  29.809 -34.868  1.00  0.00     0.205 C
ENDBRANCH   1  46
BRANCH   1  48
HETATM   48  O2  UNL     1     -66.291  27.928 -35.178  1.00  0.00    -0.279 OA
BRANCH  48  49
HETATM   49  C3  UNL     1     -66.614  27.850 -36.476  1.00  0.00     0.257 C
HETATM   50  C4  UNL     1     -66.943  29.046 -37.328  1.00  0.00     0.126 C
HETATM   51  O3  UNL     1     -66.628  26.694 -36.965  1.00  0.00    -0.266 OA
ENDBRANCH  48  49
ENDBRANCH   1  48
TORSDOF 14
ENDMDL