MODEL 1
REMARK VINA RESULT: -8.515080002      0.000      0.000
REMARK  15 active torsions:
REMARK  status: ('A' for Active; 'I' for Inactive)
REMARK    1  A    between atoms: N1_1  and  N2_4
REMARK       I    between atoms: N2_4  and  C1_6
REMARK    2  A    between atoms: C1_6  and  C2_8
REMARK       I    between atoms: C2_8  and  N3_10
REMARK    3  A    between atoms: N3_10  and  N4_12
REMARK    4  A    between atoms: N4_12  and  C3_13
REMARK    5  A    between atoms: C3_13  and  C4_14
REMARK    6  A    between atoms: C4_14  and  C5_15
REMARK    7  A    between atoms: C5_15  and  C6_17
REMARK       I    between atoms: C6_17  and  N5_19
REMARK    8  A    between atoms: N5_19  and  N6_21
REMARK    9  A    between atoms: N7_26  and  O7_27
REMARK   10  A    between atoms: C11_33  and  C12_34
REMARK   11  A    between atoms: C12_34  and  O8_35
REMARK   12  A    between atoms: C12_34  and  N9_37
REMARK   13  A    between atoms: N9_37  and  C13_39
REMARK   14  A    between atoms: N10_44  and  C16_45
REMARK   15  A    between atoms: C16_45  and  N11_46
ROOT
HETATM    1  N6  UNL     1     -67.183  25.793 -34.337  1.00  0.00    -0.174 N
HETATM    2  C7  UNL     1     -68.191  26.205 -33.513  1.00  0.00     0.340 C
HETATM    3  O5  UNL     1     -69.103  26.824 -34.063  1.00  0.00    -0.260 OA
HETATM    4  C8  UNL     1     -68.256  25.984 -32.139  1.00  0.00     0.343 C
HETATM    5  O6  UNL     1     -69.365  25.660 -31.668  1.00  0.00    -0.259 OA
HETATM    6  N7  UNL     1     -67.238  26.085 -31.248  1.00  0.00    -0.163 N
HETATM    7  C9  UNL     1     -65.932  25.909 -31.494  1.00  0.00     0.178 A
HETATM    8  C10 UNL     1     -65.293  25.877 -32.752  1.00  0.00     0.152 A
HETATM    9  N8  UNL     1     -63.950  25.752 -32.553  1.00  0.00    -0.334 N
ATOM     10  H8  UNL     1     -63.238  25.705 -33.283  1.00  0.00     0.167 HD
HETATM   11  C11 UNL     1     -63.733  25.704 -31.273  1.00  0.00     0.140 A
HETATM   12  N10 UNL     1     -64.934  25.797 -30.605  1.00  0.00    -0.275 N
HETATM   13  C23 UNL     1     -65.851  25.927 -34.003  1.00  0.00     0.300 C
HETATM   14  O9  UNL     1     -65.047  26.123 -34.983  1.00  0.00    -0.263 OA
ENDROOT
BRANCH   1  15
HETATM   15  N5  UNL     1     -67.406  25.196 -35.533  1.00  0.00    -0.251 N
HETATM   16  C6  UNL     1     -67.725  23.872 -35.814  1.00  0.00     0.306 C
HETATM   17  O4  UNL     1     -67.874  22.938 -34.973  1.00  0.00    -0.263 OA
ATOM     18  H5  UNL     1     -67.328  25.807 -36.346  1.00  0.00     0.191 HD
BRANCH  16  19
HETATM   19  C5  UNL     1     -67.917  23.489 -37.240  1.00  0.00     0.219 C
HETATM   20  O3  UNL     1     -67.022  23.788 -38.073  1.00  0.00    -0.287 OA
BRANCH  19  21
HETATM   21  C4  UNL     1     -69.145  22.777 -37.615  1.00  0.00     0.107 C
BRANCH  21  22
HETATM   22  C3  UNL     1     -69.743  23.268 -38.910  1.00  0.00     0.143 C
BRANCH  22  23
HETATM   23  N4  UNL     1     -69.681  22.214 -39.906  1.00  0.00    -0.138 NA
BRANCH  23  24
HETATM   24  N3  UNL     1     -68.473  21.560 -39.924  1.00  0.00    -0.266 N
HETATM   25  C2  UNL     1     -68.027  20.870 -41.072  1.00  0.00     0.326 C
HETATM   26  O2  UNL     1     -68.751  20.867 -42.094  1.00  0.00    -0.261 OA
ATOM     27  H3  UNL     1     -67.885  21.575 -39.090  1.00  0.00     0.185 HD
BRANCH  25  28
HETATM   28  C1  UNL     1     -66.753  20.174 -41.072  1.00  0.00     0.328 C
HETATM   29  N2  UNL     1     -66.552  19.101 -40.172  1.00  0.00    -0.268 N
ATOM     30  H2  UNL     1     -67.284  18.800 -39.528  1.00  0.00     0.190 HD
HETATM   31  O1  UNL     1     -65.861  20.543 -41.868  1.00  0.00    -0.261 OA
BRANCH  29  32
HETATM   32  N1  UNL     1     -65.289  18.466 -40.209  1.00  0.00    -0.342 N
ATOM     33  H12 UNL     1     -65.191  17.523 -40.585  1.00  0.00     0.176 HD
ATOM     34  H11 UNL     1     -64.497  18.997 -39.846  1.00  0.00     0.176 HD
ENDBRANCH  29  32
ENDBRANCH  25  28
ENDBRANCH  23  24
ENDBRANCH  22  23
ENDBRANCH  21  22
ENDBRANCH  19  21
ENDBRANCH  16  19
ENDBRANCH   1  15
BRANCH   6  35
HETATM   35  O7  UNL     1     -67.562  26.427 -29.969  1.00  0.00    -0.278 OA
ATOM     36  H7  UNL     1     -67.050  27.115 -29.561  1.00  0.00     0.245 HD
ENDBRANCH   6  35
BRANCH  12  37
HETATM   37  C16 UNL     1     -65.031  25.729 -29.172  1.00  0.00     0.193 C
BRANCH  37  38
HETATM   38  N11 UNL     1     -65.165  26.954 -28.473  1.00  0.00    -0.356 N
HETATM   39  C17 UNL     1     -64.616  28.142 -28.928  1.00  0.00     0.065 C
HETATM   40  C18 UNL     1     -63.261  28.494 -28.344  1.00  0.00     0.044 C
HETATM   41  C19 UNL     1     -63.498  29.092 -26.976  1.00  0.00     0.005 C
HETATM   42  C20 UNL     1     -63.524  28.083 -25.864  1.00  0.00     0.002 C
HETATM   43  C21 UNL     1     -63.963  26.700 -26.347  1.00  0.00     0.020 C
HETATM   44  C22 UNL     1     -65.292  26.813 -27.048  1.00  0.00     0.129 C
ENDBRANCH  37  38
ENDBRANCH  12  37
BRANCH  11  45
HETATM   45  C12 UNL     1     -62.423  25.616 -30.575  1.00  0.00     0.283 C
BRANCH  45  46
HETATM   46  O8  UNL     1     -62.165  24.269 -30.410  1.00  0.00    -0.370 OA
ATOM     47  H8  UNL     1     -62.855  23.936 -29.848  1.00  0.00     0.212 HD
ENDBRANCH  45  46
BRANCH  45  48
HETATM   48  N9  UNL     1     -61.419  26.298 -31.244  1.00  0.00    -0.385 N
ATOM     49  H9  UNL     1     -61.600  26.590 -32.205  1.00  0.00     0.156 HD
BRANCH  48  50
HETATM   50  C13 UNL     1     -60.176  26.614 -30.691  1.00  0.00     0.099 C
HETATM   51  C14 UNL     1     -59.057  26.454 -31.691  1.00  0.00     0.111 C
HETATM   52  S1  UNL     1     -59.727  27.438 -33.107  1.00  0.00    -0.096 SA
HETATM   53  S2  UNL     1     -60.749  28.861 -31.816  1.00  0.00    -0.096 SA
HETATM   54  C15 UNL     1     -60.109  28.099 -30.258  1.00  0.00     0.111 C
ENDBRANCH  48  50
ENDBRANCH  45  48
ENDBRANCH  11  45
TORSDOF 15
ENDMDL