MODEL 3
REMARK VINA RESULT: -7.695799551      0.936      2.050
REMARK  15 active torsions:
REMARK  status: ('A' for Active; 'I' for Inactive)
REMARK    1  A    between atoms: C5_13  and  S1_14
REMARK    2  A    between atoms: S1_14  and  S2_15
REMARK    3  A    between atoms: S2_15  and  C6_16
REMARK    4  A    between atoms: C6_16  and  C7_17
REMARK    5  A    between atoms: C8_18  and  C9_19
REMARK    6  A    between atoms: C9_19  and  N4_20
REMARK    7  A    between atoms: N5_23  and  C12_24
REMARK    8  A    between atoms: C13_25  and  S3_26
REMARK    9  A    between atoms: C14_30  and  O5_31
REMARK   10  A    between atoms: C18_37  and  C19_38
REMARK   11  A    between atoms: C19_38  and  O7_39
REMARK   12  A    between atoms: C19_38  and  O8_41
REMARK   13  A    between atoms: N8_47  and  C20_48
REMARK   14  A    between atoms: C20_48  and  C21_49
REMARK   15  A    between atoms: C21_49  and  O9_50
ROOT
HETATM    1  C7  UNL     1     -64.887  27.668 -29.183  1.00  0.00     0.069 A
HETATM    2  C8  UNL     1     -66.210  27.432 -29.659  1.00  0.00     0.089 A
HETATM    3  N6  UNL     1     -66.744  26.495 -28.923  1.00  0.00    -0.283 N
ATOM      4  H6  UNL     1     -67.691  26.128 -29.014  1.00  0.00     0.188 HD
HETATM    5  N7  UNL     1     -65.860  26.114 -28.061  1.00  0.00    -0.240 N
ATOM      6  H7  UNL     1     -66.011  25.381 -27.368  1.00  0.00     0.208 HD
HETATM    7  N8  UNL     1     -64.702  26.817 -28.195  1.00  0.00    -0.277 N
ENDROOT
BRANCH   2   8
HETATM    8  C9  UNL     1     -66.533  28.037 -30.986  1.00  0.00     0.119 C
BRANCH   8   9
HETATM    9  N4  UNL     1     -66.359  27.288 -32.144  1.00  0.00    -0.377 N
HETATM   10  C10 UNL     1     -65.464  27.942 -33.087  1.00  0.00     0.143 C
HETATM   11  C11 UNL     1     -65.266  27.219 -34.357  1.00  0.00     0.143 C
HETATM   12  N5  UNL     1     -65.494  25.800 -34.338  1.00  0.00    -0.375 N
HETATM   13  C16 UNL     1     -65.738  24.907 -33.184  1.00  0.00     0.125 C
HETATM   14  C17 UNL     1     -67.086  25.116 -32.684  1.00  0.00     0.050 C
HETATM   15  C18 UNL     1     -67.480  26.670 -32.733  1.00  0.00     0.140 C
BRANCH  12  16
HETATM   16  C12 UNL     1     -65.389  25.111 -35.565  1.00  0.00     0.111 A
HETATM   17  C13 UNL     1     -64.415  24.691 -36.439  1.00  0.00     0.148 A
HETATM   18  C14 UNL     1     -65.372  24.183 -37.288  1.00  0.00     0.145 A
HETATM   19  C15 UNL     1     -66.351  24.594 -36.439  1.00  0.00     0.234 A
HETATM   20  O6  UNL     1     -67.642  24.514 -36.482  1.00  0.00    -0.283 OA
BRANCH  17  21
HETATM   21  S3  UNL     1     -62.665  24.818 -36.407  1.00  0.00     0.143 S
HETATM   22  O2  UNL     1     -61.901  23.724 -37.011  1.00  0.00    -0.591 OA
HETATM   23  O3  UNL     1     -62.278  25.028 -34.905  1.00  0.00    -0.591 OA
HETATM   24  O4  UNL     1     -62.215  26.312 -37.087  1.00  0.00    -0.591 OA
ENDBRANCH  17  21
BRANCH  18  25
HETATM   25  O5  UNL     1     -65.311  23.573 -38.437  1.00  0.00    -0.356 OA
ATOM     26  H5  UNL     1     -65.933  23.457 -39.145  1.00  0.00     0.218 HD
ENDBRANCH  18  25
ENDBRANCH  12  16
BRANCH  15  27
HETATM   27  C19 UNL     1     -68.813  26.584 -32.117  1.00  0.00     0.276 C
BRANCH  27  28
HETATM   28  O7  UNL     1     -68.909  25.545 -31.147  1.00  0.00    -0.369 OA
ATOM     29  H7  UNL     1     -69.787  25.446 -30.798  1.00  0.00     0.212 HD
ENDBRANCH  27  28
BRANCH  27  30
HETATM   30  O8  UNL     1     -69.789  26.312 -33.119  1.00  0.00    -0.369 OA
ATOM     31  H8  UNL     1     -69.671  25.430 -33.450  1.00  0.00     0.212 HD
ENDBRANCH  27  30
ENDBRANCH  15  27
ENDBRANCH   8   9
ENDBRANCH   2   8
BRANCH   1  32
HETATM   32  C6  UNL     1     -64.098  28.840 -29.646  1.00  0.00     0.147 C
BRANCH  32  33
HETATM   33  S2  UNL     1     -62.468  28.450 -30.182  1.00  0.00    -0.086 SA
BRANCH  33  34
HETATM   34  S1  UNL     1     -62.362  26.711 -31.415  1.00  0.00    -0.051 SA
BRANCH  34  35
HETATM   35  C5  UNL     1     -61.040  25.628 -31.055  1.00  0.00     0.099 C
HETATM   36  C3  UNL     1     -60.901  24.734 -29.936  1.00  0.00     0.100 A
HETATM   37  C2  UNL     1     -59.496  24.637 -29.652  1.00  0.00     0.141 A
HETATM   38  C4  UNL     1     -61.662  23.932 -29.132  1.00  0.00     0.275 A
HETATM   39  N2  UNL     1     -59.080  23.819 -28.697  1.00  0.00    -0.176 N
HETATM   40  N9  UNL     1     -58.793  25.559 -30.523  1.00  0.00    -0.307 N
HETATM   41  C1  UNL     1     -59.857  23.062 -27.947  1.00  0.00     0.680 A
ATOM     42  H2  UNL     1     -58.076  23.771 -28.527  1.00  0.00     0.186 HD
HETATM   43  N1  UNL     1     -59.439  22.271 -27.045  1.00  0.00    -0.234 N
HETATM   44  N3  UNL     1     -61.200  23.122 -28.173  1.00  0.00    -0.155 N
ATOM     45  H12 UNL     1     -58.434  22.226 -26.876  1.00  0.00     0.174 HD
ATOM     46  H11 UNL     1     -60.039  21.685 -26.465  1.00  0.00     0.174 HD
ATOM     47  H3  UNL     1     -61.843  22.557 -27.619  1.00  0.00     0.187 HD
HETATM   48  C22 UNL     1     -59.707  26.233 -31.324  1.00  0.00     0.265 C
ATOM     49  H9  UNL     1     -57.782  25.693 -30.545  1.00  0.00     0.170 HD
HETATM   50  O10 UNL     1     -59.540  27.169 -32.117  1.00  0.00    -0.267 OA
HETATM   51  O1  UNL     1     -62.937  23.904 -29.256  1.00  0.00    -0.267 OA
ENDBRANCH  34  35
ENDBRANCH  33  34
ENDBRANCH  32  33
ENDBRANCH   1  32
BRANCH   7  52
HETATM   52  C20 UNL     1     -63.639  26.588 -27.251  1.00  0.00     0.176 C
BRANCH  52  53
HETATM   53  C21 UNL     1     -63.760  27.418 -26.020  1.00  0.00     0.185 C
BRANCH  53  54
HETATM   54  O9  UNL     1     -64.998  27.083 -25.417  1.00  0.00    -0.399 OA
ATOM     55  H9  UNL     1     -65.103  27.656 -24.666  1.00  0.00     0.209 HD
ENDBRANCH  53  54
ENDBRANCH  52  53
ENDBRANCH   7  52
TORSDOF 15
ENDMDL