MODEL 4
REMARK VINA RESULT: -7.041018432      2.745      5.445
REMARK  13 active torsions:
REMARK  status: ('A' for Active; 'I' for Inactive)
REMARK    1  A    between atoms: O1_2  and  C2_3
REMARK    2  A    between atoms: N4_13  and  C7_15
REMARK    3  A    between atoms: C7_15  and  C8_16
REMARK    4  A    between atoms: C7_15  and  C9_19
REMARK    5  A    between atoms: C9_19  and  O3_20
REMARK    6  A    between atoms: C9_19  and  N6_22
REMARK    7  A    between atoms: N6_22  and  C10_25
REMARK    8  A    between atoms: C14_31  and  C15_32
REMARK       I    between atoms: C15_32  and  N7_34
REMARK    9  A    between atoms: N7_34  and  S3_35
REMARK   10  A    between atoms: S3_35  and  C16_38
REMARK   11  A    between atoms: C16_38  and  C17_39
REMARK   12  A    between atoms: C18_42  and  C19_43
REMARK   13  A    between atoms: C20_48  and  C21_49
ROOT
HETATM    1  C2  UNL     1     -61.109  29.948 -33.502  1.00  0.00     0.150 A
HETATM    2  C3  UNL     1     -60.966  31.290 -33.519  1.00  0.00     0.152 A
HETATM    3  C4  UNL     1     -59.860  31.929 -32.819  1.00  0.00     0.120 C
HETATM    4  N1  UNL     1     -58.961  32.434 -32.280  1.00  0.00    -0.190 NA
HETATM    5  N2  UNL     1     -61.850  32.048 -34.178  1.00  0.00    -0.341 N
ATOM      6  H2  UNL     1     -61.760  33.063 -34.209  1.00  0.00     0.167 HD
HETATM    7  C5  UNL     1     -62.890  31.396 -34.814  1.00  0.00     0.183 A
HETATM    8  N3  UNL     1     -63.003  30.126 -34.784  1.00  0.00    -0.336 N
ATOM      9  H3  UNL     1     -63.797  29.727 -35.284  1.00  0.00     0.168 HD
HETATM   10  C6  UNL     1     -62.179  29.251 -34.157  1.00  0.00     0.140 A
HETATM   11  N4  UNL     1     -62.206  28.021 -34.093  1.00  0.00    -0.357 N
ATOM     12  H4  UNL     1     -61.432  27.637 -33.550  1.00  0.00     0.162 HD
ENDROOT
BRANCH   1  13
HETATM   13  O1  UNL     1     -60.209  29.077 -32.824  1.00  0.00    -0.350 OA
HETATM   14  C1  UNL     1     -60.454  28.958 -31.448  1.00  0.00     0.210 C
ENDBRANCH   1  13
BRANCH  11  15
HETATM   15  C7  UNL     1     -63.063  27.025 -34.598  1.00  0.00     0.229 C
BRANCH  15  16
HETATM   16  C8  UNL     1     -62.262  26.067 -35.437  1.00  0.00     0.258 C
HETATM   17  N5  UNL     1     -61.310  26.436 -36.373  1.00  0.00    -0.060 NA
HETATM   18  O2  UNL     1     -62.450  24.816 -35.272  1.00  0.00    -0.274 OA
ENDBRANCH  15  16
BRANCH  15  19
HETATM   19  C9  UNL     1     -63.707  26.222 -33.479  1.00  0.00     0.352 C
BRANCH  19  20
HETATM   20  O3  UNL     1     -63.576  26.931 -32.260  1.00  0.00    -0.368 OA
ATOM     21  H3  UNL     1     -64.062  26.478 -31.581  1.00  0.00     0.212 HD
ENDBRANCH  19  20
BRANCH  19  22
HETATM   22  N6  UNL     1     -65.188  26.169 -33.655  1.00  0.00    -0.028 N
ATOM     23  H62 UNL     1     -65.488  26.247 -34.627  1.00  0.00     0.282 HD
ATOM     24  H61 UNL     1     -65.589  25.247 -33.480  1.00  0.00     0.282 HD
BRANCH  22  25
HETATM   25  C10 UNL     1     -65.708  27.186 -32.814  1.00  0.00     0.300 C
HETATM   26  S1  UNL     1     -66.299  28.618 -33.787  1.00  0.00    -0.059 SA
HETATM   27  S2  UNL     1     -68.096  27.881 -34.660  1.00  0.00    -0.091 SA
HETATM   28  C11 UNL     1     -68.190  26.173 -33.928  1.00  0.00     0.120 C
HETATM   29  C12 UNL     1     -67.929  26.314 -32.451  1.00  0.00    -0.058 C
HETATM   30  C13 UNL     1     -68.916  25.558 -31.592  1.00  0.00     0.045 C
HETATM   31  C14 UNL     1     -66.870  26.767 -31.918  1.00  0.00     0.069 C
BRANCH  31  32
HETATM   32  C15 UNL     1     -66.746  27.423 -30.547  1.00  0.00     0.336 C
HETATM   33  O4  UNL     1     -67.490  28.341 -30.399  1.00  0.00    -0.251 OA
HETATM   34  N7  UNL     1     -65.803  26.843 -29.696  1.00  0.00    -0.280 NA
BRANCH  34  35
HETATM   35  S3  UNL     1     -64.716  26.176 -28.710  1.00  0.00     0.302 S
HETATM   36  O5  UNL     1     -64.289  24.727 -28.917  1.00  0.00    -0.191 OA
HETATM   37  O6  UNL     1     -65.109  26.257 -27.214  1.00  0.00    -0.191 OA
BRANCH  35  38
HETATM   38  C16 UNL     1     -63.098  27.044 -28.756  1.00  0.00     0.254 C
BRANCH  38  39
HETATM   39  C17 UNL     1     -62.089  26.001 -28.966  1.00  0.00     0.101 A
HETATM   40  N8  UNL     1     -61.596  25.794 -30.188  1.00  0.00    -0.327 N
HETATM   41  C18 UNL     1     -60.655  24.832 -30.462  1.00  0.00     0.174 A
ATOM     42  H8  UNL     1     -61.933  26.378 -30.953  1.00  0.00     0.169 HD
HETATM   43  N10 UNL     1     -60.254  24.084 -29.423  1.00  0.00    -0.319 N
HETATM   44  C20 UNL     1     -60.740  24.260 -28.173  1.00  0.00     0.186 A
ATOM     45  H10 UNL     1     -59.558  23.354 -29.581  1.00  0.00     0.169 HD
HETATM   46  N11 UNL     1     -61.638  25.208 -27.986  1.00  0.00    -0.326 N
ATOM     47  H11 UNL     1     -62.009  25.343 -27.046  1.00  0.00     0.169 HD
BRANCH  41  48
HETATM   48  C19 UNL     1     -60.163  24.686 -31.817  1.00  0.00     0.298 C
HETATM   49  N9  UNL     1     -60.145  25.794 -32.695  1.00  0.00    -0.054 NA
HETATM   50  O7  UNL     1     -59.736  23.587 -32.253  1.00  0.00    -0.268 OA
ENDBRANCH  41  48
BRANCH  44  51
HETATM   51  C21 UNL     1     -60.326  23.357 -27.107  1.00  0.00     0.245 C
HETATM   52  O8  UNL     1     -60.900  22.250 -26.930  1.00  0.00    -0.642 OA
HETATM   53  O9  UNL     1     -59.299  23.632 -26.227  1.00  0.00    -0.642 OA
ENDBRANCH  44  51
ENDBRANCH  38  39
ENDBRANCH  35  38
ENDBRANCH  34  35
ENDBRANCH  31  32
ENDBRANCH  22  25
ENDBRANCH  19  22
ENDBRANCH  15  19
ENDBRANCH  11  15
TORSDOF 13
ENDMDL