MODEL 5
REMARK VINA RESULT: -8.591213933      3.182      4.156
REMARK  15 active torsions:
REMARK  status: ('A' for Active; 'I' for Inactive)
REMARK    1  A    between atoms: C2_2  and  C3_3
REMARK    2  A    between atoms: C3_3  and  S1_4
REMARK    3  A    between atoms: S1_4  and  N1_7
REMARK       I    between atoms: N1_7  and  C4_9
REMARK    4  A    between atoms: C4_9  and  C5_11
REMARK    5  A    between atoms: C5_11  and  O4_12
REMARK    6  A    between atoms: C5_11  and  C6_14
REMARK    7  A    between atoms: C6_14  and  O5_15
REMARK    8  A    between atoms: C6_14  and  C7_17
REMARK    9  A    between atoms: C7_17  and  O6_18
REMARK   10  A    between atoms: O6_18  and  C8_19
REMARK   11  A    between atoms: C8_19  and  C9_21
REMARK   12  A    between atoms: C11_23  and  N2_24
REMARK   13  A    between atoms: C13_26  and  C14_27
REMARK   14  A    between atoms: C21_41  and  N6_42
REMARK   15  A    between atoms: N9_51  and  O10_52
ROOT
HETATM    1  C9  UNL     1     -67.490  26.054 -30.734  1.00  0.00     0.183 C
HETATM    2  C10 UNL     1     -66.053  25.619 -30.408  1.00  0.00     0.074 C
HETATM    3  C11 UNL     1     -65.470  26.872 -29.792  1.00  0.00     0.241 C
HETATM    4  N9  UNL     1     -65.952  27.879 -30.684  1.00  0.00    -0.203 N
HETATM    5  C24 UNL     1     -67.338  27.524 -30.891  1.00  0.00     0.259 C
HETATM    6  O11 UNL     1     -68.299  28.317 -31.165  1.00  0.00    -0.270 OA
ENDROOT
BRANCH   3   7
HETATM    7  N2  UNL     1     -64.069  26.834 -29.571  1.00  0.00    -0.167 N
HETATM    8  C12 UNL     1     -63.160  26.337 -30.420  1.00  0.00     0.129 A
HETATM    9  C13 UNL     1     -61.821  26.317 -30.156  1.00  0.00     0.060 A
HETATM   10  C18 UNL     1     -61.361  26.834 -28.946  1.00  0.00     0.279 A
HETATM   11  O8  UNL     1     -60.121  26.795 -28.741  1.00  0.00    -0.266 OA
HETATM   12  N4  UNL     1     -62.274  27.332 -28.094  1.00  0.00    -0.101 N
HETATM   13  C19 UNL     1     -62.106  27.890 -26.869  1.00  0.00     0.173 A
HETATM   14  C23 UNL     1     -63.599  27.328 -28.408  1.00  0.00     0.698 A
HETATM   15  C20 UNL     1     -61.046  28.161 -26.048  1.00  0.00     0.291 A
HETATM   16  C22 UNL     1     -63.384  28.240 -26.416  1.00  0.00     0.170 A
HETATM   17  O9  UNL     1     -59.881  27.878 -26.385  1.00  0.00    -0.265 OA
HETATM   18  N5  UNL     1     -61.230  28.756 -24.827  1.00  0.00    -0.154 N
HETATM   19  C21 UNL     1     -62.460  29.089 -24.401  1.00  0.00     0.680 A
ATOM     20  H5  UNL     1     -60.423  28.949 -24.234  1.00  0.00     0.187 HD
HETATM   21  N7  UNL     1     -63.504  28.823 -25.204  1.00  0.00    -0.174 N
ATOM     22  H7  UNL     1     -64.438  29.076 -24.881  1.00  0.00     0.186 HD
HETATM   23  N8  UNL     1     -64.246  27.893 -27.355  1.00  0.00    -0.173 N
ATOM     24  H8  UNL     1     -65.255  28.029 -27.297  1.00  0.00     0.186 HD
BRANCH   9  25
HETATM   25  C14 UNL     1     -60.841  25.751 -31.122  1.00  0.00    -0.010 A
HETATM   26  C15 UNL     1     -60.108  24.644 -30.781  1.00  0.00     0.064 A
HETATM   27  S2  UNL     1     -59.148  24.376 -32.162  1.00  0.00    -0.086 SA
HETATM   28  C16 UNL     1     -59.698  25.665 -33.132  1.00  0.00     0.087 A
HETATM   29  N3  UNL     1     -59.296  26.046 -34.471  1.00  0.00    -0.094 NA
HETATM   30  C17 UNL     1     -60.630  26.277 -32.333  1.00  0.00     0.047 A
ENDBRANCH   9  25
BRANCH  19  31
HETATM   31  N6  UNL     1     -62.608  29.651 -23.243  1.00  0.00    -0.234 N
ATOM     32  H62 UNL     1     -62.134  30.520 -22.998  1.00  0.00     0.174 HD
ATOM     33  H61 UNL     1     -63.216  29.220 -22.545  1.00  0.00     0.174 HD
ENDBRANCH  19  31
ENDBRANCH   3   7
BRANCH   4  34
HETATM   34  O10 UNL     1     -65.357  28.944 -31.260  1.00  0.00    -0.283 OA
ATOM     35  H10 UNL     1     -64.712  29.565 -30.945  1.00  0.00     0.245 HD
ENDBRANCH   4  34
BRANCH   1  36
HETATM   36  C8  UNL     1     -67.913  25.524 -32.079  1.00  0.00     0.272 C
HETATM   37  O7  UNL     1     -68.387  24.361 -32.134  1.00  0.00    -0.264 OA
BRANCH  36  38
HETATM   38  O6  UNL     1     -67.797  26.258 -33.220  1.00  0.00    -0.318 OA
BRANCH  38  39
HETATM   39  C7  UNL     1     -68.613  26.043 -34.336  1.00  0.00     0.213 C
BRANCH  39  40
HETATM   40  C6  UNL     1     -67.750  25.858 -35.560  1.00  0.00     0.180 C
BRANCH  40  41
HETATM   41  C5  UNL     1     -67.472  24.394 -35.868  1.00  0.00     0.241 C
BRANCH  41  42
HETATM   42  C4  UNL     1     -68.156  23.931 -37.100  1.00  0.00     0.262 C
HETATM   43  N1  UNL     1     -69.537  23.603 -37.114  1.00  0.00    -0.252 N
ATOM     44  H1  UNL     1     -70.074  23.687 -36.251  1.00  0.00     0.181 HD
HETATM   45  O3  UNL     1     -67.542  23.803 -38.212  1.00  0.00    -0.270 OA
BRANCH  43  46
HETATM   46  S1  UNL     1     -70.322  23.075 -38.525  1.00  0.00     0.233 S
HETATM   47  O1  UNL     1     -71.805  23.160 -38.290  1.00  0.00    -0.206 OA
HETATM   48  O2  UNL     1     -70.030  23.968 -39.705  1.00  0.00    -0.206 OA
BRANCH  46  49
HETATM   49  C3  UNL     1     -69.884  21.429 -38.988  1.00  0.00     0.163 C
BRANCH  49  50
HETATM   50  C2  UNL     1     -69.122  21.404 -40.297  1.00  0.00     0.012 C
HETATM   51  C1  UNL     1     -67.762  20.801 -40.104  1.00  0.00     0.006 C
ENDBRANCH  49  50
ENDBRANCH  46  49
ENDBRANCH  43  46
ENDBRANCH  41  42
BRANCH  41  52
HETATM   52  O4  UNL     1     -68.031  23.657 -34.811  1.00  0.00    -0.383 OA
ATOM     53  H4  UNL     1     -67.298  23.328 -34.303  1.00  0.00     0.210 HD
ENDBRANCH  41  52
ENDBRANCH  40  41
BRANCH  40  54
HETATM   54  O5  UNL     1     -68.523  26.409 -36.615  1.00  0.00    -0.390 OA
ATOM     55  H5  UNL     1     -68.915  27.221 -36.316  1.00  0.00     0.210 HD
ENDBRANCH  40  54
ENDBRANCH  39  40
ENDBRANCH  38  39
ENDBRANCH  36  38
ENDBRANCH   1  36
TORSDOF 15
ENDMDL