MODEL 2
REMARK VINA RESULT: -7.040008693      2.528      6.878
REMARK  21 active torsions:
REMARK  status: ('A' for Active; 'I' for Inactive)
REMARK    1  A    between atoms: C2_2  and  O2_4
REMARK    2  A    between atoms: O2_4  and  C3_5
REMARK    3  A    between atoms: C3_5  and  C4_6
REMARK    4  A    between atoms: C3_5  and  C5_9
REMARK    5  A    between atoms: C5_9  and  O5_10
REMARK    6  A    between atoms: C5_9  and  C8_14
REMARK    7  A    between atoms: O5_10  and  C6_11
REMARK    8  A    between atoms: C8_14  and  O7_15
REMARK    9  A    between atoms: C8_14  and  C9_17
REMARK   10  A    between atoms: C9_17  and  O8_18
REMARK   11  A    between atoms: C9_17  and  C10_20
REMARK   12  A    between atoms: C13_25  and  O11_26
REMARK   13  A    between atoms: O11_26  and  C14_27
REMARK   14  A    between atoms: C15_28  and  N1_29
REMARK   15  A    between atoms: C17_34  and  O12_35
REMARK   16  A    between atoms: C18_37  and  O13_39
REMARK   17  A    between atoms: C21_42  and  O14_43
REMARK   18  A    between atoms: C22_45  and  O15_46
REMARK   19  A    between atoms: O15_46  and  C23_47
REMARK   20  A    between atoms: C25_50  and  O17_51
REMARK   21  A    between atoms: O17_51  and  C26_52
ROOT
HETATM    1  C10 UNL     1     -62.310  26.210 -34.242  1.00  0.00     0.186 C
HETATM    2  O9  UNL     1     -61.895  26.560 -32.934  1.00  0.00    -0.364 OA
HETATM    3  C11 UNL     1     -60.559  26.663 -32.746  1.00  0.00     0.116 C
HETATM    4  C12 UNL     1     -59.913  25.327 -32.967  1.00  0.00     0.211 C
HETATM    5  O10 UNL     1     -59.104  25.054 -31.911  1.00  0.00    -0.358 OA
HETATM    6  C13 UNL     1     -59.122  26.060 -30.978  1.00  0.00     0.263 C
HETATM    7  C20 UNL     1     -60.333  26.867 -31.260  1.00  0.00     0.104 C
HETATM    8  C21 UNL     1     -59.914  27.763 -33.563  1.00  0.00     0.187 C
HETATM    9  C22 UNL     1     -60.744  28.139 -34.756  1.00  0.00     0.195 C
HETATM   10  C25 UNL     1     -61.567  26.949 -35.269  1.00  0.00     0.195 C
ENDROOT
BRANCH   1  11
HETATM   11  C9  UNL     1     -63.828  26.462 -34.157  1.00  0.00     0.181 C
BRANCH  11  12
HETATM   12  C8  UNL     1     -64.488  26.351 -32.902  1.00  0.00     0.182 C
BRANCH  12  13
HETATM   13  C5  UNL     1     -65.995  26.225 -32.751  1.00  0.00     0.203 C
BRANCH  13  14
HETATM   14  C3  UNL     1     -66.619  26.611 -31.478  1.00  0.00     0.264 C
BRANCH  14  15
HETATM   15  O2  UNL     1     -66.579  25.462 -30.561  1.00  0.00    -0.303 OA
BRANCH  15  16
HETATM   16  C2  UNL     1     -65.843  25.495 -29.413  1.00  0.00     0.255 C
HETATM   17  C1  UNL     1     -66.409  26.100 -28.186  1.00  0.00     0.126 C
HETATM   18  O1  UNL     1     -64.683  25.005 -29.414  1.00  0.00    -0.266 OA
ENDBRANCH  15  16
ENDBRANCH  14  15
BRANCH  14  19
HETATM   19  C4  UNL     1     -68.126  26.744 -31.616  1.00  0.00     0.206 C
HETATM   20  O3  UNL     1     -68.948  25.848 -31.508  1.00  0.00    -0.646 OA
HETATM   21  O4  UNL     1     -68.655  28.021 -31.902  1.00  0.00    -0.646 OA
ENDBRANCH  14  19
ENDBRANCH  13  14
BRANCH  13  22
HETATM   22  O5  UNL     1     -66.188  24.790 -32.999  1.00  0.00    -0.310 OA
BRANCH  22  23
HETATM   23  C6  UNL     1     -67.121  24.328 -33.884  1.00  0.00     0.255 C
HETATM   24  C7  UNL     1     -67.718  25.185 -34.945  1.00  0.00     0.126 C
HETATM   25  O6  UNL     1     -67.480  23.125 -33.784  1.00  0.00    -0.266 OA
ENDBRANCH  22  23
ENDBRANCH  13  22
ENDBRANCH  12  13
BRANCH  12  26
HETATM   26  O7  UNL     1     -64.101  25.035 -32.360  1.00  0.00    -0.390 OA
ATOM     27  H7  UNL     1     -63.428  24.812 -32.994  1.00  0.00     0.210 HD
ENDBRANCH  12  26
ENDBRANCH  11  12
BRANCH  11  28
HETATM   28  O8  UNL     1     -64.301  25.480 -35.112  1.00  0.00    -0.390 OA
ATOM     29  H8  UNL     1     -63.863  24.643 -35.012  1.00  0.00     0.210 HD
ENDBRANCH  11  28
ENDBRANCH   1  11
BRANCH  10  30
HETATM   30  O17 UNL     1     -62.206  27.406 -36.419  1.00  0.00    -0.311 OA
BRANCH  30  31
HETATM   31  C26 UNL     1     -62.190  26.698 -37.636  1.00  0.00     0.255 C
HETATM   32  C27 UNL     1     -61.182  27.081 -38.640  1.00  0.00     0.126 C
HETATM   33  O18 UNL     1     -62.996  25.779 -37.864  1.00  0.00    -0.266 OA
ENDBRANCH  30  31
ENDBRANCH  10  30
BRANCH   9  34
HETATM   34  O15 UNL     1     -61.467  29.326 -34.650  1.00  0.00    -0.311 OA
BRANCH  34  35
HETATM   35  C23 UNL     1     -61.147  30.546 -35.134  1.00  0.00     0.255 C
HETATM   36  C24 UNL     1     -61.279  30.844 -36.576  1.00  0.00     0.126 C
HETATM   37  O16 UNL     1     -60.744  31.407 -34.356  1.00  0.00    -0.266 OA
ENDBRANCH  34  35
ENDBRANCH   9  34
BRANCH   8  38
HETATM   38  O14 UNL     1     -59.699  28.848 -32.725  1.00  0.00    -0.390 OA
ATOM     39  H14 UNL     1     -59.788  29.639 -33.242  1.00  0.00     0.210 HD
ENDBRANCH   8  38
BRANCH   6  40
HETATM   40  O11 UNL     1     -59.155  25.431 -29.735  1.00  0.00    -0.351 OA
BRANCH  40  41
HETATM   41  C14 UNL     1     -60.156  25.843 -28.901  1.00  0.00     0.191 C
HETATM   42  C15 UNL     1     -59.587  26.367 -27.576  1.00  0.00     0.218 C
HETATM   43  C16 UNL     1     -58.961  25.105 -27.026  1.00  0.00     0.070 C
HETATM   44  C17 UNL     1     -59.922  24.012 -27.435  1.00  0.00     0.156 C
HETATM   45  C18 UNL     1     -60.881  24.611 -28.415  1.00  0.00     0.108 C
HETATM   46  C19 UNL     1     -61.116  23.605 -29.545  1.00  0.00     0.051 C
BRANCH  42  47
HETATM   47  N1  UNL     1     -60.643  26.764 -26.703  1.00  0.00    -0.072 N
ATOM     48  H13 UNL     1     -60.981  27.703 -26.917  1.00  0.00     0.274 HD
ATOM     49  H12 UNL     1     -61.503  26.248 -26.889  1.00  0.00     0.274 HD
ATOM     50  H11 UNL     1     -60.352  26.678 -25.729  1.00  0.00     0.274 HD
ENDBRANCH  42  47
BRANCH  44  51
HETATM   51  O12 UNL     1     -59.186  23.027 -28.093  1.00  0.00    -0.392 OA
ATOM     52  H12 UNL     1     -59.457  22.185 -27.745  1.00  0.00     0.210 HD
ENDBRANCH  44  51
BRANCH  45  53
HETATM   53  O13 UNL     1     -62.122  24.893 -27.858  1.00  0.00    -0.385 OA
ATOM     54  H13 UNL     1     -62.556  24.125 -27.507  1.00  0.00     0.210 HD
ENDBRANCH  45  53
ENDBRANCH  40  41
ENDBRANCH   6  40
TORSDOF 21
ENDMDL