MODEL 1
REMARK VINA RESULT: -7.194120202      0.000      0.000
REMARK  19 active torsions:
REMARK  status: ('A' for Active; 'I' for Inactive)
REMARK    1  A    between atoms: C2_2  and  O2_4
REMARK    2  A    between atoms: O2_4  and  C3_5
REMARK    3  A    between atoms: C4_6  and  O3_7
REMARK    4  A    between atoms: O3_7  and  C5_8
REMARK    5  A    between atoms: C7_11  and  O5_12
REMARK    6  A    between atoms: C7_11  and  C11_21
REMARK    7  A    between atoms: O5_12  and  C8_13
REMARK    8  A    between atoms: C8_13  and  C9_15
REMARK    9  A    between atoms: C9_15  and  C10_16
REMARK   10  A    between atoms: C10_16  and  N1_17
REMARK   11  A    between atoms: C13_26  and  C14_27
REMARK   12  A    between atoms: C16_31  and  O12_32
REMARK   13  A    between atoms: C18_35  and  O13_36
REMARK   14  A    between atoms: C18_35  and  C19_38
REMARK   15  A    between atoms: C19_38  and  O14_39
REMARK   16  A    between atoms: C20_41  and  N2_42
REMARK       I    between atoms: N2_42  and  C21_43
REMARK   17  A    between atoms: C21_43  and  C22_45
REMARK   18  A    between atoms: C23_46  and  C24_47
REMARK   19  A    between atoms: C26_52  and  O19_53
ROOT
HETATM    1  C3  UNL     1     -63.130  27.301 -27.918  1.00  0.00     0.175 C
HETATM    2  C4  UNL     1     -61.708  27.129 -28.147  1.00  0.00     0.210 C
HETATM    3  C7  UNL     1     -61.195  26.009 -28.998  1.00  0.00     0.208 C
HETATM    4  C12 UNL     1     -61.738  26.001 -30.390  1.00  0.00     0.222 C
HETATM    5  O9  UNL     1     -63.019  26.259 -30.578  1.00  0.00    -0.362 OA
HETATM    6  C13 UNL     1     -63.646  27.416 -30.398  1.00  0.00     0.192 C
HETATM    7  C15 UNL     1     -64.132  27.466 -28.986  1.00  0.00     0.096 C
HETATM    8  C16 UNL     1     -65.253  26.493 -28.698  1.00  0.00     0.131 C
HETATM    9  C17 UNL     1     -66.206  26.243 -29.792  1.00  0.00     0.075 C
HETATM   10  C18 UNL     1     -66.168  27.313 -30.801  1.00  0.00     0.117 C
HETATM   11  C20 UNL     1     -64.808  27.432 -31.403  1.00  0.00     0.249 C
ENDROOT
BRANCH  11  12
HETATM   12  N2  UNL     1     -64.628  26.594 -32.501  1.00  0.00    -0.399 NA
HETATM   13  C21 UNL     1     -64.451  25.768 -33.576  1.00  0.00     0.311 C
HETATM   14  O15 UNL     1     -64.886  24.595 -33.636  1.00  0.00    -0.252 OA
BRANCH  13  15
HETATM   15  C22 UNL     1     -63.706  26.235 -34.778  1.00  0.00     0.092 C
HETATM   16  C23 UNL     1     -62.453  26.340 -35.003  1.00  0.00     0.049 C
BRANCH  16  17
HETATM   17  C24 UNL     1     -61.289  26.047 -34.180  1.00  0.00     0.140 A
HETATM   18  O16 UNL     1     -60.801  24.942 -33.706  1.00  0.00    -0.250 OA
HETATM   19  C25 UNL     1     -59.737  25.198 -33.025  1.00  0.00     0.419 A
HETATM   20  O17 UNL     1     -59.016  24.329 -32.426  1.00  0.00    -0.229 OA
HETATM   21  O18 UNL     1     -59.502  26.483 -33.033  1.00  0.00    -0.229 OA
HETATM   22  C26 UNL     1     -60.425  27.050 -33.728  1.00  0.00     0.223 A
BRANCH  22  23
HETATM   23  O19 UNL     1     -60.495  28.433 -33.955  1.00  0.00    -0.338 OA
ATOM     24  H19 UNL     1     -60.170  29.140 -33.410  1.00  0.00     0.220 HD
ENDBRANCH  22  23
ENDBRANCH  16  17
ENDBRANCH  13  15
ENDBRANCH  11  12
BRANCH   6  25
HETATM   25  C14 UNL     1     -62.946  28.688 -30.678  1.00  0.00     0.213 C
HETATM   26  O10 UNL     1     -63.610  29.739 -30.430  1.00  0.00    -0.646 OA
HETATM   27  O11 UNL     1     -61.689  28.887 -31.165  1.00  0.00    -0.646 OA
ENDBRANCH   6  25
BRANCH  10  28
HETATM   28  O13 UNL     1     -66.592  28.552 -30.300  1.00  0.00    -0.384 OA
ATOM     29  H13 UNL     1     -67.005  29.096 -30.961  1.00  0.00     0.210 HD
ENDBRANCH  10  28
BRANCH  10  30
HETATM   30  C19 UNL     1     -67.127  26.904 -31.925  1.00  0.00     0.205 C
BRANCH  30  31
HETATM   31  O14 UNL     1     -67.323  25.536 -31.787  1.00  0.00    -0.398 OA
ATOM     32  H14 UNL     1     -68.246  25.384 -31.945  1.00  0.00     0.209 HD
ENDBRANCH  30  31
ENDBRANCH  10  30
BRANCH   1  33
HETATM   33  O2  UNL     1     -63.345  28.450 -27.062  1.00  0.00    -0.313 OA
BRANCH  33  34
HETATM   34  C2  UNL     1     -63.934  28.383 -25.832  1.00  0.00     0.255 C
HETATM   35  C1  UNL     1     -64.034  29.604 -24.984  1.00  0.00     0.126 C
HETATM   36  O1  UNL     1     -64.384  27.317 -25.420  1.00  0.00    -0.266 OA
ENDBRANCH  33  34
ENDBRANCH   1  33
BRANCH   8  37
HETATM   37  O12 UNL     1     -64.733  25.229 -28.318  1.00  0.00    -0.395 OA
ATOM     38  H12 UNL     1     -64.272  24.825 -29.043  1.00  0.00     0.210 HD
ENDBRANCH   8  37
BRANCH   3  39
HETATM   39  O5  UNL     1     -61.383  24.829 -28.274  1.00  0.00    -0.294 OA
BRANCH  39  40
HETATM   40  C8  UNL     1     -61.597  23.565 -28.701  1.00  0.00     0.261 C
HETATM   41  O6  UNL     1     -62.685  23.272 -29.207  1.00  0.00    -0.265 OA
BRANCH  40  42
HETATM   42  C9  UNL     1     -60.571  22.470 -28.599  1.00  0.00     0.138 C
BRANCH  42  43
HETATM   43  C10 UNL     1     -60.290  22.179 -27.132  1.00  0.00     0.239 C
BRANCH  43  44
HETATM   44  N1  UNL     1     -59.507  23.214 -26.520  1.00  0.00    -0.079 N
ATOM     45  H13 UNL     1     -58.607  22.858 -26.201  1.00  0.00     0.274 HD
ATOM     46  H12 UNL     1     -59.178  23.887 -27.213  1.00  0.00     0.274 HD
ATOM     47  H11 UNL     1     -60.012  23.676 -25.764  1.00  0.00     0.274 HD
ENDBRANCH  43  44
ENDBRANCH  42  43
ENDBRANCH  40  42
ENDBRANCH  39  40
ENDBRANCH   3  39
BRANCH   3  48
HETATM   48  C11 UNL     1     -59.697  26.200 -29.045  1.00  0.00     0.215 C
HETATM   49  O7  UNL     1     -59.152  27.078 -29.754  1.00  0.00    -0.646 OA
HETATM   50  O8  UNL     1     -58.850  25.406 -28.296  1.00  0.00    -0.646 OA
ENDBRANCH   3  48
BRANCH   2  51
HETATM   51  O3  UNL     1     -61.074  26.929 -26.849  1.00  0.00    -0.310 OA
BRANCH  51  52
HETATM   52  C5  UNL     1     -60.300  27.850 -26.221  1.00  0.00     0.255 C
HETATM   53  C6  UNL     1     -60.591  28.126 -24.779  1.00  0.00     0.126 C
HETATM   54  O4  UNL     1     -59.399  28.424 -26.842  1.00  0.00    -0.266 OA
ENDBRANCH  51  52
ENDBRANCH   2  51
TORSDOF 19
ENDMDL