MODEL 1
REMARK VINA RESULT: -6.837317977      0.000      0.000
REMARK  16 active torsions:
REMARK  status: ('A' for Active; 'I' for Inactive)
REMARK    1  A    between atoms: C2_2  and  C3_3
REMARK    2  A    between atoms: C3_3  and  O1_4
REMARK    3  A    between atoms: C3_3  and  C4_6
REMARK    4  A    between atoms: C6_10  and  C7_11
REMARK       I    between atoms: C7_11  and  N1_13
REMARK    5  A    between atoms: N1_13  and  C8_15
REMARK    6  A    between atoms: C9_16  and  O3_17
REMARK    7  A    between atoms: N3_25  and  C12_26
REMARK    8  A    between atoms: C12_26  and  C13_27
REMARK    9  A    between atoms: C13_27  and  N4_28
REMARK   10  A    between atoms: C13_27  and  C14_32
REMARK   11  A    between atoms: C14_32  and  C15_33
REMARK   12  A    between atoms: C15_33  and  S4_34
REMARK   13  A    between atoms: C17_36  and  N5_37
REMARK   14  A    between atoms: C18_42  and  C19_43
REMARK       I    between atoms: C19_43  and  N7_45
REMARK   15  A    between atoms: N7_45  and  S5_47
REMARK   16  A    between atoms: S5_47  and  N8_48
ROOT
HETATM    1  C8  UNL     1     -64.734  29.270 -32.226  1.00  0.00     0.265 C
HETATM    2  C9  UNL     1     -65.385  30.579 -31.889  1.00  0.00     0.245 C
HETATM    3  C10 UNL     1     -65.674  31.277 -33.174  1.00  0.00     0.240 C
HETATM    4  O4  UNL     1     -65.619  32.468 -33.242  1.00  0.00    -0.281 OA
HETATM    5  S3  UNL     1     -66.105  30.227 -34.585  1.00  0.00     0.057 SA
HETATM    6  N2  UNL     1     -66.377  28.627 -33.837  1.00  0.00    -0.150 N
HETATM    7  C11 UNL     1     -67.186  27.604 -34.156  1.00  0.00     0.373 A
HETATM    8  O5  UNL     1     -67.944  27.666 -35.159  1.00  0.00    -0.243 OA
HETATM    9  N3  UNL     1     -66.997  26.627 -33.246  1.00  0.00    -0.105 N
HETATM   10  C17 UNL     1     -66.070  27.070 -32.382  1.00  0.00     0.706 A
HETATM   11  N6  UNL     1     -65.691  28.322 -32.761  1.00  0.00    -0.079 N
ENDROOT
BRANCH   1  12
HETATM   12  N1  UNL     1     -63.977  28.712 -31.125  1.00  0.00    -0.333 N
HETATM   13  C7  UNL     1     -62.550  28.797 -31.106  1.00  0.00     0.249 C
HETATM   14  O2  UNL     1     -61.967  29.363 -32.066  1.00  0.00    -0.271 OA
ATOM     15  H1  UNL     1     -64.467  28.254 -30.356  1.00  0.00     0.164 HD
BRANCH  13  16
HETATM   16  C6  UNL     1     -61.719  28.252 -30.011  1.00  0.00     0.224 C
HETATM   17  C5  UNL     1     -60.255  28.184 -30.402  1.00  0.00     0.128 C
HETATM   18  S2  UNL     1     -59.777  26.642 -31.172  1.00  0.00    -0.094 SA
HETATM   19  S1  UNL     1     -60.678  24.929 -30.360  1.00  0.00    -0.087 SA
HETATM   20  C4  UNL     1     -61.145  25.143 -28.600  1.00  0.00     0.125 C
HETATM   21  C18 UNL     1     -61.475  26.634 -28.469  1.00  0.00     0.232 C
HETATM   22  O6  UNL     1     -62.154  27.000 -29.657  1.00  0.00    -0.360 OA
BRANCH  20  23
HETATM   23  C3  UNL     1     -60.006  24.803 -27.703  1.00  0.00     0.135 C
BRANCH  23  24
HETATM   24  C2  UNL     1     -59.357  23.481 -28.058  1.00  0.00     0.028 C
HETATM   25  C1  UNL     1     -60.075  22.310 -27.450  1.00  0.00     0.007 C
ENDBRANCH  23  24
BRANCH  23  26
HETATM   26  O1  UNL     1     -59.012  25.791 -27.877  1.00  0.00    -0.394 OA
ATOM     27  H1  UNL     1     -59.147  26.427 -27.185  1.00  0.00     0.210 HD
ENDBRANCH  23  26
ENDBRANCH  20  23
BRANCH  21  28
HETATM   28  C19 UNL     1     -62.333  26.942 -27.326  1.00  0.00     0.262 C
HETATM   29  O7  UNL     1     -63.237  26.120 -26.997  1.00  0.00    -0.270 OA
HETATM   30  N7  UNL     1     -62.143  28.152 -26.606  1.00  0.00    -0.235 N
ATOM     31  H7  UNL     1     -61.407  28.798 -26.893  1.00  0.00     0.183 HD
BRANCH  30  32
HETATM   32  S5  UNL     1     -63.145  28.547 -25.244  1.00  0.00     0.319 S
HETATM   33  O8  UNL     1     -63.643  29.942 -25.289  1.00  0.00    -0.183 OA
HETATM   34  O9  UNL     1     -62.317  28.338 -23.993  1.00  0.00    -0.183 OA
BRANCH  32  35
HETATM   35  N8  UNL     1     -64.486  27.458 -25.180  1.00  0.00    -0.311 N
ATOM     36  H82 UNL     1     -65.009  27.139 -25.996  1.00  0.00     0.170 HD
ATOM     37  H81 UNL     1     -64.664  27.194 -24.211  1.00  0.00     0.170 HD
ENDBRANCH  32  35
ENDBRANCH  30  32
ENDBRANCH  21  28
ENDBRANCH  13  16
ENDBRANCH   1  12
BRANCH   2  38
HETATM   38  O3  UNL     1     -66.541  30.424 -31.127  1.00  0.00    -0.383 OA
ATOM     39  H3  UNL     1     -66.415  30.665 -30.217  1.00  0.00     0.210 HD
ENDBRANCH   2  38
BRANCH  10  40
HETATM   40  N5  UNL     1     -65.532  26.490 -31.363  1.00  0.00    -0.232 N
ATOM     41  H52 UNL     1     -65.360  25.484 -31.360  1.00  0.00     0.174 HD
ATOM     42  H51 UNL     1     -65.240  26.871 -30.463  1.00  0.00     0.174 HD
ENDBRANCH  10  40
BRANCH   9  43
HETATM   43  C12 UNL     1     -67.641  25.376 -33.230  1.00  0.00     0.126 C
BRANCH  43  44
HETATM   44  C13 UNL     1     -67.114  24.324 -34.202  1.00  0.00     0.223 C
BRANCH  44  45
HETATM   45  N4  UNL     1     -67.851  23.100 -33.861  1.00  0.00    -0.070 N
ATOM     46  H43 UNL     1     -68.842  23.131 -34.104  1.00  0.00     0.275 HD
ATOM     47  H42 UNL     1     -67.615  22.297 -34.444  1.00  0.00     0.275 HD
ATOM     48  H41 UNL     1     -67.672  22.959 -32.867  1.00  0.00     0.275 HD
ENDBRANCH  44  45
BRANCH  44  49
HETATM   49  C14 UNL     1     -65.662  24.149 -34.143  1.00  0.00     0.048 C
BRANCH  49  50
HETATM   50  C15 UNL     1     -64.866  24.554 -35.320  1.00  0.00     0.076 C
BRANCH  50  51
HETATM   51  S4  UNL     1     -63.830  25.973 -35.313  1.00  0.00    -0.173 SA
HETATM   52  C16 UNL     1     -62.800  26.287 -33.895  1.00  0.00     0.089 C
ENDBRANCH  50  51
ENDBRANCH  49  50
ENDBRANCH  44  49
ENDBRANCH  43  44
ENDBRANCH   9  43
TORSDOF 16
ENDMDL