MODEL 4
REMARK VINA RESULT: -7.204981194      1.762      2.192
REMARK  15 active torsions:
REMARK  status: ('A' for Active; 'I' for Inactive)
REMARK    1  A    between atoms: O1_2  and  C2_3
REMARK    2  A    between atoms: C2_3  and  C3_5
REMARK    3  A    between atoms: C3_5  and  O3_6
REMARK    4  A    between atoms: C3_5  and  N1_8
REMARK    5  A    between atoms: N1_8  and  C4_10
REMARK    6  A    between atoms: C5_11  and  N2_12
REMARK    7  A    between atoms: N2_12  and  N3_14
REMARK    8  A    between atoms: C9_23  and  C10_24
REMARK    9  A    between atoms: C13_30  and  C14_31
REMARK   10  A    between atoms: C15_34  and  C16_35
REMARK   11  A    between atoms: C16_35  and  N7_36
REMARK   12  A    between atoms: N7_36  and  C17_37
REMARK   13  A    between atoms: C17_37  and  N8_38
REMARK   14  A    between atoms: C21_47  and  N11_48
REMARK   15  A    between atoms: C23_54  and  O12_56
ROOT
HETATM    1  C4  UNL     1     -65.797  26.812 -30.744  1.00  0.00     0.148 A
HETATM    2  C5  UNL     1     -64.635  27.277 -31.351  1.00  0.00     0.179 A
HETATM    3  N4  UNL     1     -63.890  27.880 -30.415  1.00  0.00    -0.231 N
HETATM    4  N5  UNL     1     -64.505  27.831 -29.224  1.00  0.00    -0.245 N
HETATM    5  C6  UNL     1     -65.687  27.171 -29.413  1.00  0.00     0.293 A
HETATM    6  O6  UNL     1     -66.564  26.917 -28.523  1.00  0.00    -0.264 OA
HETATM    7  C7  UNL     1     -64.178  28.290 -27.909  1.00  0.00     0.179 C
HETATM    8  C8  UNL     1     -62.793  28.805 -27.733  1.00  0.00     0.129 C
HETATM    9  C9  UNL     1     -62.047  28.238 -26.535  1.00  0.00     0.171 C
HETATM   10  C12 UNL     1     -61.940  27.015 -27.399  1.00  0.00     0.234 C
HETATM   11  O8  UNL     1     -61.905  25.783 -27.260  1.00  0.00    -0.272 OA
HETATM   12  N6  UNL     1     -61.894  27.900 -28.487  1.00  0.00    -0.324 N
HETATM   13  C13 UNL     1     -61.399  28.239 -29.824  1.00  0.00     0.242 C
HETATM   14  C15 UNL     1     -62.572  28.487 -30.688  1.00  0.00     0.085 C
ENDROOT
BRANCH  14  15
HETATM   15  C16 UNL     1     -62.543  29.206 -31.725  1.00  0.00     0.124 C
BRANCH  15  16
HETATM   16  N7  UNL     1     -62.033  30.385 -32.297  1.00  0.00    -0.322 N
HETATM   17  C23 UNL     1     -62.482  31.631 -32.591  1.00  0.00     0.114 C
HETATM   18  C24 UNL     1     -63.819  32.242 -32.673  1.00  0.00     0.097 C
BRANCH  16  19
HETATM   19  C17 UNL     1     -60.602  30.121 -32.823  1.00  0.00     0.264 C
BRANCH  19  20
HETATM   20  N8  UNL     1     -60.634  29.307 -34.006  1.00  0.00    -0.309 N
HETATM   21  C18 UNL     1     -60.979  29.794 -35.231  1.00  0.00     0.187 A
HETATM   22  N9  UNL     1     -60.838  28.786 -36.105  1.00  0.00    -0.345 N
HETATM   23  C19 UNL     1     -60.424  27.682 -35.504  1.00  0.00     0.147 A
ATOM     24  H9  UNL     1     -61.026  28.861 -37.105  1.00  0.00     0.167 HD
HETATM   25  C20 UNL     1     -60.160  26.406 -35.954  1.00  0.00     0.290 A
HETATM   26  C22 UNL     1     -60.294  28.024 -34.140  1.00  0.00     0.158 A
HETATM   27  O11 UNL     1     -60.289  26.160 -37.175  1.00  0.00    -0.265 OA
HETATM   28  N10 UNL     1     -59.775  25.487 -35.056  1.00  0.00    -0.154 N
HETATM   29  C21 UNL     1     -59.656  25.824 -33.739  1.00  0.00     0.680 A
ATOM     30  H10 UNL     1     -59.571  24.534 -35.358  1.00  0.00     0.187 HD
HETATM   31  N12 UNL     1     -59.908  27.055 -33.290  1.00  0.00    -0.174 N
ATOM     32  H12 UNL     1     -59.806  27.263 -32.296  1.00  0.00     0.186 HD
BRANCH  29  33
HETATM   33  N11 UNL     1     -59.285  24.931 -32.867  1.00  0.00    -0.234 N
ATOM     34 2H11 UNL     1     -59.934  24.171 -32.667  1.00  0.00     0.174 HD
ATOM     35 1H11 UNL     1     -58.374  25.007 -32.411  1.00  0.00     0.174 HD
ENDBRANCH  29  33
ENDBRANCH  19  20
ENDBRANCH  16  19
BRANCH  17  36
HETATM   36  O12 UNL     1     -61.548  32.542 -32.887  1.00  0.00    -0.349 OA
ATOM     37  H12 UNL     1     -61.853  33.334 -33.314  1.00  0.00     0.219 HD
ENDBRANCH  17  36
ENDBRANCH  15  16
ENDBRANCH  14  15
BRANCH  13  38
HETATM   38  C14 UNL     1     -60.624  27.074 -30.288  1.00  0.00     0.203 C
HETATM   39  O9  UNL     1     -61.231  26.033 -30.631  1.00  0.00    -0.646 OA
HETATM   40  O10 UNL     1     -59.260  27.095 -30.357  1.00  0.00    -0.646 OA
ENDBRANCH  13  38
BRANCH   2  41
HETATM   41  N2  UNL     1     -64.339  27.061 -32.722  1.00  0.00    -0.222 N
ATOM     42  H2  UNL     1     -64.449  27.836 -33.377  1.00  0.00     0.195 HD
BRANCH  41  43
HETATM   43  N3  UNL     1     -63.903  25.825 -33.212  1.00  0.00    -0.037 N
HETATM   44  O4  UNL     1     -62.747  25.611 -33.604  1.00  0.00    -0.516 OA
HETATM   45  O5  UNL     1     -64.793  24.782 -33.270  1.00  0.00    -0.516 OA
ENDBRANCH  41  43
ENDBRANCH   2  41
BRANCH   1  46
HETATM   46  N1  UNL     1     -66.836  26.110 -31.395  1.00  0.00    -0.348 N
ATOM     47  H1  UNL     1     -66.692  25.118 -31.584  1.00  0.00     0.163 HD
BRANCH  46  48
HETATM   48  C3  UNL     1     -68.076  26.694 -31.807  1.00  0.00     0.320 C
BRANCH  48  49
HETATM   49  C2  UNL     1     -68.103  27.174 -33.205  1.00  0.00     0.307 C
HETATM   50  O2  UNL     1     -69.116  26.931 -33.926  1.00  0.00    -0.260 OA
BRANCH  49  51
HETATM   51  O1  UNL     1     -67.091  27.886 -33.814  1.00  0.00    -0.323 OA
HETATM   52  C1  UNL     1     -67.137  29.290 -33.994  1.00  0.00     0.213 C
ENDBRANCH  49  51
ENDBRANCH  48  49
BRANCH  48  53
HETATM   53  O3  UNL     1     -68.293  27.855 -31.021  1.00  0.00    -0.368 OA
ATOM     54  H3  UNL     1     -67.426  28.128 -30.745  1.00  0.00     0.212 HD
ENDBRANCH  48  53
ENDBRANCH  46  48
ENDBRANCH   1  46
BRANCH   9  55
HETATM   55  C10 UNL     1     -62.781  28.099 -25.285  1.00  0.00     0.138 C
HETATM   56  C11 UNL     1     -62.205  28.830 -24.093  1.00  0.00     0.091 C
HETATM   57  O7  UNL     1     -63.789  27.476 -25.069  1.00  0.00    -0.297 OA
ENDBRANCH   9  55
TORSDOF 15
ENDMDL