MODEL 3
REMARK VINA RESULT: -7.136323201      1.753      2.875
REMARK  18 active torsions:
REMARK  status: ('A' for Active; 'I' for Inactive)
REMARK    1  A    between atoms: O1_1  and  C1_3
REMARK    2  A    between atoms: C1_3  and  C2_4
REMARK    3  A    between atoms: C3_6  and  O3_7
REMARK    4  A    between atoms: O3_7  and  C4_8
REMARK    5  A    between atoms: C7_12  and  O5_13
REMARK    6  A    between atoms: O5_13  and  C8_14
REMARK    7  A    between atoms: C16_25  and  O9_26
REMARK    8  A    between atoms: O9_26  and  C17_27
REMARK    9  A    between atoms: C19_30  and  O11_31
REMARK   10  A    between atoms: C19_30  and  C20_33
REMARK   11  A    between atoms: C20_33  and  O12_34
REMARK   12  A    between atoms: C21_36  and  O13_37
REMARK   13  A    between atoms: O13_37  and  C22_38
REMARK   14  A    between atoms: C24_41  and  O15_42
REMARK   15  A    between atoms: C24_41  and  C25_44
REMARK   16  A    between atoms: C25_44  and  O16_45
REMARK   17  A    between atoms: C26_47  and  O17_48
REMARK   18  A    between atoms: C28_51  and  O18_52
ROOT
HETATM    1  C2  UNL     1     -67.449  27.950 -32.926  1.00  0.00     0.177 C
HETATM    2  O2  UNL     1     -66.434  27.173 -32.381  1.00  0.00    -0.349 OA
HETATM    3  C3  UNL     1     -66.913  26.007 -31.797  1.00  0.00     0.290 C
HETATM    4  C16 UNL     1     -68.123  25.477 -32.582  1.00  0.00     0.182 C
HETATM    5  C27 UNL     1     -69.310  26.398 -32.298  1.00  0.00     0.071 C
HETATM    6  C28 UNL     1     -68.768  27.806 -32.202  1.00  0.00     0.151 C
ENDROOT
BRANCH   4   7
HETATM    7  O9  UNL     1     -67.891  25.350 -33.923  1.00  0.00    -0.348 OA
BRANCH   7   8
HETATM    8  C17 UNL     1     -66.988  24.325 -34.157  1.00  0.00     0.292 C
HETATM    9  O10 UNL     1     -67.622  23.239 -34.791  1.00  0.00    -0.355 OA
HETATM   10  C18 UNL     1     -67.762  23.577 -36.111  1.00  0.00     0.213 C
HETATM   11  C19 UNL     1     -66.662  24.527 -36.486  1.00  0.00     0.131 C
HETATM   12  C21 UNL     1     -65.922  24.664 -35.172  1.00  0.00     0.218 C
BRANCH  11  13
HETATM   13  O11 UNL     1     -65.870  24.014 -37.510  1.00  0.00    -0.383 OA
ATOM     14  H11 UNL     1     -65.096  23.582 -37.169  1.00  0.00     0.210 HD
ENDBRANCH  11  13
BRANCH  11  15
HETATM   15  C20 UNL     1     -67.251  25.833 -36.974  1.00  0.00     0.207 C
BRANCH  15  16
HETATM   16  O12 UNL     1     -68.620  25.930 -36.767  1.00  0.00    -0.398 OA
ATOM     17  H12 UNL     1     -68.872  26.695 -36.262  1.00  0.00     0.209 HD
ENDBRANCH  15  16
ENDBRANCH  11  15
BRANCH  12  18
HETATM   18  O13 UNL     1     -65.309  25.874 -34.983  1.00  0.00    -0.345 OA
BRANCH  18  19
HETATM   19  C22 UNL     1     -63.948  25.692 -34.879  1.00  0.00     0.292 C
HETATM   20  O14 UNL     1     -63.264  26.270 -35.979  1.00  0.00    -0.355 OA
HETATM   21  C23 UNL     1     -61.929  26.002 -35.597  1.00  0.00     0.213 C
HETATM   22  C24 UNL     1     -61.869  26.508 -34.195  1.00  0.00     0.130 C
HETATM   23  C26 UNL     1     -63.306  26.327 -33.680  1.00  0.00     0.211 C
BRANCH  22  24
HETATM   24  O15 UNL     1     -61.531  27.859 -34.193  1.00  0.00    -0.383 OA
ATOM     25  H15 UNL     1     -61.474  28.176 -33.299  1.00  0.00     0.210 HD
ENDBRANCH  22  24
BRANCH  22  26
HETATM   26  C25 UNL     1     -60.973  25.718 -33.290  1.00  0.00     0.207 C
BRANCH  26  27
HETATM   27  O16 UNL     1     -61.567  25.550 -32.058  1.00  0.00    -0.398 OA
ATOM     28  H16 UNL     1     -61.260  24.749 -31.650  1.00  0.00     0.209 HD
ENDBRANCH  26  27
ENDBRANCH  22  26
BRANCH  23  29
HETATM   29  O17 UNL     1     -63.849  27.587 -33.403  1.00  0.00    -0.387 OA
ATOM     30  H17 UNL     1     -63.271  28.110 -32.860  1.00  0.00     0.210 HD
ENDBRANCH  23  29
ENDBRANCH  18  19
ENDBRANCH  12  18
ENDBRANCH   7   8
ENDBRANCH   4   7
BRANCH   3  31
HETATM   31  O3  UNL     1     -67.337  26.162 -30.514  1.00  0.00    -0.349 OA
BRANCH  31  32
HETATM   32  C4  UNL     1     -66.319  26.235 -29.544  1.00  0.00     0.154 C
HETATM   33  C5  UNL     1     -65.817  27.604 -29.409  1.00  0.00     0.029 C
HETATM   34  C6  UNL     1     -64.581  27.884 -29.797  1.00  0.00     0.136 C
HETATM   35  O4  UNL     1     -63.807  26.843 -30.320  1.00  0.00    -0.332 OA
HETATM   36  C7  UNL     1     -63.920  25.588 -29.627  1.00  0.00     0.271 C
HETATM   37  C15 UNL     1     -65.338  25.137 -29.690  1.00  0.00     0.097 C
BRANCH  36  38
HETATM   38  O5  UNL     1     -63.501  25.707 -28.288  1.00  0.00    -0.326 OA
BRANCH  38  39
HETATM   39  C8  UNL     1     -62.294  26.348 -28.151  1.00  0.00     0.329 C
HETATM   40  O6  UNL     1     -61.268  25.446 -28.253  1.00  0.00    -0.205 OA
HETATM   41  O7  UNL     1     -60.486  25.417 -27.196  1.00  0.00    -0.238 OA
HETATM   42  C9  UNL     1     -59.757  26.630 -27.219  1.00  0.00     0.217 C
HETATM   43  C10 UNL     1     -60.754  27.716 -26.835  1.00  0.00     0.046 C
HETATM   44  C11 UNL     1     -60.491  28.281 -25.470  1.00  0.00     0.011 C
HETATM   45  C14 UNL     1     -62.142  27.113 -26.849  1.00  0.00     0.185 C
HETATM   46  C12 UNL     1     -61.797  28.447 -24.734  1.00  0.00     0.027 C
HETATM   47  C13 UNL     1     -62.911  28.900 -25.646  1.00  0.00     0.168 C
HETATM   48  O8  UNL     1     -63.052  28.146 -26.781  1.00  0.00    -0.380 OA
ENDBRANCH  38  39
ENDBRANCH  36  38
ENDBRANCH  31  32
ENDBRANCH   3  31
BRANCH   6  49
HETATM   49  O18 UNL     1     -69.658  28.727 -32.791  1.00  0.00    -0.393 OA
ATOM     50  H18 UNL     1     -69.979  28.327 -33.591  1.00  0.00     0.210 HD
ENDBRANCH   6  49
BRANCH   1  51
HETATM   51  C1  UNL     1     -67.025  29.409 -32.702  1.00  0.00     0.198 C
BRANCH  51  52
HETATM   52  O1  UNL     1     -67.388  29.864 -31.452  1.00  0.00    -0.398 OA
ATOM     53  H1  UNL     1     -66.668  30.296 -31.009  1.00  0.00     0.209 HD
ENDBRANCH  51  52
ENDBRANCH   1  51
TORSDOF 18
ENDMDL