MODEL 2
REMARK VINA RESULT: -4.365845831      1.833      2.792
REMARK  2 active torsions:
REMARK  status: ('A' for Active; 'I' for Inactive)
REMARK    1  A    between atoms: O1_1  and  N1_3
REMARK    2  A    between atoms: C3_6  and  O2_7
ROOT
HETATM    1  N1  UNL     1      -5.897  39.469  12.679  1.00  0.00    -0.150 NA
HETATM    2  C1  UNL     1      -6.218  40.826  12.231  1.00  0.00     0.131 C
HETATM    3  C2  UNL     1      -4.739  41.106  12.223  1.00  0.00     0.091 C
HETATM    4  C3  UNL     1      -4.523  39.847  13.041  1.00  0.00     0.217 C
HETATM    5 CL1  UNL     1      -4.284  40.171  14.756  1.00  0.00    -0.069 Cl
ENDROOT
BRANCH   4   6
HETATM    6  O2  UNL     1      -3.604  38.956  12.516  1.00  0.00    -0.361 OA
ATOM      7  H2  UNL     1      -2.730  39.128  12.847  1.00  0.00     0.213 HD
ENDBRANCH   4   6
BRANCH   1   8
HETATM    8  O1  UNL     1      -6.539  39.086  13.797  1.00  0.00    -0.309 OA
ATOM      9  H1  UNL     1      -7.450  39.353  13.840  1.00  0.00     0.237 HD
ENDBRANCH   1   8
TORSDOF 2
ENDMDL