MODEL 1
REMARK VINA RESULT: -3.616081580      0.000      0.000
REMARK  2 active torsions:
REMARK  status: ('A' for Active; 'I' for Inactive)
REMARK    1  A    between atoms: C2_4  and  N2_5
REMARK    2  A    between atoms: C2_4  and  O1_10
ROOT
HETATM    1  C1  UNL     1      -5.227  41.581  10.991  1.00  0.00     0.150 C
HETATM    2  N1  UNL     1      -6.182  40.788  11.717  1.00  0.00    -0.360 N
ATOM      3  H1  UNL     1      -7.061  40.544  11.261  1.00  0.00     0.162 HD
HETATM    4  C2  UNL     1      -5.972  40.372  12.923  1.00  0.00     0.220 C
ENDROOT
BRANCH   4   5
HETATM    5  N2  UNL     1      -4.772  40.689  13.582  1.00  0.00    -0.299 N
HETATM    6  C3  UNL     1      -3.696  39.999  13.541  1.00  0.00     0.204 C
HETATM    7  N3  UNL     1      -2.562  40.445  14.257  1.00  0.00    -0.066 NA
HETATM    8  N4  UNL     1      -3.594  38.778  12.785  1.00  0.00    -0.066 NA
ATOM      9  H2  UNL     1      -4.758  41.542  14.141  1.00  0.00     0.171 HD
ENDBRANCH   4   5
BRANCH   4  10
HETATM   10  O1  UNL     1      -6.986  39.614  13.499  1.00  0.00    -0.327 OA
HETATM   11  C4  UNL     1      -6.903  39.121  14.824  1.00  0.00     0.213 C
ENDBRANCH   4  10
TORSDOF 2
ENDMDL