MODEL 5
REMARK VINA RESULT: -3.955912929      2.250      2.528
REMARK  2 active torsions:
REMARK  status: ('A' for Active; 'I' for Inactive)
REMARK    1  A    between atoms: N1_1  and  C1_5
REMARK    2  A    between atoms: C2_6  and  O1_7
ROOT
HETATM    1  C1  UNL     1      -5.446  39.448  13.279  1.00  0.00     0.230 C
HETATM    2  C2  UNL     1      -4.050  39.538  13.919  1.00  0.00     0.151 C
HETATM    3  C3  UNL     1      -3.660  40.344  12.674  1.00  0.00     0.056 C
HETATM    4  C4  UNL     1      -5.118  40.823  12.689  1.00  0.00     0.117 C
HETATM    5 CL1  UNL     1      -5.842  41.067  11.123  1.00  0.00    -0.123 Cl
ENDROOT
BRANCH   1   6
HETATM    6  N1  UNL     1      -6.497  39.423  14.232  1.00  0.00    -0.071 N
ATOM      7  H13 UNL     1      -7.166  40.172  14.055  1.00  0.00     0.274 HD
ATOM      8  H12 UNL     1      -7.104  38.617  14.081  1.00  0.00     0.274 HD
ATOM      9  H11 UNL     1      -6.165  39.452  15.196  1.00  0.00     0.274 HD
ENDBRANCH   1   6
BRANCH   2  10
HETATM   10  O1  UNL     1      -3.405  38.322  14.037  1.00  0.00    -0.393 OA
ATOM     11  H1  UNL     1      -3.491  37.762  13.274  1.00  0.00     0.210 HD
ENDBRANCH   2  10
TORSDOF 2
ENDMDL