MODEL 5
REMARK VINA RESULT: -4.057857379      2.286      3.041
REMARK  2 active torsions:
REMARK  status: ('A' for Active; 'I' for Inactive)
REMARK    1  A    between atoms: O1_1  and  C1_3
REMARK    2  A    between atoms: C4_7  and  O2_8
ROOT
HETATM    1  C1  UNL     1      -4.570  39.921  13.929  1.00  0.00     0.149 C
HETATM    2  C2  UNL     1      -3.825  40.384  12.669  1.00  0.00     0.057 C
HETATM    3  C3  UNL     1      -5.031  41.295  12.426  1.00  0.00     0.116 C
HETATM    4 CL1  UNL     1      -5.464  41.519  10.741  1.00  0.00    -0.122 Cl
HETATM    5  C4  UNL     1      -5.846  40.220  13.160  1.00  0.00     0.165 C
ENDROOT
BRANCH   1   6
HETATM    6  O1  UNL     1      -4.302  38.590  14.144  1.00  0.00    -0.393 OA
ATOM      7  H1  UNL     1      -4.871  38.067  13.592  1.00  0.00     0.210 HD
ENDBRANCH   1   6
BRANCH   5   8
HETATM    8  O2  UNL     1      -6.185  39.231  12.255  1.00  0.00    -0.391 OA
ATOM      9  H2  UNL     1      -7.030  39.369  11.845  1.00  0.00     0.210 HD
ENDBRANCH   5   8
TORSDOF 2
ENDMDL