MODEL 2
REMARK VINA RESULT: -3.886987237      1.400      1.400
REMARK  1 active torsions:
REMARK  status: ('A' for Active; 'I' for Inactive)
REMARK    1  A    between atoms: N1_1  and  C1_5
ROOT
HETATM    1  C1  UNL     1      -5.870  39.569  12.799  1.00  0.00     0.359 A
HETATM    2  O1  UNL     1      -4.541  39.239  13.020  1.00  0.00    -0.336 OA
HETATM    3  C2  UNL     1      -5.156  40.027  14.042  1.00  0.00     0.251 A
HETATM    4 BR1  UNL     1      -5.501  39.160  15.720  1.00  0.00    -0.057 Br
ENDROOT
BRANCH   1   5
HETATM    5  N1  UNL     1      -6.177  40.566  11.771  1.00  0.00    -0.050 N
ATOM      6  H13 UNL     1      -6.689  40.115  11.013  1.00  0.00     0.277 HD
ATOM      7  H12 UNL     1      -6.884  41.207  12.131  1.00  0.00     0.277 HD
ATOM      8  H11 UNL     1      -5.408  41.107  11.377  1.00  0.00     0.277 HD
ENDBRANCH   1   5
TORSDOF 1
ENDMDL