MODEL 5
REMARK VINA RESULT: -4.169168016      1.122      1.122
REMARK  2 active torsions:
REMARK  status: ('A' for Active; 'I' for Inactive)
REMARK    1  A    between atoms: N1_2  and  C2_4
REMARK    2  A    between atoms: C2_4  and  N2_6
ROOT
HETATM    1  C2  UNL     1      -5.320  39.891  13.391  1.00  0.00     0.238 C
HETATM    2  S1  UNL     1      -6.767  39.429  13.972  1.00  0.00    -0.035 SA
ENDROOT
BRANCH   1   3
HETATM    3  N1  UNL     1      -5.157  40.179  12.022  1.00  0.00    -0.367 N
HETATM    4  C1  UNL     1      -5.219  41.504  11.457  1.00  0.00     0.148 C
ATOM      5  H1  UNL     1      -4.984  39.399  11.389  1.00  0.00     0.161 HD
ENDBRANCH   1   3
BRANCH   1   6
HETATM    6  N2  UNL     1      -4.246  39.991  14.303  1.00  0.00    -0.086 N
HETATM    7  O1  UNL     1      -2.961  40.067  13.880  1.00  0.00    -0.530 OA
HETATM    8  O2  UNL     1      -4.480  40.014  15.635  1.00  0.00    -0.530 OA
ENDBRANCH   1   6
TORSDOF 2
ENDMDL