MODEL 4
REMARK VINA RESULT: -3.630988380      2.367      2.768
REMARK  2 active torsions:
REMARK  status: ('A' for Active; 'I' for Inactive)
REMARK    1  A    between atoms: C2_3  and  N2_4
REMARK    2  A    between atoms: C3_8  and  O1_9
ROOT
HETATM    1  C1  UNL     1      -6.300  40.409  11.377  1.00  0.00     0.315 C
HETATM    2  N1  UNL     1      -5.919  39.642  12.513  1.00  0.00     0.139 N
HETATM    3  C2  UNL     1      -4.545  39.650  12.900  1.00  0.00     0.450 C
HETATM    4  C3  UNL     1      -4.828  40.628  14.035  1.00  0.00     0.227 C
HETATM    5  C4  UNL     1      -6.259  40.178  13.811  1.00  0.00     0.352 C
HETATM    6 CL1  UNL     1      -6.694  38.860  14.914  1.00  0.00    -0.089 Cl
ENDROOT
BRANCH   3   7
HETATM    7  N2  UNL     1      -3.596  40.186  11.982  1.00  0.00    -0.045 N
ATOM      8  H23 UNL     1      -2.961  39.445  11.685  1.00  0.00     0.277 HD
ATOM      9  H22 UNL     1      -4.066  40.402  11.102  1.00  0.00     0.277 HD
ATOM     10  H21 UNL     1      -3.050  40.996  12.277  1.00  0.00     0.277 HD
ENDBRANCH   3   7
BRANCH   4  11
HETATM   11  O1  UNL     1      -4.246  40.194  15.212  1.00  0.00    -0.388 OA
ATOM     12  H1  UNL     1      -4.212  40.897  15.850  1.00  0.00     0.210 HD
ENDBRANCH   4  11
TORSDOF 2
ENDMDL