MODEL 3
REMARK VINA RESULT: -4.689766087      1.520      1.549
REMARK  2 active torsions:
REMARK  status: ('A' for Active; 'I' for Inactive)
REMARK    1  A    between atoms: N1_1  and  N2_4
REMARK    2  A    between atoms: C1_5  and  O1_6
ROOT
HETATM    1  N2  UNL     1      -4.635  39.824  12.473  1.00  0.00    -0.190 NA
HETATM    2  C1  UNL     1      -5.496  40.756  11.759  1.00  0.00     0.215 C
HETATM    3  C2  UNL     1      -5.647  41.616  12.988  1.00  0.00     0.086 C
HETATM    4  C3  UNL     1      -5.154  40.371  13.705  1.00  0.00     0.181 C
HETATM    5 CL1  UNL     1      -6.577  39.400  14.207  1.00  0.00    -0.106 Cl
ENDROOT
BRANCH   1   6
HETATM    6  N1  UNL     1      -3.288  40.025  12.230  1.00  0.00    -0.360 NA
ATOM      7  H12 UNL     1      -2.958  39.803  11.291  1.00  0.00     0.171 HD
ATOM      8  H11 UNL     1      -2.697  39.269  12.575  1.00  0.00     0.171 HD
ENDBRANCH   1   6
BRANCH   2   9
HETATM    9  O1  UNL     1      -4.786  41.447  10.762  1.00  0.00    -0.379 OA
ATOM     10  H1  UNL     1      -4.217  40.861  10.275  1.00  0.00     0.211 HD
ENDBRANCH   2   9
TORSDOF 2
ENDMDL