MODEL 1
REMARK VINA RESULT: -5.056654470      0.000      0.000
REMARK  1 active torsions:
REMARK  status: ('A' for Active; 'I' for Inactive)
REMARK    1  A    between atoms: C1_4  and  C2_6
ROOT
HETATM    1  N1  UNL     1      -6.384  40.303  11.539  1.00  0.00    -0.389 N
ATOM      2  H11 UNL     1      -6.859  39.511  11.972  1.00  0.00     0.157 HD
ATOM      3  H12 UNL     1      -6.570  40.676  10.608  1.00  0.00     0.157 HD
HETATM    4  C1  UNL     1      -5.467  40.884  12.236  1.00  0.00     0.116 C
HETATM    5  N2  UNL     1      -4.816  41.969  11.643  1.00  0.00    -0.085 NA
ENDROOT
BRANCH   4   6
HETATM    6  C2  UNL     1      -5.199  40.347  13.576  1.00  0.00     0.187 C
HETATM    7  C3  UNL     1      -6.331  39.539  14.195  1.00  0.00     0.065 C
HETATM    8  C4  UNL     1      -5.081  38.955  14.860  1.00  0.00     0.171 C
HETATM    9  O1  UNL     1      -4.466  39.151  13.614  1.00  0.00    -0.379 OA
ENDBRANCH   4   6
TORSDOF 1
ENDMDL