MODEL 3
REMARK VINA RESULT: -5.257812347      1.443      3.660
REMARK  7 active torsions:
REMARK  status: ('A' for Active; 'I' for Inactive)
REMARK    1  A    between atoms: N1_1  and  C1_5
REMARK    2  A    between atoms: C1_5  and  C2_6
REMARK    3  A    between atoms: C2_6  and  N2_7
REMARK    4  A    between atoms: N2_7  and  C3_8
REMARK    5  A    between atoms: C4_15  and  C5_16
REMARK    6  A    between atoms: C5_16  and  N6_17
REMARK    7  A    between atoms: N6_17  and  C6_19
ROOT
HETATM    1  C3  UNL     1     -54.651 -40.326  19.926  1.00  0.00     0.218 A
HETATM    2  N3  UNL     1     -54.565 -41.707  19.565  1.00  0.00    -0.258 N
ATOM      3  H3  UNL     1     -53.714 -42.269  19.561  1.00  0.00     0.191 HD
HETATM    4  N4  UNL     1     -55.756 -42.131  19.243  1.00  0.00    -0.240 N
ATOM      5  H4  UNL     1     -55.981 -43.078  18.939  1.00  0.00     0.208 HD
HETATM    6  N5  UNL     1     -56.612 -41.163  19.367  1.00  0.00    -0.280 N
ATOM      7  H5  UNL     1     -57.611 -41.234  19.173  1.00  0.00     0.188 HD
HETATM    8  C4  UNL     1     -55.976 -40.045  19.792  1.00  0.00     0.123 A
ENDROOT
BRANCH   1   9
HETATM    9  N2  UNL     1     -53.670 -39.669  20.169  1.00  0.00    -0.426 NA
BRANCH   9  10
HETATM   10  C2  UNL     1     -52.547 -38.957  20.320  1.00  0.00     0.247 C
BRANCH  10  11
HETATM   11  C1  UNL     1     -52.477 -38.316  21.741  1.00  0.00     0.263 C
BRANCH  11  12
HETATM   12  N1  UNL     1     -51.878 -37.025  21.698  1.00  0.00    -0.077 N
ATOM     13  H13 UNL     1     -50.871 -37.074  21.853  1.00  0.00     0.274 HD
ATOM     14  H12 UNL     1     -51.873 -36.646  20.751  1.00  0.00     0.274 HD
ATOM     15  H11 UNL     1     -52.326 -36.387  22.355  1.00  0.00     0.274 HD
ENDBRANCH  11  12
ENDBRANCH  10  11
ENDBRANCH   9  10
ENDBRANCH   1   9
BRANCH   8  16
HETATM   16  C5  UNL     1     -56.790 -38.876  20.222  1.00  0.00     0.119 C
BRANCH  16  17
HETATM   17  N6  UNL     1     -55.970 -38.056  21.022  1.00  0.00    -0.392 N
ATOM     18  H6  UNL     1     -55.566 -38.483  21.856  1.00  0.00     0.159 HD
BRANCH  17  19
HETATM   19  C6  UNL     1     -55.665 -36.749  20.790  1.00  0.00     0.081 A
HETATM   20  C7  UNL     1     -56.321 -35.897  19.752  1.00  0.00     0.027 A
HETATM   21  C8  UNL     1     -54.805 -36.192  19.722  1.00  0.00     0.027 A
ENDBRANCH  17  19
ENDBRANCH  16  17
ENDBRANCH   8  16
TORSDOF 7
ENDMDL