MODEL 5
REMARK VINA RESULT: -5.105956948      2.250      2.546
REMARK  6 active torsions:
REMARK  status: ('A' for Active; 'I' for Inactive)
REMARK    1  A    between atoms: C5_10  and  N3_11
REMARK    2  A    between atoms: N3_11  and  C6_13
REMARK    3  A    between atoms: C6_13  and  C7_14
REMARK    4  A    between atoms: C7_14  and  C8_15
REMARK    5  A    between atoms: C8_15  and  O1_16
REMARK    6  A    between atoms: O1_16  and  N4_17
ROOT
HETATM    1  C1  UNL     1     -49.889 -35.896  24.937  1.00  0.00     0.014 C
HETATM    2  C2  UNL     1     -50.350 -37.224  25.552  1.00  0.00     0.029 C
HETATM    3  C3  UNL     1     -51.849 -37.306  25.517  1.00  0.00     0.127 C
HETATM    4  N1  UNL     1     -52.166 -36.278  26.470  1.00  0.00    -0.378 N
ATOM      5  H1  UNL     1     -53.062 -35.793  26.513  1.00  0.00     0.160 HD
HETATM    6  C4  UNL     1     -51.085 -36.022  27.338  1.00  0.00     0.093 C
HETATM    7  N2  UNL     1     -50.941 -35.126  28.234  1.00  0.00    -0.387 N
ATOM      8  H21 UNL     1     -50.159 -34.941  28.862  1.00  0.00     0.157 HD
ATOM      9  H22 UNL     1     -51.638 -34.415  28.457  1.00  0.00     0.157 HD
HETATM   10  C5  UNL     1     -50.030 -37.097  27.001  1.00  0.00     0.149 C
ENDROOT
BRANCH  10  11
HETATM   11  N3  UNL     1     -50.162 -38.153  27.869  1.00  0.00    -0.410 N
ATOM     12  H3  UNL     1     -50.879 -38.859  27.702  1.00  0.00     0.154 HD
BRANCH  11  13
HETATM   13  C6  UNL     1     -49.270 -38.275  29.050  1.00  0.00     0.116 C
BRANCH  13  14
HETATM   14  C7  UNL     1     -47.923 -37.888  28.466  1.00  0.00     0.048 C
BRANCH  14  15
HETATM   15  C8  UNL     1     -46.789 -38.075  29.429  1.00  0.00     0.202 C
BRANCH  15  16
HETATM   16  O1  UNL     1     -46.740 -39.514  29.418  1.00  0.00    -0.287 OA
BRANCH  16  17
HETATM   17  N4  UNL     1     -45.425 -39.820  29.117  1.00  0.00    -0.311 N
ATOM     18  H42 UNL     1     -44.833 -40.505  29.586  1.00  0.00     0.184 HD
ATOM     19  H41 UNL     1     -45.190 -39.211  28.332  1.00  0.00     0.184 HD
ENDBRANCH  16  17
ENDBRANCH  15  16
ENDBRANCH  14  15
ENDBRANCH  13  14
ENDBRANCH  11  13
ENDBRANCH  10  11
TORSDOF 6
ENDMDL