MODEL 1
REMARK VINA RESULT: -5.295623439      0.000      0.000
REMARK  7 active torsions:
REMARK  status: ('A' for Active; 'I' for Inactive)
REMARK    1  A    between atoms: N1_2  and  C3_4
REMARK    2  A    between atoms: C3_4  and  C4_5
REMARK    3  A    between atoms: C5_8  and  N3_9
REMARK    4  A    between atoms: N3_9  and  C6_11
REMARK    5  A    between atoms: C6_11  and  C7_12
REMARK    6  A    between atoms: C7_12  and  C8_13
REMARK    7  A    between atoms: C8_13  and  N4_14
ROOT
HETATM    1  C4  UNL     1     -49.637 -36.239  26.603  1.00  0.00     0.140 A
HETATM    2  N2  UNL     1     -49.008 -37.340  27.039  1.00  0.00    -0.176 N
ATOM      3  H2  UNL     1     -48.555 -38.031  26.441  1.00  0.00     0.185 HD
HETATM    4  C5  UNL     1     -49.062 -37.398  28.396  1.00  0.00     0.694 A
HETATM    5  N5  UNL     1     -49.742 -36.302  28.767  1.00  0.00    -0.131 N
ATOM      6  H5  UNL     1     -49.961 -36.041  29.729  1.00  0.00     0.205 HD
HETATM    7  N6  UNL     1     -50.085 -35.609  27.683  1.00  0.00    -0.273 N
ATOM      8  H6  UNL     1     -50.608 -34.733  27.682  1.00  0.00     0.189 HD
ENDROOT
BRANCH   4   9
HETATM    9  N3  UNL     1     -48.564 -38.340  29.143  1.00  0.00    -0.225 N
ATOM     10  H3  UNL     1     -49.158 -38.884  29.768  1.00  0.00     0.177 HD
BRANCH   9  11
HETATM   11  C6  UNL     1     -47.145 -38.592  29.060  1.00  0.00     0.140 C
BRANCH  11  12
HETATM   12  C7  UNL     1     -46.469 -37.444  29.800  1.00  0.00     0.047 C
BRANCH  12  13
HETATM   13  C8  UNL     1     -45.278 -37.949  30.581  1.00  0.00     0.231 C
BRANCH  13  14
HETATM   14  N4  UNL     1     -44.415 -38.779  29.756  1.00  0.00    -0.079 N
ATOM     15  H43 UNL     1     -44.925 -39.568  29.358  1.00  0.00     0.274 HD
ATOM     16  H42 UNL     1     -44.156 -38.305  28.890  1.00  0.00     0.274 HD
ATOM     17  H41 UNL     1     -43.593 -39.089  30.273  1.00  0.00     0.274 HD
ENDBRANCH  13  14
ENDBRANCH  12  13
ENDBRANCH  11  12
ENDBRANCH   9  11
ENDBRANCH   4   9
BRANCH   1  18
HETATM   18  C3  UNL     1     -49.831 -35.756  25.214  1.00  0.00     0.349 C
BRANCH  18  19
HETATM   19  N1  UNL     1     -50.132 -36.838  24.299  1.00  0.00     0.086 N
HETATM   20  C1  UNL     1     -51.581 -37.047  24.365  1.00  0.00     0.309 C
HETATM   21  C2  UNL     1     -49.785 -36.509  22.932  1.00  0.00     0.309 C
ENDBRANCH  18  19
ENDBRANCH   1  18
TORSDOF 7
ENDMDL