MODEL 3
REMARK VINA RESULT: -5.428837768      1.008      1.598
REMARK  6 active torsions:
REMARK  status: ('A' for Active; 'I' for Inactive)
REMARK    1  A    between atoms: N1_1  and  C1_5
REMARK    2  A    between atoms: C1_5  and  C2_6
REMARK    3  A    between atoms: C2_6  and  C3_7
REMARK    4  A    between atoms: C3_7  and  N2_8
REMARK    5  A    between atoms: N2_8  and  C4_10
REMARK    6  A    between atoms: C4_10  and  C5_11
ROOT
HETATM    1  C4  UNL     1     -48.672 -37.228  27.385  1.00  0.00     0.063 C
ENDROOT
BRANCH   1   2
HETATM    2  N2  UNL     1     -47.538 -37.782  27.929  1.00  0.00    -0.402 N
ATOM      3  H2  UNL     1     -46.748 -37.884  27.292  1.00  0.00     0.158 HD
BRANCH   2   4
HETATM    4  C3  UNL     1     -47.327 -38.217  29.221  1.00  0.00     0.120 C
BRANCH   4   5
HETATM    5  C2  UNL     1     -46.303 -37.251  29.871  1.00  0.00     0.047 C
BRANCH   5   6
HETATM    6  C1  UNL     1     -45.249 -37.987  30.636  1.00  0.00     0.231 C
BRANCH   6   7
HETATM    7  N1  UNL     1     -44.547 -38.815  29.647  1.00  0.00    -0.079 N
ATOM      8  H13 UNL     1     -43.534 -38.833  29.774  1.00  0.00     0.274 HD
ATOM      9  H12 UNL     1     -44.702 -39.816  29.768  1.00  0.00     0.274 HD
ATOM     10  H11 UNL     1     -44.839 -38.463  28.735  1.00  0.00     0.274 HD
ENDBRANCH   6   7
ENDBRANCH   5   6
ENDBRANCH   4   5
ENDBRANCH   2   4
ENDBRANCH   1   2
BRANCH   1  11
HETATM   11  C5  UNL     1     -50.031 -37.489  27.962  1.00  0.00     0.059 C
HETATM   12  C6  UNL     1     -50.666 -36.437  28.770  1.00  0.00     0.133 C
HETATM   13  N3  UNL     1     -51.598 -35.593  28.031  1.00  0.00    -0.364 N
HETATM   14  C7  UNL     1     -52.261 -35.973  26.997  1.00  0.00     0.184 C
ATOM     15  H3  UNL     1     -51.732 -34.636  28.356  1.00  0.00     0.162 HD
HETATM   16  N4  UNL     1     -53.154 -35.069  26.338  1.00  0.00    -0.064 NA
HETATM   17  N5  UNL     1     -52.065 -37.299  26.565  1.00  0.00    -0.364 N
HETATM   18  C8  UNL     1     -50.958 -38.112  26.933  1.00  0.00     0.133 C
ATOM     19  H5  UNL     1     -52.765 -37.705  25.944  1.00  0.00     0.162 HD
ENDBRANCH   1  11
TORSDOF 6
ENDMDL