MODEL 2
REMARK VINA RESULT: -5.481575186      1.048      1.487
REMARK  7 active torsions:
REMARK  status: ('A' for Active; 'I' for Inactive)
REMARK    1  A    between atoms: N1_1  and  C1_5
REMARK    2  A    between atoms: C1_5  and  C2_6
REMARK    3  A    between atoms: N2_8  and  C4_9
REMARK    4  A    between atoms: C4_9  and  C5_10
REMARK    5  A    between atoms: C5_10  and  C6_11
REMARK    6  A    between atoms: C6_11  and  N3_12
REMARK    7  A    between atoms: N3_12  and  C7_14
ROOT
HETATM    1  C4  UNL     1     -47.550 -37.500  28.499  1.00  0.00     0.278 C
ENDROOT
BRANCH   1   2
HETATM    2  N2  UNL     1     -47.128 -37.097  29.810  1.00  0.00     0.099 N
HETATM    3  C2  UNL     1     -45.985 -37.676  30.442  1.00  0.00     0.276 A
HETATM    4  C3  UNL     1     -46.053 -36.197  30.046  1.00  0.00     0.310 A
BRANCH   3   5
HETATM    5  C1  UNL     1     -44.988 -38.484  29.649  1.00  0.00     0.267 C
BRANCH   5   6
HETATM    6  N1  UNL     1     -45.355 -39.892  29.592  1.00  0.00    -0.077 N
ATOM      7  H13 UNL     1     -44.542 -40.493  29.729  1.00  0.00     0.274 HD
ATOM      8  H12 UNL     1     -45.898 -40.168  30.410  1.00  0.00     0.274 HD
ATOM      9  H11 UNL     1     -45.845 -40.121  28.727  1.00  0.00     0.274 HD
ENDBRANCH   5   6
ENDBRANCH   3   5
ENDBRANCH   1   2
BRANCH   1  10
HETATM   10  C5  UNL     1     -48.692 -38.503  28.551  1.00  0.00     0.074 C
BRANCH  10  11
HETATM   11  C6  UNL     1     -49.828 -38.076  27.690  1.00  0.00     0.057 C
BRANCH  11  12
HETATM   12  N3  UNL     1     -49.546 -37.354  26.546  1.00  0.00    -0.395 N
ATOM     13  H3  UNL     1     -48.572 -37.091  26.391  1.00  0.00     0.159 HD
BRANCH  12  14
HETATM   14  C7  UNL     1     -50.472 -36.953  25.589  1.00  0.00     0.112 C
HETATM   15  C8  UNL     1     -50.179 -35.593  25.025  1.00  0.00     0.156 C
HETATM   16  N4  UNL     1     -51.507 -35.105  24.661  1.00  0.00    -0.146 NA
HETATM   17  N5  UNL     1     -52.299 -35.447  25.726  1.00  0.00    -0.146 NA
HETATM   18  C9  UNL     1     -51.867 -36.746  26.184  1.00  0.00     0.156 C
ENDBRANCH  12  14
ENDBRANCH  11  12
ENDBRANCH  10  11
ENDBRANCH   1  10
TORSDOF 7
ENDMDL