MODEL 2
REMARK VINA RESULT: -5.099838000      1.664      2.463
REMARK  6 active torsions:
REMARK  status: ('A' for Active; 'I' for Inactive)
REMARK    1  A    between atoms: N1_2  and  C2_5
REMARK    2  A    between atoms: C2_5  and  C3_6
REMARK    3  A    between atoms: C3_6  and  N2_8
REMARK    4  A    between atoms: N2_8  and  C5_11
REMARK    5  A    between atoms: C5_11  and  N3_12
REMARK    6  A    between atoms: C5_11  and  C6_16
ROOT
HETATM    1  C5  UNL     1     -50.459 -36.369  27.787  1.00  0.00     0.411 C
ENDROOT
BRANCH   1   2
HETATM    2  N2  UNL     1     -49.048 -36.254  28.019  1.00  0.00    -0.039 N
ATOM      3  H22 UNL     1     -48.765 -35.277  28.105  1.00  0.00     0.280 HD
ATOM      4  H21 UNL     1     -48.514 -36.502  27.186  1.00  0.00     0.280 HD
BRANCH   2   5
HETATM    5  C3  UNL     1     -48.626 -37.019  29.155  1.00  0.00     0.210 C
HETATM    6  C4  UNL     1     -49.270 -38.380  29.246  1.00  0.00     0.042 C
BRANCH   5   7
HETATM    7  C2  UNL     1     -47.130 -37.134  29.306  1.00  0.00     0.264 C
BRANCH   7   8
HETATM    8  N1  UNL     1     -46.671 -38.501  29.288  1.00  0.00    -0.077 N
HETATM    9  C1  UNL     1     -45.282 -38.586  29.680  1.00  0.00     0.267 C
ATOM     10  H12 UNL     1     -46.834 -38.941  28.383  1.00  0.00     0.276 HD
ATOM     11  H11 UNL     1     -47.262 -39.104  29.862  1.00  0.00     0.276 HD
ENDBRANCH   7   8
ENDBRANCH   5   7
ENDBRANCH   2   5
ENDBRANCH   1   2
BRANCH   1  12
HETATM   12  N3  UNL     1     -51.148 -35.158  28.149  1.00  0.00    -0.048 N
ATOM     13  H33 UNL     1     -50.526 -34.499  28.617  1.00  0.00     0.276 HD
ATOM     14  H32 UNL     1     -51.380 -34.599  27.328  1.00  0.00     0.276 HD
ATOM     15  H31 UNL     1     -51.975 -35.357  28.713  1.00  0.00     0.276 HD
ENDBRANCH   1  12
BRANCH   1  16
HETATM   16  C6  UNL     1     -50.844 -36.752  26.406  1.00  0.00     0.243 C
HETATM   17  C7  UNL     1     -51.452 -38.137  26.295  1.00  0.00     0.038 C
HETATM   18  C8  UNL     1     -51.596 -38.215  24.777  1.00  0.00     0.030 C
HETATM   19  C9  UNL     1     -50.475 -37.314  24.280  1.00  0.00     0.233 C
HETATM   20  N4  UNL     1     -49.752 -36.883  25.478  1.00  0.00    -0.067 N
ATOM     21  H42 UNL     1     -49.164 -36.057  25.366  1.00  0.00     0.277 HD
ATOM     22  H41 UNL     1     -48.988 -37.489  25.776  1.00  0.00     0.277 HD
ENDBRANCH   1  16
TORSDOF 6
ENDMDL