MODEL 2
REMARK VINA RESULT: -5.352140954      1.040      1.046
REMARK  7 active torsions:
REMARK  status: ('A' for Active; 'I' for Inactive)
REMARK    1  A    between atoms: N1_1  and  C1_5
REMARK    2  A    between atoms: C1_5  and  C2_6
REMARK    3  A    between atoms: C2_6  and  C3_7
REMARK    4  A    between atoms: C3_7  and  N2_8
REMARK    5  A    between atoms: N2_8  and  C4_11
REMARK    6  A    between atoms: C4_11  and  C5_12
REMARK    7  A    between atoms: C9_18  and  N4_19
ROOT
HETATM    1  C5  UNL     1     -50.816 -37.587  27.711  1.00  0.00     0.045 C
HETATM    2  C6  UNL     1     -50.197 -37.773  26.360  1.00  0.00     0.027 C
HETATM    3  C7  UNL     1     -50.145 -36.534  25.524  1.00  0.00     0.114 C
HETATM    4  N3  UNL     1     -51.404 -35.864  25.416  1.00  0.00    -0.419 N
ATOM      5  H3  UNL     1     -51.621 -35.226  24.651  1.00  0.00     0.153 HD
HETATM    6  C8  UNL     1     -52.334 -36.156  26.461  1.00  0.00     0.147 C
HETATM    7  C9  UNL     1     -51.631 -36.329  27.815  1.00  0.00     0.206 C
ENDROOT
BRANCH   1   8
HETATM    8  C4  UNL     1     -49.797 -37.734  28.830  1.00  0.00     0.239 C
BRANCH   8   9
HETATM    9  N2  UNL     1     -48.560 -38.181  28.231  1.00  0.00    -0.075 N
ATOM     10  H22 UNL     1     -48.160 -37.448  27.645  1.00  0.00     0.277 HD
ATOM     11  H21 UNL     1     -48.742 -38.890  27.520  1.00  0.00     0.277 HD
BRANCH   9  12
HETATM   12  C3  UNL     1     -47.596 -38.653  29.174  1.00  0.00     0.233 C
BRANCH  12  13
HETATM   13  C2  UNL     1     -46.583 -37.589  29.555  1.00  0.00     0.055 C
BRANCH  13  14
HETATM   14  C1  UNL     1     -45.275 -38.231  29.985  1.00  0.00     0.231 C
BRANCH  14  15
HETATM   15  N1  UNL     1     -44.943 -39.371  29.162  1.00  0.00    -0.079 N
ATOM     16  H13 UNL     1     -45.057 -40.245  29.675  1.00  0.00     0.274 HD
ATOM     17  H12 UNL     1     -45.642 -39.521  28.435  1.00  0.00     0.274 HD
ATOM     18  H11 UNL     1     -44.005 -39.291  28.767  1.00  0.00     0.274 HD
ENDBRANCH  14  15
ENDBRANCH  13  14
ENDBRANCH  12  13
ENDBRANCH   9  12
ENDBRANCH   8   9
ENDBRANCH   1   8
BRANCH   7  19
HETATM   19  N4  UNL     1     -50.864 -35.146  28.057  1.00  0.00    -0.073 N
ATOM     20  H43 UNL     1     -50.025 -35.369  28.592  1.00  0.00     0.274 HD
ATOM     21  H42 UNL     1     -50.435 -34.816  27.191  1.00  0.00     0.274 HD
ATOM     22  H41 UNL     1     -51.383 -34.391  28.506  1.00  0.00     0.274 HD
ENDBRANCH   7  19
TORSDOF 7
ENDMDL