MODEL 1
REMARK VINA RESULT: -5.206007572      0.000      0.000
REMARK  7 active torsions:
REMARK  status: ('A' for Active; 'I' for Inactive)
REMARK    1  A    between atoms: N1_1  and  C1_5
REMARK    2  A    between atoms: C1_5  and  C2_6
REMARK    3  A    between atoms: C2_6  and  N2_7
REMARK    4  A    between atoms: N2_7  and  C3_9
REMARK    5  A    between atoms: C3_9  and  C4_10
REMARK    6  A    between atoms: C4_10  and  N3_11
REMARK    7  A    between atoms: N3_11  and  C5_13
ROOT
HETATM    1  N3  UNL     1     -48.471 -36.254  29.151  1.00  0.00    -0.370 N
ATOM      2  H3  UNL     1     -48.325 -35.301  29.484  1.00  0.00     0.161 HD
ENDROOT
BRANCH   1   3
HETATM    3  C4  UNL     1     -49.752 -36.654  28.546  1.00  0.00     0.165 C
BRANCH   3   4
HETATM    4  C3  UNL     1     -49.710 -36.167  27.114  1.00  0.00     0.075 C
BRANCH   4   5
HETATM    5  N2  UNL     1     -49.722 -37.191  26.147  1.00  0.00    -0.399 N
ATOM      6  H2  UNL     1     -49.145 -37.122  25.309  1.00  0.00     0.158 HD
BRANCH   5   7
HETATM    7  C2  UNL     1     -50.553 -38.319  26.362  1.00  0.00     0.146 C
BRANCH   7   8
HETATM    8  C1  UNL     1     -51.328 -38.768  25.168  1.00  0.00     0.249 C
BRANCH   8   9
HETATM    9  N1  UNL     1     -51.084 -40.072  24.682  1.00  0.00    -0.078 N
ATOM     10  H13 UNL     1     -50.681 -40.640  25.429  1.00  0.00     0.274 HD
ATOM     11  H12 UNL     1     -51.973 -40.549  24.537  1.00  0.00     0.274 HD
ATOM     12  H11 UNL     1     -50.511 -40.163  23.843  1.00  0.00     0.274 HD
ENDBRANCH   8   9
ENDBRANCH   7   8
ENDBRANCH   5   7
ENDBRANCH   4   5
ENDBRANCH   3   4
ENDBRANCH   1   3
BRANCH   1  13
HETATM   13  C5  UNL     1     -47.537 -37.140  29.252  1.00  0.00     0.134 A
HETATM   14  N4  UNL     1     -47.154 -38.261  28.475  1.00  0.00    -0.325 N
HETATM   15  C6  UNL     1     -46.071 -38.552  29.358  1.00  0.00     0.139 A
ATOM     16  H4  UNL     1     -47.511 -38.690  27.621  1.00  0.00     0.169 HD
HETATM   17  N5  UNL     1     -45.003 -39.108  29.941  1.00  0.00    -0.337 N
HETATM   18  C8  UNL     1     -46.432 -37.468  30.121  1.00  0.00     0.122 A
HETATM   19  C7  UNL     1     -44.675 -38.409  31.050  1.00  0.00     0.182 A
ATOM     20  H5  UNL     1     -44.511 -39.934  29.600  1.00  0.00     0.168 HD
HETATM   21  N6  UNL     1     -45.569 -37.392  31.154  1.00  0.00    -0.346 N
ATOM     22  H6  UNL     1     -45.585 -36.687  31.891  1.00  0.00     0.167 HD
ENDBRANCH   1  13
TORSDOF 7
ENDMDL