MODEL 2
REMARK VINA RESULT: -5.000531880      1.779      4.622
REMARK  7 active torsions:
REMARK  status: ('A' for Active; 'I' for Inactive)
REMARK    1  A    between atoms: C3_5  and  N2_6
REMARK    2  A    between atoms: N2_6  and  C4_8
REMARK    3  A    between atoms: C4_8  and  C5_9
REMARK    4  A    between atoms: C5_9  and  N3_10
REMARK    5  A    between atoms: N3_10  and  C6_13
REMARK    6  A    between atoms: C6_13  and  C7_14
REMARK    7  A    between atoms: C7_14  and  N4_15
ROOT
HETATM    1  N2  UNL     1     -56.344 -38.333  21.165  1.00  0.00    -0.223 N
ATOM      2  H2  UNL     1     -56.813 -38.464  22.060  1.00  0.00     0.177 HD
ENDROOT
BRANCH   1   3
HETATM    3  C3  UNL     1     -56.217 -39.355  20.406  1.00  0.00     0.694 A
HETATM    4  N1  UNL     1     -55.396 -40.411  20.558  1.00  0.00    -0.179 N
HETATM    5  C2  UNL     1     -55.596 -41.246  19.527  1.00  0.00     0.108 A
ATOM      6  H1  UNL     1     -54.737 -40.552  21.324  1.00  0.00     0.185 HD
HETATM    7  C1  UNL     1     -54.876 -42.529  19.326  1.00  0.00     0.091 C
HETATM    8  N6  UNL     1     -56.542 -40.708  18.736  1.00  0.00    -0.275 N
HETATM    9  N5  UNL     1     -56.926 -39.558  19.259  1.00  0.00    -0.131 N
ATOM     10  H6  UNL     1     -56.903 -41.121  17.876  1.00  0.00     0.189 HD
ATOM     11  H5  UNL     1     -57.631 -38.931  18.872  1.00  0.00     0.205 HD
ENDBRANCH   1   3
BRANCH   1  12
HETATM   12  C4  UNL     1     -55.871 -37.014  20.844  1.00  0.00     0.165 C
BRANCH  12  13
HETATM   13  C5  UNL     1     -54.389 -36.854  20.889  1.00  0.00     0.252 C
BRANCH  13  14
HETATM   14  N3  UNL     1     -53.915 -36.475  19.561  1.00  0.00    -0.072 N
ATOM     15  H32 UNL     1     -54.660 -36.072  18.992  1.00  0.00     0.277 HD
ATOM     16  H31 UNL     1     -53.297 -35.665  19.594  1.00  0.00     0.277 HD
BRANCH  14  17
HETATM   17  C6  UNL     1     -53.285 -37.614  18.906  1.00  0.00     0.259 C
BRANCH  17  18
HETATM   18  C7  UNL     1     -52.373 -38.281  19.912  1.00  0.00     0.257 C
BRANCH  18  19
HETATM   19  N4  UNL     1     -51.005 -37.888  19.774  1.00  0.00    -0.078 N
ATOM     20  H43 UNL     1     -50.922 -36.872  19.725  1.00  0.00     0.274 HD
ATOM     21  H42 UNL     1     -50.489 -38.057  20.638  1.00  0.00     0.274 HD
ATOM     22  H41 UNL     1     -50.542 -38.330  18.981  1.00  0.00     0.274 HD
ENDBRANCH  18  19
ENDBRANCH  17  18
ENDBRANCH  14  17
ENDBRANCH  13  14
ENDBRANCH  12  13
ENDBRANCH   1  12
TORSDOF 7
ENDMDL