MODEL 2
REMARK VINA RESULT: -9.711858900      1.109      1.234
REMARK  8 active torsions:
REMARK  status: ('A' for Active; 'I' for Inactive)
REMARK    1  A    between atoms: C2_2  and  O2_4
REMARK    2  A    between atoms: O2_4  and  C3_5
REMARK    3  A    between atoms: C5_7  and  O3_8
REMARK    4  A    between atoms: O3_8  and  C6_9
REMARK    5  A    between atoms: C7_11  and  O5_13
REMARK    6  A    between atoms: C9_15  and  O6_16
REMARK    7  A    between atoms: O6_16  and  C10_17
REMARK    8  A    between atoms: C23_30  and  O7_31
ROOT
HETATM    1  C10 UNL     1      -5.397 -15.567  20.378  1.00  0.00     0.131 C
HETATM    2  C11 UNL     1      -5.325 -16.740  21.414  1.00  0.00     0.041 C
HETATM    3  C12 UNL     1      -6.347 -16.529  22.461  1.00  0.00    -0.045 C
HETATM    4  C13 UNL     1      -7.698 -17.088  21.960  1.00  0.00     0.015 C
HETATM    5  C14 UNL     1      -6.003 -17.471  23.629  1.00  0.00     0.015 C
HETATM    6  C15 UNL     1      -6.547 -15.184  23.012  1.00  0.00     0.014 C
HETATM    7  C16 UNL     1      -6.183 -14.049  22.117  1.00  0.00     0.001 C
HETATM    8  C17 UNL     1      -5.756 -12.817  22.870  1.00  0.00    -0.005 C
HETATM    9  C18 UNL     1      -6.877 -12.260  23.732  1.00  0.00     0.006 C
HETATM   10  C19 UNL     1      -6.511 -10.797  23.970  1.00  0.00     0.006 C
HETATM   11  C20 UNL     1      -5.008 -10.580  23.989  1.00  0.00     0.000 C
HETATM   12  C21 UNL     1      -4.677  -9.307  24.700  1.00  0.00     0.015 C
HETATM   13  C22 UNL     1      -4.193  -8.209  23.744  1.00  0.00     0.013 C
HETATM   14  C23 UNL     1      -3.689  -9.408  25.805  1.00  0.00     0.122 C
HETATM   15  C24 UNL     1      -2.542 -10.323  25.558  1.00  0.00     0.033 C
HETATM   16  C25 UNL     1      -2.796 -11.409  24.571  1.00  0.00     0.012 C
HETATM   17  C26 UNL     1      -4.253 -11.775  24.499  1.00  0.00    -0.036 C
HETATM   18  C27 UNL     1      -4.766 -12.077  25.912  1.00  0.00     0.016 C
HETATM   19  C28 UNL     1      -4.488 -12.980  23.650  1.00  0.00    -0.002 C
HETATM   20  C29 UNL     1      -3.379 -13.296  22.678  1.00  0.00     0.007 C
HETATM   21  C30 UNL     1      -3.742 -14.537  21.933  1.00  0.00     0.012 C
HETATM   22  C31 UNL     1      -5.048 -14.363  21.155  1.00  0.00    -0.014 C
HETATM   23  C32 UNL     1      -4.950 -13.159  20.255  1.00  0.00     0.018 C
ENDROOT
BRANCH   1  24
HETATM   24  O6  UNL     1      -4.535 -15.799  19.351  1.00  0.00    -0.376 OA
BRANCH  24  25
HETATM   25  C9  UNL     1      -4.799 -16.696  18.384  1.00  0.00     0.168 C
HETATM   26  C7  UNL     1      -3.554 -16.886  17.546  1.00  0.00     0.107 C
HETATM   27  C5  UNL     1      -3.682 -17.964  16.498  1.00  0.00     0.170 C
HETATM   28  C8  UNL     1      -3.097 -15.571  16.915  1.00  0.00     0.051 C
HETATM   29  C4  UNL     1      -5.056 -18.586  16.567  1.00  0.00     0.069 C
HETATM   30  C3  UNL     1      -6.034 -17.470  16.375  1.00  0.00     0.144 C
HETATM   31  C33 UNL     1      -6.002 -16.431  17.488  1.00  0.00     0.008 C
HETATM   32  C34 UNL     1      -7.253 -16.700  18.298  1.00  0.00     0.020 C
HETATM   33  C35 UNL     1      -6.074 -15.097  16.866  1.00  0.00     0.020 C
BRANCH  26  34
HETATM   34  O5  UNL     1      -2.506 -17.261  18.369  1.00  0.00    -0.385 OA
ATOM     35  H5  UNL     1      -2.839 -17.237  19.259  1.00  0.00     0.210 HD
ENDBRANCH  26  34
BRANCH  27  36
HETATM   36  O3  UNL     1      -3.504 -17.406  15.220  1.00  0.00    -0.320 OA
BRANCH  36  37
HETATM   37  C6  UNL     1      -2.522 -17.780  14.332  1.00  0.00     0.398 C
HETATM   38  O4  UNL     1      -1.392 -18.102  14.786  1.00  0.00    -0.276 OA
ENDBRANCH  36  37
ENDBRANCH  27  36
BRANCH  30  39
HETATM   39  O2  UNL     1      -5.825 -16.901  15.101  1.00  0.00    -0.315 OA
BRANCH  39  40
HETATM   40  C2  UNL     1      -6.561 -17.208  13.972  1.00  0.00     0.255 C
HETATM   41  C1  UNL     1      -8.016 -16.973  13.840  1.00  0.00     0.126 C
HETATM   42  O1  UNL     1      -5.906 -17.725  13.006  1.00  0.00    -0.266 OA
ENDBRANCH  39  40
ENDBRANCH  30  39
ENDBRANCH  24  25
ENDBRANCH   1  24
BRANCH  14  43
HETATM   43  O7  UNL     1      -3.143  -8.114  25.992  1.00  0.00    -0.395 OA
ATOM     44  H7  UNL     1      -3.834  -7.570  26.350  1.00  0.00     0.210 HD
ENDBRANCH  14  43
TORSDOF 8
ENDMDL