MODEL 2
REMARK VINA RESULT: -8.933093734      2.124      3.465
REMARK  9 active torsions:
REMARK  status: ('A' for Active; 'I' for Inactive)
REMARK    1  A    between atoms: C2_2  and  C3_3
REMARK    2  A    between atoms: C3_3  and  C4_4
REMARK    3  A    between atoms: C4_4  and  O1_5
REMARK    4  A    between atoms: O1_5  and  C5_6
REMARK    5  A    between atoms: C5_6  and  C6_8
REMARK    6  A    between atoms: C23_25  and  C24_26
REMARK    7  A    between atoms: C24_26  and  O4_28
REMARK    8  A    between atoms: C35_39  and  O5_40
REMARK    9  A    between atoms: C36_42  and  O6_43
ROOT
HETATM    1  C6  UNL     1      -5.094 -15.856  19.368  1.00  0.00     0.052 C
HETATM    2  C7  UNL     1      -4.396 -17.109  18.963  1.00  0.00     0.021 C
HETATM    3  C8  UNL     1      -3.194 -17.465  19.794  1.00  0.00     0.010 C
HETATM    4  C9  UNL     1      -2.280 -16.260  19.667  1.00  0.00    -0.047 C
HETATM    5  C10 UNL     1      -1.915 -15.923  18.270  1.00  0.00     0.015 C
HETATM    6  C11 UNL     1      -0.990 -16.640  20.403  1.00  0.00     0.015 C
HETATM    7  C12 UNL     1      -2.914 -15.160  20.451  1.00  0.00     0.015 C
HETATM    8  C13 UNL     1      -4.356 -14.855  20.160  1.00  0.00     0.012 C
HETATM    9  C14 UNL     1      -4.976 -14.424  21.457  1.00  0.00     0.038 C
HETATM   10  C15 UNL     1      -6.450 -14.453  21.540  1.00  0.00    -0.027 C
HETATM   11  C16 UNL     1      -7.047 -15.174  22.760  1.00  0.00     0.016 C
HETATM   12  C17 UNL     1      -7.129 -15.008  20.321  1.00  0.00     0.012 C
HETATM   13  C18 UNL     1      -6.383 -16.329  20.071  1.00  0.00     0.021 C
HETATM   14  C19 UNL     1      -6.417 -12.960  21.692  1.00  0.00    -0.002 C
HETATM   15  C20 UNL     1      -7.053 -12.321  20.449  1.00  0.00     0.019 C
HETATM   16  C21 UNL     1      -7.130 -12.390  22.879  1.00  0.00     0.014 C
HETATM   17  C22 UNL     1      -6.639 -10.971  23.030  1.00  0.00     0.021 C
HETATM   18  C23 UNL     1      -5.706 -10.937  24.179  1.00  0.00     0.055 C
HETATM   19  C26 UNL     1      -5.576  -9.489  24.672  1.00  0.00     0.020 C
HETATM   20  C27 UNL     1      -4.392  -9.583  25.655  1.00  0.00     0.007 C
HETATM   21  C28 UNL     1      -3.191  -9.459  24.814  1.00  0.00     0.003 A
HETATM   22  C29 UNL     1      -2.093 -10.371  24.641  1.00  0.00    -0.035 A
HETATM   23  C30 UNL     1      -1.881 -11.428  25.694  1.00  0.00     0.016 C
HETATM   24  C31 UNL     1      -0.792  -9.851  24.053  1.00  0.00     0.016 C
HETATM   25  C32 UNL     1      -3.272 -10.462  23.686  1.00  0.00    -0.025 A
HETATM   26  C33 UNL     1      -3.052  -9.861  22.339  1.00  0.00     0.017 C
HETATM   27  C34 UNL     1      -4.348 -11.515  23.905  1.00  0.00     0.045 C
HETATM   28  C35 UNL     1      -4.271 -12.702  23.057  1.00  0.00     0.159 C
HETATM   29  C36 UNL     1      -4.934 -12.912  21.772  1.00  0.00     0.097 C
ENDROOT
BRANCH   1  30
HETATM   30  C5  UNL     1      -5.614 -15.282  18.063  1.00  0.00     0.268 C
HETATM   31  O2  UNL     1      -5.067 -14.277  17.546  1.00  0.00    -0.264 OA
BRANCH  30  32
HETATM   32  O1  UNL     1      -6.687 -15.831  17.405  1.00  0.00    -0.321 OA
BRANCH  32  33
HETATM   33  C4  UNL     1      -6.554 -16.192  16.043  1.00  0.00     0.178 C
BRANCH  33  34
HETATM   34  C3  UNL     1      -7.800 -16.970  15.673  1.00  0.00     0.026 C
BRANCH  34  35
HETATM   35  C2  UNL     1      -7.953 -17.094  14.168  1.00  0.00    -0.002 C
HETATM   36  C1  UNL     1      -9.440 -17.218  13.882  1.00  0.00     0.005 C
ENDBRANCH  34  35
ENDBRANCH  33  34
ENDBRANCH  32  33
ENDBRANCH  30  32
ENDBRANCH   1  30
BRANCH  29  37
HETATM   37  O6  UNL     1      -4.470 -12.180  20.669  1.00  0.00    -0.386 OA
ATOM     38  H6  UNL     1      -3.587 -11.863  20.816  1.00  0.00     0.210 HD
ENDBRANCH  29  37
BRANCH  28  39
HETATM   39  O5  UNL     1      -2.881 -12.862  22.774  1.00  0.00    -0.392 OA
ATOM     40  H5  UNL     1      -2.483 -13.063  23.612  1.00  0.00     0.210 HD
ENDBRANCH  28  39
BRANCH  18  41
HETATM   41  C24 UNL     1      -6.396 -11.615  25.332  1.00  0.00     0.267 C
HETATM   42  O3  UNL     1      -5.775 -12.204  26.253  1.00  0.00    -0.264 OA
BRANCH  41  43
HETATM   43  O4  UNL     1      -7.778 -11.598  25.393  1.00  0.00    -0.326 OA
HETATM   44  C25 UNL     1      -8.504 -10.459  25.843  1.00  0.00     0.213 C
ENDBRANCH  41  43
ENDBRANCH  18  41
TORSDOF 9
ENDMDL