MODEL 5
REMARK VINA RESULT: -8.781714315      1.416      2.297
REMARK  5 active torsions:
REMARK  status: ('A' for Active; 'I' for Inactive)
REMARK    1  A    between atoms: N1_4  and  C4_5
REMARK    2  A    between atoms: C6_8  and  O2_9
REMARK    3  A    between atoms: O2_9  and  C7_10
REMARK    4  A    between atoms: C17_20  and  S1_21
REMARK    5  A    between atoms: C25_30  and  O3_31
ROOT
HETATM    1  C7  UNL     1      -5.810 -15.609  18.389  1.00  0.00     0.133 C
HETATM    2  C8  UNL     1      -5.670 -14.113  18.337  1.00  0.00     0.034 C
HETATM    3  C9  UNL     1      -5.091 -13.487  19.517  1.00  0.00     0.012 C
HETATM    4  C10 UNL     1      -5.706 -13.866  20.886  1.00  0.00    -0.035 C
HETATM    5  C11 UNL     1      -7.159 -13.559  20.752  1.00  0.00     0.016 C
HETATM    6  C12 UNL     1      -5.544 -15.356  20.900  1.00  0.00     0.005 C
HETATM    7  C13 UNL     1      -5.988 -15.960  22.180  1.00  0.00     0.012 C
HETATM    8  C14 UNL     1      -5.395 -15.424  23.410  1.00  0.00     0.002 C
HETATM    9  C15 UNL     1      -5.964 -14.066  23.847  1.00  0.00     0.017 C
HETATM   10  C16 UNL     1      -4.752 -13.467  23.272  1.00  0.00    -0.014 C
HETATM   11  C17 UNL     1      -4.073 -14.774  23.338  1.00  0.00     0.073 C
HETATM   12  C18 UNL     1      -4.903 -13.086  21.825  1.00  0.00     0.004 C
HETATM   13  C19 UNL     1      -5.247 -11.624  21.614  1.00  0.00     0.007 C
HETATM   14  C20 UNL     1      -5.825 -10.976  22.834  1.00  0.00     0.007 C
HETATM   15  C21 UNL     1      -4.809 -11.034  23.978  1.00  0.00     0.005 C
HETATM   16  C22 UNL     1      -4.035  -9.784  24.135  1.00  0.00    -0.017 C
HETATM   17  C23 UNL     1      -4.165  -9.162  25.545  1.00  0.00     0.018 C
HETATM   18  C24 UNL     1      -4.536  -8.629  23.239  1.00  0.00     0.018 C
HETATM   19  C25 UNL     1      -2.571  -9.830  23.855  1.00  0.00     0.126 C
HETATM   20  C26 UNL     1      -1.894 -11.099  24.217  1.00  0.00     0.033 C
HETATM   21  C27 UNL     1      -2.634 -12.194  23.474  1.00  0.00     0.013 C
HETATM   22  C28 UNL     1      -4.067 -12.331  24.018  1.00  0.00    -0.030 C
HETATM   23  C29 UNL     1      -3.863 -12.663  25.480  1.00  0.00     0.016 C
HETATM   24  C30 UNL     1      -6.024 -16.155  19.768  1.00  0.00    -0.017 C
HETATM   25  C31 UNL     1      -7.454 -16.658  19.837  1.00  0.00     0.018 C
HETATM   26  C32 UNL     1      -5.229 -17.490  19.802  1.00  0.00     0.018 C
ENDROOT
BRANCH   1  27
HETATM   27  O2  UNL     1      -6.851 -15.971  17.535  1.00  0.00    -0.354 OA
BRANCH  27  28
HETATM   28  C6  UNL     1      -6.526 -16.894  16.569  1.00  0.00     0.278 C
HETATM   29  C5  UNL     1      -5.191 -16.428  15.997  1.00  0.00     0.185 C
HETATM   30  N1  UNL     1      -4.824 -17.180  14.841  1.00  0.00    -0.352 N
HETATM   31  C3  UNL     1      -5.882 -17.363  13.850  1.00  0.00     0.157 C
HETATM   32  C2  UNL     1      -7.181 -17.758  14.498  1.00  0.00     0.138 C
HETATM   33  C1  UNL     1      -8.261 -17.609  13.438  1.00  0.00     0.041 C
HETATM   34  O4  UNL     1      -7.471 -17.184  15.670  1.00  0.00    -0.353 OA
BRANCH  30  35
HETATM   35  C4  UNL     1      -3.510 -17.724  14.651  1.00  0.00     0.351 C
HETATM   36  O1  UNL     1      -2.587 -17.235  15.326  1.00  0.00    -0.284 OA
ENDBRANCH  30  35
ENDBRANCH  27  28
ENDBRANCH   1  27
BRANCH  11  37
HETATM   37  S1  UNL     1      -3.094 -15.342  24.731  1.00  0.00    -0.079 SA
HETATM   38  S2  UNL     1      -2.171 -17.201  24.358  1.00  0.00    -0.013 SA
ENDBRANCH  11  37
BRANCH  19  39
HETATM   39  O3  UNL     1      -2.263  -9.555  22.502  1.00  0.00    -0.395 OA
ATOM     40  H3  UNL     1      -1.839  -8.712  22.385  1.00  0.00     0.210 HD
ENDBRANCH  19  39
TORSDOF 5
ENDMDL