MODEL 2
REMARK VINA RESULT: -9.805392947      1.019      1.330
REMARK  7 active torsions:
REMARK  status: ('A' for Active; 'I' for Inactive)
REMARK    1  A    between atoms: O1_2  and  C2_3
REMARK    2  A    between atoms: C3_4  and  O2_5
REMARK    3  A    between atoms: O2_5  and  C4_6
REMARK    4  A    between atoms: C31_35  and  C32_36
REMARK    5  A    between atoms: C32_36  and  O5_37
REMARK    6  A    between atoms: C33_39  and  O6_40
REMARK    7  A    between atoms: C34_42  and  O7_43
ROOT
HETATM    1  C4  UNL     1      -7.942 -17.084  18.038  1.00  0.00     0.133 C
HETATM    2  C5  UNL     1      -8.860 -16.353  19.035  1.00  0.00     0.034 C
HETATM    3  C6  UNL     1      -8.164 -16.381  20.363  1.00  0.00     0.013 C
HETATM    4  C7  UNL     1      -6.791 -16.823  20.097  1.00  0.00    -0.030 C
HETATM    5  C8  UNL     1      -6.701 -18.312  20.483  1.00  0.00     0.016 C
HETATM    6  C9  UNL     1      -5.678 -16.150  20.868  1.00  0.00     0.003 C
HETATM    7  C10 UNL     1      -5.906 -16.417  22.339  1.00  0.00     0.007 C
HETATM    8  C11 UNL     1      -5.236 -15.389  23.210  1.00  0.00     0.010 C
HETATM    9  C12 UNL     1      -5.686 -13.973  22.915  1.00  0.00    -0.035 C
HETATM   10  C13 UNL     1      -7.142 -13.909  23.420  1.00  0.00     0.016 C
HETATM   11  C14 UNL     1      -4.955 -13.029  23.851  1.00  0.00     0.003 C
HETATM   12  C15 UNL     1      -3.585 -13.559  24.223  1.00  0.00     0.013 C
HETATM   13  C16 UNL     1      -2.965 -12.805  25.361  1.00  0.00     0.079 C
HETATM   14  C17 UNL     1      -3.808 -11.593  25.586  1.00  0.00     0.131 C
HETATM   15  O3  UNL     1      -4.250 -11.299  26.671  1.00  0.00    -0.298 OA
HETATM   16  C18 UNL     1      -4.031 -10.812  24.331  1.00  0.00     0.060 C
HETATM   17  C19 UNL     1      -2.694 -10.558  23.724  1.00  0.00     0.018 C
HETATM   18  C20 UNL     1      -4.977 -11.596  23.427  1.00  0.00    -0.030 C
HETATM   19  C21 UNL     1      -6.355 -10.974  23.724  1.00  0.00     0.016 C
HETATM   20  C22 UNL     1      -4.714 -11.350  21.985  1.00  0.00     0.011 C
HETATM   21  C23 UNL     1      -4.546 -12.586  21.155  1.00  0.00     0.007 C
HETATM   22  C24 UNL     1      -5.582 -13.665  21.474  1.00  0.00     0.003 C
HETATM   23  C25 UNL     1      -5.337 -14.780  20.504  1.00  0.00    -0.035 C
HETATM   24  C26 UNL     1      -3.860 -14.744  20.053  1.00  0.00     0.016 C
HETATM   25  C27 UNL     1      -6.075 -14.400  19.214  1.00  0.00     0.011 C
HETATM   26  C28 UNL     1      -6.010 -15.495  18.182  1.00  0.00     0.013 C
HETATM   27  C29 UNL     1      -6.576 -16.799  18.604  1.00  0.00    -0.010 C
HETATM   28  C30 UNL     1      -5.583 -17.896  18.197  1.00  0.00     0.018 C
ENDROOT
BRANCH   1  29
HETATM   29  O2  UNL     1      -8.206 -16.523  16.823  1.00  0.00    -0.352 OA
BRANCH  29  30
HETATM   30  C3  UNL     1      -8.227 -17.395  15.741  1.00  0.00     0.292 C
HETATM   31  C2  UNL     1      -8.006 -16.785  14.424  1.00  0.00     0.207 C
HETATM   32  C34 UNL     1      -8.676 -17.690  13.375  1.00  0.00     0.185 C
HETATM   33  C33 UNL     1     -10.160 -17.515  13.647  1.00  0.00     0.180 C
HETATM   34  C31 UNL     1     -10.372 -18.026  15.057  1.00  0.00     0.179 C
HETATM   35  O4  UNL     1      -9.256 -18.280  15.766  1.00  0.00    -0.348 OA
BRANCH  31  36
HETATM   36  O1  UNL     1      -6.686 -16.676  14.000  1.00  0.00    -0.383 OA
HETATM   37  C1  UNL     1      -5.936 -17.732  14.565  1.00  0.00     0.202 C
ENDBRANCH  31  36
BRANCH  32  38
HETATM   38  O7  UNL     1      -8.300 -17.364  12.103  1.00  0.00    -0.385 OA
HETATM   39  C35 UNL     1      -9.032 -16.261  11.664  1.00  0.00     0.202 C
ENDBRANCH  32  38
BRANCH  33  40
HETATM   40  O6  UNL     1     -10.515 -16.194  13.489  1.00  0.00    -0.390 OA
ATOM     41  H6  UNL     1     -10.723 -15.967  12.590  1.00  0.00     0.210 HD
ENDBRANCH  33  40
BRANCH  34  42
HETATM   42  C32 UNL     1     -11.330 -17.104  15.743  1.00  0.00     0.198 C
BRANCH  42  43
HETATM   43  O5  UNL     1     -12.630 -17.226  15.345  1.00  0.00    -0.398 OA
ATOM     44  H5  UNL     1     -12.851 -16.754  14.550  1.00  0.00     0.209 HD
ENDBRANCH  42  43
ENDBRANCH  34  42
ENDBRANCH  29  30
ENDBRANCH   1  29
TORSDOF 7
ENDMDL