MODEL 1
REMARK VINA RESULT: -8.686050111      0.000      0.000
REMARK  9 active torsions:
REMARK  status: ('A' for Active; 'I' for Inactive)
REMARK    1  A    between atoms: C2_2  and  C3_3
REMARK    2  A    between atoms: C3_3  and  O1_4
REMARK    3  A    between atoms: O1_4  and  C4_5
REMARK    4  A    between atoms: C10_11  and  O2_12
REMARK    5  A    between atoms: O2_12  and  C11_13
REMARK    6  A    between atoms: C20_23  and  O4_24
REMARK    7  A    between atoms: C22_28  and  C23_29
REMARK    8  A    between atoms: C26_32  and  O6_33
REMARK    9  A    between atoms: C29_37  and  O7_38
ROOT
HETATM    1  C4  UNL     1      -4.430 -15.659  22.136  1.00  0.00     0.133 C
HETATM    2  C5  UNL     1      -3.663 -15.712  20.768  1.00  0.00     0.039 C
HETATM    3  C6  UNL     1      -4.638 -16.141  19.701  1.00  0.00     0.007 C
HETATM    4  C7  UNL     1      -3.889 -16.579  18.510  1.00  0.00    -0.016 C
HETATM    5  C8  UNL     1      -2.516 -16.009  18.353  1.00  0.00     0.018 C
HETATM    6  C9  UNL     1      -3.660 -18.105  18.599  1.00  0.00     0.018 C
HETATM    7  C10 UNL     1      -4.642 -16.403  17.208  1.00  0.00     0.140 C
HETATM    8  C13 UNL     1      -5.125 -15.000  17.081  1.00  0.00     0.034 C
HETATM    9  C14 UNL     1      -5.203 -14.211  18.337  1.00  0.00     0.012 C
HETATM   10  C15 UNL     1      -5.634 -15.037  19.567  1.00  0.00    -0.035 C
HETATM   11  C16 UNL     1      -6.981 -15.637  19.172  1.00  0.00     0.016 C
HETATM   12  C17 UNL     1      -5.715 -14.089  20.682  1.00  0.00     0.007 C
HETATM   13  C18 UNL     1      -6.855 -13.132  20.582  1.00  0.00     0.011 C
HETATM   14  C19 UNL     1      -6.537 -11.742  21.155  1.00  0.00     0.069 C
HETATM   15  C20 UNL     1      -6.846 -11.726  22.580  1.00  0.00     0.172 C
HETATM   16  O5  UNL     1      -6.709 -13.024  23.058  1.00  0.00    -0.347 OA
HETATM   17  C21 UNL     1      -5.347 -13.369  22.842  1.00  0.00     0.147 C
HETATM   18  C22 UNL     1      -4.740 -13.067  24.124  1.00  0.00     0.079 C
HETATM   19  C26 UNL     1      -5.365 -11.734  24.589  1.00  0.00     0.086 C
HETATM   20  C27 UNL     1      -4.527 -10.959  25.512  1.00  0.00     0.046 C
HETATM   21  C28 UNL     1      -4.968 -11.134  26.982  1.00  0.00     0.016 C
HETATM   22  C29 UNL     1      -4.468  -9.480  25.290  1.00  0.00     0.124 C
HETATM   23  C30 UNL     1      -4.577  -8.963  23.923  1.00  0.00     0.033 C
HETATM   24  C31 UNL     1      -5.207  -9.849  22.894  1.00  0.00     0.020 C
HETATM   25  C32 UNL     1      -6.072 -10.907  23.534  1.00  0.00     0.045 C
HETATM   26  C33 UNL     1      -7.099 -10.061  24.316  1.00  0.00     0.024 C
HETATM   27  C34 UNL     1      -5.480 -14.622  22.113  1.00  0.00     0.014 C
HETATM   28  C35 UNL     1      -6.756 -15.337  22.601  1.00  0.00     0.021 C
ENDROOT
BRANCH   1  29
HETATM   29  O1  UNL     1      -4.987 -16.937  22.312  1.00  0.00    -0.381 OA
BRANCH  29  30
HETATM   30  C3  UNL     1      -4.444 -17.749  23.235  1.00  0.00     0.194 C
BRANCH  30  31
HETATM   31  C2  UNL     1      -3.311 -17.264  24.037  1.00  0.00    -0.011 C
HETATM   32  C1  UNL     1      -2.183 -17.966  24.070  1.00  0.00     0.009 C
ENDBRANCH  30  31
ENDBRANCH  29  30
ENDBRANCH   1  29
BRANCH  18  33
HETATM   33  C23 UNL     1      -3.245 -12.967  24.123  1.00  0.00    -0.084 C
HETATM   34  C24 UNL     1      -2.586 -12.313  23.150  1.00  0.00     0.014 C
HETATM   35  C25 UNL     1      -2.337 -13.519  25.165  1.00  0.00     0.043 C
ENDBRANCH  18  33
BRANCH   7  36
HETATM   36  O2  UNL     1      -3.758 -16.705  16.152  1.00  0.00    -0.316 OA
BRANCH  36  37
HETATM   37  C11 UNL     1      -4.213 -17.384  15.036  1.00  0.00     0.255 C
HETATM   38  C12 UNL     1      -3.534 -17.347  13.716  1.00  0.00     0.126 C
HETATM   39  O3  UNL     1      -5.263 -18.080  15.134  1.00  0.00    -0.266 OA
ENDBRANCH  36  37
ENDBRANCH   7  36
BRANCH  15  40
HETATM   40  O4  UNL     1      -8.260 -11.579  22.662  1.00  0.00    -0.364 OA
ATOM     41  H4  UNL     1      -8.422 -10.644  22.611  1.00  0.00     0.213 HD
ENDBRANCH  15  40
BRANCH  19  42
HETATM   42  O6  UNL     1      -6.482 -12.195  25.363  1.00  0.00    -0.388 OA
ATOM     43  H6  UNL     1      -6.994 -11.400  25.450  1.00  0.00     0.210 HD
ENDBRANCH  19  42
BRANCH  22  44
HETATM   44  O7  UNL     1      -3.240  -9.019  25.841  1.00  0.00    -0.395 OA
ATOM     45  H7  UNL     1      -3.154  -9.410  26.703  1.00  0.00     0.210 HD
ENDBRANCH  22  44
TORSDOF 9
ENDMDL