MODEL 2
REMARK VINA RESULT: -8.907400231      2.175      4.963
REMARK  9 active torsions:
REMARK  status: ('A' for Active; 'I' for Inactive)
REMARK    1  A    between atoms: O1_2  and  C2_3
REMARK    2  A    between atoms: C2_3  and  C3_5
REMARK    3  A    between atoms: C16_18  and  O3_19
REMARK    4  A    between atoms: O3_19  and  C17_20
REMARK    5  A    between atoms: C21_25  and  C23_27
REMARK    6  A    between atoms: C23_27  and  C24_29
REMARK    7  A    between atoms: C24_29  and  O6_31
REMARK    8  A    between atoms: C24_29  and  C26_33
REMARK    9  A    between atoms: C35_42  and  O7_43
ROOT
HETATM    1  C3  UNL     1      -4.707 -11.520  25.632  1.00  0.00     0.049 C
HETATM    2  C4  UNL     1      -5.604 -11.839  26.859  1.00  0.00     0.026 C
HETATM    3  C5  UNL     1      -3.347 -11.288  26.266  1.00  0.00     0.020 C
HETATM    4  C6  UNL     1      -2.272 -11.326  25.216  1.00  0.00     0.002 C
HETATM    5  C7  UNL     1      -2.226 -12.763  24.775  1.00  0.00     0.012 C
HETATM    6  C8  UNL     1      -3.512 -13.294  24.250  1.00  0.00    -0.007 C
HETATM    7  C9  UNL     1      -3.493 -14.748  24.791  1.00  0.00     0.019 C
HETATM    8  C10 UNL     1      -4.747 -12.602  24.634  1.00  0.00     0.015 C
HETATM    9  C11 UNL     1      -5.539 -12.351  23.372  1.00  0.00     0.020 C
HETATM   10  C12 UNL     1      -4.802 -12.899  22.173  1.00  0.00    -0.002 C
HETATM   11  C13 UNL     1      -4.542 -11.573  21.370  1.00  0.00     0.019 C
HETATM   12  C14 UNL     1      -5.584 -13.708  21.198  1.00  0.00    -0.002 C
HETATM   13  C15 UNL     1      -5.481 -13.179  19.764  1.00  0.00     0.019 C
HETATM   14  C16 UNL     1      -7.103 -13.643  21.418  1.00  0.00     0.146 C
HETATM   15  C19 UNL     1      -7.674 -14.840  20.623  1.00  0.00     0.028 C
HETATM   16  C20 UNL     1      -8.976 -15.253  21.277  1.00  0.00     0.014 C
HETATM   17  C21 UNL     1      -6.573 -15.880  20.775  1.00  0.00     0.030 C
HETATM   18  C22 UNL     1      -7.047 -16.501  22.157  1.00  0.00     0.024 C
HETATM   19  C30 UNL     1      -5.327 -15.174  21.088  1.00  0.00     0.017 C
HETATM   20  C31 UNL     1      -4.077 -15.557  20.350  1.00  0.00    -0.013 C
HETATM   21  C32 UNL     1      -3.671 -17.001  20.640  1.00  0.00     0.010 C
HETATM   22  C33 UNL     1      -2.858 -14.781  20.810  1.00  0.00     0.007 C
HETATM   23  C34 UNL     1      -2.844 -14.564  22.297  1.00  0.00     0.040 C
HETATM   24  C35 UNL     1      -3.523 -13.312  22.717  1.00  0.00     0.073 C
ENDROOT
BRANCH  17  25
HETATM   25  C23 UNL     1      -6.700 -16.989  19.861  1.00  0.00     0.170 C
HETATM   26  O5  UNL     1      -6.815 -18.134  20.376  1.00  0.00    -0.294 OA
BRANCH  25  27
HETATM   27  C24 UNL     1      -6.732 -17.140  18.402  1.00  0.00     0.119 C
HETATM   28  C25 UNL     1      -5.735 -18.246  17.955  1.00  0.00     0.055 C
BRANCH  27  29
HETATM   29  O6  UNL     1      -7.931 -17.701  17.895  1.00  0.00    -0.382 OA
ATOM     30  H6  UNL     1      -8.231 -18.473  18.359  1.00  0.00     0.211 HD
ENDBRANCH  27  29
BRANCH  27  31
HETATM   31  C26 UNL     1      -6.540 -15.917  17.579  1.00  0.00     0.031 A
HETATM   32  C27 UNL     1      -6.482 -16.046  16.103  1.00  0.00     0.013 A
HETATM   33  C28 UNL     1      -5.365 -15.376  16.971  1.00  0.00    -0.011 A
HETATM   34  C29 UNL     1      -4.027 -15.997  16.857  1.00  0.00     0.010 C
ENDBRANCH  27  31
ENDBRANCH  25  27
ENDBRANCH  17  25
BRANCH  14  35
HETATM   35  O3  UNL     1      -7.585 -12.508  20.807  1.00  0.00    -0.315 OA
BRANCH  35  36
HETATM   36  C17 UNL     1      -8.122 -11.429  21.408  1.00  0.00     0.255 C
HETATM   37  C18 UNL     1      -8.123 -11.238  22.898  1.00  0.00     0.126 C
HETATM   38  O4  UNL     1      -8.636 -10.559  20.682  1.00  0.00    -0.266 OA
ENDBRANCH  35  36
ENDBRANCH  14  35
BRANCH  24  39
HETATM   39  O7  UNL     1      -2.548 -12.309  22.411  1.00  0.00    -0.388 OA
ATOM     40  H7  UNL     1      -2.929 -11.900  21.643  1.00  0.00     0.210 HD
ENDBRANCH  24  39
BRANCH   1  41
HETATM   41  C2  UNL     1      -5.146 -10.166  25.227  1.00  0.00     0.267 C
HETATM   42  O2  UNL     1      -5.944  -9.460  25.938  1.00  0.00    -0.264 OA
BRANCH  41  43
HETATM   43  O1  UNL     1      -4.750  -9.531  24.059  1.00  0.00    -0.326 OA
HETATM   44  C1  UNL     1      -3.951  -8.400  23.985  1.00  0.00     0.213 C
ENDBRANCH  41  43
ENDBRANCH   1  41
TORSDOF 9
ENDMDL