MODEL 3
REMARK VINA RESULT: -9.467416281      0.890      1.282
REMARK  8 active torsions:
REMARK  status: ('A' for Active; 'I' for Inactive)
REMARK    1  A    between atoms: C2_2  and  O1_3
REMARK    2  A    between atoms: O1_3  and  C3_4
REMARK    3  A    between atoms: C3_4  and  O3_6
REMARK    4  A    between atoms: O3_6  and  C4_7
REMARK    5  A    between atoms: C7_10  and  C8_11
REMARK    6  A    between atoms: C24_29  and  C25_30
REMARK    7  A    between atoms: C25_30  and  O7_32
REMARK    8  A    between atoms: O7_32  and  C26_33
ROOT
HETATM    1  C4  UNL     1      -5.020 -11.320  24.269  1.00  0.00     0.144 C
HETATM    2  C5  UNL     1      -4.429 -10.924  25.652  1.00  0.00     0.035 C
HETATM    3  C6  UNL     1      -3.913 -12.205  26.191  1.00  0.00     0.024 C
HETATM    4  C7  UNL     1      -3.838 -13.208  25.047  1.00  0.00     0.058 C
HETATM    5  C9  UNL     1      -4.886 -14.253  25.132  1.00  0.00     0.022 C
HETATM    6  C10 UNL     1      -4.857 -15.152  23.949  1.00  0.00     0.011 C
HETATM    7  C11 UNL     1      -5.103 -14.365  22.670  1.00  0.00    -0.032 C
HETATM    8  C12 UNL     1      -6.582 -14.189  22.576  1.00  0.00     0.016 C
HETATM    9  C13 UNL     1      -4.305 -13.115  22.589  1.00  0.00     0.006 C
HETATM   10  C14 UNL     1      -4.759 -12.282  21.432  1.00  0.00     0.007 C
HETATM   11  C15 UNL     1      -5.153 -13.066  20.238  1.00  0.00     0.006 C
HETATM   12  C16 UNL     1      -4.838 -14.493  20.189  1.00  0.00    -0.000 C
HETATM   13  C17 UNL     1      -5.902 -15.257  19.375  1.00  0.00     0.009 C
HETATM   14  C18 UNL     1      -5.665 -15.119  17.924  1.00  0.00     0.015 C
HETATM   15  C19 UNL     1      -5.465 -16.321  17.109  1.00  0.00    -0.047 C
HETATM   16  C20 UNL     1      -6.481 -16.413  15.958  1.00  0.00     0.015 C
HETATM   17  C21 UNL     1      -4.100 -16.325  16.398  1.00  0.00     0.015 C
HETATM   18  C22 UNL     1      -5.543 -17.637  17.829  1.00  0.00     0.010 C
HETATM   19  C23 UNL     1      -4.857 -17.452  19.159  1.00  0.00     0.021 C
HETATM   20  C24 UNL     1      -5.840 -16.598  19.974  1.00  0.00     0.053 C
HETATM   21  C30 UNL     1      -5.401 -16.522  21.399  1.00  0.00     0.030 C
HETATM   22  C31 UNL     1      -4.656 -15.225  21.474  1.00  0.00    -0.031 C
HETATM   23  C32 UNL     1      -3.180 -15.581  21.564  1.00  0.00     0.016 C
HETATM   24  C33 UNL     1      -4.077 -12.360  23.846  1.00  0.00     0.005 C
HETATM   25  C34 UNL     1      -2.785 -11.540  23.608  1.00  0.00     0.020 C
ENDROOT
BRANCH  20  26
HETATM   26  C25 UNL     1      -7.132 -17.335  19.938  1.00  0.00     0.268 C
HETATM   27  O6  UNL     1      -7.264 -18.516  20.330  1.00  0.00    -0.264 OA
BRANCH  26  28
HETATM   28  O7  UNL     1      -8.265 -16.702  19.450  1.00  0.00    -0.314 OA
BRANCH  28  29
HETATM   29  C26 UNL     1      -9.371 -17.482  18.972  1.00  0.00     0.159 C
HETATM   30  C27 UNL     1      -9.833 -17.037  17.624  1.00  0.00     0.061 C
HETATM   31  C28 UNL     1     -11.327 -16.980  17.736  1.00  0.00     0.235 C
HETATM   32  N1  UNL     1     -11.666 -16.894  19.125  1.00  0.00    -0.073 N
HETATM   33  C29 UNL     1     -10.520 -17.245  19.894  1.00  0.00     0.264 C
ATOM     34  H12 UNL     1     -12.044 -15.981  19.379  1.00  0.00     0.277 HD
ATOM     35  H11 UNL     1     -12.484 -17.455  19.363  1.00  0.00     0.277 HD
ENDBRANCH  28  29
ENDBRANCH  26  28
ENDBRANCH  20  26
BRANCH   4  36
HETATM   36  C8  UNL     1      -2.504 -13.823  25.172  1.00  0.00     0.182 C
HETATM   37  O4  UNL     1      -1.560 -13.153  25.649  1.00  0.00    -0.647 OA
HETATM   38  O5  UNL     1      -2.159 -15.113  24.808  1.00  0.00    -0.647 OA
ENDBRANCH   4  36
BRANCH   1  39
HETATM   39  O3  UNL     1      -6.330 -11.589  24.541  1.00  0.00    -0.292 OA
BRANCH  39  40
HETATM   40  C3  UNL     1      -7.297 -10.617  24.348  1.00  0.00     0.406 C
HETATM   41  O2  UNL     1      -7.371  -9.684  25.187  1.00  0.00    -0.229 OA
BRANCH  40  42
HETATM   42  O1  UNL     1      -8.186 -10.612  23.293  1.00  0.00    -0.298 OA
BRANCH  42  43
HETATM   43  C2  UNL     1      -8.116 -11.667  22.322  1.00  0.00     0.176 C
HETATM   44  C1  UNL     1      -8.148 -11.006  20.964  1.00  0.00     0.034 C
ENDBRANCH  42  43
ENDBRANCH  40  42
ENDBRANCH  39  40
ENDBRANCH   1  39
TORSDOF 8
ENDMDL