MODEL 1
REMARK VINA RESULT: -10.065004284      0.000      0.000
REMARK  8 active torsions:
REMARK  status: ('A' for Active; 'I' for Inactive)
REMARK    1  A    between atoms: C2_2  and  O2_4
REMARK    2  A    between atoms: O2_4  and  C3_5
REMARK    3  A    between atoms: C13_15  and  O3_17
REMARK    4  A    between atoms: C26_31  and  O5_32
REMARK    5  A    between atoms: O5_32  and  C27_33
REMARK    6  A    between atoms: C27_33  and  C28_35
REMARK    7  A    between atoms: C28_35  and  C29_36
REMARK    8  A    between atoms: C29_36  and  C30_37
ROOT
HETATM    1  C3  UNL     1      -2.924 -15.366  18.967  1.00  0.00     0.141 C
HETATM    2  C4  UNL     1      -3.504 -15.735  20.324  1.00  0.00     0.046 C
HETATM    3  C5  UNL     1      -4.747 -14.973  20.540  1.00  0.00    -0.003 C
HETATM    4  C6  UNL     1      -4.259 -13.526  20.472  1.00  0.00     0.019 C
HETATM    5  C7  UNL     1      -5.360 -15.073  21.921  1.00  0.00     0.042 C
HETATM    6  C8  UNL     1      -4.769 -14.332  23.046  1.00  0.00    -0.033 A
HETATM    7  C9  UNL     1      -3.537 -14.680  23.742  1.00  0.00     0.011 A
HETATM    8  C10 UNL     1      -4.767 -15.153  24.380  1.00  0.00     0.011 A
HETATM    9  C11 UNL     1      -5.388 -12.981  23.332  1.00  0.00     0.013 C
HETATM   10  C12 UNL     1      -6.829 -13.190  23.572  1.00  0.00     0.041 C
HETATM   11  C13 UNL     1      -7.501 -13.681  22.321  1.00  0.00     0.085 C
HETATM   12  C14 UNL     1      -7.932 -12.552  21.406  1.00  0.00     0.049 C
HETATM   13  C15 UNL     1      -6.787 -14.807  21.615  1.00  0.00     0.094 C
HETATM   14  C16 UNL     1      -7.512 -16.047  22.145  1.00  0.00     0.050 C
HETATM   15  O4  UNL     1      -6.845 -14.529  20.285  1.00  0.00    -0.365 OA
HETATM   16  C17 UNL     1      -5.835 -15.155  19.573  1.00  0.00     0.075 C
HETATM   17  C18 UNL     1      -5.255 -14.488  18.363  1.00  0.00     0.052 C
HETATM   18  C19 UNL     1      -4.037 -15.343  17.981  1.00  0.00    -0.006 A
HETATM   19  C20 UNL     1      -3.633 -15.168  16.531  1.00  0.00     0.013 A
HETATM   20  C21 UNL     1      -3.883 -16.613  16.280  1.00  0.00     0.007 A
HETATM   21  C22 UNL     1      -4.409 -16.762  17.671  1.00  0.00     0.005 A
HETATM   22  C23 UNL     1      -5.821 -17.126  17.902  1.00  0.00    -0.031 C
HETATM   23  C24 UNL     1      -5.811 -18.615  18.311  1.00  0.00     0.016 C
HETATM   24  C25 UNL     1      -6.576 -17.112  16.616  1.00  0.00     0.042 C
HETATM   25  C26 UNL     1      -8.039 -17.302  16.627  1.00  0.00     0.136 C
HETATM   26  C31 UNL     1      -8.568 -17.151  18.026  1.00  0.00     0.012 C
HETATM   27  C32 UNL     1     -10.028 -16.761  17.931  1.00  0.00     0.012 C
HETATM   28  C33 UNL     1      -7.828 -15.959  18.539  1.00  0.00     0.015 C
HETATM   29  C34 UNL     1      -6.421 -16.365  19.056  1.00  0.00     0.030 C
ENDROOT
BRANCH  25  30
HETATM   30  O5  UNL     1      -8.532 -18.389  15.931  1.00  0.00    -0.316 OA
BRANCH  30  31
HETATM   31  C27 UNL     1      -9.267 -18.389  14.759  1.00  0.00     0.259 C
HETATM   32  O6  UNL     1     -10.483 -18.615  14.991  1.00  0.00    -0.265 OA
BRANCH  31  33
HETATM   33  C28 UNL     1      -8.662 -18.153  13.446  1.00  0.00     0.121 C
BRANCH  33  34
HETATM   34  C29 UNL     1      -8.418 -16.717  13.094  1.00  0.00     0.123 C
BRANCH  34  35
HETATM   35  C30 UNL     1      -9.461 -16.146  12.238  1.00  0.00     0.172 C
HETATM   36  O7  UNL     1      -9.252 -15.968  11.020  1.00  0.00    -0.648 OA
HETATM   37  O8  UNL     1     -10.687 -15.805  12.801  1.00  0.00    -0.648 OA
ENDBRANCH  34  35
ENDBRANCH  33  34
ENDBRANCH  31  33
ENDBRANCH  30  31
ENDBRANCH  25  30
BRANCH   1  38
HETATM   38  O2  UNL     1      -2.110 -16.498  18.670  1.00  0.00    -0.316 OA
BRANCH  38  39
HETATM   39  C2  UNL     1      -0.747 -16.394  18.499  1.00  0.00     0.255 C
HETATM   40  C1  UNL     1      -0.027 -15.095  18.455  1.00  0.00     0.126 C
HETATM   41  O1  UNL     1      -0.083 -17.453  18.377  1.00  0.00    -0.266 OA
ENDBRANCH  38  39
ENDBRANCH   1  38
BRANCH  11  42
HETATM   42  O3  UNL     1      -8.764 -14.113  22.843  1.00  0.00    -0.387 OA
ATOM     43  H3  UNL     1      -9.001 -13.367  23.382  1.00  0.00     0.210 HD
ENDBRANCH  11  42
TORSDOF 8
ENDMDL