MODEL 2
REMARK VINA RESULT: -10.376424768      1.263      1.555
REMARK  8 active torsions:
REMARK  status: ('A' for Active; 'I' for Inactive)
REMARK    1  A    between atoms: C2_2  and  O2_4
REMARK    2  A    between atoms: O2_4  and  C3_5
REMARK    3  A    between atoms: C4_6  and  O3_7
REMARK    4  A    between atoms: C8_12  and  O4_13
REMARK    5  A    between atoms: C19_25  and  C20_26
REMARK    6  A    between atoms: C20_26  and  C21_28
REMARK    7  A    between atoms: C33_40  and  O6_41
REMARK    8  A    between atoms: O6_41  and  C34_42
ROOT
HETATM    1  C3  UNL     1      -5.636 -11.338  24.018  1.00  0.00     0.191 C
HETATM    2  C4  UNL     1      -5.813 -12.724  23.417  1.00  0.00     0.155 C
HETATM    3  C5  UNL     1      -5.098 -12.784  22.106  1.00  0.00     0.027 C
HETATM    4  C6  UNL     1      -3.605 -12.523  22.249  1.00  0.00     0.005 C
HETATM    5  C7  UNL     1      -2.968 -13.819  22.554  1.00  0.00     0.038 C
HETATM    6  C8  UNL     1      -3.154 -14.730  21.355  1.00  0.00     0.128 C
HETATM    7  C9  UNL     1      -4.588 -15.133  21.204  1.00  0.00    -0.006 C
HETATM    8  C10 UNL     1      -4.989 -16.058  22.313  1.00  0.00     0.019 C
HETATM    9  C11 UNL     1      -5.412 -13.865  21.174  1.00  0.00     0.004 C
HETATM   10  C12 UNL     1      -6.879 -14.140  21.139  1.00  0.00     0.006 C
HETATM   11  C13 UNL     1      -7.205 -15.030  19.968  1.00  0.00     0.006 C
HETATM   12  C14 UNL     1      -6.316 -16.218  19.817  1.00  0.00     0.003 C
HETATM   13  C15 UNL     1      -6.704 -16.993  18.611  1.00  0.00    -0.035 C
HETATM   14  C16 UNL     1      -6.713 -18.486  19.008  1.00  0.00     0.016 C
HETATM   15  C17 UNL     1      -8.123 -16.757  18.141  1.00  0.00     0.011 C
HETATM   16  C18 UNL     1      -8.088 -17.063  16.634  1.00  0.00     0.013 C
HETATM   17  C19 UNL     1      -6.834 -16.245  16.287  1.00  0.00     0.064 C
HETATM   18  C25 UNL     1      -5.910 -16.775  17.378  1.00  0.00     0.006 C
HETATM   19  C26 UNL     1      -4.634 -16.025  17.491  1.00  0.00     0.007 C
HETATM   20  C27 UNL     1      -4.621 -15.014  18.654  1.00  0.00     0.011 C
HETATM   21  C28 UNL     1      -4.841 -15.867  19.895  1.00  0.00    -0.030 C
HETATM   22  C29 UNL     1      -3.913 -17.001  19.762  1.00  0.00     0.016 C
HETATM   23  C30 UNL     1      -3.324 -11.402  23.206  1.00  0.00    -0.014 C
HETATM   24  C31 UNL     1      -2.704 -11.831  24.495  1.00  0.00     0.018 C
HETATM   25  C32 UNL     1      -2.289 -10.455  22.548  1.00  0.00     0.018 C
HETATM   26  C33 UNL     1      -4.541 -10.534  23.408  1.00  0.00     0.172 C
ENDROOT
BRANCH  17  27
HETATM   27  C20 UNL     1      -6.386 -16.725  14.967  1.00  0.00     0.154 C
HETATM   28  O5  UNL     1      -7.206 -16.713  14.020  1.00  0.00    -0.293 OA
BRANCH  27  29
HETATM   29  C21 UNL     1      -5.045 -17.211  14.711  1.00  0.00     0.052 C
HETATM   30  C22 UNL     1      -4.599 -17.659  13.565  1.00  0.00    -0.084 C
HETATM   31  C23 UNL     1      -5.409 -17.743  12.325  1.00  0.00     0.043 C
HETATM   32  C24 UNL     1      -3.187 -18.118  13.487  1.00  0.00     0.043 C
ENDBRANCH  27  29
ENDBRANCH  17  27
BRANCH   6  33
HETATM   33  O4  UNL     1      -2.246 -15.744  21.546  1.00  0.00    -0.395 OA
ATOM     34  H4  UNL     1      -2.606 -16.482  21.067  1.00  0.00     0.210 HD
ENDBRANCH   6  33
BRANCH   2  35
HETATM   35  O3  UNL     1      -5.464 -13.637  24.352  1.00  0.00    -0.392 OA
ATOM     36  H3  UNL     1      -6.105 -14.338  24.336  1.00  0.00     0.210 HD
ENDBRANCH   2  35
BRANCH   1  37
HETATM   37  O2  UNL     1      -6.887 -10.630  23.993  1.00  0.00    -0.311 OA
BRANCH  37  38
HETATM   38  C2  UNL     1      -7.624 -10.413  25.133  1.00  0.00     0.255 C
HETATM   39  C1  UNL     1      -7.555  -9.168  25.912  1.00  0.00     0.126 C
HETATM   40  O1  UNL     1      -8.385 -11.340  25.501  1.00  0.00    -0.266 OA
ENDBRANCH  37  38
ENDBRANCH   1  37
BRANCH  26  41
HETATM   41  O6  UNL     1      -4.154  -9.546  24.380  1.00  0.00    -0.313 OA
BRANCH  41  42
HETATM   42  C34 UNL     1      -3.829  -8.262  24.029  1.00  0.00     0.255 C
HETATM   43  C35 UNL     1      -2.991  -7.456  24.978  1.00  0.00     0.126 C
HETATM   44  O7  UNL     1      -4.230  -7.799  22.942  1.00  0.00    -0.266 OA
ENDBRANCH  41  42
ENDBRANCH  26  41
TORSDOF 8
ENDMDL