MODEL 2
REMARK VINA RESULT: -8.050358987      1.887      5.163
REMARK  1 active torsions:
REMARK  status: ('A' for Active; 'I' for Inactive)
REMARK    1  A    between atoms: C2_2  and  N1_3
ROOT
HETATM    1  N1  UNL     1      52.725 -44.372  -9.305  1.00  0.00    -0.381 N
HETATM    2  C3  UNL     1      51.862 -43.759 -10.246  1.00  0.00     0.120 C
HETATM    3  C4  UNL     1      50.505 -44.300  -9.774  1.00  0.00     0.024 C
HETATM    4  C5  UNL     1      50.681 -44.180  -8.276  1.00  0.00     0.066 C
HETATM    5  C6  UNL     1      52.161 -44.389  -8.030  1.00  0.00     0.166 C
HETATM    6  C7  UNL     1      52.340 -45.606  -7.204  1.00  0.00     0.067 C
HETATM    7  C8  UNL     1      52.659 -45.255  -5.745  1.00  0.00     0.046 C
HETATM    8  C9  UNL     1      51.993 -43.993  -5.309  1.00  0.00     0.096 C
HETATM    9  C10 UNL     1      52.734 -43.313  -4.184  1.00  0.00     0.041 C
HETATM   10  C11 UNL     1      51.908 -43.464  -2.942  1.00  0.00     0.003 C
HETATM   11  C12 UNL     1      50.968 -44.594  -3.286  1.00  0.00     0.003 C
HETATM   12  C13 UNL     1      50.599 -44.234  -4.728  1.00  0.00     0.041 C
HETATM   13  O1  UNL     1      51.822 -43.065  -6.336  1.00  0.00    -0.227 OA
HETATM   14  O2  UNL     1      52.685 -43.303  -7.292  1.00  0.00    -0.207 OA
ENDROOT
BRANCH   1  15
HETATM   15  C2  UNL     1      54.085 -44.382  -9.517  1.00  0.00     0.115 C
HETATM   16  C1  UNL     1      54.729 -42.992  -9.589  1.00  0.00     0.026 C
ENDBRANCH   1  15
TORSDOF 1
ENDMDL