MODEL 1
REMARK VINA RESULT: -8.059628998      0.000      0.000
REMARK  1 active torsions:
REMARK  status: ('A' for Active; 'I' for Inactive)
REMARK    1  A    between atoms: C3_3  and  C5_5
ROOT
HETATM    1  C5  UNL     1      51.940 -45.314  -8.359  1.00  0.00     0.178 C
HETATM    2  O1  UNL     1      51.412 -45.605  -7.115  1.00  0.00    -0.354 OA
HETATM    3  C6  UNL     1      52.155 -45.000  -6.149  1.00  0.00     0.056 C
HETATM    4  C7  UNL     1      51.534 -43.747  -5.580  1.00  0.00     0.045 C
HETATM    5  C8  UNL     1      52.287 -45.985  -4.979  1.00  0.00     0.045 C
HETATM    6  C9  UNL     1      53.544 -44.779  -6.681  1.00  0.00     0.048 C
HETATM    7  C10 UNL     1      53.343 -44.802  -8.155  1.00  0.00     0.067 C
HETATM    8  C11 UNL     1      53.336 -43.448  -8.770  1.00  0.00     0.136 C
HETATM    9  C12 UNL     1      54.624 -43.106  -9.478  1.00  0.00     0.040 C
HETATM   10  O2  UNL     1      52.234 -43.476  -9.654  1.00  0.00    -0.313 OA
HETATM   11  C13 UNL     1      51.246 -44.197  -9.023  1.00  0.00     0.299 C
HETATM   12  O3  UNL     1      50.024 -43.955  -9.016  1.00  0.00    -0.261 OA
ENDROOT
BRANCH   1  13
HETATM   13  C3  UNL     1      51.923 -46.492  -9.259  1.00  0.00    -0.043 C
HETATM   14  C2  UNL     1      51.047 -47.454  -9.082  1.00  0.00    -0.025 C
HETATM   15  C1  UNL     1      51.008 -48.637  -9.970  1.00  0.00     0.036 C
HETATM   16  C4  UNL     1      52.902 -46.620 -10.400  1.00  0.00     0.047 C
ENDBRANCH   1  13
TORSDOF 1
ENDMDL