MODEL 2
REMARK VINA RESULT: -8.602637653      1.890      2.983
REMARK  1 active torsions:
REMARK  status: ('A' for Active; 'I' for Inactive)
REMARK    1  A    between atoms: C2_2  and  C4_4
ROOT
HETATM    1  C4  UNL     1      52.106 -45.108  -7.739  1.00  0.00     0.169 C
HETATM    2  O1  UNL     1      53.098 -45.451  -6.792  1.00  0.00    -0.334 OA
HETATM    3  C5  UNL     1      52.512 -45.433  -5.525  1.00  0.00     0.152 A
HETATM    4  C6  UNL     1      51.385 -44.658  -5.568  1.00  0.00    -0.005 A
HETATM    5  C7  UNL     1      50.598 -44.466  -4.429  1.00  0.00     0.043 A
HETATM    6  C8  UNL     1      51.023 -45.098  -3.269  1.00  0.00     0.054 A
HETATM    7  C9  UNL     1      50.217 -44.920  -2.028  1.00  0.00     0.077 C
HETATM    8  O2  UNL     1      52.100 -45.830  -3.249  1.00  0.00    -0.278 OA
HETATM    9  C10 UNL     1      52.850 -46.017  -4.327  1.00  0.00     0.322 A
HETATM   10  O3  UNL     1      53.869 -46.738  -4.214  1.00  0.00    -0.257 OA
HETATM   11  C11 UNL     1      51.249 -44.152  -6.961  1.00  0.00     0.013 C
HETATM   12  C12 UNL     1      51.786 -42.742  -6.954  1.00  0.00     0.023 C
HETATM   13  C13 UNL     1      49.794 -44.214  -7.331  1.00  0.00     0.023 C
ENDROOT
BRANCH   1  14
HETATM   14  C2  UNL     1      52.719 -44.499  -8.941  1.00  0.00    -0.063 C
HETATM   15  C1  UNL     1      54.021 -44.255  -8.913  1.00  0.00     0.016 C
HETATM   16  C3  UNL     1      51.968 -44.152 -10.161  1.00  0.00     0.045 C
ENDBRANCH   1  14
TORSDOF 1
ENDMDL