MODEL 2
REMARK VINA RESULT: -8.668813729      3.156      5.942
REMARK  1 active torsions:
REMARK  status: ('A' for Active; 'I' for Inactive)
REMARK    1  A    between atoms: C5_6  and  C6_7
ROOT
HETATM    1  C1  UNL     1      53.940 -47.113  -3.693  1.00  0.00     0.026 C
HETATM    2  C2  UNL     1      52.707 -46.657  -3.539  1.00  0.00     0.018 C
HETATM    3  C3  UNL     1      52.053 -45.850  -4.564  1.00  0.00     0.196 C
HETATM    4  O1  UNL     1      52.428 -45.971  -5.769  1.00  0.00    -0.287 OA
HETATM    5  C4  UNL     1      50.997 -44.936  -4.174  1.00  0.00     0.090 C
HETATM    6  C5  UNL     1      50.341 -44.168  -4.981  1.00  0.00     0.022 C
HETATM    7  C10 UNL     1      50.660 -44.895  -2.731  1.00  0.00     0.298 C
HETATM    8  O2  UNL     1      49.743 -44.118  -2.293  1.00  0.00    -0.259 OA
HETATM    9  O3  UNL     1      51.342 -45.703  -1.841  1.00  0.00    -0.302 OA
HETATM   10  C11 UNL     1      51.914 -46.942  -2.305  1.00  0.00     0.094 C
HETATM   11  C12 UNL     1      50.795 -47.879  -2.700  1.00  0.00     0.052 C
HETATM   12  C13 UNL     1      52.739 -47.544  -1.217  1.00  0.00     0.052 C
ENDROOT
BRANCH   6  13
HETATM   13  C6  UNL     1      50.433 -43.983  -6.407  1.00  0.00     0.003 C
HETATM   14  C7  UNL     1      51.324 -43.113  -6.921  1.00  0.00    -0.088 C
HETATM   15  C8  UNL     1      52.225 -42.328  -6.065  1.00  0.00     0.043 C
HETATM   16  C9  UNL     1      51.385 -42.956  -8.391  1.00  0.00     0.043 C
ENDBRANCH   6  13
TORSDOF 1
ENDMDL