MODEL 1
REMARK VINA RESULT: -7.566027888      0.000      0.000
REMARK  3 active torsions:
REMARK  status: ('A' for Active; 'I' for Inactive)
REMARK    1  A    between atoms: C2_2  and  C3_3
REMARK    2  A    between atoms: C11_12  and  O2_13
REMARK    3  A    between atoms: O2_13  and  C12_14
ROOT
HETATM    1  C3  UNL     1      51.298 -45.033  -9.866  1.00  0.00     0.007 C
HETATM    2  C4  UNL     1      52.154 -46.064 -10.552  1.00  0.00     0.022 C
HETATM    3  C5  UNL     1      50.746 -44.010 -10.844  1.00  0.00     0.094 C
HETATM    4  C6  UNL     1      50.112 -42.922 -10.075  1.00  0.00     0.128 C
HETATM    5  O1  UNL     1      49.505 -42.067 -10.739  1.00  0.00    -0.298 OA
HETATM    6  C7  UNL     1      50.134 -42.761  -8.622  1.00  0.00     0.089 C
HETATM    7  C8  UNL     1      51.244 -43.456  -7.914  1.00  0.00    -0.013 C
HETATM    8  C9  UNL     1      50.744 -44.328  -6.768  1.00  0.00     0.018 C
HETATM    9  C10 UNL     1      52.191 -42.440  -7.256  1.00  0.00     0.018 C
HETATM   10  C11 UNL     1      52.099 -44.267  -8.857  1.00  0.00     0.152 C
ENDROOT
BRANCH  10  11
HETATM   11  O2  UNL     1      52.911 -43.336  -9.577  1.00  0.00    -0.314 OA
BRANCH  11  12
HETATM   12  C12 UNL     1      54.294 -43.420  -9.579  1.00  0.00     0.255 C
HETATM   13  C13 UNL     1      55.037 -44.697  -9.545  1.00  0.00     0.126 C
HETATM   14  O3  UNL     1      54.941 -42.360  -9.611  1.00  0.00    -0.266 OA
ENDBRANCH  11  12
ENDBRANCH  10  11
BRANCH   1  15
HETATM   15  C2  UNL     1      50.136 -45.752  -9.270  1.00  0.00    -0.025 C
HETATM   16  C1  UNL     1      49.716 -46.920  -9.695  1.00  0.00     0.008 C
ENDBRANCH   1  15
TORSDOF 3
ENDMDL