MODEL 5
REMARK VINA RESULT: -7.651984506      1.803      2.418
REMARK  1 active torsions:
REMARK  status: ('A' for Active; 'I' for Inactive)
REMARK    1  A    between atoms: C6_6  and  C7_7
ROOT
HETATM    1  C1  UNL     1      54.806 -49.916 -12.427  1.00  0.00     0.077 C
HETATM    2  C2  UNL     1      54.004 -48.725 -11.984  1.00  0.00     0.054 A
HETATM    3  C3  UNL     1      54.607 -47.718 -11.272  1.00  0.00     0.045 A
HETATM    4  C4  UNL     1      53.869 -46.631 -10.869  1.00  0.00    -0.016 A
HETATM    5  C5  UNL     1      54.461 -45.630 -10.172  1.00  0.00     0.027 A
HETATM    6  C6  UNL     1      53.731 -44.508  -9.760  1.00  0.00     0.009 A
HETATM    7  C8  UNL     1      52.374 -44.467 -10.097  1.00  0.00    -0.042 A
HETATM    8  C9  UNL     1      51.601 -43.237  -9.711  1.00  0.00     0.049 C
HETATM    9  C10 UNL     1      51.728 -45.462 -10.800  1.00  0.00    -0.038 A
HETATM   10  C11 UNL     1      50.292 -45.478 -11.132  1.00  0.00     0.050 C
HETATM   11  C12 UNL     1      52.531 -46.561 -11.183  1.00  0.00     0.056 A
HETATM   12  C13 UNL     1      51.989 -47.585 -11.889  1.00  0.00     0.299 A
HETATM   13  O2  UNL     1      50.800 -47.627 -12.229  1.00  0.00    -0.259 OA
HETATM   14  O3  UNL     1      52.738 -48.626 -12.264  1.00  0.00    -0.280 OA
ENDROOT
BRANCH   6  15
HETATM   15  C7  UNL     1      54.382 -43.491  -8.990  1.00  0.00     0.270 C
HETATM   16  O1  UNL     1      55.015 -42.560  -9.482  1.00  0.00    -0.301 OA
ENDBRANCH   6  15
TORSDOF 1
ENDMDL