MODEL 5
REMARK VINA RESULT: -7.088825332      3.903      5.161
REMARK  2 active torsions:
REMARK  status: ('A' for Active; 'I' for Inactive)
REMARK    1  A    between atoms: O1_2  and  C2_3
REMARK    2  A    between atoms: C2_3  and  C3_5
ROOT
HETATM    1  C3  UNL     1      52.749 -47.720 -11.388  1.00  0.00     0.082 A
HETATM    2  C4  UNL     1      54.018 -48.315 -11.357  1.00  0.00     0.067 A
HETATM    3  C5  UNL     1      54.232 -49.693 -11.886  1.00  0.00     0.078 C
HETATM    4  O3  UNL     1      54.860 -47.483 -10.821  1.00  0.00    -0.314 OA
HETATM    5  C6  UNL     1      54.264 -46.356 -10.481  1.00  0.00     0.088 A
HETATM    6  C7  UNL     1      54.682 -45.187  -9.899  1.00  0.00     0.044 A
HETATM    7  C8  UNL     1      53.821 -44.165  -9.661  1.00  0.00    -0.059 A
HETATM    8  C9  UNL     1      54.240 -42.868  -9.025  1.00  0.00     0.048 C
HETATM    9  C10 UNL     1      52.505 -44.282 -10.002  1.00  0.00     0.014 A
HETATM   10  C11 UNL     1      52.020 -45.448 -10.598  1.00  0.00    -0.047 A
HETATM   11  C12 UNL     1      50.585 -45.568 -10.968  1.00  0.00     0.049 C
HETATM   12  C13 UNL     1      52.912 -46.479 -10.833  1.00  0.00     0.022 A
ENDROOT
BRANCH   1  13
HETATM   13  C2  UNL     1      51.522 -48.286 -11.897  1.00  0.00     0.296 C
HETATM   14  O2  UNL     1      51.085 -48.149 -13.069  1.00  0.00    -0.259 OA
BRANCH  13  15
HETATM   15  O1  UNL     1      50.720 -49.064 -11.045  1.00  0.00    -0.322 OA
HETATM   16  C1  UNL     1      50.796 -48.986  -9.645  1.00  0.00     0.213 C
ENDBRANCH  13  15
ENDBRANCH   1  13
TORSDOF 2
ENDMDL