MODEL 5
REMARK VINA RESULT: -7.768525013      1.496      3.884
REMARK  1 active torsions:
REMARK  status: ('A' for Active; 'I' for Inactive)
REMARK    1  A    between atoms: C2_2  and  C3_3
ROOT
HETATM    1  C3  UNL     1      50.169 -45.869  -8.765  1.00  0.00     0.261 C
HETATM    2  O1  UNL     1      49.944 -44.788  -9.539  1.00  0.00    -0.350 OA
HETATM    3  C4  UNL     1      50.772 -43.713  -9.418  1.00  0.00     0.066 C
HETATM    4  C5  UNL     1      50.144 -42.620 -10.314  1.00  0.00     0.046 C
HETATM    5  C6  UNL     1      52.138 -43.900 -10.012  1.00  0.00     0.041 C
HETATM    6  C7  UNL     1      53.144 -44.534  -9.158  1.00  0.00     0.038 C
HETATM    7  C8  UNL     1      52.989 -44.377  -7.694  1.00  0.00     0.155 C
HETATM    8  O2  UNL     1      52.992 -43.081  -7.245  1.00  0.00    -0.382 OA
HETATM    9  C9  UNL     1      52.062 -42.270  -7.860  1.00  0.00     0.176 C
HETATM   10  C10 UNL     1      50.791 -43.079  -8.054  1.00  0.00     0.047 C
HETATM   11  C11 UNL     1      50.725 -44.071  -6.930  1.00  0.00     0.050 C
HETATM   12  C12 UNL     1      51.743 -45.142  -7.220  1.00  0.00     0.087 C
HETATM   13  C13 UNL     1      52.019 -45.875  -5.924  1.00  0.00     0.049 C
HETATM   14  O3  UNL     1      51.394 -46.014  -8.203  1.00  0.00    -0.348 OA
ENDROOT
BRANCH   1  15
HETATM   15  C2  UNL     1      49.915 -47.118  -9.626  1.00  0.00     0.056 C
HETATM   16  C1  UNL     1      50.963 -48.168  -9.317  1.00  0.00     0.010 C
ENDBRANCH   1  15
TORSDOF 1
ENDMDL