MODEL 1
REMARK VINA RESULT: -6.776862635      0.000      0.000
REMARK  3 active torsions:
REMARK  status: ('A' for Active; 'I' for Inactive)
REMARK    1  A    between atoms: C2_2  and  C3_3
REMARK    2  A    between atoms: C3_3  and  O1_5
REMARK    3  A    between atoms: O1_5  and  C5_6
REMARK       I    between atoms: C5_6  and  N1_8
ROOT
HETATM    1  C5  UNL     1      51.984 -44.497  -4.258  1.00  0.00     0.363 C
HETATM    2  O2  UNL     1      52.918 -44.094  -3.525  1.00  0.00    -0.238 OA
HETATM    3  N1  UNL     1      51.546 -43.783  -5.403  1.00  0.00    -0.318 N
HETATM    4  C6  UNL     1      52.145 -42.531  -5.817  1.00  0.00     0.203 C
HETATM    5  S1  UNL     1      52.161 -42.781  -7.638  1.00  0.00    -0.138 SA
HETATM    6  C7  UNL     1      51.016 -44.217  -7.689  1.00  0.00     0.019 C
HETATM    7  C8  UNL     1      51.726 -45.479  -8.040  1.00  0.00     0.028 C
HETATM    8  C9  UNL     1      49.881 -43.965  -8.640  1.00  0.00     0.028 C
HETATM    9  C10 UNL     1      50.492 -44.189  -6.272  1.00  0.00     0.148 C
ENDROOT
BRANCH   1  10
HETATM   10  O1  UNL     1      51.393 -45.693  -3.886  1.00  0.00    -0.299 OA
BRANCH  10  11
HETATM   11  C3  UNL     1      51.065 -46.060  -2.591  1.00  0.00     0.129 C
HETATM   12  C4  UNL     1      49.836 -45.363  -2.045  1.00  0.00     0.040 C
BRANCH  11  13
HETATM   13  C2  UNL     1      50.967 -47.552  -2.377  1.00  0.00     0.028 C
HETATM   14  C1  UNL     1      52.113 -48.286  -3.051  1.00  0.00     0.007 C
ENDBRANCH  11  13
ENDBRANCH  10  11
ENDBRANCH   1  10
TORSDOF 3
ENDMDL