MODEL 4
REMARK VINA RESULT: -6.829986096      6.751      9.350
REMARK  5 active torsions:
REMARK  status: ('A' for Active; 'I' for Inactive)
REMARK    1  A    between atoms: C1_4  and  O1_5
REMARK    2  A    between atoms: O1_5  and  N2_6
REMARK    3  A    between atoms: N2_6  and  C2_8
REMARK    4  A    between atoms: C11_20  and  O2_21
REMARK    5  A    between atoms: C12_25  and  O3_26
ROOT
HETATM    1  C2  UNL     1       6.325  23.381  32.692  1.00  0.00     0.142 C
HETATM    2  N3  UNL     1       6.265  23.517  31.406  1.00  0.00    -0.340 N
ATOM      3  H3  UNL     1       6.795  22.778  30.943  1.00  0.00     0.167 HD
HETATM    4  C3  UNL     1       5.687  24.380  30.453  1.00  0.00     0.044 A
HETATM    5  C4  UNL     1       6.573  24.591  29.435  1.00  0.00     0.030 A
HETATM    6  C5  UNL     1       6.226  25.415  28.360  1.00  0.00     0.002 A
HETATM    7  C6  UNL     1       4.985  25.996  28.362  1.00  0.00     0.001 A
HETATM    8  C7  UNL     1       4.098  25.766  29.412  1.00  0.00     0.014 A
HETATM    9  C8  UNL     1       4.423  24.960  30.474  1.00  0.00    -0.003 A
HETATM   10  C9  UNL     1       3.257  24.977  31.329  1.00  0.00     0.064 C
HETATM   11  S1  UNL     1       3.428  25.662  32.936  1.00  0.00    -0.096 SA
HETATM   12  C10 UNL     1       4.696  25.016  33.963  1.00  0.00     0.074 A
HETATM   13  C11 UNL     1       4.717  25.430  35.313  1.00  0.00     0.160 A
HETATM   14  N4  UNL     1       5.746  24.828  35.864  1.00  0.00    -0.316 N
ATOM     15  H4  UNL     1       6.008  24.943  36.843  1.00  0.00     0.170 HD
HETATM   16  C12 UNL     1       6.411  24.055  35.013  1.00  0.00     0.157 A
HETATM   17  C13 UNL     1       5.764  24.148  33.772  1.00  0.00     0.082 A
ENDROOT
BRANCH   1  18
HETATM   18  N2  UNL     1       7.082  22.280  33.139  1.00  0.00    -0.243 N
ATOM     19  H2  UNL     1       6.731  21.697  33.899  1.00  0.00     0.196 HD
BRANCH  18  20
HETATM   20  O1  UNL     1       8.278  21.992  32.559  1.00  0.00    -0.232 OA
BRANCH  20  21
HETATM   21  C1  UNL     1       9.115  21.033  33.107  1.00  0.00     0.252 C
HETATM   22  N1  UNL     1       8.866  20.564  34.284  1.00  0.00    -0.388 N
ATOM     23  H12 UNL     1       8.052  20.909  34.795  1.00  0.00     0.157 HD
ATOM     24  H11 UNL     1       9.482  19.858  34.687  1.00  0.00     0.157 HD
ENDBRANCH  20  21
ENDBRANCH  18  20
ENDBRANCH   1  18
BRANCH  16  25
HETATM   25  O3  UNL     1       7.536  23.274  35.225  1.00  0.00    -0.345 OA
ATOM     26  H3  UNL     1       7.843  22.860  36.023  1.00  0.00     0.219 HD
ENDBRANCH  16  25
BRANCH  13  27
HETATM   27  O2  UNL     1       3.771  26.301  35.804  1.00  0.00    -0.345 OA
ATOM     28  H2  UNL     1       2.889  26.317  35.453  1.00  0.00     0.219 HD
ENDBRANCH  13  27
TORSDOF 5
ENDMDL