MODEL 2
REMARK VINA RESULT: -7.005854426      1.139      1.273
REMARK  6 active torsions:
REMARK  status: ('A' for Active; 'I' for Inactive)
REMARK    1  A    between atoms: C3_3  and  O1_4
REMARK    2  A    between atoms: C4_7  and  O3_8
REMARK    3  A    between atoms: C5_10  and  C6_11
REMARK    4  A    between atoms: C11_16  and  O4_17
REMARK    5  A    between atoms: N1_20  and  O5_22
REMARK    6  A    between atoms: C14_28  and  O6_29
ROOT
HETATM    1  C6  UNL     1       5.111  27.723  25.641  1.00  0.00    -0.030 C
HETATM    2  C7  UNL     1       4.489  26.737  26.547  1.00  0.00     0.016 C
HETATM    3  C8  UNL     1       5.374  25.654  27.100  1.00  0.00     0.015 C
HETATM    4  C9  UNL     1       3.883  27.408  27.778  1.00  0.00     0.013 C
HETATM    5  C10 UNL     1       3.214  28.721  27.557  1.00  0.00     0.050 C
HETATM    6  C11 UNL     1       3.958  29.711  26.706  1.00  0.00     0.131 C
HETATM    7  C12 UNL     1       4.485  30.894  27.410  1.00  0.00     0.095 C
HETATM    8  N1  UNL     1       3.939  31.681  28.277  1.00  0.00    -0.268 N
ATOM      9  H1  UNL     1       4.476  32.460  28.661  1.00  0.00     0.194 HD
HETATM   10  C13 UNL     1       5.865  31.089  26.890  1.00  0.00     0.064 C
HETATM   11  N2  UNL     1       6.778  31.858  27.260  1.00  0.00    -0.398 N
ATOM     12  H21 UNL     1       7.724  31.992  26.904  1.00  0.00     0.156 HD
ATOM     13  H22 UNL     1       6.674  32.505  28.042  1.00  0.00     0.156 HD
HETATM   14  C14 UNL     1       6.022  30.116  25.715  1.00  0.00     0.202 C
HETATM   15  C15 UNL     1       5.201  29.039  26.273  1.00  0.00     0.002 C
ENDROOT
BRANCH   1  16
HETATM   16  C5  UNL     1       5.190  27.517  24.217  1.00  0.00     0.040 A
HETATM   17  C2  UNL     1       6.046  26.696  23.464  1.00  0.00     0.012 A
HETATM   18  C1  UNL     1       7.284  26.081  23.944  1.00  0.00     0.054 C
HETATM   19  C3  UNL     1       5.594  26.668  22.174  1.00  0.00     0.192 A
HETATM   20  O2  UNL     1       4.526  27.413  22.070  1.00  0.00    -0.264 OA
HETATM   21  C4  UNL     1       4.275  27.911  23.229  1.00  0.00     0.197 A
BRANCH  19  22
HETATM   22  O1  UNL     1       6.227  25.931  21.159  1.00  0.00    -0.340 OA
ATOM     23  H1  UNL     1       6.240  24.981  21.143  1.00  0.00     0.220 HD
ENDBRANCH  19  22
BRANCH  21  24
HETATM   24  O3  UNL     1       3.167  28.763  23.427  1.00  0.00    -0.340 OA
ATOM     25  H3  UNL     1       3.083  29.277  24.221  1.00  0.00     0.220 HD
ENDBRANCH  21  24
ENDBRANCH   1  16
BRANCH   6  26
HETATM   26  O4  UNL     1       3.186  30.290  25.700  1.00  0.00    -0.379 OA
ATOM     27  H4  UNL     1       3.324  31.224  25.594  1.00  0.00     0.211 HD
ENDBRANCH   6  26
BRANCH  14  28
HETATM   28  O6  UNL     1       5.556  30.786  24.614  1.00  0.00    -0.385 OA
ATOM     29  H6  UNL     1       6.287  30.823  24.007  1.00  0.00     0.210 HD
ENDBRANCH  14  28
BRANCH   8  30
HETATM   30  O5  UNL     1       2.656  31.480  28.683  1.00  0.00    -0.290 OA
ATOM     31  H5  UNL     1       2.433  31.493  29.606  1.00  0.00     0.244 HD
ENDBRANCH   8  30
TORSDOF 6
ENDMDL