MODEL 3
REMARK VINA RESULT: -7.549236644      3.847      7.620
REMARK  2 active torsions:
REMARK  status: ('A' for Active; 'I' for Inactive)
REMARK    1  A    between atoms: C13_20  and  C14_21
REMARK    2  A    between atoms: N5_22  and  O1_24
ROOT
HETATM    1  N1  UNL     1       5.213  27.337  22.034  1.00  0.00    -0.080 NA
HETATM    2  C1  UNL     1       6.003  26.299  22.605  1.00  0.00     0.146 A
HETATM    3  C2  UNL     1       6.082  26.265  23.925  1.00  0.00     0.101 A
HETATM    4  N2  UNL     1       5.397  27.238  24.697  1.00  0.00    -0.349 N
ATOM      5  H2  UNL     1       4.840  27.968  24.253  1.00  0.00     0.166 HD
HETATM    6  C3  UNL     1       5.514  27.157  26.109  1.00  0.00     0.078 A
HETATM    7  C4  UNL     1       6.256  26.189  26.762  1.00  0.00     0.061 A
HETATM    8  C5  UNL     1       6.259  26.261  28.139  1.00  0.00     0.033 A
HETATM    9  C6  UNL     1       5.589  27.209  28.868  1.00  0.00     0.017 A
HETATM   10  C7  UNL     1       4.836  28.194  28.203  1.00  0.00     0.008 A
HETATM   11  C8  UNL     1       4.126  29.188  28.790  1.00  0.00     0.064 A
HETATM   12  N3  UNL     1       4.013  29.420  30.237  1.00  0.00    -0.101 NA
HETATM   13  C9  UNL     1       3.457  30.047  27.955  1.00  0.00     0.077 A
HETATM   14  S1  UNL     1       3.832  29.452  26.404  1.00  0.00    -0.097 SA
HETATM   15  C10 UNL     1       4.821  28.136  26.841  1.00  0.00     0.046 A
HETATM   16  N4  UNL     1       6.952  25.203  26.028  1.00  0.00    -0.352 N
ATOM     17  H4  UNL     1       7.500  24.488  26.506  1.00  0.00     0.166 HD
HETATM   18  C11 UNL     1       6.876  25.227  24.613  1.00  0.00     0.065 A
HETATM   19  C12 UNL     1       7.502  24.338  23.872  1.00  0.00     0.063 A
HETATM   20  C13 UNL     1       7.403  24.392  22.418  1.00  0.00     0.053 A
HETATM   21  N6  UNL     1       6.687  25.330  21.860  1.00  0.00    -0.342 N
ATOM     22  H6  UNL     1       6.623  25.358  20.842  1.00  0.00     0.167 HD
ENDROOT
BRANCH  20  23
HETATM   23  C14 UNL     1       8.101  23.400  21.604  1.00  0.00     0.143 C
HETATM   24  N5  UNL     1       8.987  22.636  22.149  1.00  0.00    -0.278 N
ATOM     25  H5  UNL     1       9.203  22.719  23.142  1.00  0.00     0.193 HD
BRANCH  24  26
HETATM   26  O1  UNL     1       9.633  21.710  21.369  1.00  0.00    -0.290 OA
ATOM     27  H1  UNL     1      10.541  21.504  21.558  1.00  0.00     0.244 HD
ENDBRANCH  24  26
ENDBRANCH  20  23
TORSDOF 2
ENDMDL