MODEL 5
REMARK VINA RESULT: -6.184364293      5.502      7.907
REMARK  1 active torsions:
REMARK  status: ('A' for Active; 'I' for Inactive)
REMARK    1  A    between atoms: C11_24  and  N6_25
ROOT
HETATM    1  N1  UNL     1      10.597  27.066  31.279  1.00  0.00    -0.196 NA
HETATM    2  C1  UNL     1       9.689  26.425  31.598  1.00  0.00     0.076 C
HETATM    3  C2  UNL     1       8.517  25.626  32.011  1.00  0.00     0.193 C
HETATM    4  C3  UNL     1       8.929  24.233  32.205  1.00  0.00     0.060 C
HETATM    5  N2  UNL     1      10.047  23.992  32.793  1.00  0.00    -0.399 N
ATOM      6  H21 UNL     1      10.334  23.022  32.927  1.00  0.00     0.156 HD
ATOM      7  H22 UNL     1      10.594  24.797  33.098  1.00  0.00     0.156 HD
HETATM    8  C4  UNL     1       8.147  23.084  31.769  1.00  0.00     0.102 C
HETATM    9  S1  UNL     1       8.747  21.413  32.097  1.00  0.00    -0.031 SA
HETATM   10  N3  UNL     1       7.033  23.257  31.152  1.00  0.00    -0.356 N
ATOM     11  H3  UNL     1       6.514  22.428  30.863  1.00  0.00     0.162 HD
HETATM   12  C5  UNL     1       6.467  24.556  30.842  1.00  0.00     0.183 A
HETATM   13  C6  UNL     1       7.464  25.657  30.954  1.00  0.00     0.047 C
HETATM   14  N4  UNL     1       7.410  26.623  30.145  1.00  0.00    -0.401 N
ATOM     15  H41 UNL     1       6.691  26.644  29.422  1.00  0.00     0.155 HD
ATOM     16  H42 UNL     1       8.094  27.377  30.221  1.00  0.00     0.155 HD
HETATM   17  C7  UNL     1       5.879  24.604  29.502  1.00  0.00     0.261 A
HETATM   18  O1  UNL     1       6.431  24.355  28.381  1.00  0.00    -0.270 OA
HETATM   19  N5  UNL     1       4.529  24.990  29.637  1.00  0.00    -0.324 N
ATOM     20  H5  UNL     1       3.865  25.119  28.873  1.00  0.00     0.169 HD
HETATM   21  C8  UNL     1       4.252  25.168  31.025  1.00  0.00     0.044 A
HETATM   22  C9  UNL     1       3.064  25.536  31.681  1.00  0.00     0.032 A
HETATM   23  C10 UNL     1       3.051  25.631  33.051  1.00  0.00     0.033 A
HETATM   24  C11 UNL     1       4.170  25.374  33.816  1.00  0.00     0.048 A
HETATM   25  C12 UNL     1       5.317  25.016  33.155  1.00  0.00     0.043 A
HETATM   26  C13 UNL     1       5.366  24.912  31.764  1.00  0.00     0.014 A
ENDROOT
BRANCH  24  27
HETATM   27  N6  UNL     1       4.102  25.486  35.232  1.00  0.00    -0.307 N
HETATM   28  N7  UNL     1       3.683  26.536  35.806  1.00  0.00    -0.345 N
ATOM     29  H72 UNL     1       3.388  27.317  35.219  1.00  0.00     0.176 HD
ATOM     30  H71 UNL     1       3.635  26.617  36.822  1.00  0.00     0.176 HD
ATOM     31  H6  UNL     1       4.401  24.696  35.805  1.00  0.00     0.186 HD
ENDBRANCH  24  27
TORSDOF 1
ENDMDL