MODEL 2
REMARK VINA RESULT: -7.368125517      3.692      5.830
REMARK  4 active torsions:
REMARK  status: ('A' for Active; 'I' for Inactive)
REMARK    1  A    between atoms: C6_8  and  O2_9
REMARK    2  A    between atoms: C10_14  and  N1_15
REMARK    3  A    between atoms: N1_15  and  C11_17
REMARK    4  A    between atoms: C12_24  and  N5_25
ROOT
HETATM    1  C1  UNL     1       6.473  24.703  26.683  1.00  0.00     0.049 C
HETATM    2  C2  UNL     1       6.116  25.833  25.796  1.00  0.00    -0.047 A
HETATM    3  C3  UNL     1       6.477  25.850  24.520  1.00  0.00     0.024 A
HETATM    4  C4  UNL     1       6.169  26.931  23.556  1.00  0.00     0.225 A
HETATM    5  S1  UNL     1       5.193  26.154  22.212  1.00  0.00    -0.058 SA
HETATM    6  O1  UNL     1       5.432  27.987  24.067  1.00  0.00    -0.327 OA
HETATM    7  C5  UNL     1       5.023  28.028  25.392  1.00  0.00     0.117 A
HETATM    8  C6  UNL     1       4.296  29.141  25.781  1.00  0.00     0.106 A
HETATM    9  C7  UNL     1       3.881  29.199  27.095  1.00  0.00    -0.024 A
HETATM   10  C8  UNL     1       3.098  30.384  27.532  1.00  0.00     0.051 C
HETATM   11  C9  UNL     1       4.194  28.165  27.979  1.00  0.00     0.040 A
HETATM   12  C10 UNL     1       4.922  27.064  27.569  1.00  0.00     0.063 A
HETATM   13  C13 UNL     1       5.343  26.988  26.265  1.00  0.00     0.033 A
ENDROOT
BRANCH  12  14
HETATM   14  N1  UNL     1       5.210  26.068  28.491  1.00  0.00    -0.189 N
ATOM     15  H1  UNL     1       5.832  25.334  28.154  1.00  0.00     0.184 HD
BRANCH  14  16
HETATM   16  C11 UNL     1       4.817  25.931  29.690  1.00  0.00     0.713 A
HETATM   17  N2  UNL     1       5.473  26.558  30.672  1.00  0.00    -0.116 N
HETATM   18  N3  UNL     1       5.093  26.438  31.940  1.00  0.00    -0.214 N
ATOM     19  H2  UNL     1       6.281  27.138  30.445  1.00  0.00     0.207 HD
HETATM   20  N4  UNL     1       4.053  25.700  32.290  1.00  0.00    -0.117 N
ATOM     21  H3  UNL     1       5.617  26.930  32.664  1.00  0.00     0.209 HD
HETATM   22  C12 UNL     1       3.363  25.052  31.324  1.00  0.00     0.706 A
ATOM     23  H4  UNL     1       3.776  25.622  33.269  1.00  0.00     0.207 HD
HETATM   24  N6  UNL     1       3.758  25.176  30.021  1.00  0.00    -0.020 N
ATOM     25  H6  UNL     1       3.241  24.687  29.291  1.00  0.00     0.203 HD
BRANCH  22  26
HETATM   26  N5  UNL     1       2.348  24.328  31.650  1.00  0.00    -0.233 N
ATOM     27  H52 UNL     1       2.258  23.932  32.585  1.00  0.00     0.174 HD
ATOM     28  H51 UNL     1       1.620  24.149  30.959  1.00  0.00     0.174 HD
ENDBRANCH  22  26
ENDBRANCH  14  16
ENDBRANCH  12  14
BRANCH   8  29
HETATM   29  O2  UNL     1       3.986  30.168  24.900  1.00  0.00    -0.357 OA
ATOM     30  H2  UNL     1       3.273  30.775  25.060  1.00  0.00     0.217 HD
ENDBRANCH   8  29
TORSDOF 4
ENDMDL