MODEL 3
REMARK VINA RESULT: -6.299532559      1.911      2.386
REMARK  5 active torsions:
REMARK  status: ('A' for Active; 'I' for Inactive)
REMARK    1  A    between atoms: C5_6  and  O2_7
REMARK    2  A    between atoms: C8_13  and  N2_14
REMARK    3  A    between atoms: C9_17  and  O3_18
REMARK    4  A    between atoms: C12_23  and  C13_24
REMARK    5  A    between atoms: N3_25  and  O4_27
ROOT
HETATM    1  C1  UNL     1       6.504  25.335  24.353  1.00  0.00     0.036 C
HETATM    2  C2  UNL     1       6.073  26.670  24.753  1.00  0.00    -0.020 C
HETATM    3  C3  UNL     1       5.827  27.189  25.907  1.00  0.00    -0.017 C
HETATM    4  C4  UNL     1       5.394  28.616  26.013  1.00  0.00     0.112 A
HETATM    5  O1  UNL     1       4.519  29.272  25.306  1.00  0.00    -0.285 OA
HETATM    6  C5  UNL     1       4.384  30.522  25.749  1.00  0.00     0.197 A
HETATM    7  C6  UNL     1       5.252  30.613  26.814  1.00  0.00     0.081 A
HETATM    8  C7  UNL     1       5.908  29.471  26.997  1.00  0.00     0.081 A
HETATM    9  N1  UNL     1       6.663  30.094  28.064  1.00  0.00    -0.354 N
ATOM     10  H1  UNL     1       7.496  29.840  28.596  1.00  0.00     0.162 HD
HETATM   11  C8  UNL     1       5.768  31.210  28.068  1.00  0.00     0.170 C
HETATM   12  C9  UNL     1       4.690  30.877  29.185  1.00  0.00     0.233 C
HETATM   13  S1  UNL     1       3.934  29.295  28.890  1.00  0.00    -0.133 SA
HETATM   14  C10 UNL     1       4.894  27.808  29.236  1.00  0.00     0.077 C
HETATM   15  C11 UNL     1       4.708  26.826  28.123  1.00  0.00     0.025 C
HETATM   16  C12 UNL     1       5.894  26.485  27.247  1.00  0.00     0.062 C
ENDROOT
BRANCH  16  17
HETATM   17  C13 UNL     1       6.153  25.070  27.201  1.00  0.00     0.096 C
HETATM   18  N3  UNL     1       7.008  24.471  28.003  1.00  0.00    -0.284 N
ATOM     19  H3  UNL     1       7.506  25.043  28.685  1.00  0.00     0.192 HD
BRANCH  18  20
HETATM   20  O4  UNL     1       7.268  23.144  27.977  1.00  0.00    -0.291 OA
ATOM     21  H4  UNL     1       7.373  22.608  28.754  1.00  0.00     0.244 HD
ENDBRANCH  18  20
ENDBRANCH  16  17
BRANCH   6  22
HETATM   22  O2  UNL     1       3.532  31.484  25.212  1.00  0.00    -0.340 OA
ATOM     23  H2  UNL     1       3.753  32.091  24.516  1.00  0.00     0.220 HD
ENDBRANCH   6  22
BRANCH  12  24
HETATM   24  O3  UNL     1       5.347  30.905  30.382  1.00  0.00    -0.380 OA
ATOM     25  H3  UNL     1       4.718  30.641  31.044  1.00  0.00     0.211 HD
ENDBRANCH  12  24
BRANCH  11  26
HETATM   26  N2  UNL     1       6.201  32.512  28.148  1.00  0.00    -0.399 N
ATOM     27  H22 UNL     1       7.182  32.697  27.939  1.00  0.00     0.152 HD
ATOM     28  H21 UNL     1       5.585  33.284  28.404  1.00  0.00     0.152 HD
ENDBRANCH  11  26
TORSDOF 5
ENDMDL