MODEL 1
REMARK VINA RESULT: -7.130996511      0.000      0.000
REMARK  6 active torsions:
REMARK  status: ('A' for Active; 'I' for Inactive)
REMARK    1  A    between atoms: C1_4  and  N2_5
REMARK    2  A    between atoms: C1_4  and  C12_25
REMARK    3  A    between atoms: N3_7  and  N4_9
REMARK    4  A    between atoms: C4_15  and  O1_16
REMARK    5  A    between atoms: C12_25  and  N7_29
REMARK    6  A    between atoms: N7_29  and  N8_31
ROOT
HETATM    1  N2  UNL     1       7.987  24.540  27.684  1.00  0.00    -0.267 N
ATOM      2  H2  UNL     1       8.386  25.459  27.880  1.00  0.00     0.190 HD
HETATM    3  N3  UNL     1       7.255  24.382  26.652  1.00  0.00    -0.223 N
ATOM      4  H3  UNL     1       6.875  23.450  26.487  1.00  0.00     0.210 HD
ENDROOT
BRANCH   3   5
HETATM    5  N4  UNL     1       6.941  25.353  25.753  1.00  0.00    -0.206 N
HETATM    6  N5  UNL     1       6.121  26.484  26.105  1.00  0.00    -0.274 N
HETATM    7  C2  UNL     1       5.369  27.160  25.087  1.00  0.00     0.104 A
ATOM      8  H5  UNL     1       6.076  26.802  27.074  1.00  0.00     0.189 HD
HETATM    9  S1  UNL     1       4.408  28.594  25.059  1.00  0.00    -0.079 SA
HETATM   10  C5  UNL     1       5.375  26.775  23.765  1.00  0.00     0.042 A
HETATM   11  C3  UNL     1       4.058  28.654  23.393  1.00  0.00     0.089 A
HETATM   12  C4  UNL     1       4.703  27.547  22.905  1.00  0.00     0.086 A
HETATM   13  C6  UNL     1       6.087  25.482  23.564  1.00  0.00    -0.012 C
HETATM   14  C7  UNL     1       6.070  24.863  22.262  1.00  0.00     0.011 C
HETATM   15  C11 UNL     1       7.338  25.441  24.358  1.00  0.00     0.185 C
HETATM   16  C8  UNL     1       7.143  24.152  21.891  1.00  0.00     0.001 C
HETATM   17  C9  UNL     1       8.326  23.992  22.716  1.00  0.00    -0.002 C
HETATM   18  C10 UNL     1       8.409  24.594  23.888  1.00  0.00     0.007 C
BRANCH  12  19
HETATM   19  O1  UNL     1       4.625  27.280  21.517  1.00  0.00    -0.359 OA
ATOM     20  H1  UNL     1       5.398  26.943  21.077  1.00  0.00     0.217 HD
ENDBRANCH  12  19
ENDBRANCH   3   5
BRANCH   1  21
HETATM   21  C1  UNL     1       8.259  23.456  28.568  1.00  0.00     0.160 C
HETATM   22  N1  UNL     1       7.761  23.398  29.752  1.00  0.00    -0.381 N
ATOM     23  H12 UNL     1       7.158  24.168  30.043  1.00  0.00     0.157 HD
ATOM     24  H11 UNL     1       7.955  22.621  30.385  1.00  0.00     0.157 HD
BRANCH  21  25
HETATM   25  C12 UNL     1       9.134  22.340  28.146  1.00  0.00     0.159 C
HETATM   26  N6  UNL     1       8.920  21.171  28.650  1.00  0.00    -0.381 N
ATOM     27  H62 UNL     1       8.166  21.023  29.321  1.00  0.00     0.157 HD
ATOM     28  H61 UNL     1       9.524  20.402  28.359  1.00  0.00     0.157 HD
BRANCH  25  29
HETATM   29  N7  UNL     1      10.173  22.544  27.221  1.00  0.00    -0.289 N
ATOM     30  H7  UNL     1       9.991  23.154  26.424  1.00  0.00     0.188 HD
BRANCH  29  31
HETATM   31  N8  UNL     1      11.439  21.966  27.325  1.00  0.00    -0.344 N
ATOM     32  H82 UNL     1      12.142  22.485  27.851  1.00  0.00     0.176 HD
ATOM     33  H81 UNL     1      11.695  21.069  26.911  1.00  0.00     0.176 HD
ENDBRANCH  29  31
ENDBRANCH  25  29
ENDBRANCH  21  25
ENDBRANCH   1  21
TORSDOF 6
ENDMDL