MODEL 3
REMARK VINA RESULT: -7.338335537      1.109      1.588
REMARK  3 active torsions:
REMARK  status: ('A' for Active; 'I' for Inactive)
REMARK    1  A    between atoms: N1_1  and  C1_4
REMARK    2  A    between atoms: C3_7  and  O2_8
REMARK    3  A    between atoms: N4_16  and  C6_17
ROOT
HETATM    1  C1  UNL     1       3.992  26.382  34.783  1.00  0.00     0.176 A
HETATM    2  O1  UNL     1       3.467  25.650  33.821  1.00  0.00    -0.285 OA
HETATM    3  C2  UNL     1       3.690  25.931  32.562  1.00  0.00     0.157 A
HETATM    4  C3  UNL     1       3.150  25.176  31.542  1.00  0.00     0.179 A
HETATM    5  N2  UNL     1       3.409  25.505  30.264  1.00  0.00    -0.317 N
ATOM      6  H2  UNL     1       3.007  24.941  29.515  1.00  0.00     0.169 HD
HETATM    7  C4  UNL     1       4.197  26.573  29.944  1.00  0.00     0.160 A
HETATM    8  C5  UNL     1       4.717  27.300  30.942  1.00  0.00     0.124 A
HETATM    9  N3  UNL     1       5.307  28.087  30.052  1.00  0.00    -0.286 N
ATOM     10  H3  UNL     1       5.909  28.908  30.108  1.00  0.00     0.188 HD
HETATM   11  N4  UNL     1       4.802  27.381  29.075  1.00  0.00    -0.237 N
HETATM   12  C12 UNL     1       4.492  27.018  32.298  1.00  0.00     0.104 A
HETATM   13  N6  UNL     1       5.051  27.797  33.236  1.00  0.00    -0.342 N
ATOM     14  H6  UNL     1       5.639  28.595  32.992  1.00  0.00     0.167 HD
HETATM   15  C13 UNL     1       4.791  27.467  34.532  1.00  0.00     0.133 A
HETATM   16  S1  UNL     1       5.463  28.409  35.894  1.00  0.00    -0.028 SA
ENDROOT
BRANCH  11  17
HETATM   17  C6  UNL     1       4.829  27.392  27.632  1.00  0.00     0.058 A
HETATM   18  C7  UNL     1       5.886  26.888  26.915  1.00  0.00     0.033 A
HETATM   19  C8  UNL     1       5.946  26.882  25.540  1.00  0.00     0.029 A
HETATM   20  C9  UNL     1       4.881  27.413  24.836  1.00  0.00     0.046 A
HETATM   21  N5  UNL     1       4.926  27.414  23.417  1.00  0.00    -0.102 NA
HETATM   22  C10 UNL     1       3.810  27.923  25.529  1.00  0.00     0.029 A
HETATM   23  C11 UNL     1       3.776  27.918  26.904  1.00  0.00     0.033 A
ENDBRANCH  11  17
BRANCH   4  24
HETATM   24  O2  UNL     1       2.333  24.066  31.815  1.00  0.00    -0.344 OA
ATOM     25  H2  UNL     1       1.387  24.149  31.845  1.00  0.00     0.219 HD
ENDBRANCH   4  24
BRANCH   1  26
HETATM   26  N1  UNL     1       3.747  26.073  36.026  1.00  0.00    -0.377 N
ATOM     27  H12 UNL     1       3.689  25.085  36.274  1.00  0.00     0.158 HD
ATOM     28  H11 UNL     1       3.623  26.818  36.711  1.00  0.00     0.158 HD
ENDBRANCH   1  26
TORSDOF 3
ENDMDL