MODEL 2
REMARK VINA RESULT: -6.649704569      2.477      3.790
REMARK  4 active torsions:
REMARK  status: ('A' for Active; 'I' for Inactive)
REMARK    1  A    between atoms: N2_9  and  O1_11
REMARK    2  A    between atoms: C8_18  and  O3_19
REMARK    3  A    between atoms: C10_22  and  C11_23
REMARK    4  A    between atoms: C14_26  and  O4_27
ROOT
HETATM    1  C1  UNL     1       6.387  31.058  28.234  1.00  0.00     0.046 C
HETATM    2  C2  UNL     1       5.425  29.927  28.002  1.00  0.00     0.235 C
HETATM    3  N1  UNL     1       6.088  28.737  27.498  1.00  0.00    -0.014 N
ATOM      4  H11 UNL     1       6.772  28.318  28.128  1.00  0.00     0.283 HD
ATOM      5  H12 UNL     1       6.750  28.894  26.738  1.00  0.00     0.283 HD
HETATM    6  C3  UNL     1       4.962  27.907  27.173  1.00  0.00     0.313 C
HETATM    7  C4  UNL     1       4.084  28.875  26.369  1.00  0.00     0.150 C
HETATM    8  C5  UNL     1       4.472  30.199  26.905  1.00  0.00     0.046 C
HETATM    9  N2  UNL     1       4.090  31.360  26.532  1.00  0.00    -0.275 N
ATOM     10  H2  UNL     1       4.461  32.177  27.016  1.00  0.00     0.193 HD
HETATM   11  N3  UNL     1       5.298  26.735  26.430  1.00  0.00    -0.333 N
ATOM     12  H3  UNL     1       5.192  26.699  25.416  1.00  0.00     0.164 HD
HETATM   13  C6  UNL     1       5.788  25.615  27.166  1.00  0.00     0.068 A
HETATM   14  C7  UNL     1       6.389  24.423  26.880  1.00  0.00     0.174 A
HETATM   15  O2  UNL     1       6.625  23.768  27.995  1.00  0.00    -0.298 OA
HETATM   16  C8  UNL     1       6.200  24.485  29.024  1.00  0.00     0.194 A
HETATM   17  C9  UNL     1       5.661  25.668  28.548  1.00  0.00     0.063 A
HETATM   18  C10 UNL     1       5.034  26.853  29.228  1.00  0.00     0.216 C
HETATM   19  O5  UNL     1       4.267  27.549  28.301  1.00  0.00    -0.321 OA
ENDROOT
BRANCH  18  20
HETATM   20  C11 UNL     1       4.097  26.388  30.289  1.00  0.00     0.045 A
HETATM   21  C12 UNL     1       3.534  27.170  31.275  1.00  0.00     0.032 A
HETATM   22  C13 UNL     1       2.742  26.327  32.024  1.00  0.00     0.058 A
HETATM   23  C14 UNL     1       2.811  25.056  31.517  1.00  0.00     0.140 A
HETATM   24  N4  UNL     1       3.639  25.112  30.463  1.00  0.00    -0.338 N
ATOM     25  H4  UNL     1       3.890  24.317  29.876  1.00  0.00     0.168 HD
BRANCH  23  26
HETATM   26  O4  UNL     1       2.169  23.891  31.967  1.00  0.00    -0.346 OA
ATOM     27  H4  UNL     1       2.482  23.235  32.579  1.00  0.00     0.219 HD
ENDBRANCH  23  26
ENDBRANCH  18  20
BRANCH   9  28
HETATM   28  O1  UNL     1       3.199  31.549  25.502  1.00  0.00    -0.290 OA
ATOM     29  H1  UNL     1       2.550  32.242  25.510  1.00  0.00     0.244 HD
ENDBRANCH   9  28
BRANCH  16  30
HETATM   30  O3  UNL     1       6.267  24.142  30.376  1.00  0.00    -0.340 OA
ATOM     31  H3  UNL     1       6.935  23.620  30.803  1.00  0.00     0.220 HD
ENDBRANCH  16  30
TORSDOF 4
ENDMDL