MODEL 3
REMARK VINA RESULT: -7.009818302      4.731      6.996
REMARK  3 active torsions:
REMARK  status: ('A' for Active; 'I' for Inactive)
REMARK    1  A    between atoms: N1_1  and  C1_4
REMARK    2  A    between atoms: C3_8  and  C4_9
REMARK    3  A    between atoms: C14_25  and  O1_26
ROOT
HETATM    1  C4  UNL     1       5.739  26.988  24.173  1.00  0.00    -0.017 A
HETATM    2  C5  UNL     1       4.601  27.404  23.518  1.00  0.00     0.015 A
HETATM    3  C6  UNL     1       3.844  28.449  23.995  1.00  0.00     0.038 A
HETATM    4  C7  UNL     1       4.248  29.089  25.164  1.00  0.00     0.080 A
HETATM    5  C8  UNL     1       5.389  28.673  25.821  1.00  0.00    -0.009 A
HETATM    6  C9  UNL     1       6.131  27.624  25.326  1.00  0.00     0.023 A
HETATM    7  C10 UNL     1       5.918  29.273  27.072  1.00  0.00     0.123 C
HETATM    8  C11 UNL     1       5.241  28.662  28.252  1.00  0.00     0.068 A
HETATM    9  C12 UNL     1       3.896  28.844  28.550  1.00  0.00     0.128 A
HETATM   10  N3  UNL     1       4.711  28.041  29.386  1.00  0.00    -0.341 N
ATOM     11  H3  UNL     1       4.826  27.448  30.208  1.00  0.00     0.167 HD
HETATM   12  N4  UNL     1       2.953  29.624  27.801  1.00  0.00    -0.332 N
ATOM     13  H4  UNL     1       1.961  29.439  27.944  1.00  0.00     0.165 HD
HETATM   14  C13 UNL     1       3.320  30.660  26.852  1.00  0.00     0.335 C
HETATM   15  N5  UNL     1       4.500  31.308  27.278  1.00  0.00    -0.354 N
ATOM     16  H5  UNL     1       4.442  32.185  27.797  1.00  0.00     0.160 HD
HETATM   17  C14 UNL     1       5.754  30.747  26.986  1.00  0.00     0.231 C
HETATM   18  O2  UNL     1       3.373  30.134  25.523  1.00  0.00    -0.308 OA
ENDROOT
BRANCH   1  19
HETATM   19  C3  UNL     1       6.519  25.859  23.621  1.00  0.00     0.034 A
HETATM   20  C2  UNL     1       7.228  24.907  24.303  1.00  0.00     0.110 A
HETATM   21  N2  UNL     1       7.848  23.996  23.612  1.00  0.00    -0.346 N
HETATM   22  C1  UNL     1       7.764  24.032  22.286  1.00  0.00     0.142 A
ATOM     23  H2  UNL     1       8.389  23.268  24.079  1.00  0.00     0.167 HD
HETATM   24  S1  UNL     1       6.780  25.396  22.001  1.00  0.00    -0.052 SA
BRANCH  22  25
HETATM   25  N1  UNL     1       8.311  23.213  21.416  1.00  0.00    -0.380 N
ATOM     26  H12 UNL     1       8.834  22.354  21.586  1.00  0.00     0.158 HD
ATOM     27  H11 UNL     1       8.313  23.285  20.399  1.00  0.00     0.158 HD
ENDBRANCH  22  25
ENDBRANCH   1  19
BRANCH  17  28
HETATM   28  O1  UNL     1       6.217  31.135  25.707  1.00  0.00    -0.376 OA
ATOM     29  H1  UNL     1       6.648  31.975  25.815  1.00  0.00     0.212 HD
ENDBRANCH  17  28
TORSDOF 3
ENDMDL