MODEL 5
REMARK VINA RESULT: -7.734444828      2.299      3.480
REMARK  14 active torsions:
REMARK  status: ('A' for Active; 'I' for Inactive)
REMARK    1  A    between atoms: C3_3  and  C4_4
REMARK    2  A    between atoms: C4_4  and  C6_6
REMARK    3  A    between atoms: C6_6  and  N1_7
REMARK    4  A    between atoms: C6_6  and  C19_25
REMARK       I    between atoms: N1_7  and  C7_9
REMARK    5  A    between atoms: C7_9  and  O2_11
REMARK    6  A    between atoms: O2_11  and  C8_12
REMARK    7  A    between atoms: C15_19  and  C16_20
REMARK       I    between atoms: C19_25  and  N3_27
REMARK    8  A    between atoms: N3_27  and  C20_29
REMARK    9  A    between atoms: C20_29  and  C21_30
REMARK   10  A    between atoms: C20_29  and  C24_34
REMARK   11  A    between atoms: C21_30  and  C22_31
REMARK   12  A    between atoms: C22_31  and  S1_32
REMARK   13  A    between atoms: C24_34  and  O6_36
REMARK   14  A    between atoms: O6_36  and  C25_37
ROOT
HETATM    1  C1  UNL     1      -1.338 -45.574  11.608  1.00  0.00     0.012 C
HETATM    2  C2  UNL     1      -2.086 -45.031  12.384  1.00  0.00    -0.117 C
HETATM    3  C3  UNL     1      -2.986 -44.408  13.356  1.00  0.00     0.099 C
ENDROOT
BRANCH   3   4
HETATM    4  C4  UNL     1      -2.389 -43.417  14.254  1.00  0.00     0.025 C
HETATM    5  C5  UNL     1      -3.461 -42.831  15.229  1.00  0.00     0.013 C
BRANCH   4   6
HETATM    6  C6  UNL     1      -1.789 -42.136  13.564  1.00  0.00     0.183 C
BRANCH   6   7
HETATM    7  N1  UNL     1      -2.332 -41.042  14.140  1.00  0.00    -0.323 N
HETATM    8  C7  UNL     1      -3.084 -39.874  14.073  1.00  0.00     0.361 C
HETATM    9  O1  UNL     1      -3.611 -39.474  13.017  1.00  0.00    -0.238 OA
ATOM     10  H1  UNL     1      -2.048 -41.103  15.118  1.00  0.00     0.165 HD
BRANCH   8  11
HETATM   11  O2  UNL     1      -3.289 -39.054  15.163  1.00  0.00    -0.298 OA
BRANCH  11  12
HETATM   12  C8  UNL     1      -2.569 -38.368  16.055  1.00  0.00     0.142 C
HETATM   13  C9  UNL     1      -3.516 -37.421  16.823  1.00  0.00     0.017 C
HETATM   14  C10 UNL     1      -2.660 -36.572  17.719  1.00  0.00     0.012 C
HETATM   15  C18 UNL     1      -4.519 -38.265  17.561  1.00  0.00     0.026 C
HETATM   16  C11 UNL     1      -1.980 -37.460  18.748  1.00  0.00    -0.013 C
HETATM   17  C12 UNL     1      -1.083 -38.433  18.022  1.00  0.00     0.012 C
HETATM   18  C17 UNL     1      -3.068 -38.130  19.535  1.00  0.00     0.023 C
HETATM   19  C13 UNL     1      -1.901 -39.277  17.083  1.00  0.00     0.017 C
HETATM   20  C14 UNL     1      -2.882 -40.047  17.947  1.00  0.00     0.026 C
HETATM   21  C15 UNL     1      -3.820 -39.069  18.617  1.00  0.00     0.040 C
BRANCH  21  22
HETATM   22  C16 UNL     1      -4.789 -39.834  19.442  1.00  0.00     0.239 C
HETATM   23  N2  UNL     1      -5.957 -40.376  18.904  1.00  0.00    -0.061 NA
HETATM   24  O3  UNL     1      -4.572 -40.017  20.671  1.00  0.00    -0.276 OA
ENDBRANCH  21  22
ENDBRANCH  11  12
ENDBRANCH   8  11
ENDBRANCH   6   7
BRANCH   6  25
HETATM   25  C19 UNL     1      -0.322 -42.553  13.668  1.00  0.00     0.245 C
HETATM   26  O4  UNL     1       0.480 -42.426  12.761  1.00  0.00    -0.271 OA
HETATM   27  N3  UNL     1       0.036 -43.090  14.907  1.00  0.00    -0.324 N
ATOM     28  H3  UNL     1      -0.812 -43.177  15.467  1.00  0.00     0.169 HD
BRANCH  27  29
HETATM   29  C20 UNL     1       1.109 -43.553  15.675  1.00  0.00     0.088 C
BRANCH  29  30
HETATM   30  C21 UNL     1       0.628 -44.149  16.936  1.00  0.00     0.074 C
BRANCH  30  31
HETATM   31  C22 UNL     1       1.559 -44.744  17.909  1.00  0.00     0.080 C
BRANCH  31  32
HETATM   32  S1  UNL     1       0.547 -45.037  19.437  1.00  0.00    -0.173 SA
HETATM   33  C23 UNL     1       0.677 -43.542  20.457  1.00  0.00     0.089 C
ENDBRANCH  31  32
ENDBRANCH  30  31
ENDBRANCH  29  30
BRANCH  29  34
HETATM   34  C24 UNL     1       2.418 -43.815  15.158  1.00  0.00     0.306 C
HETATM   35  O5  UNL     1       3.196 -42.826  14.870  1.00  0.00    -0.258 OA
BRANCH  34  36
HETATM   36  O6  UNL     1       3.029 -45.045  14.873  1.00  0.00    -0.306 OA
BRANCH  36  37
HETATM   37  C25 UNL     1       2.682 -45.908  13.839  1.00  0.00     0.060 C
HETATM   38  C26 UNL     1       1.567 -46.813  14.375  1.00  0.00     0.046 C
HETATM   39  C27 UNL     1       3.843 -46.904  13.588  1.00  0.00     0.046 C
HETATM   40  C28 UNL     1       2.293 -45.346  12.527  1.00  0.00     0.046 C
ENDBRANCH  36  37
ENDBRANCH  34  36
ENDBRANCH  29  34
ENDBRANCH  27  29
ENDBRANCH   6  25
ENDBRANCH   4   6
ENDBRANCH   3   4
TORSDOF 14
ENDMDL