MODEL 3
REMARK VINA RESULT: -8.515910640      3.935      9.778
REMARK  12 active torsions:
REMARK  status: ('A' for Active; 'I' for Inactive)
REMARK    1  A    between atoms: O1_2  and  C2_3
REMARK    2  A    between atoms: C7_8  and  N1_9
REMARK       I    between atoms: N1_9  and  C8_11
REMARK    3  A    between atoms: C8_11  and  C9_13
REMARK    4  A    between atoms: N2_17  and  C13_18
REMARK    5  A    between atoms: C13_18  and  O3_19
REMARK    6  A    between atoms: C13_18  and  C14_21
REMARK    7  A    between atoms: C14_21  and  C15_23
REMARK       I    between atoms: C15_23  and  N3_25
REMARK    8  A    between atoms: N3_25  and  C16_27
REMARK    9  A    between atoms: C16_27  and  C17_28
REMARK   10  A    between atoms: C16_27  and  C28_40
REMARK   11  A    between atoms: C17_28  and  C18_30
REMARK   12  A    between atoms: C19_31  and  C21_33
ROOT
HETATM    1  C14 UNL     1       0.958 -43.161  13.792  1.00  0.00     0.264 C
HETATM    2  O4  UNL     1       1.888 -43.544  14.547  1.00  0.00    -0.282 OA
ENDROOT
BRANCH   1   3
HETATM    3  C13 UNL     1       0.967 -43.653  12.411  1.00  0.00     0.297 C
BRANCH   3   4
HETATM    4  N2  UNL     1       0.559 -44.940  12.256  1.00  0.00    -0.368 N
HETATM    5  C9  UNL     1       1.102 -46.150  12.515  1.00  0.00     0.174 C
HETATM    6  C10 UNL     1       0.531 -47.008  11.333  1.00  0.00     0.036 C
HETATM    7  C11 UNL     1      -0.939 -46.596  11.504  1.00  0.00     0.022 C
HETATM    8  C12 UNL     1      -0.782 -45.104  11.785  1.00  0.00     0.120 C
BRANCH   5   9
HETATM    9  C8  UNL     1       2.491 -46.452  12.762  1.00  0.00     0.240 C
HETATM   10  N1  UNL     1       3.140 -46.611  14.011  1.00  0.00    -0.352 N
ATOM     11  H1  UNL     1       2.582 -46.485  14.855  1.00  0.00     0.163 HD
HETATM   12  O2  UNL     1       3.290 -46.617  11.759  1.00  0.00    -0.271 OA
BRANCH  10  13
HETATM   13  C7  UNL     1       4.543 -46.941  14.176  1.00  0.00     0.113 C
HETATM   14  C2  UNL     1       5.212 -46.265  15.337  1.00  0.00     0.143 C
HETATM   15  C3  UNL     1       6.709 -46.283  15.012  1.00  0.00     0.034 C
HETATM   16  C4  UNL     1       7.121 -47.652  14.515  1.00  0.00     0.003 C
HETATM   17  C5  UNL     1       6.104 -48.705  14.852  1.00  0.00     0.002 C
HETATM   18  C6  UNL     1       4.739 -48.429  14.338  1.00  0.00     0.028 C
BRANCH  14  19
HETATM   19  O1  UNL     1       4.905 -46.950  16.489  1.00  0.00    -0.389 OA
HETATM   20  C1  UNL     1       5.362 -46.326  17.642  1.00  0.00     0.202 C
ENDBRANCH  14  19
ENDBRANCH  10  13
ENDBRANCH   5   9
ENDBRANCH   3   4
BRANCH   3  21
HETATM   21  O3  UNL     1       0.183 -42.817  11.578  1.00  0.00    -0.369 OA
ATOM     22  H3  UNL     1      -0.302 -42.206  12.120  1.00  0.00     0.212 HD
ENDBRANCH   3  21
ENDBRANCH   1   3
BRANCH   1  23
HETATM   23  C15 UNL     1      -0.033 -42.266  14.379  1.00  0.00     0.296 C
HETATM   24  O5  UNL     1       0.311 -41.219  14.953  1.00  0.00    -0.264 OA
HETATM   25  N3  UNL     1      -1.430 -42.570  14.301  1.00  0.00    -0.320 N
ATOM     26  H3  UNL     1      -1.708 -43.442  13.852  1.00  0.00     0.169 HD
BRANCH  25  27
HETATM   27  C16 UNL     1      -2.474 -41.705  14.829  1.00  0.00     0.066 C
BRANCH  27  28
HETATM   28  C17 UNL     1      -2.848 -42.168  16.210  1.00  0.00     0.195 C
HETATM   29  O6  UNL     1      -2.455 -43.337  16.477  1.00  0.00    -0.286 OA
BRANCH  28  30
HETATM   30  C18 UNL     1      -3.576 -41.401  17.172  1.00  0.00     0.059 C
HETATM   31  C19 UNL     1      -3.360 -40.372  17.903  1.00  0.00    -0.076 C
HETATM   32  C20 UNL     1      -4.602 -39.996  18.793  1.00  0.00     0.044 C
BRANCH  31  33
HETATM   33  C21 UNL     1      -2.292 -39.418  18.134  1.00  0.00     0.014 C
HETATM   34  C22 UNL     1      -2.241 -38.497  16.901  1.00  0.00     0.009 C
HETATM   35  C23 UNL     1      -1.887 -37.090  17.234  1.00  0.00     0.005 C
HETATM   36  C24 UNL     1      -0.700 -36.971  18.155  1.00  0.00    -0.019 C
HETATM   37  C25 UNL     1       0.623 -37.057  17.448  1.00  0.00     0.010 C
HETATM   38  C26 UNL     1      -0.763 -37.941  19.290  1.00  0.00     0.005 C
HETATM   39  C27 UNL     1      -2.129 -38.659  19.368  1.00  0.00     0.009 C
ENDBRANCH  31  33
ENDBRANCH  28  30
ENDBRANCH  27  28
BRANCH  27  40
HETATM   40  C28 UNL     1      -3.476 -41.301  13.875  1.00  0.00     0.031 C
HETATM   41  C29 UNL     1      -3.852 -39.847  13.850  1.00  0.00     0.016 C
HETATM   42  C30 UNL     1      -4.737 -42.169  13.880  1.00  0.00     0.016 C
ENDBRANCH  27  40
ENDBRANCH  25  27
ENDBRANCH   1  23
TORSDOF 12
ENDMDL