MODEL 3
REMARK VINA RESULT: -7.895320917      1.390      1.852
REMARK  12 active torsions:
REMARK  status: ('A' for Active; 'I' for Inactive)
REMARK    1  A    between atoms: C2_2  and  S1_4
REMARK    2  A    between atoms: S1_4  and  C3_5
REMARK    3  A    between atoms: C3_5  and  C4_6
REMARK    4  A    between atoms: C4_6  and  C5_7
REMARK    5  A    between atoms: C5_7  and  C7_9
REMARK       I    between atoms: C7_9  and  N1_11
REMARK    6  A    between atoms: N1_11  and  C8_13
REMARK    7  A    between atoms: C13_18  and  N2_19
REMARK       I    between atoms: N2_19  and  C14_21
REMARK    8  A    between atoms: C14_21  and  C15_23
REMARK       I    between atoms: N3_26  and  C18_27
REMARK    9  A    between atoms: C18_27  and  O5_29
REMARK   10  A    between atoms: O5_29  and  C19_30
REMARK   11  A    between atoms: C19_30  and  C20_31
REMARK   12  A    between atoms: C20_31  and  O6_32
ROOT
HETATM    1  C8  UNL     1       0.741 -44.058  14.595  1.00  0.00     0.034 C
HETATM    2  C9  UNL     1      -0.412 -45.034  14.651  1.00  0.00     0.035 C
HETATM    3  C10 UNL     1      -1.539 -44.781  13.739  1.00  0.00    -0.012 C
HETATM    4  C11 UNL     1      -2.796 -44.299  14.446  1.00  0.00     0.007 C
HETATM    5  C12 UNL     1      -2.535 -43.108  15.321  1.00  0.00     0.026 C
HETATM    6  C13 UNL     1      -1.914 -41.963  14.573  1.00  0.00     0.089 C
HETATM    7  C23 UNL     1      -0.490 -42.118  14.199  1.00  0.00     0.015 C
HETATM    8  C24 UNL     1       0.380 -42.751  15.244  1.00  0.00     0.038 C
HETATM    9  C25 UNL     1      -0.240 -42.825  12.890  1.00  0.00    -0.006 C
HETATM   10  C26 UNL     1      -1.289 -43.865  12.591  1.00  0.00     0.010 C
HETATM   11  C27 UNL     1       1.043 -43.627  13.181  1.00  0.00     0.036 C
ENDROOT
BRANCH   6  12
HETATM   12  N2  UNL     1      -2.104 -40.698  15.253  1.00  0.00    -0.356 N
HETATM   13  C14 UNL     1      -3.333 -40.060  15.430  1.00  0.00     0.222 C
HETATM   14  O3  UNL     1      -4.369 -40.607  14.972  1.00  0.00    -0.273 OA
ATOM     15  H2  UNL     1      -1.276 -40.237  15.632  1.00  0.00     0.162 HD
BRANCH  13  16
HETATM   16  C15 UNL     1      -3.471 -38.782  16.123  1.00  0.00     0.081 C
HETATM   17  C16 UNL     1      -3.945 -38.872  17.543  1.00  0.00     0.034 C
HETATM   18  C17 UNL     1      -2.870 -39.367  18.493  1.00  0.00     0.129 C
HETATM   19  N3  UNL     1      -1.735 -38.480  18.354  1.00  0.00    -0.328 N
HETATM   20  C18 UNL     1      -1.187 -37.800  19.488  1.00  0.00     0.362 C
HETATM   21  C21 UNL     1      -1.182 -38.314  17.027  1.00  0.00     0.129 C
HETATM   22  O4  UNL     1      -0.201 -37.031  19.365  1.00  0.00    -0.238 OA
HETATM   23  C22 UNL     1      -2.255 -37.898  16.045  1.00  0.00     0.034 C
BRANCH  20  24
HETATM   24  O5  UNL     1      -1.720 -37.962  20.759  1.00  0.00    -0.302 OA
BRANCH  24  25
HETATM   25  C19 UNL     1      -0.887 -38.418  21.790  1.00  0.00     0.206 C
BRANCH  25  26
HETATM   26  C20 UNL     1      -0.482 -37.318  22.738  1.00  0.00     0.191 C
BRANCH  26  27
HETATM   27  O6  UNL     1       0.512 -36.501  22.242  1.00  0.00    -0.399 OA
ATOM     28  H6  UNL     1       0.257 -35.588  22.182  1.00  0.00     0.209 HD
ENDBRANCH  26  27
ENDBRANCH  25  26
ENDBRANCH  24  25
ENDBRANCH  20  24
ENDBRANCH  13  16
ENDBRANCH   6  12
BRANCH   1  29
HETATM   29  N1  UNL     1       1.897 -44.713  15.193  1.00  0.00    -0.351 N
HETATM   30  C7  UNL     1       3.174 -44.189  15.321  1.00  0.00     0.222 C
HETATM   31  O2  UNL     1       3.477 -43.012  14.890  1.00  0.00    -0.273 OA
ATOM     32  H1  UNL     1       1.751 -45.655  15.555  1.00  0.00     0.163 HD
BRANCH  30  33
HETATM   33  C5  UNL     1       4.310 -44.930  15.965  1.00  0.00     0.074 C
HETATM   34  C6  UNL     1       3.582 -45.969  16.928  1.00  0.00     0.020 C
BRANCH  33  35
HETATM   35  C4  UNL     1       5.060 -45.784  15.029  1.00  0.00     0.024 C
BRANCH  35  36
HETATM   36  C3  UNL     1       4.361 -46.912  14.366  1.00  0.00     0.083 C
BRANCH  36  37
HETATM   37  S1  UNL     1       5.141 -48.445  14.506  1.00  0.00    -0.093 SA
BRANCH  37  38
HETATM   38  C2  UNL     1       6.762 -48.863  14.481  1.00  0.00     0.182 C
HETATM   39  C1  UNL     1       7.476 -49.918  15.243  1.00  0.00     0.104 C
HETATM   40  O1  UNL     1       7.574 -48.213  13.705  1.00  0.00    -0.286 OA
ENDBRANCH  37  38
ENDBRANCH  36  37
ENDBRANCH  35  36
ENDBRANCH  33  35
ENDBRANCH  30  33
ENDBRANCH   1  29
TORSDOF 12
ENDMDL