MODEL 1
REMARK VINA RESULT: -8.362511981      0.000      0.000
REMARK  12 active torsions:
REMARK  status: ('A' for Active; 'I' for Inactive)
REMARK    1  A    between atoms: C2_2  and  C4_4
REMARK    2  A    between atoms: C4_4  and  N1_5
REMARK    3  A    between atoms: C4_4  and  C12_18
REMARK       I    between atoms: N1_5  and  C5_7
REMARK    4  A    between atoms: C5_7  and  O2_9
REMARK    5  A    between atoms: O2_9  and  C6_10
REMARK    6  A    between atoms: C12_18  and  O5_19
REMARK    7  A    between atoms: C12_18  and  C13_21
REMARK    8  A    between atoms: C13_21  and  N2_22
REMARK       I    between atoms: N2_22  and  C14_24
REMARK    9  A    between atoms: C14_24  and  O7_26
REMARK   10  A    between atoms: O7_26  and  C15_27
REMARK   11  A    between atoms: C22_34  and  C24_36
REMARK   12  A    between atoms: C24_36  and  S1_37
ROOT
HETATM    1  C13 UNL     1      -4.062 -41.879  14.253  1.00  0.00     0.158 C
ENDROOT
BRANCH   1   2
HETATM    2  C12 UNL     1      -3.295 -43.128  14.639  1.00  0.00     0.159 C
BRANCH   2   3
HETATM    3  C4  UNL     1      -1.888 -42.971  14.157  1.00  0.00     0.120 C
BRANCH   3   4
HETATM    4  C2  UNL     1      -0.879 -42.656  15.190  1.00  0.00     0.003 C
HETATM    5  C1  UNL     1      -0.142 -43.915  15.597  1.00  0.00     0.011 C
HETATM    6  C3  UNL     1       0.142 -41.637  14.833  1.00  0.00     0.011 C
ENDBRANCH   3   4
BRANCH   3   7
HETATM    7  N1  UNL     1      -1.518 -44.214  13.510  1.00  0.00    -0.329 N
HETATM    8  C5  UNL     1      -0.749 -44.325  12.340  1.00  0.00     0.361 C
HETATM    9  O1  UNL     1      -0.329 -43.297  11.779  1.00  0.00    -0.238 OA
ATOM     10  H1  UNL     1      -1.843 -45.079  13.939  1.00  0.00     0.165 HD
BRANCH   8  11
HETATM   11  O2  UNL     1      -0.455 -45.557  11.812  1.00  0.00    -0.296 OA
BRANCH  11  12
HETATM   12  C6  UNL     1       0.839 -46.099  11.719  1.00  0.00     0.166 C
HETATM   13  C7  UNL     1       0.691 -47.602  11.850  1.00  0.00     0.204 C
HETATM   14  O3  UNL     1       1.125 -47.965  13.099  1.00  0.00    -0.358 OA
HETATM   15  C8  UNL     1       1.309 -46.852  13.880  1.00  0.00     0.266 C
HETATM   16  O4  UNL     1       2.400 -46.973  14.733  1.00  0.00    -0.361 OA
HETATM   17  C11 UNL     1       1.708 -45.750  12.888  1.00  0.00     0.075 C
HETATM   18  C9  UNL     1       3.538 -46.745  13.982  1.00  0.00     0.171 C
HETATM   19  C10 UNL     1       3.149 -46.115  12.678  1.00  0.00     0.038 C
ENDBRANCH  11  12
ENDBRANCH   8  11
ENDBRANCH   3   7
ENDBRANCH   2   3
BRANCH   2  20
HETATM   20  O5  UNL     1      -3.405 -43.212  16.020  1.00  0.00    -0.392 OA
ATOM     21  H5  UNL     1      -3.552 -42.374  16.443  1.00  0.00     0.210 HD
ENDBRANCH   2  20
ENDBRANCH   1   2
BRANCH   1  22
HETATM   22  N2  UNL     1      -3.555 -40.719  14.954  1.00  0.00    -0.334 N
HETATM   23  C14 UNL     1      -3.321 -39.479  14.314  1.00  0.00     0.361 C
HETATM   24  O6  UNL     1      -3.571 -39.386  13.066  1.00  0.00    -0.239 OA
ATOM     25  H2  UNL     1      -3.358 -40.798  15.952  1.00  0.00     0.164 HD
BRANCH  23  26
HETATM   26  O7  UNL     1      -2.839 -38.340  14.934  1.00  0.00    -0.298 OA
BRANCH  26  27
HETATM   27  C15 UNL     1      -3.177 -38.004  16.274  1.00  0.00     0.142 C
HETATM   28  C16 UNL     1      -2.833 -36.575  16.616  1.00  0.00     0.016 C
HETATM   29  C17 UNL     1      -1.370 -36.304  16.702  1.00  0.00     0.012 C
HETATM   30  C21 UNL     1      -3.419 -36.333  18.014  1.00  0.00     0.012 C
HETATM   31  C18 UNL     1      -0.734 -37.304  17.678  1.00  0.00    -0.013 C
HETATM   32  C19 UNL     1      -1.336 -37.042  19.023  1.00  0.00     0.010 C
HETATM   33  C27 UNL     1      -1.013 -38.664  17.116  1.00  0.00     0.012 C
HETATM   34  C20 UNL     1      -2.853 -37.306  18.989  1.00  0.00    -0.004 C
HETATM   35  C22 UNL     1      -3.009 -38.741  18.637  1.00  0.00    -0.024 C
HETATM   36  C23 UNL     1      -2.139 -39.532  19.620  1.00  0.00     0.017 C
HETATM   37  C26 UNL     1      -2.490 -38.957  17.252  1.00  0.00     0.025 C
BRANCH  35  38
HETATM   38  C24 UNL     1      -4.394 -39.277  18.767  1.00  0.00     0.118 C
BRANCH  38  39
HETATM   39  S1  UNL     1      -4.509 -41.041  18.703  1.00  0.00     0.011 S
HETATM   40  C25 UNL     1      -5.322 -41.549  20.227  1.00  0.00     0.127 C
HETATM   41  O8  UNL     1      -5.459 -41.572  17.435  1.00  0.00    -0.258 OA
ENDBRANCH  38  39
ENDBRANCH  35  38
ENDBRANCH  26  27
ENDBRANCH  23  26
ENDBRANCH   1  22
TORSDOF 12
ENDMDL