MODEL 2
REMARK VINA RESULT: -7.019458546      2.980      8.217
REMARK  13 active torsions:
REMARK  status: ('A' for Active; 'I' for Inactive)
REMARK    1  A    between atoms: C2_2  and  C3_3
REMARK    2  A    between atoms: C3_3  and  C5_5
REMARK    3  A    between atoms: C5_5  and  N1_6
REMARK    4  A    between atoms: C5_5  and  C10_15
REMARK       I    between atoms: N1_6  and  C6_8
REMARK       I    between atoms: C6_8  and  N2_10
REMARK    5  A    between atoms: C10_15  and  C11_17
REMARK    6  A    between atoms: C12_18  and  N3_19
REMARK    7  A    between atoms: N3_19  and  C13_22
REMARK    8  A    between atoms: C13_22  and  C14_23
REMARK    9  A    between atoms: C14_23  and  N4_24
REMARK       I    between atoms: N4_24  and  C15_26
REMARK   10  A    between atoms: C15_26  and  C16_28
REMARK   11  A    between atoms: C22_34  and  C23_35
REMARK   12  A    between atoms: C23_35  and  O5_37
REMARK   13  A    between atoms: O5_37  and  C24_38
ROOT
HETATM    1  C11 UNL     1       1.481 -43.371  15.353  1.00  0.00     0.102 C
HETATM    2  C12 UNL     1       0.618 -44.199  16.328  1.00  0.00     0.199 C
HETATM    3  C21 UNL     1       1.883 -44.574  17.070  1.00  0.00     0.049 C
HETATM    4  C22 UNL     1       2.625 -44.276  15.768  1.00  0.00     0.101 C
ENDROOT
BRANCH   1   5
HETATM    5  C10 UNL     1       1.052 -43.463  13.972  1.00  0.00     0.156 C
HETATM    6  O2  UNL     1       1.849 -42.937  13.139  1.00  0.00    -0.295 OA
BRANCH   5   7
HETATM    7  C5  UNL     1      -0.178 -44.086  13.483  1.00  0.00     0.160 C
BRANCH   7   8
HETATM    8  C3  UNL     1      -0.192 -44.696  12.125  1.00  0.00     0.011 C
HETATM    9  C4  UNL     1       0.737 -45.899  11.967  1.00  0.00     0.012 C
BRANCH   8  10
HETATM   10  C2  UNL     1      -1.569 -45.278  11.795  1.00  0.00     0.002 C
HETATM   11  C1  UNL     1      -1.399 -46.600  11.041  1.00  0.00     0.005 C
ENDBRANCH   8  10
ENDBRANCH   7   8
BRANCH   7  12
HETATM   12  N1  UNL     1      -1.307 -43.165  13.673  1.00  0.00    -0.331 N
HETATM   13  C6  UNL     1      -2.387 -43.292  14.533  1.00  0.00     0.319 C
HETATM   14  O1  UNL     1      -2.637 -44.243  15.330  1.00  0.00    -0.247 OA
HETATM   15  N2  UNL     1      -3.393 -42.252  14.582  1.00  0.00    -0.325 N
HETATM   16  C7  UNL     1      -3.447 -41.026  13.821  1.00  0.00     0.138 C
HETATM   17  C9  UNL     1      -4.589 -42.247  15.443  1.00  0.00     0.201 C
HETATM   18  C8  UNL     1      -3.259 -39.902  14.856  1.00  0.00     0.095 C
HETATM   19  S1  UNL     1      -4.404 -40.553  16.144  1.00  0.00    -0.147 SA
ATOM     20  H1  UNL     1      -1.294 -42.322  13.098  1.00  0.00     0.165 HD
ENDBRANCH   7  12
ENDBRANCH   5   7
ENDBRANCH   1   5
BRANCH   2  21
HETATM   21  N3  UNL     1      -0.229 -43.395  17.187  1.00  0.00    -0.069 N
ATOM     22  H32 UNL     1       0.005 -42.405  17.114  1.00  0.00     0.277 HD
ATOM     23  H31 UNL     1      -1.186 -43.363  16.836  1.00  0.00     0.277 HD
BRANCH  21  24
HETATM   24  C13 UNL     1      -0.191 -43.839  18.558  1.00  0.00     0.252 C
BRANCH  24  25
HETATM   25  C14 UNL     1      -1.331 -43.143  19.293  1.00  0.00     0.150 C
BRANCH  25  26
HETATM   26  N4  UNL     1      -1.560 -41.800  18.841  1.00  0.00    -0.359 N
HETATM   27  C15 UNL     1      -1.321 -40.649  19.631  1.00  0.00     0.221 C
HETATM   28  O3  UNL     1      -0.880 -40.755  20.800  1.00  0.00    -0.273 OA
ATOM     29  H4  UNL     1      -1.917 -41.667  17.895  1.00  0.00     0.162 HD
BRANCH  27  30
HETATM   30  C16 UNL     1      -1.577 -39.280  19.112  1.00  0.00     0.078 C
HETATM   31  C17 UNL     1      -0.700 -38.264  19.790  1.00  0.00     0.014 C
HETATM   32  C18 UNL     1      -0.742 -37.079  18.838  1.00  0.00     0.001 C
HETATM   33  C19 UNL     1      -0.925 -37.680  17.480  1.00  0.00     0.001 C
HETATM   34  C20 UNL     1      -1.181 -39.148  17.664  1.00  0.00     0.014 C
ENDBRANCH  27  30
ENDBRANCH  25  26
ENDBRANCH  24  25
ENDBRANCH  21  24
ENDBRANCH   2  21
BRANCH   4  35
HETATM   35  C23 UNL     1       2.848 -45.452  14.921  1.00  0.00     0.264 C
HETATM   36  O4  UNL     1       3.787 -45.441  14.093  1.00  0.00    -0.265 OA
BRANCH  35  37
HETATM   37  O5  UNL     1       2.058 -46.550  15.017  1.00  0.00    -0.311 OA
BRANCH  37  38
HETATM   38  C24 UNL     1       2.390 -47.779  15.587  1.00  0.00     0.060 C
HETATM   39  C25 UNL     1       2.690 -48.743  14.438  1.00  0.00     0.045 C
HETATM   40  C26 UNL     1       1.158 -48.291  16.317  1.00  0.00     0.045 C
HETATM   41  C27 UNL     1       3.562 -47.773  16.495  1.00  0.00     0.045 C
ENDBRANCH  37  38
ENDBRANCH  35  37
ENDBRANCH   4  35
TORSDOF 13
ENDMDL