MODEL 3
REMARK VINA RESULT: -6.961552732      2.905      8.439
REMARK  12 active torsions:
REMARK  status: ('A' for Active; 'I' for Inactive)
REMARK    1  A    between atoms: C2_2  and  C4_4
REMARK    2  A    between atoms: C4_4  and  N1_5
REMARK    3  A    between atoms: C7_9  and  C8_10
REMARK    4  A    between atoms: C8_10  and  C9_11
REMARK    5  A    between atoms: C9_11  and  C10_12
REMARK    6  A    between atoms: C10_12  and  N2_13
REMARK    7  A    between atoms: C14_20  and  N4_21
REMARK       I    between atoms: N4_21  and  C15_23
REMARK    8  A    between atoms: C15_23  and  O4_25
REMARK    9  A    between atoms: O4_25  and  C16_26
REMARK   10  A    between atoms: C16_26  and  C17_27
REMARK   11  A    between atoms: C17_27  and  C18_28
REMARK   12  A    between atoms: C18_28  and  N5_31
ROOT
HETATM    1  N1  UNL     1       3.390 -45.925  16.655  1.00  0.00    -0.347 N
HETATM    2  C5  UNL     1       2.486 -45.423  15.678  1.00  0.00     0.222 C
HETATM    3  O1  UNL     1       1.817 -46.231  14.957  1.00  0.00    -0.273 OA
HETATM    4  C6  UNL     1       2.255 -43.988  15.427  1.00  0.00     0.128 C
HETATM    5  C7  UNL     1       0.982 -43.762  14.617  1.00  0.00     0.093 C
HETATM    6  N3  UNL     1       0.540 -42.398  14.828  1.00  0.00    -0.352 N
ATOM      7  H3  UNL     1       1.212 -41.661  14.614  1.00  0.00     0.163 HD
HETATM    8  C13 UNL     1      -0.719 -41.988  15.295  1.00  0.00     0.267 C
HETATM    9  O2  UNL     1      -1.346 -41.092  14.627  1.00  0.00    -0.269 OA
HETATM   10  C14 UNL     1      -1.421 -42.482  16.502  1.00  0.00     0.318 C
HETATM   11  O5  UNL     1      -0.580 -43.143  17.392  1.00  0.00    -0.358 OA
HETATM   12  C21 UNL     1      -1.285 -43.984  18.247  1.00  0.00     0.171 C
HETATM   13  C22 UNL     1      -0.356 -45.082  18.691  1.00  0.00     0.026 C
HETATM   14  C23 UNL     1      -0.026 -45.004  20.166  1.00  0.00     0.002 C
HETATM   15  C24 UNL     1       1.211 -45.845  20.418  1.00  0.00     0.000 C
HETATM   16  C25 UNL     1       2.484 -45.133  20.044  1.00  0.00     0.002 C
HETATM   17  C26 UNL     1       3.365 -45.952  19.122  1.00  0.00     0.025 C
HETATM   18  C27 UNL     1       3.715 -45.206  17.848  1.00  0.00     0.083 C
HETATM   19  C28 UNL     1       5.146 -44.716  17.878  1.00  0.00     0.032 C
ENDROOT
BRANCH  10  20
HETATM   20  N4  UNL     1      -2.120 -41.382  17.141  1.00  0.00    -0.302 N
HETATM   21  C15 UNL     1      -3.528 -41.272  17.216  1.00  0.00     0.362 C
HETATM   22  O3  UNL     1      -4.269 -42.155  16.720  1.00  0.00    -0.238 OA
ATOM     23  H4  UNL     1      -1.560 -40.641  17.563  1.00  0.00     0.167 HD
BRANCH  21  24
HETATM   24  O4  UNL     1      -4.101 -40.193  17.833  1.00  0.00    -0.304 OA
BRANCH  24  25
HETATM   25  C16 UNL     1      -4.312 -38.925  17.266  1.00  0.00     0.183 C
BRANCH  25  26
HETATM   26  C17 UNL     1      -3.317 -37.920  17.855  1.00  0.00     0.064 C
BRANCH  26  27
HETATM   27  C18 UNL     1      -2.228 -37.620  16.840  1.00  0.00     0.118 C
HETATM   28  C19 UNL     1      -0.912 -38.067  17.435  1.00  0.00     0.045 C
HETATM   29  C20 UNL     1      -2.171 -36.122  16.596  1.00  0.00     0.045 C
BRANCH  27  30
HETATM   30  N5  UNL     1      -2.479 -38.313  15.598  1.00  0.00    -0.071 N
ATOM     31  H53 UNL     1      -1.822 -39.080  15.455  1.00  0.00     0.275 HD
ATOM     32  H52 UNL     1      -3.342 -38.854  15.636  1.00  0.00     0.275 HD
ATOM     33  H51 UNL     1      -2.476 -37.662  14.813  1.00  0.00     0.275 HD
ENDBRANCH  27  30
ENDBRANCH  26  27
ENDBRANCH  25  26
ENDBRANCH  24  25
ENDBRANCH  21  24
ENDBRANCH  10  20
BRANCH   5  34
HETATM   34  C8  UNL     1       1.458 -43.771  13.138  1.00  0.00     0.027 C
BRANCH  34  35
HETATM   35  C9  UNL     1       0.307 -43.927  12.220  1.00  0.00     0.032 C
BRANCH  35  36
HETATM   36  C10 UNL     1      -0.423 -45.225  12.268  1.00  0.00     0.271 C
BRANCH  36  37
HETATM   37  N2  UNL     1      -0.078 -46.221  11.312  1.00  0.00     0.080 N
HETATM   38  C11 UNL     1      -1.337 -46.956  11.006  1.00  0.00     0.309 C
HETATM   39  C12 UNL     1       0.787 -47.282  11.851  1.00  0.00     0.309 C
ENDBRANCH  36  37
ENDBRANCH  35  36
ENDBRANCH  34  35
ENDBRANCH   5  34
BRANCH   1  40
HETATM   40  C4  UNL     1       3.983 -47.215  16.399  1.00  0.00     0.130 C
BRANCH  40  41
HETATM   41  C2  UNL     1       5.015 -47.245  15.324  1.00  0.00    -0.005 C
HETATM   42  C1  UNL     1       6.315 -47.716  15.994  1.00  0.00     0.011 C
HETATM   43  C3  UNL     1       4.711 -48.280  14.245  1.00  0.00     0.011 C
ENDBRANCH  40  41
ENDBRANCH   1  40
TORSDOF 12
ENDMDL