MODEL 5
REMARK VINA RESULT: -6.905662928      3.089      6.165
REMARK  14 active torsions:
REMARK  status: ('A' for Active; 'I' for Inactive)
REMARK    1  A    between atoms: C2_2  and  C4_4
REMARK    2  A    between atoms: C4_4  and  C5_5
REMARK    3  A    between atoms: C5_5  and  N1_7
REMARK       I    between atoms: N1_7  and  C7_9
REMARK    4  A    between atoms: C7_9  and  C8_11
REMARK    5  A    between atoms: C9_12  and  C10_13
REMARK       I    between atoms: N3_16  and  C11_17
REMARK    6  A    between atoms: C11_17  and  C12_19
REMARK    7  A    between atoms: C12_19  and  C13_20
REMARK    8  A    between atoms: C12_19  and  N4_24
REMARK    9  A    between atoms: C13_20  and  C14_21
REMARK       I    between atoms: N4_24  and  C17_26
REMARK   10  A    between atoms: C17_26  and  O5_28
REMARK   11  A    between atoms: O5_28  and  C18_29
REMARK   12  A    between atoms: C22_33  and  C23_34
REMARK   13  A    between atoms: C23_34  and  O7_36
REMARK   14  A    between atoms: O7_36  and  C24_37
ROOT
HETATM    1  C8  UNL     1      -0.239 -42.446  15.307  1.00  0.00     0.142 C
HETATM    2  C9  UNL     1       0.231 -43.300  14.182  1.00  0.00     0.193 C
HETATM    3  N3  UNL     1      -0.090 -44.462  14.898  1.00  0.00    -0.321 N
HETATM    4  C11 UNL     1       0.055 -45.870  14.734  1.00  0.00     0.244 C
HETATM    5  O3  UNL     1      -0.252 -46.676  15.650  1.00  0.00    -0.271 OA
HETATM    6  C22 UNL     1      -0.744 -43.695  15.903  1.00  0.00     0.203 C
ENDROOT
BRANCH   2   7
HETATM    7  C10 UNL     1       1.681 -43.055  13.868  1.00  0.00     0.255 C
HETATM    8  N2  UNL     1       2.614 -42.874  14.897  1.00  0.00    -0.060 NA
HETATM    9  O2  UNL     1       2.022 -43.016  12.678  1.00  0.00    -0.275 OA
ENDBRANCH   2   7
BRANCH   4  10
HETATM   10  C12 UNL     1       0.581 -46.498  13.463  1.00  0.00     0.179 C
BRANCH  10  11
HETATM   11  C13 UNL     1      -0.475 -47.506  13.060  1.00  0.00     0.038 C
BRANCH  11  12
HETATM   12  C14 UNL     1      -0.893 -47.522  11.647  1.00  0.00    -0.020 C
HETATM   13  C15 UNL     1       0.003 -48.096  10.623  1.00  0.00     0.009 C
HETATM   14  C16 UNL     1      -1.329 -46.139  11.153  1.00  0.00     0.009 C
ENDBRANCH  11  12
ENDBRANCH  10  11
BRANCH  10  15
HETATM   15  N4  UNL     1       1.878 -47.067  13.707  1.00  0.00    -0.324 N
HETATM   16  C17 UNL     1       3.084 -46.834  13.040  1.00  0.00     0.362 C
HETATM   17  O4  UNL     1       3.235 -46.044  12.077  1.00  0.00    -0.238 OA
ATOM     18  H4  UNL     1       1.925 -47.736  14.476  1.00  0.00     0.165 HD
BRANCH  16  19
HETATM   19  O5  UNL     1       4.270 -47.508  13.420  1.00  0.00    -0.294 OA
BRANCH  19  20
HETATM   20  C18 UNL     1       4.967 -47.148  14.592  1.00  0.00     0.061 C
HETATM   21  C19 UNL     1       4.246 -47.801  15.767  1.00  0.00     0.046 C
HETATM   22  C20 UNL     1       6.414 -47.667  14.522  1.00  0.00     0.046 C
HETATM   23  C21 UNL     1       4.953 -45.651  14.802  1.00  0.00     0.046 C
ENDBRANCH  19  20
ENDBRANCH  16  19
ENDBRANCH  10  15
ENDBRANCH   4  10
BRANCH   6  24
HETATM   24  C23 UNL     1      -0.320 -43.977  17.301  1.00  0.00     0.283 C
HETATM   25  O6  UNL     1       0.878 -44.074  17.656  1.00  0.00    -0.263 OA
BRANCH  24  26
HETATM   26  O7  UNL     1      -1.283 -44.148  18.290  1.00  0.00    -0.310 OA
BRANCH  26  27
HETATM   27  C24 UNL     1      -1.377 -43.272  19.401  1.00  0.00     0.060 C
HETATM   28  C25 UNL     1      -1.518 -41.867  18.875  1.00  0.00     0.045 C
HETATM   29  C26 UNL     1      -0.195 -43.409  20.327  1.00  0.00     0.045 C
HETATM   30  C27 UNL     1      -2.630 -43.629  20.161  1.00  0.00     0.045 C
ENDBRANCH  26  27
ENDBRANCH  24  26
ENDBRANCH   6  24
BRANCH   1  31
HETATM   31  C7  UNL     1      -1.279 -41.451  15.027  1.00  0.00     0.227 C
HETATM   32  N1  UNL     1      -1.733 -40.413  15.845  1.00  0.00    -0.356 N
ATOM     33  H1  UNL     1      -1.324 -40.283  16.770  1.00  0.00     0.162 HD
HETATM   34  O1  UNL     1      -1.832 -41.568  13.874  1.00  0.00    -0.273 OA
BRANCH  32  35
HETATM   35  C5  UNL     1      -2.791 -39.511  15.387  1.00  0.00     0.080 C
HETATM   36  C6  UNL     1      -2.541 -38.117  15.853  1.00  0.00     0.032 C
BRANCH  35  37
HETATM   37  C4  UNL     1      -4.139 -40.073  15.575  1.00  0.00     0.028 C
BRANCH  37  38
HETATM   38  C2  UNL     1      -4.471 -40.817  16.800  1.00  0.00    -0.021 C
HETATM   39  C1  UNL     1      -5.434 -40.081  17.679  1.00  0.00     0.009 C
HETATM   40  C3  UNL     1      -5.219 -42.089  16.347  1.00  0.00     0.009 C
ENDBRANCH  37  38
ENDBRANCH  35  37
ENDBRANCH  32  35
ENDBRANCH   1  31
TORSDOF 14
ENDMDL