MODEL 2
REMARK VINA RESULT: -7.574023365      2.784      5.940
REMARK  13 active torsions:
REMARK  status: ('A' for Active; 'I' for Inactive)
REMARK    1  A    between atoms: C2_2  and  C4_4
REMARK    2  A    between atoms: C4_4  and  O2_6
REMARK    3  A    between atoms: O2_6  and  C5_7
REMARK    4  A    between atoms: C5_7  and  C6_8
REMARK    5  A    between atoms: C5_7  and  C18_26
REMARK    6  A    between atoms: C6_8  and  C8_11
REMARK       I    between atoms: C8_11  and  N2_13
REMARK    7  A    between atoms: C12_17  and  C13_18
REMARK       I    between atoms: C13_18  and  N3_20
REMARK    8  A    between atoms: N3_20  and  C14_22
REMARK    9  A    between atoms: C18_26  and  N4_27
REMARK   10  A    between atoms: C18_26  and  C24_39
REMARK       I    between atoms: N4_27  and  C19_29
REMARK   11  A    between atoms: C19_29  and  C20_31
REMARK   12  A    between atoms: C20_31  and  C21_32
REMARK   13  A    between atoms: C21_32  and  N5_35
ROOT
HETATM    1  C6  UNL     1      -3.554 -42.053  15.696  1.00  0.00     0.216 C
HETATM    2  C7  UNL     1      -4.740 -42.270  14.847  1.00  0.00     0.076 C
HETATM    3  N1  UNL     1      -5.661 -42.446  14.145  1.00  0.00    -0.196 NA
ENDROOT
BRANCH   1   4
HETATM    4  C5  UNL     1      -3.726 -40.907  16.603  1.00  0.00     0.181 C
BRANCH   4   5
HETATM    5  O2  UNL     1      -5.002 -40.355  16.681  1.00  0.00    -0.312 OA
BRANCH   5   6
HETATM    6  C4  UNL     1      -5.316 -39.027  16.760  1.00  0.00     0.262 C
HETATM    7  O1  UNL     1      -5.173 -38.314  15.706  1.00  0.00    -0.265 OA
BRANCH   6   8
HETATM    8  C2  UNL     1      -5.815 -38.380  18.008  1.00  0.00     0.077 C
HETATM    9  C1  UNL     1      -7.247 -37.879  17.802  1.00  0.00     0.020 C
HETATM   10  C3  UNL     1      -4.905 -37.223  18.336  1.00  0.00     0.020 C
ENDBRANCH   6   8
ENDBRANCH   5   6
ENDBRANCH   4   5
BRANCH   4  11
HETATM   11  C18 UNL     1      -3.140 -41.048  17.985  1.00  0.00     0.119 C
BRANCH  11  12
HETATM   12  N4  UNL     1      -4.186 -41.501  18.921  1.00  0.00    -0.353 N
HETATM   13  C19 UNL     1      -4.199 -42.828  19.438  1.00  0.00     0.220 C
HETATM   14  O5  UNL     1      -3.275 -43.597  19.059  1.00  0.00    -0.274 OA
ATOM     15  H4  UNL     1      -4.917 -40.848  19.205  1.00  0.00     0.163 HD
BRANCH  13  16
HETATM   16  C20 UNL     1      -5.246 -43.292  20.378  1.00  0.00     0.140 C
BRANCH  16  17
HETATM   17  C21 UNL     1      -4.809 -42.927  21.781  1.00  0.00     0.124 C
HETATM   18  C22 UNL     1      -5.398 -43.824  22.831  1.00  0.00     0.046 C
HETATM   19  C23 UNL     1      -5.164 -41.503  22.080  1.00  0.00     0.046 C
BRANCH  17  20
HETATM   20  N5  UNL     1      -3.363 -43.121  21.819  1.00  0.00    -0.071 N
ATOM     21  H53 UNL     1      -3.058 -43.989  21.379  1.00  0.00     0.275 HD
ATOM     22  H52 UNL     1      -2.852 -42.485  21.206  1.00  0.00     0.275 HD
ATOM     23  H51 UNL     1      -3.092 -43.045  22.800  1.00  0.00     0.275 HD
ENDBRANCH  17  20
ENDBRANCH  16  17
ENDBRANCH  13  16
ENDBRANCH  11  12
BRANCH  11  24
HETATM   24  C24 UNL     1      -2.439 -39.862  18.530  1.00  0.00     0.011 C
HETATM   25  C25 UNL     1      -1.460 -39.173  17.627  1.00  0.00     0.007 C
HETATM   26  C26 UNL     1      -0.628 -38.184  18.379  1.00  0.00     0.000 C
HETATM   27  C27 UNL     1      -1.080 -37.904  19.786  1.00  0.00     0.000 C
HETATM   28  C28 UNL     1      -1.260 -39.167  20.597  1.00  0.00     0.000 C
HETATM   29  C29 UNL     1      -1.572 -40.350  19.721  1.00  0.00     0.007 C
ENDBRANCH  11  24
ENDBRANCH   4  11
ENDBRANCH   1   4
BRANCH   1  30
HETATM   30  C8  UNL     1      -2.399 -41.894  14.800  1.00  0.00     0.241 C
HETATM   31  O3  UNL     1      -2.033 -40.761  14.411  1.00  0.00    -0.272 OA
HETATM   32  N2  UNL     1      -1.619 -42.988  14.307  1.00  0.00    -0.337 N
HETATM   33  C9  UNL     1      -0.482 -42.889  13.396  1.00  0.00     0.127 C
HETATM   34  C12 UNL     1      -1.834 -44.362  14.644  1.00  0.00     0.179 C
HETATM   35  C10 UNL     1      -0.412 -44.232  12.754  1.00  0.00     0.022 C
HETATM   36  C11 UNL     1      -1.493 -45.100  13.361  1.00  0.00     0.037 C
BRANCH  34  37
HETATM   37  C13 UNL     1      -1.006 -44.845  15.778  1.00  0.00     0.241 C
HETATM   38  O4  UNL     1      -0.446 -45.989  15.659  1.00  0.00    -0.271 OA
HETATM   39  N3  UNL     1      -0.799 -44.129  16.967  1.00  0.00    -0.351 N
ATOM     40  H3  UNL     1      -1.241 -43.216  17.080  1.00  0.00     0.163 HD
BRANCH  39  41
HETATM   41  C14 UNL     1       0.027 -44.651  18.042  1.00  0.00     0.022 C
HETATM   42  C15 UNL     1      -0.507 -45.938  18.604  1.00  0.00     0.037 C
HETATM   43  C16 UNL     1       1.459 -44.865  17.602  1.00  0.00     0.037 C
HETATM   44  C17 UNL     1       0.071 -43.656  19.207  1.00  0.00     0.037 C
ENDBRANCH  39  41
ENDBRANCH  34  37
ENDBRANCH   1  30
TORSDOF 13
ENDMDL