MODEL 2
REMARK VINA RESULT: -7.469447059      2.229      4.189
REMARK  13 active torsions:
REMARK  status: ('A' for Active; 'I' for Inactive)
REMARK    1  A    between atoms: C2_2  and  C4_4
REMARK    2  A    between atoms: C4_4  and  S1_5
REMARK    3  A    between atoms: C4_4  and  C19_25
REMARK    4  A    between atoms: S1_5  and  C5_6
REMARK    5  A    between atoms: C5_6  and  C6_7
REMARK    6  A    between atoms: C6_7  and  C7_8
REMARK    7  A    between atoms: C6_7  and  N1_15
REMARK    8  A    between atoms: C7_8  and  C8_9
REMARK       I    between atoms: N1_15  and  C14_17
REMARK       I    between atoms: C14_17  and  N2_19
REMARK    9  A    between atoms: N2_19  and  C15_21
REMARK       I    between atoms: C19_25  and  N3_27
REMARK   10  A    between atoms: C20_28  and  O3_29
REMARK   11  A    between atoms: C22_32  and  C23_33
REMARK   12  A    between atoms: C23_33  and  O5_35
REMARK   13  A    between atoms: O5_35  and  C24_36
ROOT
HETATM    1  C4  UNL     1      -2.576 -41.708  15.001  1.00  0.00     0.143 C
ENDROOT
BRANCH   1   2
HETATM    2  C2  UNL     1      -3.761 -42.671  14.831  1.00  0.00     0.000 C
HETATM    3  C1  UNL     1      -4.663 -42.197  13.732  1.00  0.00     0.011 C
HETATM    4  C3  UNL     1      -3.208 -44.026  14.446  1.00  0.00     0.011 C
ENDBRANCH   1   2
BRANCH   1   5
HETATM    5  S1  UNL     1      -1.357 -42.009  13.691  1.00  0.00    -0.152 SA
BRANCH   5   6
HETATM    6  C5  UNL     1       0.158 -42.633  14.526  1.00  0.00     0.100 C
BRANCH   6   7
HETATM    7  C6  UNL     1       0.659 -43.903  13.991  1.00  0.00     0.095 C
BRANCH   7   8
HETATM    8  C7  UNL     1       0.063 -44.283  12.683  1.00  0.00     0.030 C
BRANCH   8   9
HETATM    9  C8  UNL     1      -0.747 -45.509  12.553  1.00  0.00    -0.013 C
HETATM   10  C9  UNL     1      -1.281 -45.875  11.221  1.00  0.00     0.005 C
HETATM   11  C10 UNL     1      -1.190 -47.400  11.056  1.00  0.00     0.000 C
HETATM   12  C11 UNL     1       0.229 -47.865  10.904  1.00  0.00     0.000 C
HETATM   13  C12 UNL     1       1.037 -47.195  11.996  1.00  0.00     0.000 C
HETATM   14  C13 UNL     1       0.111 -46.668  13.066  1.00  0.00     0.005 C
ENDBRANCH   8   9
ENDBRANCH   7   8
BRANCH   7  15
HETATM   15  N1  UNL     1       2.109 -43.990  13.943  1.00  0.00    -0.338 N
HETATM   16  C14 UNL     1       2.800 -44.875  14.792  1.00  0.00     0.317 C
HETATM   17  O1  UNL     1       2.144 -45.594  15.605  1.00  0.00    -0.247 OA
HETATM   18  N2  UNL     1       4.209 -45.019  14.796  1.00  0.00    -0.335 N
ATOM     19  H2  UNL     1       4.726 -44.431  14.144  1.00  0.00     0.165 HD
ATOM     20  H1  UNL     1       2.630 -43.406  13.289  1.00  0.00     0.164 HD
BRANCH  18  21
HETATM   21  C15 UNL     1       4.977 -45.887  15.604  1.00  0.00     0.023 C
HETATM   22  C16 UNL     1       6.394 -46.054  15.119  1.00  0.00     0.037 C
HETATM   23  C17 UNL     1       4.386 -47.296  15.662  1.00  0.00     0.037 C
HETATM   24  C18 UNL     1       5.064 -45.430  17.052  1.00  0.00     0.037 C
ENDBRANCH  18  21
ENDBRANCH   7  15
ENDBRANCH   6   7
ENDBRANCH   5   6
ENDBRANCH   1   5
BRANCH   1  25
HETATM   25  C19 UNL     1      -3.106 -40.328  14.944  1.00  0.00     0.236 C
HETATM   26  O2  UNL     1      -2.938 -39.656  13.902  1.00  0.00    -0.272 OA
HETATM   27  N3  UNL     1      -3.808 -39.696  16.010  1.00  0.00    -0.310 N
HETATM   28  C20 UNL     1      -4.154 -40.192  17.325  1.00  0.00     0.226 C
HETATM   29  C22 UNL     1      -4.448 -38.457  16.316  1.00  0.00     0.193 C
HETATM   30  C21 UNL     1      -5.259 -39.175  17.397  1.00  0.00     0.089 C
BRANCH  28  31
HETATM   31  O3  UNL     1      -3.119 -40.029  18.211  1.00  0.00    -0.377 OA
ATOM     32  H3  UNL     1      -3.126 -40.703  18.881  1.00  0.00     0.212 HD
ENDBRANCH  28  31
BRANCH  29  33
HETATM   33  C23 UNL     1      -3.633 -37.390  16.926  1.00  0.00     0.282 C
HETATM   34  O4  UNL     1      -4.040 -36.339  17.438  1.00  0.00    -0.263 OA
BRANCH  33  35
HETATM   35  O5  UNL     1      -2.244 -37.611  16.914  1.00  0.00    -0.312 OA
BRANCH  35  36
HETATM   36  C24 UNL     1      -1.347 -36.807  17.640  1.00  0.00     0.157 C
HETATM   37  C25 UNL     1      -1.320 -37.274  19.087  1.00  0.00     0.061 C
HETATM   38  C26 UNL     1       0.025 -37.937  19.189  1.00  0.00     0.170 C
HETATM   39  O6  UNL     1       0.833 -37.166  18.366  1.00  0.00    -0.389 OA
HETATM   40  C27 UNL     1       0.074 -37.066  17.197  1.00  0.00     0.200 C
ENDBRANCH  35  36
ENDBRANCH  33  35
ENDBRANCH  29  33
ENDBRANCH   1  25
TORSDOF 13
ENDMDL