MODEL 2
REMARK VINA RESULT: -7.386997718      0.981      1.417
REMARK  14 active torsions:
REMARK  status: ('A' for Active; 'I' for Inactive)
REMARK    1  A    between atoms: O1_3  and  C3_4
REMARK       I    between atoms: C3_4  and  N1_6
REMARK    2  A    between atoms: N1_6  and  C4_8
REMARK    3  A    between atoms: C4_8  and  C5_9
REMARK    4  A    between atoms: C4_8  and  C26_39
REMARK       I    between atoms: C5_9  and  N2_11
REMARK    5  A    between atoms: N2_11  and  C6_13
REMARK    6  A    between atoms: C9_16  and  C10_17
REMARK       I    between atoms: C10_17  and  N3_19
REMARK    7  A    between atoms: N3_19  and  C11_21
REMARK    8  A    between atoms: C11_21  and  C12_22
REMARK    9  A    between atoms: C11_21  and  C18_29
REMARK   10  A    between atoms: C12_22  and  C13_24
REMARK   11  A    between atoms: C18_29  and  O6_31
REMARK   12  A    between atoms: O6_31  and  C20_32
REMARK   13  A    between atoms: C20_32  and  C21_34
REMARK   14  A    between atoms: C26_39  and  C28_41
ROOT
HETATM    1  C1  UNL     1      -0.688 -42.794  19.802  1.00  0.00     0.045 C
HETATM    2  C2  UNL     1      -1.054 -41.680  20.060  1.00  0.00     0.054 C
HETATM    3  O1  UNL     1      -1.492 -40.419  20.349  1.00  0.00    -0.209 OA
ENDROOT
BRANCH   3   4
HETATM    4  C3  UNL     1      -1.552 -39.469  19.344  1.00  0.00     0.374 C
HETATM    5  O2  UNL     1      -0.612 -38.632  19.271  1.00  0.00    -0.237 OA
HETATM    6  N1  UNL     1      -2.601 -39.409  18.421  1.00  0.00    -0.322 N
ATOM      7  H1  UNL     1      -3.356 -40.092  18.490  1.00  0.00     0.165 HD
BRANCH   6   8
HETATM    8  C4  UNL     1      -2.658 -38.386  17.344  1.00  0.00     0.182 C
BRANCH   8   9
HETATM    9  C5  UNL     1      -2.515 -39.060  16.053  1.00  0.00     0.241 C
HETATM   10  O3  UNL     1      -2.502 -38.340  14.997  1.00  0.00    -0.271 OA
HETATM   11  N2  UNL     1      -2.397 -40.440  15.910  1.00  0.00    -0.355 N
ATOM     12  H2  UNL     1      -2.410 -41.055  16.725  1.00  0.00     0.162 HD
BRANCH  11  13
HETATM   13  C6  UNL     1      -2.253 -40.989  14.552  1.00  0.00     0.085 C
HETATM   14  C7  UNL     1      -3.375 -41.922  14.224  1.00  0.00     0.026 C
HETATM   15  C8  UNL     1      -2.938 -43.298  14.675  1.00  0.00     0.016 C
HETATM   16  C9  UNL     1      -1.576 -43.107  15.301  1.00  0.00     0.080 C
HETATM   17  C25 UNL     1      -1.049 -41.894  14.583  1.00  0.00     0.039 C
BRANCH  16  18
HETATM   18  C10 UNL     1      -0.710 -44.297  15.095  1.00  0.00     0.222 C
HETATM   19  O4  UNL     1      -1.156 -45.406  15.471  1.00  0.00    -0.273 OA
HETATM   20  N3  UNL     1       0.545 -44.147  14.504  1.00  0.00    -0.347 N
ATOM     21  H3  UNL     1       0.844 -43.214  14.222  1.00  0.00     0.163 HD
BRANCH  20  22
HETATM   22  C11 UNL     1       1.457 -45.277  14.271  1.00  0.00     0.183 C
BRANCH  22  23
HETATM   23  C12 UNL     1       1.220 -45.786  12.921  1.00  0.00     0.156 C
HETATM   24  O5  UNL     1       1.947 -45.317  12.016  1.00  0.00    -0.295 OA
BRANCH  23  25
HETATM   25  C13 UNL     1       0.233 -46.775  12.491  1.00  0.00     0.057 C
HETATM   26  C14 UNL     1      -0.891 -46.042  11.742  1.00  0.00     0.012 C
HETATM   27  C15 UNL     1      -1.407 -47.050  10.753  1.00  0.00     0.001 C
HETATM   28  C16 UNL     1      -0.333 -48.062  10.535  1.00  0.00     0.001 C
HETATM   29  C17 UNL     1       0.804 -47.726  11.494  1.00  0.00     0.012 C
ENDBRANCH  23  25
ENDBRANCH  22  23
BRANCH  22  30
HETATM   30  C18 UNL     1       2.837 -44.731  14.539  1.00  0.00     0.157 C
HETATM   31  C19 UNL     1       2.731 -43.407  15.317  1.00  0.00     0.042 C
BRANCH  30  32
HETATM   32  O6  UNL     1       3.483 -45.616  15.483  1.00  0.00    -0.313 OA
BRANCH  32  33
HETATM   33  C20 UNL     1       4.473 -46.458  15.062  1.00  0.00     0.267 C
HETATM   34  O7  UNL     1       4.590 -46.712  13.826  1.00  0.00    -0.264 OA
BRANCH  33  35
HETATM   35  C21 UNL     1       5.450 -47.112  15.974  1.00  0.00     0.037 C
HETATM   36  C22 UNL     1       5.593 -46.385  17.276  1.00  0.00     0.025 C
HETATM   37  C23 UNL     1       5.176 -48.585  16.121  1.00  0.00     0.025 C
HETATM   38  C24 UNL     1       6.811 -47.005  15.274  1.00  0.00     0.025 C
ENDBRANCH  33  35
ENDBRANCH  32  33
ENDBRANCH  30  32
ENDBRANCH  22  30
ENDBRANCH  20  22
ENDBRANCH  16  18
ENDBRANCH  11  13
ENDBRANCH   8   9
BRANCH   8  39
HETATM   39  C26 UNL     1      -3.997 -37.705  17.430  1.00  0.00     0.013 C
HETATM   40  C27 UNL     1      -4.074 -36.882  18.692  1.00  0.00     0.012 C
BRANCH  39  41
HETATM   41  C28 UNL     1      -5.192 -38.557  17.258  1.00  0.00     0.002 C
HETATM   42  C29 UNL     1      -6.430 -37.996  17.928  1.00  0.00     0.005 C
ENDBRANCH  39  41
ENDBRANCH   8  39
ENDBRANCH   6   8
ENDBRANCH   3   4
TORSDOF 14
ENDMDL