MODEL 1
REMARK VINA RESULT: -7.632412594      0.000      0.000
REMARK  17 active torsions:
REMARK  status: ('A' for Active; 'I' for Inactive)
REMARK    1  A    between atoms: C2_2  and  C3_3
REMARK    2  A    between atoms: C3_3  and  C5_5
REMARK    3  A    between atoms: C5_5  and  C6_6
REMARK    4  A    between atoms: C5_5  and  N1_9
REMARK    5  A    between atoms: C6_6  and  O1_7
REMARK       I    between atoms: N1_9  and  C7_11
REMARK    6  A    between atoms: C7_11  and  C8_13
REMARK    7  A    between atoms: C8_13  and  C9_14
REMARK    8  A    between atoms: C8_13  and  C12_18
REMARK    9  A    between atoms: C9_14  and  C10_15
REMARK   10  A    between atoms: C10_15  and  S1_16
REMARK   11  A    between atoms: C12_18  and  N2_19
REMARK   12  A    between atoms: C12_18  and  C31_44
REMARK       I    between atoms: N2_19  and  C13_21
REMARK   13  A    between atoms: C13_21  and  C14_23
REMARK   14  A    between atoms: C14_23  and  N3_25
REMARK       I    between atoms: N3_25  and  C16_27
REMARK   15  A    between atoms: C16_27  and  O5_29
REMARK   16  A    between atoms: O5_29  and  C17_30
REMARK   17  A    between atoms: C31_44  and  O7_46
ROOT
HETATM    1  N2  UNL     1      -3.708 -39.466  16.564  1.00  0.00    -0.345 N
ATOM      2  H2  UNL     1      -4.233 -40.331  16.691  1.00  0.00     0.163 HD
HETATM    3  C13 UNL     1      -3.026 -39.278  15.362  1.00  0.00     0.240 C
HETATM    4  O3  UNL     1      -2.369 -38.191  15.212  1.00  0.00    -0.271 OA
ENDROOT
BRANCH   1   5
HETATM    5  C12 UNL     1      -3.710 -38.481  17.661  1.00  0.00     0.197 C
BRANCH   5   6
HETATM    6  C8  UNL     1      -3.551 -39.217  18.951  1.00  0.00     0.111 C
BRANCH   6   7
HETATM    7  C7  UNL     1      -3.770 -40.672  18.896  1.00  0.00     0.224 C
HETATM    8  N1  UNL     1      -2.856 -41.674  19.230  1.00  0.00    -0.354 N
ATOM      9  H1  UNL     1      -1.929 -41.397  19.554  1.00  0.00     0.163 HD
HETATM   10  O2  UNL     1      -4.921 -41.083  18.499  1.00  0.00    -0.273 OA
BRANCH   8  11
HETATM   11  C5  UNL     1      -3.162 -43.102  19.139  1.00  0.00     0.111 C
BRANCH  11  12
HETATM   12  C3  UNL     1      -1.916 -43.878  18.984  1.00  0.00     0.006 C
HETATM   13  C4  UNL     1      -0.643 -43.055  18.974  1.00  0.00     0.012 C
BRANCH  12  14
HETATM   14  C2  UNL     1      -1.758 -45.076  19.877  1.00  0.00     0.002 C
HETATM   15  C1  UNL     1      -0.455 -45.787  19.780  1.00  0.00     0.005 C
ENDBRANCH  12  14
ENDBRANCH  11  12
BRANCH  11  16
HETATM   16  C6  UNL     1      -4.098 -43.534  20.225  1.00  0.00     0.189 C
BRANCH  16  17
HETATM   17  O1  UNL     1      -5.336 -43.827  19.581  1.00  0.00    -0.399 OA
ATOM     18  H1  UNL     1      -5.972 -43.939  20.277  1.00  0.00     0.209 HD
ENDBRANCH  16  17
ENDBRANCH  11  16
ENDBRANCH   8  11
ENDBRANCH   6   7
BRANCH   6  19
HETATM   19  C9  UNL     1      -2.294 -38.841  19.722  1.00  0.00     0.027 C
BRANCH  19  20
HETATM   20  C10 UNL     1      -1.191 -38.543  18.721  1.00  0.00     0.074 C
BRANCH  20  21
HETATM   21  S1  UNL     1      -0.545 -36.886  19.115  1.00  0.00    -0.173 SA
HETATM   22  C11 UNL     1      -1.327 -35.627  18.081  1.00  0.00     0.089 C
ENDBRANCH  20  21
ENDBRANCH  19  20
ENDBRANCH   6  19
ENDBRANCH   5   6
BRANCH   5  23
HETATM   23  C31 UNL     1      -4.879 -37.601  17.552  1.00  0.00     0.282 C
HETATM   24  O6  UNL     1      -4.811 -36.402  17.995  1.00  0.00    -0.263 OA
BRANCH  23  25
HETATM   25  O7  UNL     1      -6.088 -37.962  16.999  1.00  0.00    -0.325 OA
HETATM   26  C32 UNL     1      -7.283 -37.949  17.805  1.00  0.00     0.213 C
ENDBRANCH  23  25
ENDBRANCH   5  23
ENDBRANCH   1   5
BRANCH   3  27
HETATM   27  C14 UNL     1      -3.000 -40.238  14.243  1.00  0.00     0.174 C
HETATM   28  C15 UNL     1      -4.139 -40.065  13.287  1.00  0.00     0.042 C
BRANCH  27  29
HETATM   29  N3  UNL     1      -2.988 -41.610  14.698  1.00  0.00    -0.324 N
HETATM   30  C16 UNL     1      -1.802 -42.232  15.165  1.00  0.00     0.361 C
HETATM   31  O4  UNL     1      -0.738 -41.562  15.182  1.00  0.00    -0.238 OA
ATOM     32  H3  UNL     1      -3.857 -42.145  14.683  1.00  0.00     0.165 HD
BRANCH  30  33
HETATM   33  O5  UNL     1      -1.757 -43.535  15.602  1.00  0.00    -0.298 OA
BRANCH  33  34
HETATM   34  C17 UNL     1      -2.043 -44.630  14.793  1.00  0.00     0.142 C
HETATM   35  C18 UNL     1      -2.833 -45.706  15.529  1.00  0.00     0.016 C
HETATM   36  C19 UNL     1      -3.401 -46.623  14.452  1.00  0.00     0.012 C
HETATM   37  C23 UNL     1      -1.996 -46.509  16.470  1.00  0.00     0.012 C
HETATM   38  C20 UNL     1      -2.251 -47.217  13.672  1.00  0.00    -0.013 C
HETATM   39  C21 UNL     1      -1.427 -48.028  14.661  1.00  0.00     0.010 C
HETATM   40  C30 UNL     1      -1.360 -46.191  13.055  1.00  0.00     0.012 C
HETATM   41  C22 UNL     1      -0.843 -47.146  15.717  1.00  0.00    -0.005 C
HETATM   42  C24 UNL     1      -0.011 -46.055  15.096  1.00  0.00    -0.031 C
HETATM   43  C25 UNL     1       1.192 -46.604  14.390  1.00  0.00     0.010 C
HETATM   44  C28 UNL     1       0.595 -45.146  16.115  1.00  0.00     0.010 C
HETATM   45  C29 UNL     1      -0.843 -45.240  14.137  1.00  0.00     0.025 C
HETATM   46  C26 UNL     1       2.337 -46.541  15.398  1.00  0.00     0.001 C
HETATM   47  C27 UNL     1       1.714 -46.003  16.676  1.00  0.00     0.001 C
ENDBRANCH  33  34
ENDBRANCH  30  33
ENDBRANCH  27  29
ENDBRANCH   3  27
TORSDOF 17
ENDMDL