MODEL 2
REMARK VINA RESULT: -7.331789364      1.363      1.627
REMARK  21 active torsions:
REMARK  status: ('A' for Active; 'I' for Inactive)
REMARK    1  A    between atoms: C2_2  and  C4_4
REMARK    2  A    between atoms: C4_4  and  C5_5
REMARK    3  A    between atoms: C5_5  and  N1_6
REMARK    4  A    between atoms: C5_5  and  C15_22
REMARK    5  A    between atoms: N1_6  and  C6_8
REMARK    6  A    between atoms: C6_8  and  O1_9
REMARK    7  A    between atoms: C6_8  and  C7_11
REMARK    8  A    between atoms: C7_11  and  C8_12
REMARK    9  A    between atoms: C7_11  and  C10_15
REMARK   10  A    between atoms: C10_15  and  O3_17
REMARK   11  A    between atoms: O3_17  and  C11_18
REMARK   12  A    between atoms: C15_22  and  O4_23
REMARK   13  A    between atoms: C15_22  and  N3_25
REMARK   14  A    between atoms: C19_29  and  C20_30
REMARK       I    between atoms: C20_30  and  N4_32
REMARK   15  A    between atoms: N4_32  and  C21_34
REMARK   16  A    between atoms: C21_34  and  C22_35
REMARK   17  A    between atoms: C21_34  and  C29_42
REMARK   18  A    between atoms: C22_35  and  C23_36
REMARK   19  A    between atoms: C29_42  and  O6_43
REMARK   20  A    between atoms: C29_42  and  C30_45
REMARK       I    between atoms: C30_45  and  N5_47
REMARK   21  A    between atoms: N5_47  and  C31_49
ROOT
HETATM    1  C8  UNL     1      -3.890 -39.032  15.269  1.00  0.00     0.147 C
HETATM    2  C9  UNL     1      -3.984 -39.434  13.879  1.00  0.00     0.060 C
HETATM    3  N2  UNL     1      -4.065 -39.724  12.745  1.00  0.00    -0.197 NA
ENDROOT
BRANCH   1   4
HETATM    4  C7  UNL     1      -2.618 -39.377  15.961  1.00  0.00     0.173 C
BRANCH   4   5
HETATM    5  C6  UNL     1      -2.652 -40.323  17.062  1.00  0.00     0.131 C
BRANCH   5   6
HETATM    6  N1  UNL     1      -1.620 -40.923  17.784  1.00  0.00    -0.337 N
ATOM      7  H1  UNL     1      -0.656 -40.797  17.476  1.00  0.00     0.168 HD
BRANCH   6   8
HETATM    8  C5  UNL     1      -1.902 -41.758  19.019  1.00  0.00     0.081 C
BRANCH   8   9
HETATM    9  C4  UNL     1      -1.400 -41.050  20.163  1.00  0.00     0.011 C
BRANCH   9  10
HETATM   10  C2  UNL     1      -2.202 -40.720  21.351  1.00  0.00     0.002 C
HETATM   11  C1  UNL     1      -3.611 -40.247  21.003  1.00  0.00     0.013 C
HETATM   12  C3  UNL     1      -1.542 -39.424  21.935  1.00  0.00     0.013 C
ENDBRANCH   9  10
ENDBRANCH   8   9
BRANCH   8  13
HETATM   13  C15 UNL     1      -1.782 -43.134  18.634  1.00  0.00     0.166 C
BRANCH  13  14
HETATM   14  O4  UNL     1      -2.987 -43.559  18.199  1.00  0.00    -0.344 OA
ATOM     15  H4  UNL     1      -3.145 -43.184  17.342  1.00  0.00     0.219 HD
ENDBRANCH  13  14
BRANCH  13  16
HETATM   16  N3  UNL     1      -0.830 -44.129  18.572  1.00  0.00    -0.347 N
HETATM   17  C16 UNL     1      -0.491 -45.023  19.702  1.00  0.00     0.126 C
HETATM   18  C17 UNL     1      -0.840 -46.339  19.044  1.00  0.00     0.022 C
HETATM   19  C18 UNL     1      -0.497 -46.127  17.561  1.00  0.00     0.037 C
HETATM   20  C19 UNL     1       0.039 -44.686  17.601  1.00  0.00     0.178 C
BRANCH  20  21
HETATM   21  C20 UNL     1       0.302 -44.147  16.309  1.00  0.00     0.241 C
HETATM   22  O5  UNL     1      -0.171 -43.197  15.672  1.00  0.00    -0.271 OA
HETATM   23  N4  UNL     1       1.347 -44.830  15.531  1.00  0.00    -0.352 N
ATOM     24  H4  UNL     1       1.820 -45.636  15.940  1.00  0.00     0.163 HD
BRANCH  23  25
HETATM   25  C21 UNL     1       1.724 -44.400  14.215  1.00  0.00     0.122 C
BRANCH  25  26
HETATM   26  C22 UNL     1       1.798 -45.523  13.223  1.00  0.00     0.033 C
BRANCH  26  27
HETATM   27  C23 UNL     1       0.494 -45.993  12.687  1.00  0.00    -0.013 C
HETATM   28  C24 UNL     1      -0.364 -44.950  12.049  1.00  0.00     0.005 C
HETATM   29  C25 UNL     1      -1.674 -45.638  11.672  1.00  0.00     0.000 C
HETATM   30  C26 UNL     1      -1.441 -46.727  10.653  1.00  0.00     0.000 C
HETATM   31  C27 UNL     1      -0.559 -47.775  11.290  1.00  0.00     0.000 C
HETATM   32  C28 UNL     1       0.734 -47.122  11.695  1.00  0.00     0.005 C
ENDBRANCH  26  27
ENDBRANCH  25  26
BRANCH  25  33
HETATM   33  C29 UNL     1       3.133 -43.768  14.243  1.00  0.00     0.232 C
BRANCH  33  34
HETATM   34  O6  UNL     1       3.082 -42.471  14.685  1.00  0.00    -0.384 OA
ATOM     35  H6  UNL     1       2.869 -42.433  15.611  1.00  0.00     0.210 HD
ENDBRANCH  33  34
BRANCH  33  36
HETATM   36  C30 UNL     1       4.033 -44.540  15.121  1.00  0.00     0.248 C
HETATM   37  O7  UNL     1       3.984 -44.336  16.343  1.00  0.00    -0.271 OA
HETATM   38  N5  UNL     1       4.964 -45.515  14.646  1.00  0.00    -0.354 N
ATOM     39  H5  UNL     1       5.014 -45.694  13.643  1.00  0.00     0.162 HD
BRANCH  38  40
HETATM   40  C31 UNL     1       5.827 -46.253  15.516  1.00  0.00     0.084 A
HETATM   41  C32 UNL     1       7.071 -46.855  14.897  1.00  0.00     0.027 A
HETATM   42  C33 UNL     1       6.010 -47.711  15.457  1.00  0.00     0.027 A
ENDBRANCH  38  40
ENDBRANCH  33  36
ENDBRANCH  25  33
ENDBRANCH  23  25
ENDBRANCH  20  21
ENDBRANCH  13  16
ENDBRANCH   8  13
ENDBRANCH   6   8
ENDBRANCH   5   6
BRANCH   5  43
HETATM   43  O1  UNL     1      -3.862 -40.672  17.447  1.00  0.00    -0.349 OA
ATOM     44  H1  UNL     1      -4.510 -39.980  17.384  1.00  0.00     0.219 HD
ENDBRANCH   5  43
ENDBRANCH   4   5
BRANCH   4  45
HETATM   45  C10 UNL     1      -2.088 -38.075  16.508  1.00  0.00     0.272 C
HETATM   46  O2  UNL     1      -0.871 -37.940  16.719  1.00  0.00    -0.264 OA
BRANCH  45  47
HETATM   47  O3  UNL     1      -2.947 -37.046  16.769  1.00  0.00    -0.311 OA
BRANCH  47  48
HETATM   48  C11 UNL     1      -3.443 -36.710  18.047  1.00  0.00     0.060 C
HETATM   49  C12 UNL     1      -3.488 -35.198  18.133  1.00  0.00     0.045 C
HETATM   50  C13 UNL     1      -4.819 -37.246  18.295  1.00  0.00     0.045 C
HETATM   51  C14 UNL     1      -2.526 -37.232  19.148  1.00  0.00     0.045 C
ENDBRANCH  47  48
ENDBRANCH  45  47
ENDBRANCH   4  45
ENDBRANCH   1   4
TORSDOF 21
ENDMDL