MODEL 3
REMARK VINA RESULT: -7.235622392      2.005      5.467
REMARK  18 active torsions:
REMARK  status: ('A' for Active; 'I' for Inactive)
REMARK    1  A    between atoms: O1_2  and  C2_3
REMARK    2  A    between atoms: C2_3  and  C3_5
REMARK    3  A    between atoms: C3_5  and  N1_6
REMARK       I    between atoms: N1_6  and  C4_8
REMARK    4  A    between atoms: C4_8  and  C5_10
REMARK    5  A    between atoms: C5_10  and  C6_11
REMARK    6  A    between atoms: C6_11  and  C7_12
REMARK    7  A    between atoms: C6_11  and  N3_28
REMARK    8  A    between atoms: C7_12  and  C8_13
REMARK    9  A    between atoms: C8_13  and  C9_14
REMARK   10  A    between atoms: C9_14  and  C10_15
REMARK   11  A    between atoms: C10_15  and  C11_16
REMARK   12  A    between atoms: C11_16  and  C12_17
REMARK       I    between atoms: C12_17  and  N2_19
REMARK       I    between atoms: N3_28  and  C21_30
REMARK   13  A    between atoms: C21_30  and  C22_32
REMARK   14  A    between atoms: C22_32  and  N4_33
REMARK   15  A    between atoms: C22_32  and  C28_42
REMARK       I    between atoms: N4_33  and  C23_35
REMARK   16  A    between atoms: C23_35  and  O7_37
REMARK   17  A    between atoms: O7_37  and  C24_38
REMARK   18  A    between atoms: C28_42  and  N5_43
ROOT
HETATM    1  C6  UNL     1      -2.277 -44.439  14.918  1.00  0.00    -0.002 C
ENDROOT
BRANCH   1   2
HETATM    2  C5  UNL     1      -2.688 -43.516  13.834  1.00  0.00     0.155 C
BRANCH   2   3
HETATM    3  C4  UNL     1      -2.477 -42.071  14.087  1.00  0.00     0.223 C
HETATM    4  N1  UNL     1      -3.576 -41.193  14.338  1.00  0.00    -0.351 N
ATOM      5  H1  UNL     1      -4.506 -41.612  14.325  1.00  0.00     0.162 HD
HETATM    6  O3  UNL     1      -1.319 -41.598  14.080  1.00  0.00    -0.273 OA
BRANCH   4   7
HETATM    7  C3  UNL     1      -3.510 -39.801  14.604  1.00  0.00     0.233 C
BRANCH   7   8
HETATM    8  C2  UNL     1      -4.337 -39.388  15.781  1.00  0.00     0.276 C
HETATM    9  O2  UNL     1      -5.021 -40.215  16.386  1.00  0.00    -0.263 OA
BRANCH   8  10
HETATM   10  O1  UNL     1      -4.305 -38.042  16.169  1.00  0.00    -0.325 OA
HETATM   11  C1  UNL     1      -3.108 -37.417  16.628  1.00  0.00     0.213 C
ENDBRANCH   8  10
ENDBRANCH   7   8
ENDBRANCH   4   7
ENDBRANCH   2   3
ENDBRANCH   1   2
BRANCH   1  12
HETATM   12  C7  UNL     1      -1.872 -45.806  14.637  1.00  0.00     0.053 C
BRANCH  12  13
HETATM   13  C8  UNL     1      -2.227 -46.460  13.361  1.00  0.00     0.006 C
BRANCH  13  14
HETATM   14  C9  UNL     1      -1.163 -47.275  12.702  1.00  0.00     0.001 C
BRANCH  14  15
HETATM   15  C10 UNL     1      -0.486 -46.569  11.531  1.00  0.00     0.009 C
BRANCH  15  16
HETATM   16  C11 UNL     1       1.006 -46.336  11.837  1.00  0.00     0.103 C
BRANCH  16  17
HETATM   17  C12 UNL     1       1.170 -45.153  12.694  1.00  0.00     0.220 C
HETATM   18  O4  UNL     1       0.577 -44.053  12.387  1.00  0.00    -0.273 OA
HETATM   19  N2  UNL     1       1.965 -45.120  13.885  1.00  0.00    -0.344 N
HETATM   20  C13 UNL     1       1.963 -43.830  14.562  1.00  0.00     0.127 C
HETATM   21  C18 UNL     1       2.687 -46.224  14.417  1.00  0.00     0.028 C
HETATM   22  C14 UNL     1       3.200 -43.549  15.337  1.00  0.00     0.024 C
HETATM   23  C15 UNL     1       3.395 -44.715  16.288  1.00  0.00    -0.015 C
HETATM   24  C16 UNL     1       4.498 -44.417  17.247  1.00  0.00     0.010 C
HETATM   25  C17 UNL     1       3.656 -45.959  15.520  1.00  0.00     0.034 C
HETATM   26  C19 UNL     1       1.677 -47.269  14.925  1.00  0.00     0.038 C
HETATM   27  C20 UNL     1       3.516 -46.935  13.325  1.00  0.00     0.038 C
ENDBRANCH  16  17
ENDBRANCH  15  16
ENDBRANCH  14  15
ENDBRANCH  13  14
ENDBRANCH  12  13
ENDBRANCH   1  12
BRANCH   1  28
HETATM   28  N3  UNL     1      -1.457 -43.752  15.893  1.00  0.00    -0.332 N
HETATM   29  C21 UNL     1      -1.808 -43.659  17.273  1.00  0.00     0.247 C
HETATM   30  O5  UNL     1      -2.867 -44.175  17.652  1.00  0.00    -0.271 OA
ATOM     31  H3  UNL     1      -0.591 -43.314  15.580  1.00  0.00     0.168 HD
BRANCH  29  32
HETATM   32  C22 UNL     1      -0.935 -42.959  18.247  1.00  0.00     0.215 C
BRANCH  32  33
HETATM   33  N4  UNL     1      -1.707 -42.057  19.033  1.00  0.00    -0.321 N
HETATM   34  C23 UNL     1      -1.987 -40.717  18.616  1.00  0.00     0.362 C
HETATM   35  O6  UNL     1      -1.519 -40.314  17.491  1.00  0.00    -0.238 OA
ATOM     36  H4  UNL     1      -2.075 -42.379  19.928  1.00  0.00     0.165 HD
BRANCH  34  37
HETATM   37  O7  UNL     1      -2.723 -39.785  19.298  1.00  0.00    -0.294 OA
BRANCH  37  38
HETATM   38  C24 UNL     1      -2.197 -38.939  20.291  1.00  0.00     0.061 C
HETATM   39  C25 UNL     1      -1.035 -38.133  19.717  1.00  0.00     0.046 C
HETATM   40  C26 UNL     1      -3.245 -37.883  20.672  1.00  0.00     0.046 C
HETATM   41  C27 UNL     1      -1.756 -39.607  21.534  1.00  0.00     0.046 C
ENDBRANCH  37  38
ENDBRANCH  34  37
ENDBRANCH  32  33
BRANCH  32  42
HETATM   42  C28 UNL     1      -0.334 -44.035  19.139  1.00  0.00     0.152 C
HETATM   43  C29 UNL     1       0.409 -45.069  18.344  1.00  0.00     0.041 C
HETATM   44  C30 UNL     1       1.266 -45.736  19.425  1.00  0.00     0.003 C
HETATM   45  C31 UNL     1       1.864 -44.477  20.063  1.00  0.00     0.003 C
HETATM   46  C32 UNL     1       0.692 -43.489  20.073  1.00  0.00     0.041 C
BRANCH  42  47
HETATM   47  N5  UNL     1      -1.338 -44.720  19.931  1.00  0.00    -0.068 N
ATOM     48  H53 UNL     1      -2.251 -44.278  19.830  1.00  0.00     0.275 HD
ATOM     49  H52 UNL     1      -1.555 -45.636  19.536  1.00  0.00     0.275 HD
ATOM     50  H51 UNL     1      -1.073 -44.796  20.913  1.00  0.00     0.275 HD
ENDBRANCH  42  47
ENDBRANCH  32  42
ENDBRANCH  29  32
ENDBRANCH   1  28
TORSDOF 18
ENDMDL