MODEL 4
REMARK VINA RESULT: -8.299835050      2.471      4.196
REMARK  16 active torsions:
REMARK  status: ('A' for Active; 'I' for Inactive)
REMARK    1  A    between atoms: O1_2  and  C2_3
REMARK    2  A    between atoms: C4_5  and  C5_6
REMARK    3  A    between atoms: C5_6  and  O2_7
REMARK    4  A    between atoms: C5_6  and  C6_9
REMARK    5  A    between atoms: C6_9  and  C7_10
REMARK    6  A    between atoms: N1_14  and  C11_15
REMARK    7  A    between atoms: C11_15  and  C13_17
REMARK    8  A    between atoms: C11_15  and  C17_27
REMARK    9  A    between atoms: C13_17  and  C14_18
REMARK   10  A    between atoms: C14_18  and  C15_19
REMARK   11  A    between atoms: C15_19  and  N2_20
REMARK       I    between atoms: N2_20  and  C16_22
REMARK   12  A    between atoms: C17_27  and  C18_28
REMARK   13  A    between atoms: C18_28  and  S1_29
REMARK   14  A    between atoms: S1_29  and  C19_30
REMARK   15  A    between atoms: C25_40  and  C26_41
REMARK   16  A    between atoms: C26_41  and  N6_43
ROOT
HETATM    1  C7  UNL     1      -2.601 -42.804  14.193  1.00  0.00     0.080 C
HETATM    2  C8  UNL     1      -3.345 -43.846  13.426  1.00  0.00     0.015 C
HETATM    3  C9  UNL     1      -2.989 -45.230  13.869  1.00  0.00     0.021 C
HETATM    4  C10 UNL     1      -2.718 -45.372  15.361  1.00  0.00     0.127 C
HETATM    5  N1  UNL     1      -1.572 -44.513  15.706  1.00  0.00    -0.343 N
HETATM    6  C22 UNL     1      -1.380 -43.480  14.737  1.00  0.00     0.224 C
HETATM    7  O4  UNL     1      -0.228 -43.187  14.382  1.00  0.00    -0.273 OA
ENDROOT
BRANCH   5   8
HETATM    8  C11 UNL     1      -0.728 -44.659  16.880  1.00  0.00     0.032 C
HETATM    9  C12 UNL     1      -1.212 -45.655  17.879  1.00  0.00     0.039 C
BRANCH   8  10
HETATM   10  C13 UNL     1       0.704 -44.773  16.579  1.00  0.00     0.032 C
BRANCH  10  11
HETATM   11  C14 UNL     1       1.305 -45.984  15.998  1.00  0.00     0.022 C
BRANCH  11  12
HETATM   12  C15 UNL     1       1.599 -46.019  14.537  1.00  0.00     0.122 C
BRANCH  12  13
HETATM   13  N2  UNL     1       0.477 -46.446  13.719  1.00  0.00    -0.365 N
HETATM   14  C16 UNL     1       0.628 -46.302  12.325  1.00  0.00     0.181 C
HETATM   15  N3  UNL     1       1.260 -47.193  11.645  1.00  0.00    -0.374 N
HETATM   16  N4  UNL     1       0.096 -45.175  11.620  1.00  0.00    -0.064 NA
ATOM     17  H32 UNL     1       1.639 -47.996  12.146  1.00  0.00     0.158 HD
ATOM     18  H31 UNL     1       1.369 -47.090  10.636  1.00  0.00     0.158 HD
ATOM     19  H2  UNL     1      -0.374 -46.829  14.131  1.00  0.00     0.162 HD
ENDBRANCH  12  13
ENDBRANCH  11  12
ENDBRANCH  10  11
ENDBRANCH   8  10
BRANCH   8  20
HETATM   20  C17 UNL     1      -0.908 -43.251  17.528  1.00  0.00     0.041 C
BRANCH  20  21
HETATM   21  C18 UNL     1      -1.632 -43.161  18.787  1.00  0.00     0.085 C
BRANCH  21  22
HETATM   22  S1  UNL     1      -0.761 -42.700  20.281  1.00  0.00    -0.086 SA
BRANCH  22  23
HETATM   23  C19 UNL     1      -1.583 -41.265  20.990  1.00  0.00     0.186 A
HETATM   24  N5  UNL     1      -2.908 -40.994  20.802  1.00  0.00    -0.339 N
HETATM   25  C20 UNL     1      -3.198 -39.877  21.449  1.00  0.00     0.115 A
ATOM     26  H5  UNL     1      -3.561 -41.556  20.257  1.00  0.00     0.167 HD
HETATM   27  C21 UNL     1      -2.028 -39.446  22.051  1.00  0.00     0.162 A
HETATM   28  O3  UNL     1      -1.108 -40.315  21.738  1.00  0.00    -0.299 OA
ENDBRANCH  22  23
ENDBRANCH  21  22
ENDBRANCH  20  21
ENDBRANCH   8  20
ENDBRANCH   5   8
BRANCH   1  29
HETATM   29  C6  UNL     1      -2.181 -41.572  13.479  1.00  0.00     0.046 C
BRANCH  29  30
HETATM   30  C5  UNL     1      -2.734 -40.281  13.884  1.00  0.00     0.123 C
BRANCH  30  31
HETATM   31  C4  UNL     1      -3.304 -40.103  15.241  1.00  0.00     0.017 C
HETATM   32  C3  UNL     1      -4.214 -38.854  15.273  1.00  0.00     0.039 C
HETATM   33  C2  UNL     1      -4.772 -38.781  16.680  1.00  0.00     0.127 C
HETATM   34  C25 UNL     1      -3.717 -38.496  17.696  1.00  0.00     0.037 C
HETATM   35  C24 UNL     1      -2.562 -39.465  17.567  1.00  0.00     0.010 C
HETATM   36  C23 UNL     1      -2.122 -39.669  16.141  1.00  0.00     0.008 C
BRANCH  33  37
HETATM   37  O1  UNL     1      -5.841 -37.936  16.749  1.00  0.00    -0.390 OA
HETATM   38  C1  UNL     1      -6.795 -38.248  17.705  1.00  0.00     0.202 C
ENDBRANCH  33  37
BRANCH  34  39
HETATM   39  C26 UNL     1      -3.239 -37.059  17.659  1.00  0.00     0.089 C
HETATM   40  C27 UNL     1      -3.953 -36.189  18.666  1.00  0.00     0.033 C
BRANCH  39  41
HETATM   41  N6  UNL     1      -1.829 -36.939  17.907  1.00  0.00    -0.347 N
HETATM   42  C28 UNL     1      -1.176 -37.234  19.155  1.00  0.00     0.127 C
HETATM   43  C29 UNL     1       0.287 -37.318  18.806  1.00  0.00     0.029 C
HETATM   44  C30 UNL     1       0.436 -36.327  17.679  1.00  0.00     0.104 C
HETATM   45  C31 UNL     1      -0.869 -36.494  16.966  1.00  0.00     0.220 C
HETATM   46  O5  UNL     1      -1.004 -36.257  15.741  1.00  0.00    -0.273 OA
ENDBRANCH  39  41
ENDBRANCH  34  39
ENDBRANCH  30  31
BRANCH  30  47
HETATM   47  O2  UNL     1      -3.652 -39.758  12.952  1.00  0.00    -0.395 OA
ATOM     48  H2  UNL     1      -4.033 -40.484  12.473  1.00  0.00     0.210 HD
ENDBRANCH  30  47
ENDBRANCH  29  30
ENDBRANCH   1  29
TORSDOF 16
ENDMDL