MODEL 4
REMARK VINA RESULT: -8.723436071      3.192      9.879
REMARK  16 active torsions:
REMARK  status: ('A' for Active; 'I' for Inactive)
REMARK    1  A    between atoms: O1_2  and  C2_3
REMARK       I    between atoms: C2_3  and  N1_5
REMARK    2  A    between atoms: N1_5  and  C3_6
REMARK    3  A    between atoms: C3_6  and  C5_8
REMARK       I    between atoms: C5_8  and  N2_10
REMARK    4  A    between atoms: N2_10  and  C6_12
REMARK    5  A    between atoms: C6_12  and  C7_13
REMARK    6  A    between atoms: C6_12  and  C14_20
REMARK    7  A    between atoms: C7_13  and  C8_14
REMARK    8  A    between atoms: C14_20  and  O5_22
REMARK    9  A    between atoms: O5_22  and  C15_23
REMARK   10  A    between atoms: C15_23  and  C16_24
REMARK   11  A    between atoms: C15_23  and  C26_43
REMARK       I    between atoms: C16_24  and  N3_26
REMARK   12  A    between atoms: N3_26  and  C17_28
REMARK   13  A    between atoms: C17_28  and  C18_29
REMARK   14  A    between atoms: C17_28  and  C23_40
REMARK       I    between atoms: C18_29  and  N4_31
REMARK   15  A    between atoms: N4_31  and  C19_33
REMARK   16  A    between atoms: C19_33  and  C20_34
ROOT
HETATM    1  C15 UNL     1      -3.119 -37.875  15.857  1.00  0.00     0.228 C
ENDROOT
BRANCH   1   2
HETATM    2  O5  UNL     1      -2.749 -39.108  15.296  1.00  0.00    -0.304 OA
BRANCH   2   3
HETATM    3  C14 UNL     1      -3.293 -40.335  15.335  1.00  0.00     0.282 C
HETATM    4  O4  UNL     1      -4.509 -40.467  15.047  1.00  0.00    -0.263 OA
BRANCH   3   5
HETATM    5  C6  UNL     1      -2.512 -41.555  15.705  1.00  0.00     0.184 C
BRANCH   5   6
HETATM    6  N2  UNL     1      -1.464 -41.743  14.702  1.00  0.00    -0.345 N
HETATM    7  C5  UNL     1      -1.387 -42.834  13.817  1.00  0.00     0.254 C
HETATM    8  O3  UNL     1      -2.282 -43.682  13.839  1.00  0.00    -0.270 OA
ATOM      9  H2  UNL     1      -0.736 -41.031  14.640  1.00  0.00     0.163 HD
BRANCH   7  10
HETATM   10  C3  UNL     1      -0.202 -42.902  12.902  1.00  0.00     0.256 C
HETATM   11  C4  UNL     1       0.989 -42.489  13.873  1.00  0.00     0.058 C
BRANCH  10  12
HETATM   12  N1  UNL     1       0.036 -44.155  12.384  1.00  0.00    -0.376 NA
HETATM   13  C2  UNL     1       0.272 -45.397  11.870  1.00  0.00     0.435 C
HETATM   14  O2  UNL     1       1.333 -46.109  12.047  1.00  0.00    -0.221 OA
BRANCH  13  15
HETATM   15  O1  UNL     1      -0.681 -46.059  11.051  1.00  0.00    -0.298 OA
HETATM   16  C1  UNL     1      -0.633 -47.459  10.938  1.00  0.00     0.216 C
ENDBRANCH  13  15
ENDBRANCH  10  12
ENDBRANCH   7  10
ENDBRANCH   5   6
BRANCH   5  17
HETATM   17  C7  UNL     1      -1.763 -41.370  16.991  1.00  0.00     0.040 C
BRANCH  17  18
HETATM   18  C8  UNL     1      -1.946 -42.398  18.061  1.00  0.00    -0.012 C
HETATM   19  C9  UNL     1      -1.502 -43.782  17.612  1.00  0.00     0.005 C
HETATM   20  C10 UNL     1      -0.070 -44.014  18.076  1.00  0.00     0.000 C
HETATM   21  C11 UNL     1      -0.118 -44.172  19.572  1.00  0.00     0.000 C
HETATM   22  C12 UNL     1      -0.672 -42.941  20.199  1.00  0.00     0.000 C
HETATM   23  C13 UNL     1      -1.152 -41.899  19.250  1.00  0.00     0.005 C
ENDBRANCH  17  18
ENDBRANCH   5  17
ENDBRANCH   3   5
ENDBRANCH   2   3
ENDBRANCH   1   2
BRANCH   1  24
HETATM   24  C16 UNL     1      -3.995 -38.155  17.077  1.00  0.00     0.252 C
HETATM   25  O6  UNL     1      -5.232 -37.868  16.885  1.00  0.00    -0.270 OA
HETATM   26  N3  UNL     1      -3.537 -38.657  18.271  1.00  0.00    -0.323 N
ATOM     27  H3  UNL     1      -2.531 -38.827  18.268  1.00  0.00     0.169 HD
BRANCH  26  28
HETATM   28  C17 UNL     1      -4.156 -38.998  19.524  1.00  0.00     0.083 C
BRANCH  28  29
HETATM   29  C18 UNL     1      -4.621 -40.363  19.602  1.00  0.00     0.264 C
HETATM   30  O7  UNL     1      -5.146 -40.906  18.602  1.00  0.00    -0.266 OA
HETATM   31  N4  UNL     1      -4.564 -41.236  20.745  1.00  0.00    -0.348 N
ATOM     32  H4  UNL     1      -4.110 -40.889  21.590  1.00  0.00     0.163 HD
BRANCH  31  33
HETATM   33  C19 UNL     1      -5.109 -42.568  20.768  1.00  0.00     0.207 C
BRANCH  33  34
HETATM   34  C20 UNL     1      -6.501 -42.555  21.339  1.00  0.00     0.140 A
HETATM   35  N5  UNL     1      -7.250 -43.584  21.720  1.00  0.00    -0.347 N
HETATM   36  C21 UNL     1      -8.420 -43.090  22.176  1.00  0.00     0.114 A
ATOM     37  H5  UNL     1      -6.989 -44.569  21.676  1.00  0.00     0.167 HD
HETATM   38  C22 UNL     1      -8.356 -41.728  22.059  1.00  0.00     0.161 A
HETATM   39  O8  UNL     1      -7.178 -41.463  21.548  1.00  0.00    -0.307 OA
ENDBRANCH  33  34
ENDBRANCH  31  33
ENDBRANCH  28  29
BRANCH  28  40
HETATM   40  C23 UNL     1      -3.466 -38.412  20.697  1.00  0.00     0.033 C
HETATM   41  C24 UNL     1      -3.804 -37.000  20.993  1.00  0.00     0.016 C
HETATM   42  C25 UNL     1      -1.984 -38.641  20.742  1.00  0.00     0.016 C
ENDBRANCH  28  40
ENDBRANCH  26  28
ENDBRANCH   1  24
BRANCH   1  43
HETATM   43  C26 UNL     1      -1.845 -37.165  16.167  1.00  0.00     0.024 C
HETATM   44  C27 UNL     1      -2.171 -35.740  16.577  1.00  0.00     0.007 C
HETATM   45  C28 UNL     1      -1.877 -35.420  18.011  1.00  0.00     0.000 C
HETATM   46  C29 UNL     1      -0.444 -35.704  18.388  1.00  0.00     0.000 C
HETATM   47  C30 UNL     1       0.194 -36.616  17.339  1.00  0.00     0.000 C
HETATM   48  C31 UNL     1      -0.878 -37.711  17.121  1.00  0.00     0.007 C
ENDBRANCH   1  43
TORSDOF 16
ENDMDL