MODEL 5
REMARK VINA RESULT: -8.067244730      1.286      2.006
REMARK  18 active torsions:
REMARK  status: ('A' for Active; 'I' for Inactive)
REMARK    1  A    between atoms: O1_2  and  C2_3
REMARK       I    between atoms: C2_3  and  N1_5
REMARK    2  A    between atoms: N1_5  and  C3_7
REMARK    3  A    between atoms: C3_7  and  C5_9
REMARK    4  A    between atoms: C5_9  and  N2_10
REMARK    5  A    between atoms: C8_13  and  C9_14
REMARK    6  A    between atoms: C9_14  and  C10_15
REMARK       I    between atoms: N3_18  and  C13_19
REMARK    7  A    between atoms: C13_19  and  C14_21
REMARK    8  A    between atoms: C14_21  and  C15_22
REMARK    9  A    between atoms: C15_22  and  N4_23
REMARK   10  A    between atoms: C15_22  and  C21_31
REMARK       I    between atoms: N4_23  and  C16_24
REMARK   11  A    between atoms: C16_24  and  O5_26
REMARK   12  A    between atoms: O5_26  and  C17_27
REMARK   13  A    between atoms: C21_31  and  C22_32
REMARK   14  A    between atoms: C21_31  and  N6_40
REMARK   15  A    between atoms: C22_32  and  C23_33
REMARK   16  A    between atoms: C23_33  and  C24_34
REMARK   17  A    between atoms: C24_34  and  C25_35
REMARK   18  A    between atoms: C25_35  and  N5_36
REMARK       I    between atoms: N6_40  and  C26_42
ROOT
HETATM    1  C10 UNL     1      -2.509 -40.884  14.860  1.00  0.00    -0.011 C
HETATM    2  C11 UNL     1      -1.853 -40.014  15.931  1.00  0.00     0.024 C
HETATM    3  C12 UNL     1      -2.399 -38.641  16.047  1.00  0.00     0.126 C
HETATM    4  N3  UNL     1      -3.849 -38.618  15.958  1.00  0.00    -0.349 N
HETATM    5  C13 UNL     1      -4.712 -38.111  16.956  1.00  0.00     0.246 C
HETATM    6  O3  UNL     1      -5.965 -38.192  16.698  1.00  0.00    -0.268 OA
HETATM    7  C28 UNL     1      -4.358 -39.153  14.716  1.00  0.00     0.126 C
HETATM    8  C29 UNL     1      -3.376 -40.078  14.005  1.00  0.00     0.024 C
ENDROOT
BRANCH   5   9
HETATM    9  C14 UNL     1      -4.330 -37.525  18.214  1.00  0.00     0.121 C
BRANCH   9  10
HETATM   10  C15 UNL     1      -3.919 -38.332  19.367  1.00  0.00     0.141 C
BRANCH  10  11
HETATM   11  N4  UNL     1      -4.705 -39.499  19.541  1.00  0.00    -0.344 NA
HETATM   12  C16 UNL     1      -5.452 -40.602  19.708  1.00  0.00     0.441 C
HETATM   13  O4  UNL     1      -6.543 -40.753  20.312  1.00  0.00    -0.221 OA
BRANCH  12  14
HETATM   14  O5  UNL     1      -5.003 -41.843  19.143  1.00  0.00    -0.282 OA
BRANCH  14  15
HETATM   15  C17 UNL     1      -4.265 -42.797  19.805  1.00  0.00     0.062 C
HETATM   16  C18 UNL     1      -2.881 -42.984  19.184  1.00  0.00     0.046 C
HETATM   17  C19 UNL     1      -4.012 -42.453  21.262  1.00  0.00     0.046 C
HETATM   18  C20 UNL     1      -4.935 -44.141  19.746  1.00  0.00     0.046 C
ENDBRANCH  14  15
ENDBRANCH  12  14
ENDBRANCH  10  11
BRANCH  10  19
HETATM   19  C21 UNL     1      -2.517 -38.395  19.807  1.00  0.00     0.053 C
BRANCH  19  20
HETATM   20  C22 UNL     1      -1.579 -37.312  19.407  1.00  0.00     0.061 C
BRANCH  20  21
HETATM   21  C23 UNL     1      -0.242 -37.647  18.894  1.00  0.00     0.008 C
BRANCH  21  22
HETATM   22  C24 UNL     1       0.334 -36.805  17.808  1.00  0.00     0.027 C
BRANCH  22  23
HETATM   23  C25 UNL     1      -0.140 -35.353  18.039  1.00  0.00     0.229 C
BRANCH  23  24
HETATM   24  N5  UNL     1       0.936 -34.482  18.390  1.00  0.00    -0.079 N
ATOM     25  H53 UNL     1       1.180 -34.576  19.375  1.00  0.00     0.274 HD
ATOM     26  H52 UNL     1       1.813 -34.794  17.974  1.00  0.00     0.274 HD
ATOM     27  H51 UNL     1       0.740 -33.509  18.150  1.00  0.00     0.274 HD
ENDBRANCH  23  24
ENDBRANCH  22  23
ENDBRANCH  21  22
ENDBRANCH  20  21
ENDBRANCH  19  20
BRANCH  19  28
HETATM   28  N6  UNL     1      -2.367 -38.824  21.177  1.00  0.00    -0.328 N
HETATM   29  C26 UNL     1      -1.603 -39.906  21.646  1.00  0.00     0.218 C
HETATM   30  C27 UNL     1      -1.533 -40.215  23.082  1.00  0.00     0.117 C
HETATM   31  O6  UNL     1      -0.969 -40.617  20.834  1.00  0.00    -0.274 OA
ATOM     32  H6  UNL     1      -2.870 -38.284  21.881  1.00  0.00     0.168 HD
ENDBRANCH  19  28
ENDBRANCH  10  19
ENDBRANCH   9  10
ENDBRANCH   5   9
BRANCH   1  33
HETATM   33  C9  UNL     1      -1.413 -41.633  14.215  1.00  0.00     0.009 C
BRANCH  33  34
HETATM   34  C8  UNL     1      -0.255 -42.166  14.920  1.00  0.00    -0.011 C
HETATM   35  C7  UNL     1      -0.373 -43.352  15.803  1.00  0.00     0.035 C
HETATM   36  C6  UNL     1      -0.150 -44.655  15.000  1.00  0.00     0.273 C
HETATM   37  N2  UNL     1       1.209 -44.710  14.565  1.00  0.00     0.090 N
HETATM   38  C31 UNL     1       1.862 -43.449  14.550  1.00  0.00     0.273 C
HETATM   39  C30 UNL     1       0.946 -42.361  13.990  1.00  0.00     0.035 C
BRANCH  37  40
HETATM   40  C5  UNL     1       1.921 -45.787  15.129  1.00  0.00     0.297 C
BRANCH  40  41
HETATM   41  C3  UNL     1       1.349 -47.135  14.671  1.00  0.00     0.111 C
HETATM   42  C4  UNL     1       2.113 -48.272  15.316  1.00  0.00     0.034 C
BRANCH  41  43
HETATM   43  N1  UNL     1       1.407 -47.247  13.243  1.00  0.00    -0.331 N
HETATM   44  C2  UNL     1       0.294 -47.345  12.376  1.00  0.00     0.360 C
HETATM   45  O2  UNL     1      -0.899 -47.337  12.815  1.00  0.00    -0.239 OA
ATOM     46  H1  UNL     1       2.332 -47.257  12.815  1.00  0.00     0.165 HD
BRANCH  44  47
HETATM   47  O1  UNL     1       0.442 -47.454  11.004  1.00  0.00    -0.309 OA
HETATM   48  C1  UNL     1      -0.274 -48.352  10.195  1.00  0.00     0.215 C
ENDBRANCH  44  47
ENDBRANCH  41  43
ENDBRANCH  40  41
ENDBRANCH  37  40
ENDBRANCH  33  34
ENDBRANCH   1  33
TORSDOF 18
ENDMDL