MODEL 1
REMARK VINA RESULT: -7.350407991      0.000      0.000
REMARK  17 active torsions:
REMARK  status: ('A' for Active; 'I' for Inactive)
REMARK    1  A    between atoms: C2_2  and  C3_3
REMARK    2  A    between atoms: C3_3  and  C4_4
REMARK    3  A    between atoms: C3_3  and  C26_36
REMARK    4  A    between atoms: C4_4  and  N1_5
REMARK       I    between atoms: N1_5  and  C5_7
REMARK       I    between atoms: C5_7  and  N2_9
REMARK    5  A    between atoms: N3_14  and  C10_15
REMARK    6  A    between atoms: C10_15  and  C11_16
REMARK    7  A    between atoms: C11_16  and  C12_17
REMARK    8  A    between atoms: C13_20  and  C14_21
REMARK    9  A    between atoms: C17_24  and  C18_25
REMARK       I    between atoms: C18_25  and  N5_27
REMARK   10  A    between atoms: N5_27  and  C20_29
REMARK   11  A    between atoms: C26_36  and  O3_37
REMARK   12  A    between atoms: C26_36  and  C27_39
REMARK   13  A    between atoms: C27_39  and  O4_40
REMARK   14  A    between atoms: C27_39  and  C28_42
REMARK   15  A    between atoms: C28_42  and  O5_43
REMARK   16  A    between atoms: C28_42  and  C29_45
REMARK   17  A    between atoms: C29_45  and  C30_46
ROOT
HETATM    1  N1  UNL     1       2.116 -47.059  12.985  1.00  0.00    -0.318 N
ATOM      2  H1  UNL     1       1.544 -47.812  13.369  1.00  0.00     0.170 HD
HETATM    3  C5  UNL     1       1.389 -45.981  12.552  1.00  0.00     0.323 C
HETATM    4  O1  UNL     1       2.019 -44.989  12.068  1.00  0.00    -0.247 OA
HETATM    5  N2  UNL     1      -0.043 -45.900  12.611  1.00  0.00    -0.324 N
HETATM    6  C6  UNL     1      -0.765 -46.997  13.191  1.00  0.00     0.086 C
HETATM    7  C7  UNL     1      -1.253 -47.956  12.087  1.00  0.00     0.032 C
HETATM    8  C8  UNL     1      -1.941 -46.570  14.046  1.00  0.00     0.044 C
HETATM    9  C9  UNL     1      -1.658 -45.205  14.630  1.00  0.00     0.119 C
HETATM   10  N3  UNL     1      -2.338 -44.267  13.772  1.00  0.00    -0.410 N
HETATM   11  C23 UNL     1      -2.080 -44.497  12.383  1.00  0.00     0.141 C
HETATM   12  C24 UNL     1      -0.655 -44.724  12.039  1.00  0.00     0.102 C
HETATM   13  C25 UNL     1       0.078 -43.441  12.185  1.00  0.00     0.034 C
ENDROOT
BRANCH   1  14
HETATM   14  C4  UNL     1       3.505 -47.331  13.004  1.00  0.00     0.102 C
BRANCH  14  15
HETATM   15  C3  UNL     1       4.191 -47.849  14.175  1.00  0.00    -0.011 C
BRANCH  15  16
HETATM   16  C2  UNL     1       3.817 -49.301  14.541  1.00  0.00     0.038 C
HETATM   17  C1  UNL     1       3.061 -49.355  15.842  1.00  0.00     0.010 C
ENDBRANCH  15  16
BRANCH  15  18
HETATM   18  C26 UNL     1       5.550 -47.558  14.606  1.00  0.00     0.082 C
BRANCH  18  19
HETATM   19  O3  UNL     1       6.608 -48.015  13.844  1.00  0.00    -0.362 OA
ATOM     20  H3  UNL     1       7.495 -47.826  14.125  1.00  0.00     0.217 HD
ENDBRANCH  18  19
BRANCH  18  21
HETATM   21  C27 UNL     1       5.790 -46.193  15.216  1.00  0.00     0.203 C
BRANCH  21  22
HETATM   22  O4  UNL     1       7.137 -46.044  15.475  1.00  0.00    -0.386 OA
ATOM     23  H4  UNL     1       7.623 -46.153  14.666  1.00  0.00     0.210 HD
ENDBRANCH  21  22
BRANCH  21  24
HETATM   24  C28 UNL     1       5.041 -45.941  16.484  1.00  0.00     0.153 C
BRANCH  24  25
HETATM   25  O5  UNL     1       5.970 -45.974  17.525  1.00  0.00    -0.393 OA
ATOM     26  H5  UNL     1       5.823 -46.780  18.005  1.00  0.00     0.210 HD
ENDBRANCH  24  25
BRANCH  24  27
HETATM   27  C29 UNL     1       4.270 -44.676  16.534  1.00  0.00     0.038 C
BRANCH  27  28
HETATM   28  C30 UNL     1       3.212 -44.563  15.465  1.00  0.00    -0.020 C
HETATM   29  C31 UNL     1       3.035 -43.183  14.920  1.00  0.00     0.009 C
HETATM   30  C32 UNL     1       1.903 -45.025  16.068  1.00  0.00     0.009 C
ENDBRANCH  27  28
ENDBRANCH  24  27
ENDBRANCH  21  24
ENDBRANCH  18  21
ENDBRANCH  15  18
ENDBRANCH  14  15
ENDBRANCH   1  14
BRANCH  10  31
HETATM   31  C10 UNL     1      -2.382 -42.926  14.212  1.00  0.00     0.123 C
BRANCH  31  32
HETATM   32  C11 UNL     1      -1.556 -42.701  15.467  1.00  0.00     0.084 C
BRANCH  32  33
HETATM   33  C12 UNL     1      -2.017 -41.459  16.192  1.00  0.00     0.053 A
HETATM   34  N4  UNL     1      -2.316 -41.316  17.463  1.00  0.00    -0.356 N
HETATM   35  C13 UNL     1      -2.704 -40.180  17.950  1.00  0.00     0.036 A
ATOM     36  H4  UNL     1      -2.240 -42.121  18.084  1.00  0.00     0.166 HD
HETATM   37  C17 UNL     1      -2.785 -39.114  17.048  1.00  0.00     0.097 A
HETATM   38  S1  UNL     1      -2.290 -39.888  15.607  1.00  0.00    -0.069 SA
BRANCH  35  39
HETATM   39  C14 UNL     1      -3.013 -40.015  19.428  1.00  0.00     0.029 C
HETATM   40  C15 UNL     1      -3.785 -41.255  19.927  1.00  0.00     0.016 C
HETATM   41  C16 UNL     1      -1.738 -39.877  20.239  1.00  0.00     0.016 C
ENDBRANCH  35  39
BRANCH  37  42
HETATM   42  C18 UNL     1      -3.208 -37.751  17.313  1.00  0.00     0.262 C
HETATM   43  O2  UNL     1      -4.395 -37.368  17.001  1.00  0.00    -0.267 OA
HETATM   44  N5  UNL     1      -2.416 -36.762  17.902  1.00  0.00    -0.347 N
HETATM   45  C19 UNL     1      -3.081 -35.437  18.088  1.00  0.00     0.153 C
BRANCH  44  46
HETATM   46  C20 UNL     1      -1.052 -36.820  18.341  1.00  0.00     0.087 A
HETATM   47  C21 UNL     1       0.062 -36.621  17.342  1.00  0.00     0.027 A
HETATM   48  C22 UNL     1      -0.261 -35.559  18.325  1.00  0.00     0.027 A
ENDBRANCH  44  46
ENDBRANCH  37  42
ENDBRANCH  32  33
ENDBRANCH  31  32
ENDBRANCH  10  31
TORSDOF 17
ENDMDL