MODEL 4
REMARK VINA RESULT: -8.095847503      3.148      6.176
REMARK  16 active torsions:
REMARK  status: ('A' for Active; 'I' for Inactive)
REMARK    1  A    between atoms: C2_2  and  O1_3
REMARK    2  A    between atoms: O1_3  and  C3_4
REMARK    3  A    between atoms: C6_7  and  O2_8
REMARK    4  A    between atoms: O2_8  and  C7_9
REMARK       I    between atoms: C7_9  and  N1_11
REMARK    5  A    between atoms: N1_11  and  C8_13
REMARK    6  A    between atoms: C8_13  and  C9_14
REMARK    7  A    between atoms: C8_13  and  C13_18
REMARK    8  A    between atoms: C9_14  and  C10_15
REMARK       I    between atoms: C13_18  and  N2_20
REMARK    9  A    between atoms: N2_20  and  C14_22
REMARK   10  A    between atoms: C14_22  and  C15_23
REMARK   11  A    between atoms: C14_22  and  C27_40
REMARK       I    between atoms: C15_23  and  N3_25
REMARK   12  A    between atoms: N3_25  and  C16_27
REMARK   13  A    between atoms: C16_27  and  C17_28
REMARK   14  A    between atoms: C16_27  and  C21_34
REMARK   15  A    between atoms: C17_28  and  C18_30
REMARK   16  A    between atoms: C30_43  and  N4_44
ROOT
HETATM    1  C13 UNL     1      -1.398 -42.296  19.569  1.00  0.00     0.241 C
HETATM    2  O4  UNL     1      -0.830 -41.660  18.622  1.00  0.00    -0.271 OA
HETATM    3  N2  UNL     1      -1.974 -41.603  20.658  1.00  0.00    -0.346 N
ATOM      4  H2  UNL     1      -2.421 -42.121  21.416  1.00  0.00     0.163 HD
ENDROOT
BRANCH   1   5
HETATM    5  C8  UNL     1      -1.392 -43.793  19.429  1.00  0.00     0.179 C
BRANCH   5   6
HETATM    6  N1  UNL     1      -1.674 -44.174  18.073  1.00  0.00    -0.324 N
HETATM    7  C7  UNL     1      -2.886 -44.803  17.640  1.00  0.00     0.361 C
HETATM    8  O3  UNL     1      -3.780 -45.057  18.452  1.00  0.00    -0.238 OA
ATOM      9  H1  UNL     1      -0.962 -43.982  17.368  1.00  0.00     0.165 HD
BRANCH   7  10
HETATM   10  O2  UNL     1      -3.036 -45.115  16.317  1.00  0.00    -0.296 OA
BRANCH  10  11
HETATM   11  C6  UNL     1      -2.064 -45.730  15.479  1.00  0.00     0.164 C
HETATM   12  C5  UNL     1      -2.659 -46.917  14.765  1.00  0.00     0.037 C
HETATM   13  C4  UNL     1      -1.800 -47.255  13.580  1.00  0.00     0.034 C
HETATM   14  C3  UNL     1      -1.889 -46.160  12.572  1.00  0.00     0.123 C
HETATM   15  C32 UNL     1      -1.909 -44.770  13.162  1.00  0.00     0.067 C
HETATM   16  C30 UNL     1      -1.420 -44.715  14.572  1.00  0.00     0.217 C
BRANCH  14  17
HETATM   17  O1  UNL     1      -0.938 -46.311  11.588  1.00  0.00    -0.386 OA
BRANCH  17  18
HETATM   18  C2  UNL     1      -0.230 -47.480  11.612  1.00  0.00     0.163 C
HETATM   19  C1  UNL     1      -0.271 -48.312  10.376  1.00  0.00     0.033 C
ENDBRANCH  17  18
ENDBRANCH  14  17
BRANCH  16  20
HETATM   20  N4  UNL     1       0.013 -44.669  14.655  1.00  0.00    -0.072 N
HETATM   21  C31 UNL     1       0.528 -43.375  15.032  1.00  0.00     0.267 C
ATOM     22  H42 UNL     1       0.361 -45.393  15.283  1.00  0.00     0.277 HD
ATOM     23  H41 UNL     1       0.435 -44.985  13.781  1.00  0.00     0.277 HD
ENDBRANCH  16  20
ENDBRANCH  10  11
ENDBRANCH   7  10
ENDBRANCH   5   6
BRANCH   5  24
HETATM   24  C9  UNL     1      -0.199 -44.452  20.010  1.00  0.00     0.038 C
BRANCH  24  25
HETATM   25  C10 UNL     1      -0.429 -44.812  21.470  1.00  0.00    -0.020 C
HETATM   26  C11 UNL     1       0.300 -43.935  22.433  1.00  0.00     0.009 C
HETATM   27  C12 UNL     1      -0.014 -46.262  21.683  1.00  0.00     0.009 C
ENDBRANCH  24  25
ENDBRANCH   5  24
ENDBRANCH   1   5
BRANCH   3  28
HETATM   28  C14 UNL     1      -1.929 -40.165  20.693  1.00  0.00     0.180 C
BRANCH  28  29
HETATM   29  C15 UNL     1      -3.032 -39.549  19.929  1.00  0.00     0.241 C
HETATM   30  O5  UNL     1      -4.152 -39.275  20.484  1.00  0.00    -0.271 OA
HETATM   31  N3  UNL     1      -2.855 -39.260  18.562  1.00  0.00    -0.347 N
ATOM     32  H3  UNL     1      -1.956 -39.488  18.138  1.00  0.00     0.163 HD
BRANCH  31  33
HETATM   33  C16 UNL     1      -3.884 -38.650  17.703  1.00  0.00     0.161 C
BRANCH  33  34
HETATM   34  C17 UNL     1      -4.134 -39.539  16.560  1.00  0.00     0.185 C
HETATM   35  O6  UNL     1      -5.282 -40.027  16.517  1.00  0.00    -0.292 OA
BRANCH  34  36
HETATM   36  C18 UNL     1      -3.256 -39.939  15.463  1.00  0.00     0.141 A
HETATM   37  C19 UNL     1      -3.723 -39.672  14.050  1.00  0.00     0.057 C
HETATM   38  C20 UNL     1      -2.518 -41.265  15.581  1.00  0.00     0.215 A
HETATM   39  O7  UNL     1      -1.884 -40.051  15.665  1.00  0.00    -0.367 OA
ENDBRANCH  34  36
ENDBRANCH  33  34
BRANCH  33  40
HETATM   40  C21 UNL     1      -3.439 -37.265  17.339  1.00  0.00     0.016 C
HETATM   41  C22 UNL     1      -1.922 -37.199  17.538  1.00  0.00     0.007 C
HETATM   42  C23 UNL     1      -1.412 -35.856  17.034  1.00  0.00     0.000 C
HETATM   43  C24 UNL     1      -2.547 -34.902  16.774  1.00  0.00     0.000 C
HETATM   44  C25 UNL     1      -3.410 -34.855  18.022  1.00  0.00     0.000 C
HETATM   45  C26 UNL     1      -4.005 -36.236  18.267  1.00  0.00     0.007 C
ENDBRANCH  33  40
ENDBRANCH  31  33
ENDBRANCH  28  29
BRANCH  28  46
HETATM   46  C27 UNL     1      -1.897 -39.659  22.143  1.00  0.00     0.009 C
HETATM   47  C28 UNL     1      -1.484 -40.701  23.126  1.00  0.00     0.012 C
HETATM   48  C29 UNL     1      -1.102 -38.388  22.259  1.00  0.00     0.012 C
ENDBRANCH  28  46
ENDBRANCH   3  28
TORSDOF 16
ENDMDL