MODEL 2
REMARK VINA RESULT: -8.495543408      1.728      2.138
REMARK  16 active torsions:
REMARK  status: ('A' for Active; 'I' for Inactive)
REMARK    1  A    between atoms: O1_2  and  C2_3
REMARK    2  A    between atoms: C2_3  and  C3_4
REMARK       I    between atoms: C3_4  and  N1_6
REMARK    3  A    between atoms: N1_6  and  C4_8
REMARK    4  A    between atoms: C4_8  and  C5_9
REMARK    5  A    between atoms: C5_9  and  C6_10
REMARK    6  A    between atoms: C5_9  and  C28_44
REMARK       I    between atoms: C6_10  and  N2_12
REMARK    7  A    between atoms: N2_12  and  C7_14
REMARK    8  A    between atoms: C7_14  and  C8_15
REMARK    9  A    between atoms: C7_14  and  C9_18
REMARK   10  A    between atoms: C9_18  and  C10_19
REMARK   11  A    between atoms: C9_18  and  N3_26
REMARK   12  A    between atoms: C10_19  and  C11_20
REMARK       I    between atoms: N3_26  and  C17_28
REMARK   13  A    between atoms: C17_28  and  O7_30
REMARK   14  A    between atoms: O7_30  and  C18_31
REMARK       I    between atoms: N4_33  and  C20_34
REMARK   15  A    between atoms: C20_34  and  O9_36
REMARK   16  A    between atoms: O9_36  and  C21_37
ROOT
HETATM    1  C9  UNL     1      -2.981 -39.453  16.335  1.00  0.00     0.120 C
ENDROOT
BRANCH   1   2
HETATM    2  C7  UNL     1      -2.711 -40.251  15.079  1.00  0.00     0.208 C
BRANCH   2   3
HETATM    3  N2  UNL     1      -2.545 -41.690  15.334  1.00  0.00    -0.344 N
HETATM    4  C6  UNL     1      -1.605 -42.430  14.544  1.00  0.00     0.224 C
HETATM    5  O3  UNL     1      -0.954 -41.797  13.695  1.00  0.00    -0.273 OA
ATOM      6  H2  UNL     1      -3.090 -42.154  16.061  1.00  0.00     0.163 HD
BRANCH   4   7
HETATM    7  C5  UNL     1      -1.459 -43.877  14.757  1.00  0.00     0.099 C
BRANCH   7   8
HETATM    8  C4  UNL     1      -0.302 -44.443  14.056  1.00  0.00     0.137 C
BRANCH   8   9
HETATM    9  N1  UNL     1       0.991 -44.314  14.693  1.00  0.00    -0.358 N
HETATM   10  C3  UNL     1       2.085 -43.624  14.132  1.00  0.00     0.241 C
HETATM   11  O2  UNL     1       1.907 -43.087  12.989  1.00  0.00    -0.271 OA
ATOM     12  H1  UNL     1       1.119 -44.750  15.606  1.00  0.00     0.162 HD
BRANCH  10  13
HETATM   13  C2  UNL     1       3.372 -43.517  14.829  1.00  0.00     0.269 C
BRANCH  13  14
HETATM   14  O1  UNL     1       3.758 -44.710  15.381  1.00  0.00    -0.387 OA
HETATM   15  C1  UNL     1       4.464 -45.487  14.483  1.00  0.00     0.202 C
ENDBRANCH  13  14
ENDBRANCH  10  13
ENDBRANCH   8   9
ENDBRANCH   7   8
BRANCH   7  16
HETATM   16  C28 UNL     1      -2.795 -44.534  14.501  1.00  0.00    -0.008 C
HETATM   17  C29 UNL     1      -3.286 -44.450  13.100  1.00  0.00     0.010 C
HETATM   18  C30 UNL     1      -2.976 -45.885  15.136  1.00  0.00     0.010 C
ENDBRANCH   7  16
ENDBRANCH   4   7
ENDBRANCH   2   3
BRANCH   2  19
HETATM   19  C8  UNL     1      -3.814 -40.198  14.073  1.00  0.00     0.198 C
HETATM   20  O4  UNL     1      -4.938 -40.721  14.332  1.00  0.00    -0.646 OA
HETATM   21  O5  UNL     1      -3.619 -39.592  12.861  1.00  0.00    -0.646 OA
ENDBRANCH   2  19
ENDBRANCH   1   2
BRANCH   1  22
HETATM   22  C10 UNL     1      -1.677 -38.871  16.843  1.00  0.00     0.032 C
BRANCH  22  23
HETATM   23  C11 UNL     1      -1.844 -37.659  17.723  1.00  0.00    -0.013 C
HETATM   24  C12 UNL     1      -0.471 -37.037  17.932  1.00  0.00     0.005 C
HETATM   25  C13 UNL     1      -0.425 -35.567  18.013  1.00  0.00     0.000 C
HETATM   26  C14 UNL     1      -1.127 -34.997  16.795  1.00  0.00     0.000 C
HETATM   27  C15 UNL     1      -2.586 -35.316  17.029  1.00  0.00     0.000 C
HETATM   28  C16 UNL     1      -2.896 -36.742  17.260  1.00  0.00     0.005 C
ENDBRANCH  22  23
ENDBRANCH   1  22
BRANCH   1  29
HETATM   29  N3  UNL     1      -3.589 -40.211  17.389  1.00  0.00    -0.330 N
HETATM   30  C17 UNL     1      -4.838 -40.480  17.896  1.00  0.00     0.361 C
HETATM   31  O6  UNL     1      -5.947 -40.074  17.499  1.00  0.00    -0.238 OA
ATOM     32  H3  UNL     1      -2.876 -40.702  17.928  1.00  0.00     0.165 HD
BRANCH  30  33
HETATM   33  O7  UNL     1      -5.013 -41.334  19.036  1.00  0.00    -0.296 OA
BRANCH  33  34
HETATM   34  C18 UNL     1      -5.347 -40.838  20.311  1.00  0.00     0.161 C
HETATM   35  C19 UNL     1      -6.544 -41.495  20.896  1.00  0.00     0.161 C
HETATM   36  N4  UNL     1      -6.238 -41.674  22.292  1.00  0.00    -0.325 N
HETATM   37  C20 UNL     1      -7.149 -41.928  23.366  1.00  0.00     0.363 C
HETATM   38  C24 UNL     1      -4.816 -41.556  22.533  1.00  0.00     0.139 C
HETATM   39  O8  UNL     1      -8.371 -41.984  23.078  1.00  0.00    -0.238 OA
HETATM   40  C25 UNL     1      -4.222 -41.123  21.241  1.00  0.00    -0.003 C
HETATM   41  C26 UNL     1      -3.396 -39.855  21.376  1.00  0.00     0.019 C
HETATM   42  C27 UNL     1      -3.388 -42.259  20.684  1.00  0.00     0.019 C
BRANCH  37  43
HETATM   43  O9  UNL     1      -6.785 -42.116  24.683  1.00  0.00    -0.299 OA
BRANCH  43  44
HETATM   44  C21 UNL     1      -7.168 -41.208  25.710  1.00  0.00     0.125 C
HETATM   45  C22 UNL     1      -5.934 -40.604  26.320  1.00  0.00     0.040 C
HETATM   46  C23 UNL     1      -7.999 -41.841  26.792  1.00  0.00     0.040 C
ENDBRANCH  43  44
ENDBRANCH  37  43
ENDBRANCH  33  34
ENDBRANCH  30  33
ENDBRANCH   1  29
TORSDOF 16
ENDMDL