MODEL 3
REMARK VINA RESULT: -8.190638325      2.366      4.144
REMARK  18 active torsions:
REMARK  status: ('A' for Active; 'I' for Inactive)
REMARK    1  A    between atoms: C2_2  and  C4_4
REMARK    2  A    between atoms: C4_4  and  C5_5
REMARK    3  A    between atoms: C5_5  and  C6_6
REMARK    4  A    between atoms: C5_5  and  N1_8
REMARK       I    between atoms: N1_8  and  C7_10
REMARK    5  A    between atoms: C7_10  and  C8_12
REMARK    6  A    between atoms: C8_12  and  C9_13
REMARK    7  A    between atoms: C8_12  and  N3_40
REMARK    8  A    between atoms: C9_13  and  C10_14
REMARK    9  A    between atoms: C11_15  and  O3_16
REMARK   10  A    between atoms: O3_16  and  C12_17
REMARK       I    between atoms: C12_17  and  N2_19
REMARK   11  A    between atoms: N2_19  and  C13_21
REMARK   12  A    between atoms: C13_21  and  C14_22
REMARK   13  A    between atoms: C13_21  and  C19_27
REMARK   14  A    between atoms: C14_22  and  C15_23
REMARK   15  A    between atoms: C19_27  and  O5_28
REMARK   16  A    between atoms: C19_27  and  C20_30
REMARK       I    between atoms: N3_40  and  C29_42
REMARK   17  A    between atoms: C29_42  and  O8_44
REMARK   18  A    between atoms: O8_44  and  C30_45
ROOT
HETATM    1  C10 UNL     1      -1.129 -42.331  15.725  1.00  0.00     0.024 C
HETATM    2  C11 UNL     1      -0.156 -42.770  14.584  1.00  0.00     0.143 C
HETATM    3  C24 UNL     1      -1.064 -43.582  13.757  1.00  0.00     0.039 C
HETATM    4  C25 UNL     1      -2.398 -42.891  13.771  1.00  0.00     0.068 C
HETATM    5  C26 UNL     1      -2.975 -44.234  13.734  1.00  0.00     0.137 C
HETATM    6  O6  UNL     1      -3.848 -44.912  13.239  1.00  0.00    -0.297 OA
HETATM    7  C27 UNL     1      -1.878 -44.397  14.681  1.00  0.00     0.068 C
HETATM    8  C28 UNL     1      -2.329 -43.068  15.260  1.00  0.00     0.016 C
ENDROOT
BRANCH   1   9
HETATM    9  C9  UNL     1      -1.171 -40.858  15.630  1.00  0.00     0.042 C
BRANCH   9  10
HETATM   10  C8  UNL     1      -2.231 -40.080  16.331  1.00  0.00     0.179 C
BRANCH  10  11
HETATM   11  C7  UNL     1      -1.980 -38.644  16.349  1.00  0.00     0.241 C
HETATM   12  N1  UNL     1      -1.248 -38.062  17.407  1.00  0.00    -0.348 N
ATOM     13  H1  UNL     1      -0.930 -38.675  18.157  1.00  0.00     0.163 HD
HETATM   14  O2  UNL     1      -2.400 -37.928  15.422  1.00  0.00    -0.271 OA
BRANCH  12  15
HETATM   15  C5  UNL     1      -0.919 -36.665  17.500  1.00  0.00     0.146 C
BRANCH  15  16
HETATM   16  C4  UNL     1      -1.716 -35.971  18.526  1.00  0.00     0.036 C
BRANCH  16  17
HETATM   17  C2  UNL     1      -3.008 -35.351  18.131  1.00  0.00    -0.020 C
HETATM   18  C1  UNL     1      -4.203 -36.284  18.189  1.00  0.00     0.009 C
HETATM   19  C3  UNL     1      -2.973 -34.492  16.905  1.00  0.00     0.009 C
ENDBRANCH  16  17
ENDBRANCH  15  16
BRANCH  15  20
HETATM   20  C6  UNL     1       0.548 -36.448  17.618  1.00  0.00     0.256 C
HETATM   21  O1  UNL     1       0.972 -35.456  18.176  1.00  0.00    -0.305 OA
ENDBRANCH  15  20
ENDBRANCH  12  15
ENDBRANCH  10  11
BRANCH  10  22
HETATM   22  N3  UNL     1      -2.184 -40.605  17.727  1.00  0.00    -0.324 N
HETATM   23  C29 UNL     1      -3.403 -40.793  18.391  1.00  0.00     0.362 C
HETATM   24  O7  UNL     1      -4.509 -40.536  17.850  1.00  0.00    -0.238 OA
ATOM     25  H3  UNL     1      -1.297 -40.821  18.181  1.00  0.00     0.165 HD
BRANCH  23  26
HETATM   26  O8  UNL     1      -3.426 -41.274  19.687  1.00  0.00    -0.294 OA
BRANCH  26  27
HETATM   27  C30 UNL     1      -3.048 -40.534  20.824  1.00  0.00     0.061 C
HETATM   28  C31 UNL     1      -3.153 -39.042  20.585  1.00  0.00     0.046 C
HETATM   29  C32 UNL     1      -1.657 -40.917  21.248  1.00  0.00     0.046 C
HETATM   30  C33 UNL     1      -4.028 -40.927  21.936  1.00  0.00     0.046 C
ENDBRANCH  26  27
ENDBRANCH  23  26
ENDBRANCH  10  22
ENDBRANCH   9  10
ENDBRANCH   1   9
BRANCH   2  31
HETATM   31  O3  UNL     1       0.849 -43.590  15.151  1.00  0.00    -0.298 OA
BRANCH  31  32
HETATM   32  C12 UNL     1       1.781 -44.175  14.307  1.00  0.00     0.361 C
HETATM   33  O4  UNL     1       2.598 -43.410  13.731  1.00  0.00    -0.238 OA
HETATM   34  N2  UNL     1       1.863 -45.574  14.064  1.00  0.00    -0.330 N
ATOM     35  H2  UNL     1       1.212 -46.212  14.520  1.00  0.00     0.165 HD
BRANCH  34  36
HETATM   36  C13 UNL     1       2.877 -46.089  13.163  1.00  0.00     0.116 C
BRANCH  36  37
HETATM   37  C14 UNL     1       2.242 -46.368  11.836  1.00  0.00     0.032 C
BRANCH  37  38
HETATM   38  C15 UNL     1       0.882 -46.983  12.024  1.00  0.00    -0.013 C
HETATM   39  C16 UNL     1      -0.213 -46.051  11.473  1.00  0.00     0.005 C
HETATM   40  C17 UNL     1      -0.901 -47.255  10.875  1.00  0.00     0.001 C
HETATM   41  C18 UNL     1       0.448 -47.977  10.978  1.00  0.00     0.005 C
ENDBRANCH  37  38
ENDBRANCH  36  37
BRANCH  36  42
HETATM   42  C19 UNL     1       3.425 -47.331  13.838  1.00  0.00     0.145 C
BRANCH  42  43
HETATM   43  O5  UNL     1       2.644 -47.508  14.995  1.00  0.00    -0.393 OA
ATOM     44  H5  UNL     1       2.192 -48.334  14.874  1.00  0.00     0.210 HD
ENDBRANCH  42  43
BRANCH  42  45
HETATM   45  C20 UNL     1       4.849 -47.229  14.264  1.00  0.00     0.016 C
HETATM   46  C21 UNL     1       5.169 -45.769  14.586  1.00  0.00     0.007 C
HETATM   47  C22 UNL     1       5.678 -46.160  15.940  1.00  0.00     0.001 C
HETATM   48  C23 UNL     1       5.168 -47.554  15.692  1.00  0.00     0.007 C
ENDBRANCH  42  45
ENDBRANCH  36  42
ENDBRANCH  34  36
ENDBRANCH  31  32
ENDBRANCH   2  31
TORSDOF 18
ENDMDL