MODEL 5
REMARK VINA RESULT: -8.175580881      1.773      2.548
REMARK  18 active torsions:
REMARK  status: ('A' for Active; 'I' for Inactive)
REMARK    1  A    between atoms: C2_2  and  C3_3
REMARK    2  A    between atoms: C3_3  and  C5_5
REMARK    3  A    between atoms: C5_5  and  N1_6
REMARK    4  A    between atoms: C5_5  and  C11_14
REMARK       I    between atoms: N1_6  and  C6_7
REMARK    5  A    between atoms: C6_7  and  O2_9
REMARK    6  A    between atoms: O2_9  and  C7_10
REMARK       I    between atoms: C11_14  and  N2_16
REMARK    7  A    between atoms: N2_16  and  C12_18
REMARK    8  A    between atoms: C12_18  and  C13_19
REMARK    9  A    between atoms: C12_18  and  C30_47
REMARK       I    between atoms: C13_19  and  N3_21
REMARK   10  A    between atoms: N3_21  and  C14_23
REMARK   11  A    between atoms: C14_23  and  C15_24
REMARK   12  A    between atoms: C14_23  and  C22_31
REMARK   13  A    between atoms: C15_24  and  C16_25
REMARK   14  A    between atoms: C22_31  and  O5_32
REMARK   15  A    between atoms: C22_31  and  C23_34
REMARK       I    between atoms: C23_34  and  N4_36
REMARK   16  A    between atoms: N4_36  and  C24_38
REMARK   17  A    between atoms: C24_38  and  C25_39
REMARK   18  A    between atoms: C25_39  and  C26_40
ROOT
HETATM    1  C13 UNL     1      -3.092 -42.825  15.181  1.00  0.00     0.241 C
HETATM    2  O4  UNL     1      -2.721 -43.690  16.046  1.00  0.00    -0.271 OA
HETATM    3  N3  UNL     1      -3.050 -43.248  13.768  1.00  0.00    -0.349 N
ATOM      4  H3  UNL     1      -3.274 -42.620  12.996  1.00  0.00     0.163 HD
ENDROOT
BRANCH   3   5
HETATM    5  C14 UNL     1      -2.664 -44.633  13.570  1.00  0.00     0.147 C
BRANCH   5   6
HETATM    6  C15 UNL     1      -3.793 -45.515  13.319  1.00  0.00     0.037 C
BRANCH   6   7
HETATM    7  C16 UNL     1      -3.702 -46.909  13.884  1.00  0.00    -0.012 C
HETATM    8  C17 UNL     1      -3.658 -47.931  12.775  1.00  0.00     0.005 C
HETATM    9  C18 UNL     1      -2.297 -48.164  12.230  1.00  0.00     0.000 C
HETATM   10  C19 UNL     1      -1.182 -47.965  13.248  1.00  0.00     0.000 C
HETATM   11  C20 UNL     1      -1.764 -48.284  14.617  1.00  0.00     0.000 C
HETATM   12  C21 UNL     1      -2.743 -47.144  14.963  1.00  0.00     0.005 C
ENDBRANCH   6   7
ENDBRANCH   5   6
BRANCH   5  13
HETATM   13  C22 UNL     1      -1.749 -44.597  12.413  1.00  0.00     0.134 C
BRANCH  13  14
HETATM   14  O5  UNL     1      -2.200 -44.960  11.235  1.00  0.00    -0.358 OA
ATOM     15  H5  UNL     1      -2.524 -45.846  11.120  1.00  0.00     0.217 HD
ENDBRANCH  13  14
BRANCH  13  16
HETATM   16  C23 UNL     1      -0.373 -44.170  12.377  1.00  0.00     0.272 C
HETATM   17  O6  UNL     1      -0.141 -42.985  12.667  1.00  0.00    -0.266 OA
HETATM   18  N4  UNL     1       0.626 -45.084  12.023  1.00  0.00    -0.355 N
ATOM     19  H4  UNL     1       0.316 -46.022  11.769  1.00  0.00     0.162 HD
BRANCH  18  20
HETATM   20  C24 UNL     1       2.058 -44.840  11.978  1.00  0.00     0.129 C
BRANCH  20  21
HETATM   21  C25 UNL     1       2.711 -46.130  12.504  1.00  0.00     0.078 C
BRANCH  21  22
HETATM   22  C26 UNL     1       3.338 -45.909  13.811  1.00  0.00     0.029 A
HETATM   23  C27 UNL     1       3.200 -44.653  14.502  1.00  0.00     0.114 A
HETATM   24  N5  UNL     1       3.930 -44.779  15.620  1.00  0.00    -0.360 N
HETATM   25  C28 UNL     1       4.497 -45.998  15.661  1.00  0.00     0.182 A
ATOM     26  H5  UNL     1       4.039 -44.058  16.334  1.00  0.00     0.166 HD
HETATM   27  N6  UNL     1       4.132 -46.672  14.546  1.00  0.00    -0.350 N
HETATM   28  C29 UNL     1       4.618 -47.982  14.228  1.00  0.00     0.156 C
ENDBRANCH  21  22
ENDBRANCH  20  21
ENDBRANCH  18  20
ENDBRANCH  13  16
ENDBRANCH   5  13
ENDBRANCH   3   5
BRANCH   1  29
HETATM   29  C12 UNL     1      -3.538 -41.516  15.572  1.00  0.00     0.180 C
BRANCH  29  30
HETATM   30  N2  UNL     1      -3.210 -41.159  16.933  1.00  0.00    -0.345 N
HETATM   31  C11 UNL     1      -3.988 -40.849  18.022  1.00  0.00     0.254 C
HETATM   32  O3  UNL     1      -5.201 -40.811  18.074  1.00  0.00    -0.270 OA
ATOM     33  H2  UNL     1      -2.207 -41.131  17.122  1.00  0.00     0.163 HD
BRANCH  31  34
HETATM   34  C5  UNL     1      -3.256 -40.505  19.356  1.00  0.00     0.264 C
BRANCH  34  35
HETATM   35  C3  UNL     1      -1.745 -40.771  18.940  1.00  0.00     0.026 C
HETATM   36  C4  UNL     1      -1.053 -39.383  19.256  1.00  0.00     0.014 C
BRANCH  35  37
HETATM   37  C2  UNL     1      -1.034 -41.749  19.841  1.00  0.00     0.003 C
HETATM   38  C1  UNL     1      -1.023 -43.112  19.093  1.00  0.00     0.005 C
ENDBRANCH  35  37
ENDBRANCH  34  35
BRANCH  34  39
HETATM   39  N1  UNL     1      -3.370 -39.266  19.760  1.00  0.00    -0.375 NA
HETATM   40  C6  UNL     1      -3.533 -37.942  20.290  1.00  0.00     0.436 C
HETATM   41  O1  UNL     1      -3.953 -37.492  21.263  1.00  0.00    -0.221 OA
BRANCH  40  42
HETATM   42  O2  UNL     1      -3.026 -37.022  19.302  1.00  0.00    -0.283 OA
BRANCH  42  43
HETATM   43  C7  UNL     1      -3.520 -36.639  18.105  1.00  0.00     0.062 C
HETATM   44  C8  UNL     1      -4.931 -37.117  17.860  1.00  0.00     0.046 C
HETATM   45  C9  UNL     1      -3.653 -35.075  18.226  1.00  0.00     0.046 C
HETATM   46  C10 UNL     1      -2.685 -36.943  16.904  1.00  0.00     0.046 C
ENDBRANCH  42  43
ENDBRANCH  40  42
ENDBRANCH  34  39
ENDBRANCH  31  34
ENDBRANCH  29  30
BRANCH  29  47
HETATM   47  C30 UNL     1      -2.801 -40.436  14.691  1.00  0.00     0.009 C
HETATM   48  C31 UNL     1      -1.511 -40.078  15.378  1.00  0.00     0.012 C
HETATM   49  C32 UNL     1      -3.703 -39.300  14.440  1.00  0.00     0.012 C
ENDBRANCH  29  47
ENDBRANCH   1  29
TORSDOF 18
ENDMDL