MODEL 4
REMARK VINA RESULT: -8.151902985      2.246     10.267
REMARK  19 active torsions:
REMARK  status: ('A' for Active; 'I' for Inactive)
REMARK    1  A    between atoms: C2_2  and  C3_3
REMARK    2  A    between atoms: C3_3  and  C4_4
REMARK    3  A    between atoms: C3_3  and  C25_32
REMARK    4  A    between atoms: C4_4  and  C5_5
REMARK    5  A    between atoms: C8_8  and  C9_9
REMARK       I    between atoms: C9_9  and  N1_11
REMARK    6  A    between atoms: N1_11  and  C10_13
REMARK    7  A    between atoms: C10_13  and  C11_14
REMARK    8  A    between atoms: C10_13  and  C18_23
REMARK    9  A    between atoms: C11_14  and  C12_15
REMARK       I    between atoms: C12_15  and  N2_17
REMARK   10  A    between atoms: C18_23  and  O4_25
REMARK   11  A    between atoms: O4_25  and  C19_26
REMARK       I    between atoms: C25_32  and  N3_34
REMARK   12  A    between atoms: N3_34  and  C26_36
REMARK   13  A    between atoms: C26_36  and  C27_37
REMARK   14  A    between atoms: C26_36  and  C28_39
REMARK   15  A    between atoms: C28_39  and  O7_40
REMARK   16  A    between atoms: C28_39  and  C29_42
REMARK   17  A    between atoms: C29_42  and  O8_43
REMARK   18  A    between atoms: C29_42  and  C30_45
REMARK   19  A    between atoms: C30_45  and  C31_46
ROOT
HETATM    1  C5  UNL     1      -1.782 -43.991  13.536  1.00  0.00    -0.014 C
HETATM    2  C6  UNL     1      -0.869 -42.877  13.219  1.00  0.00     0.005 C
HETATM    3  C7  UNL     1      -1.141 -41.676  14.158  1.00  0.00     0.014 C
HETATM    4  C8  UNL     1      -2.640 -41.512  14.134  1.00  0.00     0.078 C
HETATM    5  C23 UNL     1      -3.183 -42.607  15.072  1.00  0.00     0.014 C
HETATM    6  C24 UNL     1      -2.266 -43.780  14.986  1.00  0.00     0.005 C
ENDROOT
BRANCH   1   7
HETATM    7  C4  UNL     1      -1.390 -45.377  13.324  1.00  0.00     0.018 C
BRANCH   7   8
HETATM    8  C3  UNL     1      -1.550 -46.529  14.180  1.00  0.00     0.078 C
BRANCH   8   9
HETATM    9  C2  UNL     1      -2.656 -47.482  14.184  1.00  0.00     0.009 C
HETATM   10  C1  UNL     1      -3.932 -47.181  13.484  1.00  0.00     0.006 C
ENDBRANCH   8   9
BRANCH   8  11
HETATM   11  C25 UNL     1      -0.274 -47.369  14.072  1.00  0.00     0.222 C
HETATM   12  O5  UNL     1       0.096 -47.678  12.923  1.00  0.00    -0.273 OA
HETATM   13  N3  UNL     1       0.428 -47.756  15.233  1.00  0.00    -0.347 N
ATOM     14  H3  UNL     1       0.075 -47.483  16.150  1.00  0.00     0.163 HD
BRANCH  13  15
HETATM   15  C26 UNL     1       1.663 -48.548  15.136  1.00  0.00     0.177 C
BRANCH  15  16
HETATM   16  C27 UNL     1       1.695 -49.643  16.130  1.00  0.00     0.258 C
HETATM   17  O6  UNL     1       2.491 -50.538  15.991  1.00  0.00    -0.305 OA
ENDBRANCH  15  16
BRANCH  15  18
HETATM   18  C28 UNL     1       2.846 -47.607  15.262  1.00  0.00     0.176 C
BRANCH  18  19
HETATM   19  O7  UNL     1       3.679 -47.933  16.299  1.00  0.00    -0.391 OA
ATOM     20  H7  UNL     1       4.118 -47.178  16.673  1.00  0.00     0.210 HD
ENDBRANCH  18  19
BRANCH  18  21
HETATM   21  C29 UNL     1       3.504 -47.303  13.955  1.00  0.00     0.149 C
BRANCH  21  22
HETATM   22  O8  UNL     1       4.652 -48.051  13.741  1.00  0.00    -0.393 OA
ATOM     23  H8  UNL     1       5.436 -47.631  14.077  1.00  0.00     0.210 HD
ENDBRANCH  21  22
BRANCH  21  24
HETATM   24  C30 UNL     1       3.690 -45.827  13.714  1.00  0.00     0.038 C
BRANCH  24  25
HETATM   25  C31 UNL     1       2.432 -45.023  13.720  1.00  0.00    -0.020 C
HETATM   26  C32 UNL     1       2.043 -44.805  12.246  1.00  0.00     0.009 C
HETATM   27  C33 UNL     1       2.633 -43.634  14.293  1.00  0.00     0.009 C
ENDBRANCH  24  25
ENDBRANCH  21  24
ENDBRANCH  18  21
ENDBRANCH  15  18
ENDBRANCH  13  15
ENDBRANCH   8  11
ENDBRANCH   7   8
ENDBRANCH   1   7
BRANCH   4  28
HETATM   28  C9  UNL     1      -3.142 -40.186  14.468  1.00  0.00     0.222 C
HETATM   29  O1  UNL     1      -3.569 -39.456  13.495  1.00  0.00    -0.273 OA
HETATM   30  N1  UNL     1      -3.186 -39.659  15.782  1.00  0.00    -0.346 N
ATOM     31  H1  UNL     1      -2.846 -40.233  16.553  1.00  0.00     0.163 HD
BRANCH  30  32
HETATM   32  C10 UNL     1      -3.692 -38.349  16.064  1.00  0.00     0.193 C
BRANCH  32  33
HETATM   33  C11 UNL     1      -4.747 -38.317  17.115  1.00  0.00     0.138 C
BRANCH  33  34
HETATM   34  C12 UNL     1      -5.169 -39.606  17.648  1.00  0.00     0.222 C
HETATM   35  O2  UNL     1      -5.823 -40.407  16.962  1.00  0.00    -0.273 OA
HETATM   36  N2  UNL     1      -4.836 -39.982  18.973  1.00  0.00    -0.352 N
HETATM   37  C13 UNL     1      -4.084 -39.084  19.805  1.00  0.00     0.125 C
HETATM   38  C17 UNL     1      -5.228 -41.270  19.523  1.00  0.00     0.125 C
HETATM   39  C14 UNL     1      -3.856 -39.746  21.151  1.00  0.00     0.020 C
HETATM   40  C15 UNL     1      -3.198 -41.104  20.973  1.00  0.00     0.003 C
HETATM   41  C16 UNL     1      -3.996 -41.990  20.060  1.00  0.00     0.020 C
ENDBRANCH  33  34
ENDBRANCH  32  33
BRANCH  32  42
HETATM   42  C18 UNL     1      -2.575 -37.398  16.359  1.00  0.00     0.283 C
HETATM   43  O3  UNL     1      -1.961 -36.883  15.400  1.00  0.00    -0.263 OA
BRANCH  42  44
HETATM   44  O4  UNL     1      -2.231 -37.102  17.661  1.00  0.00    -0.310 OA
BRANCH  44  45
HETATM   45  C19 UNL     1      -1.038 -37.620  18.214  1.00  0.00     0.060 C
HETATM   46  C20 UNL     1      -0.992 -39.144  18.177  1.00  0.00     0.045 C
HETATM   47  C21 UNL     1       0.173 -37.020  17.540  1.00  0.00     0.045 C
HETATM   48  C22 UNL     1      -1.002 -37.191  19.684  1.00  0.00     0.045 C
ENDBRANCH  44  45
ENDBRANCH  42  44
ENDBRANCH  32  42
ENDBRANCH  30  32
ENDBRANCH   4  28
TORSDOF 19
ENDMDL