MODEL 3
REMARK VINA RESULT: -8.570745132      1.337      2.225
REMARK  18 active torsions:
REMARK  status: ('A' for Active; 'I' for Inactive)
REMARK    1  A    between atoms: C2_2  and  C3_3
REMARK    2  A    between atoms: C3_3  and  N1_4
REMARK    3  A    between atoms: N1_4  and  C4_6
REMARK    4  A    between atoms: C4_6  and  C5_7
REMARK    5  A    between atoms: C5_7  and  C6_8
REMARK    6  A    between atoms: C5_7  and  N4_32
REMARK    7  A    between atoms: C6_8  and  C7_9
REMARK    8  A    between atoms: C9_12  and  C10_13
REMARK    9  A    between atoms: C13_16  and  N2_17
REMARK   10  A    between atoms: N2_17  and  C14_19
REMARK   11  A    between atoms: C14_19  and  C16_21
REMARK   12  A    between atoms: C16_21  and  N3_23
REMARK       I    between atoms: N3_23  and  C18_24
REMARK   13  A    between atoms: C18_24  and  O3_26
REMARK   14  A    between atoms: N4_32  and  C23_34
REMARK   15  A    between atoms: C23_34  and  C24_35
REMARK   16  A    between atoms: C24_35  and  C25_37
REMARK   17  A    between atoms: C25_37  and  O6_38
REMARK   18  A    between atoms: C31_46  and  C32_47
ROOT
HETATM    1  C5  UNL     1      -2.352 -43.547  14.976  1.00  0.00     0.103 C
ENDROOT
BRANCH   1   2
HETATM    2  C4  UNL     1      -2.402 -43.254  16.421  1.00  0.00     0.144 C
BRANCH   2   3
HETATM    3  N1  UNL     1      -1.951 -44.254  17.322  1.00  0.00    -0.397 N
ATOM      4  H1  UNL     1      -2.536 -45.058  17.547  1.00  0.00     0.158 HD
BRANCH   3   5
HETATM    5  C3  UNL     1      -0.670 -44.106  17.899  1.00  0.00     0.082 C
BRANCH   5   6
HETATM    6  C2  UNL     1       0.438 -44.893  17.398  1.00  0.00     0.006 C
HETATM    7  C1  UNL     1       0.533 -46.150  17.184  1.00  0.00     0.012 C
ENDBRANCH   5   6
ENDBRANCH   3   5
ENDBRANCH   2   3
ENDBRANCH   1   2
BRANCH   1   8
HETATM    8  C6  UNL     1      -2.688 -44.916  14.513  1.00  0.00     0.087 C
BRANCH   8   9
HETATM    9  C7  UNL     1      -1.949 -45.579  13.431  1.00  0.00     0.262 C
HETATM   10  O1  UNL     1      -1.804 -44.974  12.215  1.00  0.00    -0.359 OA
HETATM   11  C8  UNL     1      -0.750 -45.665  11.595  1.00  0.00     0.203 C
HETATM   12  C9  UNL     1       0.116 -46.028  12.776  1.00  0.00     0.152 C
HETATM   13  O4  UNL     1      -0.595 -45.664  13.887  1.00  0.00    -0.353 OA
BRANCH  12  14
HETATM   14  C10 UNL     1       1.453 -45.308  12.705  1.00  0.00     0.017 C
HETATM   15  C11 UNL     1       1.634 -44.490  13.939  1.00  0.00     0.009 C
HETATM   16  C12 UNL     1       3.076 -44.413  14.397  1.00  0.00     0.025 C
HETATM   17  C13 UNL     1       3.681 -45.749  14.703  1.00  0.00     0.080 C
HETATM   18  C20 UNL     1       2.660 -46.797  14.161  1.00  0.00     0.004 C
HETATM   19  C21 UNL     1       3.108 -48.186  14.400  1.00  0.00     0.012 C
HETATM   20  C22 UNL     1       2.486 -46.459  12.700  1.00  0.00     0.013 C
BRANCH  17  21
HETATM   21  N2  UNL     1       3.976 -46.113  15.975  1.00  0.00    -0.410 N
ATOM     22  H2  UNL     1       3.276 -46.744  16.366  1.00  0.00     0.154 HD
BRANCH  21  23
HETATM   23  C14 UNL     1       4.967 -45.847  16.855  1.00  0.00     0.108 C
HETATM   24  C15 UNL     1       4.657 -44.567  17.662  1.00  0.00     0.035 C
BRANCH  23  25
HETATM   25  C16 UNL     1       5.370 -46.957  17.854  1.00  0.00     0.187 C
HETATM   26  C17 UNL     1       4.256 -47.441  18.700  1.00  0.00     0.050 C
BRANCH  25  27
HETATM   27  N3  UNL     1       6.151 -47.882  17.199  1.00  0.00    -0.383 NA
HETATM   28  C18 UNL     1       6.920 -48.791  16.554  1.00  0.00     0.434 C
HETATM   29  O2  UNL     1       6.976 -50.025  16.641  1.00  0.00    -0.221 OA
BRANCH  28  30
HETATM   30  O3  UNL     1       7.848 -48.257  15.593  1.00  0.00    -0.298 OA
HETATM   31  C19 UNL     1       7.464 -47.389  14.588  1.00  0.00     0.216 C
ENDBRANCH  28  30
ENDBRANCH  25  27
ENDBRANCH  23  25
ENDBRANCH  21  23
ENDBRANCH  17  21
ENDBRANCH  12  14
ENDBRANCH   8   9
ENDBRANCH   1   8
BRANCH   1  32
HETATM   32  N4  UNL     1      -2.971 -42.584  14.147  1.00  0.00    -0.389 N
ATOM     33  H4  UNL     1      -3.804 -42.873  13.634  1.00  0.00     0.159 HD
BRANCH  32  34
HETATM   34  C23 UNL     1      -2.542 -41.297  13.978  1.00  0.00     0.143 C
BRANCH  34  35
HETATM   35  C24 UNL     1      -3.509 -40.164  14.189  1.00  0.00     0.237 C
HETATM   36  O5  UNL     1      -3.716 -39.395  13.256  1.00  0.00    -0.282 OA
BRANCH  35  37
HETATM   37  C25 UNL     1      -4.152 -40.019  15.468  1.00  0.00     0.191 C
HETATM   38  N5  UNL     1      -4.038 -39.309  16.627  1.00  0.00    -0.349 N
HETATM   39  C26 UNL     1      -5.019 -39.767  17.693  1.00  0.00     0.130 C
HETATM   40  C31 UNL     1      -3.260 -38.212  17.057  1.00  0.00     0.034 C
HETATM   41  C27 UNL     1      -5.132 -38.884  18.847  1.00  0.00     0.004 C
HETATM   42  C28 UNL     1      -4.063 -39.064  19.911  1.00  0.00     0.006 C
HETATM   43  C35 UNL     1      -5.203 -37.427  18.469  1.00  0.00     0.009 C
HETATM   44  C29 UNL     1      -2.827 -38.255  19.559  1.00  0.00     0.003 C
HETATM   45  C30 UNL     1      -2.367 -38.695  18.217  1.00  0.00     0.031 C
HETATM   46  C34 UNL     1      -4.124 -37.038  17.524  1.00  0.00     0.031 C
BRANCH  37  47
HETATM   47  O6  UNL     1      -5.221 -40.871  15.526  1.00  0.00    -0.343 OA
ATOM     48  H6  UNL     1      -5.785 -40.611  16.245  1.00  0.00     0.219 HD
ENDBRANCH  37  47
BRANCH  40  49
HETATM   49  C32 UNL     1      -2.306 -37.590  16.073  1.00  0.00     0.027 C
HETATM   50  C33 UNL     1      -2.004 -36.135  16.524  1.00  0.00     0.007 C
ENDBRANCH  40  49
ENDBRANCH  35  37
ENDBRANCH  34  35
ENDBRANCH  32  34
ENDBRANCH   1  32
TORSDOF 18
ENDMDL