MODEL 1
REMARK VINA RESULT: -7.566341325      0.000      0.000
REMARK  22 active torsions:
REMARK  status: ('A' for Active; 'I' for Inactive)
REMARK    1  A    between atoms: C2_2  and  C3_3
REMARK    2  A    between atoms: C3_3  and  C5_5
REMARK    3  A    between atoms: C5_5  and  C6_6
REMARK    4  A    between atoms: C5_5  and  C9_12
REMARK    5  A    between atoms: C6_6  and  O1_7
REMARK    6  A    between atoms: C6_6  and  N1_9
REMARK    7  A    between atoms: C9_12  and  C11_14
REMARK    8  A    between atoms: C11_14  and  C12_15
REMARK    9  A    between atoms: C12_15  and  O2_16
REMARK   10  A    between atoms: C12_15  and  C13_18
REMARK       I    between atoms: C13_18  and  N2_20
REMARK   11  A    between atoms: N2_20  and  C14_22
REMARK   12  A    between atoms: C14_22  and  C15_23
REMARK   13  A    between atoms: C14_22  and  C22_34
REMARK   14  A    between atoms: C15_23  and  C16_24
REMARK   15  A    between atoms: C16_24  and  O4_25
REMARK   16  A    between atoms: C16_24  and  C17_27
REMARK       I    between atoms: C22_34  and  N4_36
REMARK   17  A    between atoms: N4_36  and  C23_38
REMARK   18  A    between atoms: C23_38  and  C24_39
REMARK   19  A    between atoms: C23_38  and  C31_46
REMARK   20  A    between atoms: C24_39  and  C25_40
REMARK   21  A    between atoms: C31_46  and  O6_47
REMARK   22  A    between atoms: C31_46  and  C32_49
ROOT
HETATM    1  C14 UNL     1      -3.723 -40.289  15.906  1.00  0.00     0.179 C
ENDROOT
BRANCH   1   2
HETATM    2  N2  UNL     1      -3.797 -40.687  17.289  1.00  0.00    -0.342 N
HETATM    3  C13 UNL     1      -5.053 -40.753  18.019  1.00  0.00     0.275 C
HETATM    4  O3  UNL     1      -6.031 -40.427  17.327  1.00  0.00    -0.265 OA
ATOM      5  H2  UNL     1      -2.934 -40.933  17.775  1.00  0.00     0.163 HD
BRANCH   3   6
HETATM    6  C12 UNL     1      -5.117 -41.151  19.376  1.00  0.00     0.134 C
BRANCH   6   7
HETATM    7  C11 UNL     1      -4.827 -40.622  20.643  1.00  0.00     0.045 C
BRANCH   7   8
HETATM    8  C9  UNL     1      -3.898 -40.675  21.530  1.00  0.00    -0.069 C
HETATM    9  C10 UNL     1      -4.234 -40.937  22.982  1.00  0.00     0.044 C
BRANCH   8  10
HETATM   10  C5  UNL     1      -2.403 -40.486  21.262  1.00  0.00     0.092 C
BRANCH  10  11
HETATM   11  C3  UNL     1      -2.098 -39.570  20.202  1.00  0.00    -0.003 C
HETATM   12  C4  UNL     1      -0.905 -39.969  19.332  1.00  0.00     0.011 C
BRANCH  11  13
HETATM   13  C2  UNL     1      -1.931 -38.158  20.702  1.00  0.00     0.001 C
HETATM   14  C1  UNL     1      -1.249 -38.110  22.056  1.00  0.00     0.005 C
ENDBRANCH  11  13
ENDBRANCH  10  11
BRANCH  10  15
HETATM   15  C6  UNL     1      -1.889 -41.858  21.256  1.00  0.00     0.121 C
BRANCH  15  16
HETATM   16  O1  UNL     1      -0.848 -42.000  22.028  1.00  0.00    -0.349 OA
ATOM     17  H1  UNL     1      -0.033 -41.989  21.540  1.00  0.00     0.219 HD
ENDBRANCH  15  16
BRANCH  15  18
HETATM   18  N1  UNL     1      -2.279 -43.002  20.609  1.00  0.00    -0.374 N
HETATM   19  C7  UNL     1      -2.942 -44.079  21.365  1.00  0.00     0.150 C
HETATM   20  C8  UNL     1      -2.108 -43.261  19.213  1.00  0.00     0.150 C
ENDBRANCH  15  18
ENDBRANCH  10  15
ENDBRANCH   8  10
ENDBRANCH   7   8
ENDBRANCH   6   7
BRANCH   6  21
HETATM   21  O2  UNL     1      -5.602 -42.410  19.457  1.00  0.00    -0.356 OA
ATOM     22  H2  UNL     1      -5.627 -42.834  18.606  1.00  0.00     0.218 HD
ENDBRANCH   6  21
ENDBRANCH   3   6
ENDBRANCH   1   2
BRANCH   1  23
HETATM   23  C15 UNL     1      -2.679 -39.210  15.689  1.00  0.00     0.067 C
BRANCH  23  24
HETATM   24  C16 UNL     1      -3.160 -37.842  16.050  1.00  0.00     0.129 C
BRANCH  24  25
HETATM   25  O4  UNL     1      -4.454 -37.855  16.563  1.00  0.00    -0.395 OA
ATOM     26  H4  UNL     1      -4.737 -36.994  16.849  1.00  0.00     0.210 HD
ENDBRANCH  24  25
BRANCH  24  27
HETATM   27  C17 UNL     1      -2.257 -37.259  17.108  1.00  0.00     0.052 C
HETATM   28  C18 UNL     1      -2.737 -35.978  17.652  1.00  0.00     0.062 C
HETATM   29  N3  UNL     1      -1.929 -35.216  18.253  1.00  0.00    -0.402 N
HETATM   30  C19 UNL     1      -0.552 -35.424  18.493  1.00  0.00     0.118 C
ATOM     31  H3  UNL     1      -2.318 -34.343  18.610  1.00  0.00     0.158 HD
HETATM   32  C20 UNL     1      -0.032 -36.713  17.904  1.00  0.00     0.020 C
HETATM   33  C21 UNL     1      -0.840 -37.097  16.657  1.00  0.00     0.014 C
ENDBRANCH  24  27
ENDBRANCH  23  24
ENDBRANCH   1  23
BRANCH   1  34
HETATM   34  C22 UNL     1      -3.446 -41.462  14.998  1.00  0.00     0.240 C
HETATM   35  O5  UNL     1      -4.202 -41.528  14.000  1.00  0.00    -0.271 OA
HETATM   36  N4  UNL     1      -2.408 -42.320  15.358  1.00  0.00    -0.352 N
ATOM     37  H4  UNL     1      -1.929 -42.082  16.227  1.00  0.00     0.163 HD
BRANCH  36  38
HETATM   38  C23 UNL     1      -1.912 -43.491  14.684  1.00  0.00     0.116 C
BRANCH  38  39
HETATM   39  C24 UNL     1      -1.939 -44.710  15.549  1.00  0.00     0.032 C
BRANCH  39  40
HETATM   40  C25 UNL     1      -3.067 -45.665  15.249  1.00  0.00    -0.013 C
HETATM   41  C26 UNL     1      -2.451 -47.063  15.315  1.00  0.00     0.005 C
HETATM   42  C27 UNL     1      -1.931 -47.480  13.955  1.00  0.00     0.000 C
HETATM   43  C28 UNL     1      -3.140 -47.845  13.118  1.00  0.00     0.000 C
HETATM   44  C29 UNL     1      -4.135 -46.724  13.285  1.00  0.00     0.000 C
HETATM   45  C30 UNL     1      -3.536 -45.457  13.808  1.00  0.00     0.005 C
ENDBRANCH  39  40
ENDBRANCH  38  39
BRANCH  38  46
HETATM   46  C31 UNL     1      -0.569 -43.171  14.111  1.00  0.00     0.177 C
BRANCH  46  47
HETATM   47  O6  UNL     1      -0.834 -42.169  13.112  1.00  0.00    -0.390 OA
ATOM     48  H6  UNL     1      -0.492 -42.540  12.307  1.00  0.00     0.210 HD
ENDBRANCH  46  47
BRANCH  46  49
HETATM   49  C32 UNL     1       0.115 -44.269  13.365  1.00  0.00     0.106 A
HETATM   50  C33 UNL     1      -0.468 -44.657  11.991  1.00  0.00     0.051 C
HETATM   51  C34 UNL     1       1.629 -44.254  13.375  1.00  0.00     0.209 A
HETATM   52  O7  UNL     1       0.859 -45.242  14.016  1.00  0.00    -0.373 OA
ENDBRANCH  46  49
ENDBRANCH  38  46
ENDBRANCH  36  38
ENDBRANCH   1  34
TORSDOF 22
ENDMDL