MODEL 5
REMARK VINA RESULT: -8.062480601      2.746      9.715
REMARK  18 active torsions:
REMARK  status: ('A' for Active; 'I' for Inactive)
REMARK    1  A    between atoms: C2_2  and  C4_4
REMARK    2  A    between atoms: C4_4  and  C5_5
REMARK    3  A    between atoms: C5_5  and  N1_6
REMARK    4  A    between atoms: C5_5  and  C11_15
REMARK       I    between atoms: N1_6  and  C6_8
REMARK    5  A    between atoms: C6_8  and  O2_10
REMARK    6  A    between atoms: O2_10  and  C7_11
REMARK       I    between atoms: C11_15  and  N2_17
REMARK    7  A    between atoms: N2_17  and  C12_19
REMARK    8  A    between atoms: C12_19  and  C13_20
REMARK    9  A    between atoms: C12_19  and  C17_25
REMARK   10  A    between atoms: C13_20  and  O4_21
REMARK   11  A    between atoms: O4_21  and  C14_22
REMARK       I    between atoms: C17_25  and  N3_27
REMARK   12  A    between atoms: N3_27  and  C18_29
REMARK   13  A    between atoms: C18_29  and  C19_30
REMARK   14  A    between atoms: C18_29  and  C27_38
REMARK   15  A    between atoms: C19_30  and  C20_31
REMARK   16  A    between atoms: C20_31  and  C21_32
REMARK   17  A    between atoms: C21_32  and  C23_34
REMARK       I    between atoms: C27_38  and  N4_40
REMARK   18  A    between atoms: C31_44  and  C32_45
ROOT
HETATM    1  C12 UNL     1      -3.891 -40.388  15.551  1.00  0.00     0.200 C
ENDROOT
BRANCH   1   2
HETATM    2  N2  UNL     1      -3.874 -40.484  16.987  1.00  0.00    -0.344 N
HETATM    3  C11 UNL     1      -4.981 -40.495  17.850  1.00  0.00     0.241 C
HETATM    4  O3  UNL     1      -6.139 -40.401  17.378  1.00  0.00    -0.271 OA
ATOM      5  H2  UNL     1      -2.956 -40.553  17.426  1.00  0.00     0.163 HD
BRANCH   3   6
HETATM    6  C5  UNL     1      -4.805 -40.612  19.330  1.00  0.00     0.179 C
BRANCH   6   7
HETATM    7  C4  UNL     1      -3.313 -40.822  19.564  1.00  0.00     0.038 C
BRANCH   7   8
HETATM    8  C2  UNL     1      -2.626 -39.629  20.139  1.00  0.00    -0.020 C
HETATM    9  C1  UNL     1      -1.335 -39.441  19.329  1.00  0.00     0.009 C
HETATM   10  C3  UNL     1      -2.195 -39.794  21.571  1.00  0.00     0.009 C
ENDBRANCH   7   8
ENDBRANCH   6   7
BRANCH   6  11
HETATM   11  N1  UNL     1      -5.517 -41.804  19.805  1.00  0.00    -0.324 N
HETATM   12  C6  UNL     1      -5.816 -41.837  21.222  1.00  0.00     0.362 C
HETATM   13  O1  UNL     1      -5.461 -40.899  21.977  1.00  0.00    -0.238 OA
ATOM     14  H1  UNL     1      -5.785 -42.563  19.177  1.00  0.00     0.165 HD
BRANCH  12  15
HETATM   15  O2  UNL     1      -6.503 -42.891  21.815  1.00  0.00    -0.294 OA
BRANCH  15  16
HETATM   16  C7  UNL     1      -7.775 -42.688  22.375  1.00  0.00     0.061 C
HETATM   17  C8  UNL     1      -8.622 -43.950  22.172  1.00  0.00     0.046 C
HETATM   18  C9  UNL     1      -8.498 -41.534  21.731  1.00  0.00     0.046 C
HETATM   19  C10 UNL     1      -7.741 -42.480  23.884  1.00  0.00     0.046 C
ENDBRANCH  15  16
ENDBRANCH  12  15
ENDBRANCH   6  11
ENDBRANCH   3   6
ENDBRANCH   1   2
BRANCH   1  20
HETATM   20  C13 UNL     1      -3.434 -38.971  15.095  1.00  0.00     0.202 C
BRANCH  20  21
HETATM   21  O4  UNL     1      -2.722 -38.463  16.110  1.00  0.00    -0.384 OA
BRANCH  21  22
HETATM   22  C14 UNL     1      -2.715 -37.159  16.425  1.00  0.00     0.113 C
HETATM   23  C15 UNL     1      -3.698 -36.968  17.590  1.00  0.00     0.039 C
HETATM   24  C16 UNL     1      -1.389 -36.596  16.843  1.00  0.00     0.039 C
ENDBRANCH  21  22
ENDBRANCH  20  21
ENDBRANCH   1  20
BRANCH   1  25
HETATM   25  C17 UNL     1      -3.038 -41.404  14.931  1.00  0.00     0.243 C
HETATM   26  O5  UNL     1      -2.504 -41.141  13.806  1.00  0.00    -0.271 OA
HETATM   27  N3  UNL     1      -2.781 -42.673  15.506  1.00  0.00    -0.346 N
ATOM     28  H3  UNL     1      -3.181 -42.870  16.423  1.00  0.00     0.163 HD
BRANCH  27  29
HETATM   29  C18 UNL     1      -1.990 -43.710  14.876  1.00  0.00     0.176 C
BRANCH  29  30
HETATM   30  C19 UNL     1      -2.856 -44.735  14.231  1.00  0.00     0.035 C
BRANCH  30  31
HETATM   31  C20 UNL     1      -2.368 -44.999  12.798  1.00  0.00     0.007 C
BRANCH  31  32
HETATM   32  C21 UNL     1      -2.541 -46.467  12.517  1.00  0.00    -0.011 C
HETATM   33  C22 UNL     1      -3.187 -47.106  13.761  1.00  0.00     0.011 C
BRANCH  32  34
HETATM   34  C23 UNL     1      -1.199 -47.147  12.274  1.00  0.00    -0.048 C
HETATM   35  C24 UNL     1      -1.364 -48.271  11.304  1.00  0.00     0.015 C
HETATM   36  C25 UNL     1      -0.217 -46.148  11.668  1.00  0.00     0.015 C
HETATM   37  C26 UNL     1      -0.608 -47.624  13.577  1.00  0.00     0.015 C
ENDBRANCH  32  34
ENDBRANCH  31  32
ENDBRANCH  30  31
ENDBRANCH  29  30
BRANCH  29  38
HETATM   38  C27 UNL     1      -0.925 -44.190  15.757  1.00  0.00     0.243 C
HETATM   39  O6  UNL     1      -1.258 -44.333  17.002  1.00  0.00    -0.271 OA
HETATM   40  N4  UNL     1       0.400 -44.518  15.475  1.00  0.00    -0.336 N
HETATM   41  C28 UNL     1       1.299 -45.064  16.539  1.00  0.00     0.127 C
HETATM   42  C31 UNL     1       1.209 -44.407  14.288  1.00  0.00     0.188 C
HETATM   43  C29 UNL     1       2.216 -45.971  15.787  1.00  0.00     0.022 C
HETATM   44  C30 UNL     1       2.336 -45.404  14.417  1.00  0.00     0.038 C
BRANCH  42  45
HETATM   45  C32 UNL     1       1.850 -43.060  14.195  1.00  0.00     0.196 C
HETATM   46  O7  UNL     1       1.237 -42.026  13.879  1.00  0.00    -0.646 OA
HETATM   47  O8  UNL     1       3.207 -42.961  14.476  1.00  0.00    -0.646 OA
ENDBRANCH  42  45
ENDBRANCH  29  38
ENDBRANCH  27  29
ENDBRANCH   1  25
TORSDOF 18
ENDMDL