MODEL 3
REMARK VINA RESULT: -7.705180130      2.257      9.427
REMARK  17 active torsions:
REMARK  status: ('A' for Active; 'I' for Inactive)
REMARK    1  A    between atoms: C2_2  and  C3_3
REMARK    2  A    between atoms: C5_5  and  C6_6
REMARK    3  A    between atoms: C6_6  and  N1_7
REMARK       I    between atoms: N1_7  and  C7_9
REMARK    4  A    between atoms: N2_14  and  C11_15
REMARK    5  A    between atoms: C11_15  and  C12_16
REMARK    6  A    between atoms: C12_16  and  N3_17
REMARK    7  A    between atoms: C12_16  and  C31_47
REMARK       I    between atoms: N3_17  and  C13_19
REMARK    8  A    between atoms: C13_19  and  C14_21
REMARK    9  A    between atoms: C17_25  and  O4_26
REMARK   10  A    between atoms: C19_28  and  C20_29
REMARK       I    between atoms: C20_29  and  N4_31
REMARK   11  A    between atoms: N4_31  and  C21_33
REMARK   12  A    between atoms: C21_33  and  C22_34
REMARK   13  A    between atoms: C21_33  and  C28_44
REMARK   14  A    between atoms: C22_34  and  C23_36
REMARK   15  A    between atoms: C23_36  and  C24_37
REMARK   16  A    between atoms: C23_36  and  N5_40
REMARK   17  A    between atoms: C24_37  and  C25_38
ROOT
HETATM    1  C14 UNL     1      -0.639 -44.175  17.902  1.00  0.00     0.161 A
HETATM    2  O3  UNL     1      -0.480 -44.329  19.234  1.00  0.00    -0.306 OA
HETATM    3  C15 UNL     1       0.577 -45.053  19.473  1.00  0.00     0.084 A
HETATM    4  C16 UNL     1       1.132 -45.472  20.788  1.00  0.00     0.079 C
HETATM    5  C17 UNL     1       1.146 -45.395  18.253  1.00  0.00     0.116 A
HETATM    6  C19 UNL     1       0.335 -44.810  17.268  1.00  0.00     0.107 A
ENDROOT
BRANCH   1   7
HETATM    7  C13 UNL     1      -1.790 -43.390  17.370  1.00  0.00     0.277 C
HETATM    8  N3  UNL     1      -1.518 -42.375  16.455  1.00  0.00    -0.345 N
ATOM      9  H3  UNL     1      -0.545 -42.286  16.165  1.00  0.00     0.163 HD
HETATM   10  O2  UNL     1      -2.912 -43.684  17.789  1.00  0.00    -0.265 OA
BRANCH   8  11
HETATM   11  C12 UNL     1      -2.463 -41.408  15.851  1.00  0.00     0.130 C
BRANCH  11  12
HETATM   12  C11 UNL     1      -1.967 -40.055  16.268  1.00  0.00     0.084 C
BRANCH  12  13
HETATM   13  N2  UNL     1      -2.505 -39.315  17.284  1.00  0.00    -0.383 N
HETATM   14  C3  UNL     1      -2.161 -37.995  17.541  1.00  0.00     0.106 C
HETATM   15  C4  UNL     1      -2.745 -37.296  18.709  1.00  0.00     0.035 C
HETATM   16  C5  UNL     1      -3.857 -37.959  19.421  1.00  0.00     0.007 C
HETATM   17  C9  UNL     1      -4.624 -38.859  18.505  1.00  0.00     0.026 C
HETATM   18  C10 UNL     1      -3.697 -39.828  17.880  1.00  0.00     0.123 C
BRANCH  14  19
HETATM   19  C2  UNL     1      -2.421 -37.094  16.355  1.00  0.00    -0.012 C
HETATM   20  C1  UNL     1      -2.426 -35.795  16.520  1.00  0.00     0.009 C
ENDBRANCH  14  19
BRANCH  16  21
HETATM   21  C6  UNL     1      -3.483 -38.616  20.725  1.00  0.00     0.127 C
BRANCH  21  22
HETATM   22  N1  UNL     1      -2.523 -37.739  21.394  1.00  0.00    -0.361 N
HETATM   23  C7  UNL     1      -1.421 -38.281  22.102  1.00  0.00     0.213 C
HETATM   24  C8  UNL     1      -0.461 -37.365  22.784  1.00  0.00     0.117 C
HETATM   25  O1  UNL     1      -1.246 -39.519  22.162  1.00  0.00    -0.274 OA
ATOM     26  H1  UNL     1      -2.648 -36.728  21.351  1.00  0.00     0.162 HD
ENDBRANCH  21  22
ENDBRANCH  16  21
ENDBRANCH  12  13
ENDBRANCH  11  12
BRANCH  11  27
HETATM   27  C31 UNL     1      -2.593 -41.646  14.389  1.00  0.00    -0.026 C
HETATM   28  C32 UNL     1      -1.210 -41.802  13.724  1.00  0.00     0.017 C
HETATM   29  C33 UNL     1      -3.296 -40.552  13.629  1.00  0.00     0.017 C
HETATM   30  C34 UNL     1      -3.304 -42.936  14.044  1.00  0.00     0.017 C
ENDBRANCH  11  27
ENDBRANCH   8  11
ENDBRANCH   1   7
BRANCH   6  31
HETATM   31  C20 UNL     1       0.676 -44.861  15.838  1.00  0.00     0.261 C
HETATM   32  O5  UNL     1       1.002 -43.802  15.240  1.00  0.00    -0.267 OA
HETATM   33  N4  UNL     1       0.653 -46.071  15.112  1.00  0.00    -0.323 N
ATOM     34  H4  UNL     1       0.337 -46.881  15.645  1.00  0.00     0.169 HD
BRANCH  33  35
HETATM   35  C21 UNL     1       0.997 -46.345  13.767  1.00  0.00     0.064 C
BRANCH  35  36
HETATM   36  C22 UNL     1      -0.139 -46.522  12.795  1.00  0.00     0.202 C
HETATM   37  O6  UNL     1      -0.447 -45.573  12.127  1.00  0.00    -0.289 OA
BRANCH  36  38
HETATM   38  C23 UNL     1      -0.859 -47.791  12.638  1.00  0.00     0.260 C
BRANCH  38  39
HETATM   39  C24 UNL     1      -2.121 -47.918  13.499  1.00  0.00     0.041 C
BRANCH  39  40
HETATM   40  C25 UNL     1      -3.376 -47.828  12.695  1.00  0.00    -0.002 C
HETATM   41  C26 UNL     1      -4.300 -46.797  13.350  1.00  0.00     0.005 C
ENDBRANCH  39  40
ENDBRANCH  38  39
BRANCH  38  42
HETATM   42  N5  UNL     1      -1.429 -47.750  11.247  1.00  0.00    -0.068 N
HETATM   43  C27 UNL     1      -0.537 -48.571  10.399  1.00  0.00     0.267 C
ATOM     44  H52 UNL     1      -2.406 -48.040  11.204  1.00  0.00     0.277 HD
ATOM     45  H51 UNL     1      -1.561 -46.803  10.894  1.00  0.00     0.277 HD
ENDBRANCH  38  42
ENDBRANCH  36  38
ENDBRANCH  35  36
BRANCH  35  46
HETATM   46  C28 UNL     1       2.111 -47.316  13.589  1.00  0.00     0.031 C
HETATM   47  C29 UNL     1       2.227 -48.304  14.719  1.00  0.00     0.016 C
HETATM   48  C30 UNL     1       3.417 -46.511  13.515  1.00  0.00     0.016 C
ENDBRANCH  35  46
ENDBRANCH  33  35
ENDBRANCH   6  31
BRANCH   5  49
HETATM   49  O4  UNL     1       2.267 -46.147  18.006  1.00  0.00    -0.352 OA
HETATM   50  C18 UNL     1       3.563 -45.560  17.942  1.00  0.00     0.210 C
ENDBRANCH   5  49
TORSDOF 17
ENDMDL