MODEL 4
REMARK VINA RESULT: -7.920822916      1.600      2.699
REMARK  15 active torsions:
REMARK  status: ('A' for Active; 'I' for Inactive)
REMARK    1  A    between atoms: C2_2  and  C4_4
REMARK    2  A    between atoms: C4_4  and  C5_5
REMARK    3  A    between atoms: C5_5  and  N1_6
REMARK    4  A    between atoms: C5_5  and  C19_26
REMARK       I    between atoms: N1_6  and  C6_8
REMARK    5  A    between atoms: C6_8  and  C7_10
REMARK    6  A    between atoms: C7_10  and  N2_11
REMARK    7  A    between atoms: C7_10  and  C13_20
REMARK       I    between atoms: N2_11  and  C8_13
REMARK    8  A    between atoms: C8_13  and  O3_15
REMARK    9  A    between atoms: O3_15  and  C9_16
REMARK       I    between atoms: C19_26  and  N3_28
REMARK   10  A    between atoms: N3_28  and  C20_30
REMARK   11  A    between atoms: C20_30  and  C21_31
REMARK   12  A    between atoms: C21_31  and  C23_33
REMARK       I    between atoms: C23_33  and  N4_35
REMARK       I    between atoms: N4_35  and  C24_37
REMARK   13  A    between atoms: C24_37  and  C25_39
REMARK   14  A    between atoms: C25_39  and  C26_40
REMARK   15  A    between atoms: C25_39  and  N5_43
ROOT
HETATM    1  C5  UNL     1      -2.401 -41.113  21.284  1.00  0.00     0.177 C
ENDROOT
BRANCH   1   2
HETATM    2  C4  UNL     1      -1.745 -40.473  22.413  1.00  0.00     0.038 C
BRANCH   2   3
HETATM    3  C2  UNL     1      -1.817 -40.796  23.828  1.00  0.00    -0.020 C
HETATM    4  C1  UNL     1      -0.781 -41.849  24.281  1.00  0.00     0.009 C
HETATM    5  C3  UNL     1      -3.197 -41.505  24.105  1.00  0.00     0.009 C
ENDBRANCH   2   3
ENDBRANCH   1   2
BRANCH   1   6
HETATM    6  N1  UNL     1      -2.858 -40.408  20.147  1.00  0.00    -0.346 N
HETATM    7  C6  UNL     1      -3.560 -39.246  19.889  1.00  0.00     0.241 C
HETATM    8  O1  UNL     1      -3.954 -38.510  20.820  1.00  0.00    -0.271 OA
ATOM      9  H1  UNL     1      -2.601 -40.887  19.283  1.00  0.00     0.163 HD
BRANCH   7  10
HETATM   10  C7  UNL     1      -3.891 -38.764  18.526  1.00  0.00     0.183 C
BRANCH  10  11
HETATM   11  N2  UNL     1      -3.630 -39.778  17.491  1.00  0.00    -0.323 N
HETATM   12  C8  UNL     1      -4.758 -39.983  16.608  1.00  0.00     0.362 C
HETATM   13  O2  UNL     1      -5.815 -39.292  16.804  1.00  0.00    -0.238 OA
ATOM     14  H2  UNL     1      -2.747 -40.281  17.405  1.00  0.00     0.165 HD
BRANCH  12  15
HETATM   15  O3  UNL     1      -4.797 -40.865  15.566  1.00  0.00    -0.293 OA
BRANCH  15  16
HETATM   16  C9  UNL     1      -3.826 -40.971  14.560  1.00  0.00     0.069 A
HETATM   17  C10 UNL     1      -4.107 -40.033  13.378  1.00  0.00     0.047 C
HETATM   18  C11 UNL     1      -3.281 -42.294  14.146  1.00  0.00     0.041 A
HETATM   19  C12 UNL     1      -2.407 -41.239  14.775  1.00  0.00     0.041 A
ENDBRANCH  15  16
ENDBRANCH  12  15
ENDBRANCH  10  11
BRANCH  10  20
HETATM   20  C13 UNL     1      -2.867 -37.692  18.114  1.00  0.00     0.018 C
HETATM   21  C14 UNL     1      -3.551 -36.518  17.478  1.00  0.00     0.007 C
HETATM   22  C15 UNL     1      -2.637 -35.326  17.695  1.00  0.00     0.000 C
HETATM   23  C16 UNL     1      -1.275 -35.613  17.173  1.00  0.00     0.000 C
HETATM   24  C17 UNL     1      -0.678 -36.942  17.471  1.00  0.00     0.000 C
HETATM   25  C18 UNL     1      -1.707 -38.083  17.327  1.00  0.00     0.007 C
ENDBRANCH  10  20
ENDBRANCH   7  10
ENDBRANCH   1   6
BRANCH   1  26
HETATM   26  C19 UNL     1      -1.672 -42.346  20.808  1.00  0.00     0.240 C
HETATM   27  O4  UNL     1      -0.393 -42.320  20.718  1.00  0.00    -0.271 OA
HETATM   28  N3  UNL     1      -2.320 -43.525  20.452  1.00  0.00    -0.358 N
ATOM     29  H3  UNL     1      -3.338 -43.573  20.506  1.00  0.00     0.162 HD
BRANCH  28  30
HETATM   30  C20 UNL     1      -1.558 -44.708  19.997  1.00  0.00     0.136 C
BRANCH  30  31
HETATM   31  C21 UNL     1      -2.016 -44.999  18.594  1.00  0.00     0.092 C
HETATM   32  C22 UNL     1      -3.525 -45.310  18.618  1.00  0.00     0.021 C
BRANCH  31  33
HETATM   33  C23 UNL     1      -1.317 -46.075  17.912  1.00  0.00     0.229 C
HETATM   34  O5  UNL     1      -1.429 -47.235  18.464  1.00  0.00    -0.273 OA
HETATM   35  N4  UNL     1      -0.542 -46.028  16.723  1.00  0.00    -0.295 N
HETATM   36  C24 UNL     1      -0.212 -44.977  15.909  1.00  0.00     0.247 C
ATOM     37  H4  UNL     1      -0.167 -46.929  16.425  1.00  0.00     0.171 HD
HETATM   38  O6  UNL     1      -0.615 -43.810  16.312  1.00  0.00    -0.271 OA
BRANCH  36  39
HETATM   39  C25 UNL     1       0.538 -44.978  14.600  1.00  0.00     0.185 C
BRANCH  39  40
HETATM   40  C26 UNL     1       1.297 -43.667  14.539  1.00  0.00     0.010 C
HETATM   41  C27 UNL     1       2.780 -43.744  14.541  1.00  0.00     0.012 C
HETATM   42  C28 UNL     1       0.802 -42.742  13.490  1.00  0.00     0.012 C
ENDBRANCH  39  40
BRANCH  39  43
HETATM   43  N5  UNL     1      -0.144 -45.399  13.464  1.00  0.00    -0.308 N
HETATM   44  C29 UNL     1       0.382 -45.791  12.198  1.00  0.00     0.364 C
HETATM   45  O7  UNL     1       1.508 -46.265  11.971  1.00  0.00    -0.238 OA
HETATM   46  O8  UNL     1      -0.573 -45.566  11.191  1.00  0.00    -0.302 OA
HETATM   47  C30 UNL     1      -1.836 -45.369  11.785  1.00  0.00     0.205 C
HETATM   48  C31 UNL     1      -1.607 -45.574  13.260  1.00  0.00     0.111 C
HETATM   49  C32 UNL     1      -2.086 -46.921  13.728  1.00  0.00     0.034 C
ENDBRANCH  39  43
ENDBRANCH  36  39
ENDBRANCH  31  33
ENDBRANCH  30  31
ENDBRANCH  28  30
ENDBRANCH   1  26
TORSDOF 15
ENDMDL