MODEL 1
REMARK VINA RESULT: -8.132782128      0.000      0.000
REMARK  19 active torsions:
REMARK  status: ('A' for Active; 'I' for Inactive)
REMARK    1  A    between atoms: C2_2  and  C3_3
REMARK    2  A    between atoms: C3_3  and  C4_4
REMARK    3  A    between atoms: C4_4  and  N1_5
REMARK       I    between atoms: N1_5  and  C5_7
REMARK    4  A    between atoms: C5_7  and  C6_9
REMARK    5  A    between atoms: C6_9  and  C7_10
REMARK    6  A    between atoms: C7_10  and  N2_11
REMARK    7  A    between atoms: N2_11  and  C8_13
REMARK    8  A    between atoms: C8_13  and  C9_14
REMARK    9  A    between atoms: C8_13  and  C12_24
REMARK   10  A    between atoms: C9_14  and  O2_15
REMARK   11  A    between atoms: O2_15  and  C10_16
REMARK   12  A    between atoms: C10_16  and  C11_17
REMARK   13  A    between atoms: C11_17  and  N3_18
REMARK   14  A    between atoms: N3_18  and  N4_20
REMARK   15  A    between atoms: N4_20  and  N5_21
REMARK       I    between atoms: C12_24  and  N6_26
REMARK   16  A    between atoms: N6_26  and  C13_28
REMARK   17  A    between atoms: C17_32  and  O4_33
REMARK   18  A    between atoms: C27_45  and  O6_46
REMARK   19  A    between atoms: O6_46  and  C28_47
ROOT
HETATM    1  C12 UNL     1      -2.623 -39.979  15.294  1.00  0.00     0.242 C
HETATM    2  O3  UNL     1      -3.134 -40.277  14.175  1.00  0.00    -0.271 OA
HETATM    3  N6  UNL     1      -1.743 -40.894  15.912  1.00  0.00    -0.354 N
ATOM      4  H6  UNL     1      -1.315 -40.661  16.809  1.00  0.00     0.162 HD
ENDROOT
BRANCH   3   5
HETATM    5  C13 UNL     1      -1.437 -42.196  15.260  1.00  0.00     0.088 C
HETATM    6  C14 UNL     1      -0.234 -42.118  14.422  1.00  0.00     0.026 C
HETATM    7  C15 UNL     1      -0.305 -42.479  12.978  1.00  0.00     0.013 C
HETATM    8  C16 UNL     1      -0.730 -43.855  12.585  1.00  0.00     0.064 A
HETATM    9  C17 UNL     1       0.076 -44.677  13.428  1.00  0.00     0.103 A
HETATM   10  C26 UNL     1      -0.181 -44.911  11.919  1.00  0.00     0.126 A
HETATM   11  C18 UNL     1      -0.753 -45.655  14.141  1.00  0.00     0.035 C
HETATM   12  C19 UNL     1      -1.798 -44.903  14.929  1.00  0.00     0.000 C
HETATM   13  C24 UNL     1      -1.516 -46.506  13.197  1.00  0.00     0.025 C
HETATM   14  C20 UNL     1      -2.910 -45.781  15.461  1.00  0.00     0.012 C
HETATM   15  C31 UNL     1      -1.005 -44.502  16.151  1.00  0.00     0.025 C
HETATM   16  C21 UNL     1      -2.031 -46.734  16.232  1.00  0.00     0.015 C
HETATM   17  C22 UNL     1      -1.361 -47.739  15.437  1.00  0.00     0.007 C
HETATM   18  C27 UNL     1      -1.243 -45.675  16.995  1.00  0.00     0.130 C
HETATM   19  C23 UNL     1      -1.617 -47.772  13.918  1.00  0.00     0.008 C
HETATM   20  C32 UNL     1      -1.322 -43.128  16.481  1.00  0.00     0.011 C
HETATM   21  C33 UNL     1      -2.491 -42.853  17.363  1.00  0.00     0.012 C
HETATM   22  C25 UNL     1      -0.867 -46.296  11.922  1.00  0.00     0.165 A
HETATM   23  O5  UNL     1       0.389 -46.000  11.601  1.00  0.00    -0.365 OA
BRANCH   9  24
HETATM   24  O4  UNL     1       1.418 -44.509  13.639  1.00  0.00    -0.386 OA
ATOM     25  H4  UNL     1       1.862 -44.645  14.469  1.00  0.00     0.210 HD
ENDBRANCH   9  24
BRANCH  18  26
HETATM   26  O6  UNL     1      -0.101 -46.313  17.468  1.00  0.00    -0.381 OA
BRANCH  26  27
HETATM   27  C28 UNL     1       1.054 -45.553  17.301  1.00  0.00     0.114 C
HETATM   28  C29 UNL     1       2.129 -46.351  16.587  1.00  0.00     0.039 C
HETATM   29  C30 UNL     1       1.586 -45.215  18.673  1.00  0.00     0.039 C
ENDBRANCH  26  27
ENDBRANCH  18  26
ENDBRANCH   3   5
BRANCH   1  30
HETATM   30  C8  UNL     1      -2.994 -38.679  15.885  1.00  0.00     0.193 C
BRANCH  30  31
HETATM   31  N2  UNL     1      -1.879 -37.817  16.041  1.00  0.00    -0.407 N
ATOM     32  H2  UNL     1      -0.925 -38.174  15.986  1.00  0.00     0.154 HD
BRANCH  31  33
HETATM   33  C7  UNL     1      -2.138 -36.430  16.276  1.00  0.00     0.124 C
BRANCH  33  34
HETATM   34  C6  UNL     1      -1.099 -35.792  17.154  1.00  0.00     0.122 C
BRANCH  34  35
HETATM   35  C5  UNL     1      -0.552 -36.610  18.222  1.00  0.00     0.219 C
HETATM   36  N1  UNL     1      -1.289 -36.768  19.459  1.00  0.00    -0.361 N
ATOM     37  H1  UNL     1      -2.181 -36.280  19.540  1.00  0.00     0.162 HD
HETATM   38  O1  UNL     1       0.535 -37.209  18.150  1.00  0.00    -0.274 OA
BRANCH  36  39
HETATM   39  C4  UNL     1      -0.871 -37.544  20.563  1.00  0.00     0.122 C
BRANCH  39  40
HETATM   40  C3  UNL     1      -1.798 -38.570  21.096  1.00  0.00     0.019 C
BRANCH  40  41
HETATM   41  C2  UNL     1      -2.198 -39.659  20.154  1.00  0.00    -0.003 C
HETATM   42  C1  UNL     1      -1.072 -40.253  19.402  1.00  0.00     0.005 C
ENDBRANCH  40  41
ENDBRANCH  39  40
ENDBRANCH  36  39
ENDBRANCH  34  35
ENDBRANCH  33  34
ENDBRANCH  31  33
ENDBRANCH  30  31
BRANCH  30  43
HETATM   43  C9  UNL     1      -3.944 -38.801  17.032  1.00  0.00     0.202 C
BRANCH  43  44
HETATM   44  O2  UNL     1      -5.099 -38.120  16.750  1.00  0.00    -0.387 OA
BRANCH  44  45
HETATM   45  C10 UNL     1      -5.815 -37.812  17.884  1.00  0.00     0.189 C
BRANCH  45  46
HETATM   46  C11 UNL     1      -7.251 -38.214  17.819  1.00  0.00     0.181 C
BRANCH  46  47
HETATM   47  N3  UNL     1      -7.389 -39.654  18.133  1.00  0.00    -0.251 N
ATOM     48  H3  UNL     1      -8.091 -40.213  17.648  1.00  0.00     0.197 HD
BRANCH  47  49
HETATM   49  N4  UNL     1      -6.667 -40.178  18.970  1.00  0.00    -0.248 NA
BRANCH  49  50
HETATM   50  N5  UNL     1      -5.965 -40.849  19.753  1.00  0.00    -0.261 N
ATOM     51  H52 UNL     1      -6.646 -41.588  19.582  1.00  0.00     0.193 HD
ATOM     52  H51 UNL     1      -5.315 -41.293  20.403  1.00  0.00     0.193 HD
ENDBRANCH  49  50
ENDBRANCH  47  49
ENDBRANCH  46  47
ENDBRANCH  45  46
ENDBRANCH  44  45
ENDBRANCH  43  44
ENDBRANCH  30  43
ENDBRANCH   1  30
TORSDOF 19
ENDMDL