MODEL 5
REMARK VINA RESULT: -7.553601062      2.726      5.481
REMARK  17 active torsions:
REMARK  status: ('A' for Active; 'I' for Inactive)
REMARK    1  A    between atoms: C2_2  and  C3_3
REMARK    2  A    between atoms: C3_3  and  C5_5
REMARK    3  A    between atoms: C5_5  and  N1_6
REMARK    4  A    between atoms: C5_5  and  C32_45
REMARK       I    between atoms: N1_6  and  C6_8
REMARK    5  A    between atoms: C6_8  and  C7_10
REMARK    6  A    between atoms: C7_10  and  O2_11
REMARK    7  A    between atoms: C7_10  and  N2_13
REMARK    8  A    between atoms: N2_13  and  C10_15
REMARK    9  A    between atoms: C10_15  and  C11_16
REMARK   10  A    between atoms: C10_15  and  C29_42
REMARK       I    between atoms: C11_16  and  N3_18
REMARK   11  A    between atoms: N3_18  and  C12_20
REMARK   12  A    between atoms: C12_20  and  C13_21
REMARK   13  A    between atoms: C12_20  and  C25_38
REMARK       I    between atoms: C13_21  and  N4_23
REMARK   14  A    between atoms: N4_23  and  C14_25
REMARK   15  A    between atoms: C14_25  and  C15_26
REMARK   16  A    between atoms: C18_31  and  C19_32
REMARK   17  A    between atoms: C19_32  and  C20_33
ROOT
HETATM    1  C11 UNL     1      -2.165 -42.597  18.738  1.00  0.00     0.268 C
HETATM    2  O3  UNL     1      -1.006 -43.072  18.587  1.00  0.00    -0.266 OA
HETATM    3  N3  UNL     1      -2.749 -41.881  17.712  1.00  0.00    -0.320 N
ATOM      4  H3  UNL     1      -3.668 -41.551  18.006  1.00  0.00     0.169 HD
ENDROOT
BRANCH   3   5
HETATM    5  C12 UNL     1      -2.496 -41.454  16.395  1.00  0.00     0.088 C
BRANCH   5   6
HETATM    6  C13 UNL     1      -1.909 -42.578  15.598  1.00  0.00     0.266 C
HETATM    7  O4  UNL     1      -0.948 -42.161  14.851  1.00  0.00    -0.266 OA
HETATM    8  N4  UNL     1      -2.236 -43.911  15.566  1.00  0.00    -0.337 N
ATOM      9  H4  UNL     1      -3.001 -44.208  16.171  1.00  0.00     0.164 HD
BRANCH   8  10
HETATM   10  C14 UNL     1      -1.595 -44.956  14.749  1.00  0.00     0.121 C
HETATM   11  C16 UNL     1      -2.249 -46.293  15.023  1.00  0.00     0.043 C
HETATM   12  C17 UNL     1      -3.359 -46.650  14.115  1.00  0.00     0.007 C
HETATM   13  C18 UNL     1      -2.824 -46.677  12.681  1.00  0.00    -0.014 C
HETATM   14  C23 UNL     1      -2.404 -45.308  12.359  1.00  0.00     0.007 C
HETATM   15  C24 UNL     1      -1.483 -44.619  13.315  1.00  0.00     0.043 C
BRANCH  10  16
HETATM   16  C15 UNL     1      -0.222 -45.104  15.295  1.00  0.00     0.202 C
HETATM   17  O5  UNL     1       0.787 -44.906  14.591  1.00  0.00    -0.646 OA
HETATM   18  O6  UNL     1      -0.065 -45.471  16.612  1.00  0.00    -0.646 OA
ENDBRANCH  10  16
BRANCH  13  19
HETATM   19  C19 UNL     1      -1.901 -47.807  12.458  1.00  0.00     0.008 C
BRANCH  19  20
HETATM   20  C20 UNL     1      -0.785 -47.647  11.504  1.00  0.00    -0.022 C
HETATM   21  C21 UNL     1       0.571 -47.459  12.156  1.00  0.00     0.009 C
HETATM   22  C22 UNL     1      -0.687 -48.581  10.362  1.00  0.00     0.009 C
ENDBRANCH  19  20
ENDBRANCH  13  19
ENDBRANCH   8  10
ENDBRANCH   5   6
BRANCH   5  23
HETATM   23  C25 UNL     1      -3.468 -40.594  15.697  1.00  0.00    -0.003 C
HETATM   24  C26 UNL     1      -4.063 -41.101  14.434  1.00  0.00     0.021 C
HETATM   25  C27 UNL     1      -4.579 -40.224  16.716  1.00  0.00     0.021 C
HETATM   26  C28 UNL     1      -2.844 -39.213  15.391  1.00  0.00     0.021 C
ENDBRANCH   5  23
ENDBRANCH   3   5
BRANCH   1  27
HETATM   27  C10 UNL     1      -2.857 -42.849  20.064  1.00  0.00     0.081 C
BRANCH  27  28
HETATM   28  N2  UNL     1      -2.871 -41.762  20.942  1.00  0.00    -0.350 N
HETATM   29  C9  UNL     1      -4.109 -41.079  21.125  1.00  0.00     0.152 C
BRANCH  28  30
HETATM   30  C7  UNL     1      -1.724 -41.069  21.337  1.00  0.00     0.316 C
BRANCH  30  31
HETATM   31  C6  UNL     1      -1.894 -39.559  21.050  1.00  0.00     0.267 C
HETATM   32  N1  UNL     1      -2.251 -39.124  19.738  1.00  0.00    -0.346 N
ATOM     33  H1  UNL     1      -2.400 -39.800  18.988  1.00  0.00     0.163 HD
HETATM   34  O1  UNL     1      -1.712 -38.789  21.988  1.00  0.00    -0.269 OA
BRANCH  32  35
HETATM   35  C5  UNL     1      -2.397 -37.690  19.492  1.00  0.00     0.157 C
BRANCH  35  36
HETATM   36  C3  UNL     1      -1.633 -37.266  18.283  1.00  0.00     0.011 C
HETATM   37  C4  UNL     1      -0.400 -38.069  17.986  1.00  0.00     0.012 C
BRANCH  36  38
HETATM   38  C2  UNL     1      -1.311 -35.803  18.209  1.00  0.00     0.002 C
HETATM   39  C1  UNL     1      -1.738 -35.086  16.978  1.00  0.00     0.005 C
ENDBRANCH  36  38
ENDBRANCH  35  36
BRANCH  35  40
HETATM   40  C32 UNL     1      -3.830 -37.363  19.527  1.00  0.00     0.145 C
HETATM   41  C33 UNL     1      -4.655 -37.028  18.336  1.00  0.00     0.093 C
HETATM   42  O7  UNL     1      -4.418 -37.352  20.594  1.00  0.00    -0.296 OA
ENDBRANCH  35  40
ENDBRANCH  32  35
ENDBRANCH  30  31
BRANCH  30  43
HETATM   43  O2  UNL     1      -1.206 -41.206  22.583  1.00  0.00    -0.362 OA
HETATM   44  C8  UNL     1      -1.242 -42.447  23.163  1.00  0.00     0.204 C
ENDBRANCH  30  43
ENDBRANCH  28  30
ENDBRANCH  27  28
BRANCH  27  45
HETATM   45  C29 UNL     1      -4.070 -43.692  19.987  1.00  0.00     0.033 C
HETATM   46  C30 UNL     1      -3.708 -44.838  18.998  1.00  0.00     0.016 C
HETATM   47  C31 UNL     1      -4.639 -44.308  21.182  1.00  0.00     0.016 C
ENDBRANCH  27  45
ENDBRANCH   1  27
TORSDOF 17
ENDMDL