MODEL 1
REMARK VINA RESULT: -8.086503880      0.000      0.000
REMARK  12 active torsions:
REMARK  status: ('A' for Active; 'I' for Inactive)
REMARK    1  A    between atoms: N1_2  and  C3_4
REMARK    2  A    between atoms: N2_7  and  C6_8
REMARK    3  A    between atoms: C6_8  and  C7_9
REMARK    4  A    between atoms: C7_9  and  C8_10
REMARK    5  A    between atoms: C8_10  and  C9_11
REMARK    6  A    between atoms: C9_11  and  C10_12
REMARK    7  A    between atoms: C10_12  and  C11_13
REMARK       I    between atoms: C11_13  and  N3_15
REMARK    8  A    between atoms: C16_22  and  N5_23
REMARK    9  A    between atoms: N5_23  and  C17_25
REMARK   10  A    between atoms: C17_25  and  O2_26
REMARK   11  A    between atoms: C17_25  and  C18_28
REMARK   12  A    between atoms: C18_28  and  C19_29
ROOT
HETATM    1  C11 UNL     1      -1.398 -46.857  12.815  1.00  0.00     0.219 C
HETATM    2  O1  UNL     1      -1.601 -47.999  13.290  1.00  0.00    -0.273 OA
HETATM    3  N3  UNL     1      -0.096 -46.399  12.477  1.00  0.00    -0.352 N
HETATM    4  C12 UNL     1       1.024 -47.281  12.694  1.00  0.00     0.126 C
HETATM    5  C13 UNL     1       2.224 -46.663  12.059  1.00  0.00     0.031 C
HETATM    6  C14 UNL     1       2.492 -45.244  12.560  1.00  0.00     0.044 C
HETATM    7  C15 UNL     1       3.116 -45.304  13.958  1.00  0.00     0.029 A
HETATM    8  N4  UNL     1       4.370 -45.675  14.195  1.00  0.00    -0.339 N
ATOM      9  H4  UNL     1       4.988 -45.944  13.430  1.00  0.00     0.168 HD
HETATM   10  C16 UNL     1       4.796 -45.687  15.443  1.00  0.00     0.147 A
HETATM   11  S1  UNL     1       3.453 -45.179  16.344  1.00  0.00    -0.057 SA
HETATM   12  C22 UNL     1       2.360 -44.963  15.037  1.00  0.00     0.009 A
HETATM   13  C23 UNL     1       0.914 -44.513  14.956  1.00  0.00     0.049 C
HETATM   14  C24 UNL     1       0.870 -43.669  13.726  1.00  0.00     0.012 C
HETATM   15  C25 UNL     1       1.330 -44.381  12.507  1.00  0.00     0.014 C
HETATM   16  C26 UNL     1       0.079 -45.092  11.937  1.00  0.00     0.131 C
ENDROOT
BRANCH   1  17
HETATM   17  C10 UNL     1      -2.582 -45.968  12.606  1.00  0.00     0.103 C
BRANCH  17  18
HETATM   18  C9  UNL     1      -3.394 -45.903  13.861  1.00  0.00     0.009 C
BRANCH  18  19
HETATM   19  C8  UNL     1      -2.762 -45.014  14.891  1.00  0.00     0.002 C
BRANCH  19  20
HETATM   20  C7  UNL     1      -2.767 -43.588  14.375  1.00  0.00     0.030 C
BRANCH  20  21
HETATM   21  C6  UNL     1      -2.402 -42.610  15.466  1.00  0.00     0.272 C
BRANCH  21  22
HETATM   22  N2  UNL     1      -1.929 -41.399  14.897  1.00  0.00     0.088 N
HETATM   23  C5  UNL     1      -2.860 -40.659  14.092  1.00  0.00     0.274 C
HETATM   24  C4  UNL     1      -3.917 -39.971  14.865  1.00  0.00     0.066 C
HETATM   25  C3  UNL     1      -3.589 -39.470  16.216  1.00  0.00     0.225 C
HETATM   26  C28 UNL     1      -2.290 -39.896  16.794  1.00  0.00     0.066 C
HETATM   27  C27 UNL     1      -1.301 -40.528  15.888  1.00  0.00     0.274 C
BRANCH  25  28
HETATM   28  N1  UNL     1      -3.812 -38.029  16.348  1.00  0.00     0.084 N
HETATM   29  C1  UNL     1      -4.639 -37.724  17.482  1.00  0.00     0.309 C
HETATM   30  C2  UNL     1      -2.621 -37.251  16.352  1.00  0.00     0.309 C
ENDBRANCH  25  28
ENDBRANCH  21  22
ENDBRANCH  20  21
ENDBRANCH  19  20
ENDBRANCH  18  19
ENDBRANCH  17  18
ENDBRANCH   1  17
BRANCH  10  31
HETATM   31  N5  UNL     1       5.993 -46.020  15.886  1.00  0.00    -0.344 N
ATOM     32  H5  UNL     1       6.337 -45.655  16.774  1.00  0.00     0.164 HD
BRANCH  31  33
HETATM   33  C17 UNL     1       6.801 -46.903  15.099  1.00  0.00     0.225 C
BRANCH  33  34
HETATM   34  O2  UNL     1       8.085 -46.409  14.949  1.00  0.00    -0.376 OA
ATOM     35  H2  UNL     1       8.195 -45.982  14.108  1.00  0.00     0.212 HD
ENDBRANCH  33  34
BRANCH  33  36
HETATM   36  C18 UNL     1       6.873 -48.242  15.809  1.00  0.00     0.112 C
BRANCH  36  37
HETATM   37  C19 UNL     1       5.772 -49.127  15.395  1.00  0.00     0.029 A
HETATM   38  C20 UNL     1       5.158 -49.114  14.138  1.00  0.00     0.114 A
HETATM   39  N6  UNL     1       4.202 -50.048  14.119  1.00  0.00    -0.360 N
HETATM   40  C21 UNL     1       4.184 -50.654  15.316  1.00  0.00     0.180 A
ATOM     41  H6  UNL     1       3.592 -50.263  13.331  1.00  0.00     0.166 HD
HETATM   42  N7  UNL     1       5.134 -50.095  16.085  1.00  0.00    -0.354 N
ATOM     43  H7  UNL     1       5.342 -50.362  17.048  1.00  0.00     0.166 HD
ENDBRANCH  36  37
ENDBRANCH  33  36
ENDBRANCH  31  33
ENDBRANCH  10  31
TORSDOF 12
ENDMDL