MODEL 3
REMARK VINA RESULT: -7.348748581      2.348      4.064
REMARK  16 active torsions:
REMARK  status: ('A' for Active; 'I' for Inactive)
REMARK    1  A    between atoms: C2_2  and  C4_4
REMARK    2  A    between atoms: C4_4  and  C5_5
REMARK    3  A    between atoms: C4_4  and  N4_26
REMARK    4  A    between atoms: C5_5  and  C6_6
REMARK    5  A    between atoms: N2_12  and  C9_13
REMARK    6  A    between atoms: C9_13  and  C11_15
REMARK    7  A    between atoms: C11_15  and  O2_16
REMARK    8  A    between atoms: C11_15  and  C12_18
REMARK    9  A    between atoms: C12_18  and  N3_19
REMARK   10  A    between atoms: N4_26  and  C19_27
REMARK   11  A    between atoms: C19_27  and  O3_28
REMARK   12  A    between atoms: C19_27  and  C20_30
REMARK   13  A    between atoms: C20_30  and  N5_31
REMARK   14  A    between atoms: C20_30  and  C26_40
REMARK       I    between atoms: N5_31  and  C21_33
REMARK   15  A    between atoms: C21_33  and  O5_35
REMARK   16  A    between atoms: O5_35  and  C22_36
ROOT
HETATM    1  C4  UNL     1      -1.645 -43.537  17.899  1.00  0.00     0.071 C
ENDROOT
BRANCH   1   2
HETATM    2  C2  UNL     1      -1.365 -44.952  18.162  1.00  0.00     0.038 C
HETATM    3  C1  UNL     1      -2.607 -45.825  18.071  1.00  0.00     0.017 C
HETATM    4  C3  UNL     1      -0.216 -45.591  17.504  1.00  0.00     0.017 C
ENDBRANCH   1   2
BRANCH   1   5
HETATM    5  C5  UNL     1      -2.038 -43.084  16.517  1.00  0.00     0.103 C
BRANCH   5   6
HETATM    6  C6  UNL     1      -1.116 -42.108  15.874  1.00  0.00     0.184 C
HETATM    7  C7  UNL     1      -1.673 -40.707  15.924  1.00  0.00     0.245 C
HETATM    8  O1  UNL     1      -1.406 -39.796  16.690  1.00  0.00    -0.271 OA
HETATM    9  N1  UNL     1      -2.596 -40.688  14.847  1.00  0.00    -0.322 N
HETATM   10  C8  UNL     1      -2.153 -41.674  13.869  1.00  0.00     0.182 C
ATOM     11  H1  UNL     1      -3.421 -40.092  14.772  1.00  0.00     0.169 HD
HETATM   12  N2  UNL     1      -1.091 -42.331  14.451  1.00  0.00    -0.356 N
BRANCH  12  13
HETATM   13  C9  UNL     1       0.047 -42.809  13.866  1.00  0.00     0.112 C
HETATM   14  C10 UNL     1       1.014 -43.360  14.881  1.00  0.00     0.035 C
BRANCH  13  15
HETATM   15  C11 UNL     1      -0.158 -43.674  12.648  1.00  0.00     0.158 C
BRANCH  15  16
HETATM   16  O2  UNL     1       0.519 -43.079  11.553  1.00  0.00    -0.392 OA
ATOM     17  H2  UNL     1       0.239 -42.175  11.478  1.00  0.00     0.210 HD
ENDBRANCH  15  16
BRANCH  15  18
HETATM   18  C12 UNL     1       0.382 -45.068  12.748  1.00  0.00     0.155 C
BRANCH  18  19
HETATM   19  N3  UNL     1      -0.698 -45.952  13.010  1.00  0.00    -0.391 N
HETATM   20  C13 UNL     1      -1.954 -45.712  12.444  1.00  0.00     0.058 C
HETATM   21  C14 UNL     1      -3.052 -45.279  13.375  1.00  0.00     0.044 C
HETATM   22  C15 UNL     1      -3.177 -46.074  14.624  1.00  0.00     0.005 C
HETATM   23  C16 UNL     1      -2.969 -47.534  14.380  1.00  0.00     0.002 C
HETATM   24  C17 UNL     1      -1.573 -47.912  14.067  1.00  0.00     0.020 C
HETATM   25  C18 UNL     1      -0.602 -46.767  14.158  1.00  0.00     0.122 C
ENDBRANCH  18  19
ENDBRANCH  15  18
ENDBRANCH  13  15
ENDBRANCH  12  13
ENDBRANCH   5   6
ENDBRANCH   1   5
BRANCH   1  26
HETATM   26  N4  UNL     1      -1.514 -42.697  18.765  1.00  0.00    -0.391 NA
BRANCH  26  27
HETATM   27  C19 UNL     1      -1.373 -41.813  19.685  1.00  0.00     0.213 C
BRANCH  27  28
HETATM   28  O3  UNL     1      -0.285 -41.918  20.505  1.00  0.00    -0.337 OA
ATOM     29  H3  UNL     1       0.197 -41.124  20.703  1.00  0.00     0.220 HD
ENDBRANCH  27  28
BRANCH  27  30
HETATM   30  C20 UNL     1      -2.174 -40.619  20.104  1.00  0.00     0.179 C
BRANCH  30  31
HETATM   31  N5  UNL     1      -3.141 -40.193  19.145  1.00  0.00    -0.323 N
HETATM   32  C21 UNL     1      -4.514 -40.022  19.487  1.00  0.00     0.362 C
HETATM   33  O4  UNL     1      -4.926 -40.240  20.677  1.00  0.00    -0.238 OA
ATOM     34  H5  UNL     1      -2.842 -40.006  18.188  1.00  0.00     0.165 HD
BRANCH  32  35
HETATM   35  O5  UNL     1      -5.447 -39.621  18.585  1.00  0.00    -0.294 OA
BRANCH  35  36
HETATM   36  C22 UNL     1      -5.571 -38.402  17.931  1.00  0.00     0.061 C
HETATM   37  C23 UNL     1      -4.821 -38.383  16.607  1.00  0.00     0.046 C
HETATM   38  C24 UNL     1      -6.953 -37.898  17.712  1.00  0.00     0.046 C
HETATM   39  C25 UNL     1      -4.864 -37.366  18.812  1.00  0.00     0.046 C
ENDBRANCH  35  36
ENDBRANCH  32  35
ENDBRANCH  30  31
BRANCH  30  40
HETATM   40  C26 UNL     1      -1.374 -39.466  20.626  1.00  0.00     0.009 C
HETATM   41  C27 UNL     1      -1.633 -39.109  22.056  1.00  0.00     0.012 C
HETATM   42  C28 UNL     1      -1.258 -38.320  19.682  1.00  0.00     0.012 C
ENDBRANCH  30  40
ENDBRANCH  27  30
ENDBRANCH  26  27
ENDBRANCH   1  26
TORSDOF 16
ENDMDL