MODEL 5
REMARK VINA RESULT: -8.389827072      1.554      2.414
REMARK  13 active torsions:
REMARK  status: ('A' for Active; 'I' for Inactive)
REMARK    1  A    between atoms: N1_2  and  C2_5
REMARK    2  A    between atoms: C2_5  and  C4_7
REMARK    3  A    between atoms: C4_7  and  O1_8
REMARK    4  A    between atoms: C4_7  and  N2_10
REMARK    5  A    between atoms: N3_12  and  C6_13
REMARK    6  A    between atoms: C6_13  and  C7_14
REMARK    7  A    between atoms: C13_23  and  C14_24
REMARK       I    between atoms: C14_24  and  N6_26
REMARK    8  A    between atoms: N6_26  and  C15_28
REMARK    9  A    between atoms: C15_28  and  C16_29
REMARK   10  A    between atoms: C15_28  and  C24_37
REMARK   11  A    between atoms: C16_29  and  C17_30
REMARK   12  A    between atoms: C24_37  and  O3_38
REMARK   13  A    between atoms: C24_37  and  C25_40
ROOT
HETATM    1  N2  UNL     1      -2.524 -40.441  17.248  1.00  0.00    -0.324 N
HETATM    2  C5  UNL     1      -3.791 -40.480  17.980  1.00  0.00     0.400 C
HETATM    3  N3  UNL     1      -3.628 -40.574  19.395  1.00  0.00     0.111 N
HETATM    4  C11 UNL     1      -2.361 -41.047  19.833  1.00  0.00     0.277 C
HETATM    5  C12 UNL     1      -1.777 -42.074  18.886  1.00  0.00     0.065 C
HETATM    6  C13 UNL     1      -1.509 -41.439  17.521  1.00  0.00     0.181 C
ENDROOT
BRANCH   6   7
HETATM    7  C14 UNL     1      -1.472 -42.540  16.549  1.00  0.00     0.241 C
HETATM    8  O2  UNL     1      -2.499 -42.881  15.939  1.00  0.00    -0.271 OA
HETATM    9  N6  UNL     1      -0.257 -43.216  16.304  1.00  0.00    -0.352 N
ATOM     10  H6  UNL     1       0.581 -42.929  16.810  1.00  0.00     0.163 HD
BRANCH   9  11
HETATM   11  C15 UNL     1      -0.165 -44.350  15.318  1.00  0.00     0.114 C
BRANCH  11  12
HETATM   12  C16 UNL     1      -0.337 -45.577  16.089  1.00  0.00     0.033 C
BRANCH  12  13
HETATM   13  C17 UNL     1      -1.586 -46.354  16.175  1.00  0.00    -0.009 C
HETATM   14  C18 UNL     1      -2.689 -46.119  15.221  1.00  0.00     0.005 C
HETATM   15  C19 UNL     1      -3.165 -47.453  14.578  1.00  0.00     0.000 C
HETATM   16  C20 UNL     1      -2.032 -48.124  13.879  1.00  0.00     0.000 C
HETATM   17  C21 UNL     1      -0.879 -48.307  14.831  1.00  0.00     0.004 C
HETATM   18  C22 UNL     1      -1.297 -47.860  16.198  1.00  0.00    -0.014 C
HETATM   19  C23 UNL     1      -0.163 -48.167  17.155  1.00  0.00     0.010 C
ENDBRANCH  12  13
ENDBRANCH  11  12
BRANCH  11  20
HETATM   20  C24 UNL     1       0.854 -44.049  14.361  1.00  0.00     0.144 C
BRANCH  20  21
HETATM   21  O3  UNL     1       1.031 -42.655  14.106  1.00  0.00    -0.393 OA
ATOM     22  H3  UNL     1       0.881 -42.397  13.203  1.00  0.00     0.210 HD
ENDBRANCH  20  21
BRANCH  20  23
HETATM   23  C25 UNL     1       0.921 -44.662  12.993  1.00  0.00     0.016 C
HETATM   24  C26 UNL     1      -0.317 -45.199  12.415  1.00  0.00     0.007 C
HETATM   25  C27 UNL     1      -0.161 -46.283  11.408  1.00  0.00     0.000 C
HETATM   26  C28 UNL     1       0.870 -47.322  11.670  1.00  0.00     0.000 C
HETATM   27  C29 UNL     1       2.182 -46.535  11.886  1.00  0.00     0.000 C
HETATM   28  C30 UNL     1       1.940 -45.804  13.183  1.00  0.00     0.007 C
ENDBRANCH  20  23
ENDBRANCH  11  20
ENDBRANCH   9  11
ENDBRANCH   6   7
BRANCH   1  29
HETATM   29  C4  UNL     1      -2.329 -39.447  16.297  1.00  0.00     0.146 C
BRANCH  29  30
HETATM   30  C2  UNL     1      -3.044 -39.205  15.038  1.00  0.00     0.255 C
HETATM   31  C3  UNL     1      -4.478 -38.734  15.226  1.00  0.00     0.049 C
BRANCH  30  32
HETATM   32  N1  UNL     1      -3.103 -40.419  14.217  1.00  0.00    -0.068 N
HETATM   33  C1  UNL     1      -4.266 -40.407  13.352  1.00  0.00     0.267 C
ATOM     34  H12 UNL     1      -3.071 -41.263  14.789  1.00  0.00     0.277 HD
ATOM     35  H11 UNL     1      -2.243 -40.557  13.687  1.00  0.00     0.277 HD
ENDBRANCH  30  32
ENDBRANCH  29  30
BRANCH  29  36
HETATM   36  O1  UNL     1      -1.369 -38.609  16.572  1.00  0.00    -0.348 OA
ATOM     37  H1  UNL     1      -0.506 -38.854  16.259  1.00  0.00     0.219 HD
ENDBRANCH  29  36
ENDBRANCH   1  29
BRANCH   3  38
HETATM   38  C6  UNL     1      -4.064 -39.379  20.090  1.00  0.00     0.333 C
BRANCH  38  39
HETATM   39  C7  UNL     1      -3.523 -38.169  19.482  1.00  0.00     0.056 A
HETATM   40  C8  UNL     1      -2.228 -37.716  19.613  1.00  0.00     0.115 A
HETATM   41  N4  UNL     1      -2.086 -36.563  18.909  1.00  0.00    -0.360 N
HETATM   42  C9  UNL     1      -3.287 -36.296  18.342  1.00  0.00     0.182 A
ATOM     43  H4  UNL     1      -1.238 -36.004  18.823  1.00  0.00     0.166 HD
HETATM   44  N5  UNL     1      -4.147 -37.285  18.703  1.00  0.00    -0.348 N
HETATM   45  C10 UNL     1      -5.512 -37.329  18.279  1.00  0.00     0.157 C
ENDBRANCH  38  39
ENDBRANCH   3  38
TORSDOF 13
ENDMDL