MODEL 1
REMARK VINA RESULT: -7.955167825      0.000      0.000
REMARK  14 active torsions:
REMARK  status: ('A' for Active; 'I' for Inactive)
REMARK    1  A    between atoms: C2_2  and  C4_4
REMARK    2  A    between atoms: C4_4  and  C5_5
REMARK    3  A    between atoms: C5_5  and  N1_6
REMARK    4  A    between atoms: N1_6  and  C6_7
REMARK    5  A    between atoms: N1_6  and  C24_36
REMARK    6  A    between atoms: C6_7  and  C7_8
REMARK    7  A    between atoms: C7_8  and  O1_9
REMARK    8  A    between atoms: C7_8  and  C8_11
REMARK    9  A    between atoms: C8_11  and  N2_12
REMARK   10  A    between atoms: N3_14  and  C10_15
REMARK   11  A    between atoms: C16_22  and  C17_23
REMARK   12  A    between atoms: C17_23  and  O2_24
REMARK   13  A    between atoms: C24_36  and  O5_38
REMARK   14  A    between atoms: O5_38  and  C26_39
ROOT
HETATM    1  C10 UNL     1      -2.292 -38.936  18.773  1.00  0.00     0.142 C
HETATM    2  C11 UNL     1      -1.064 -38.088  18.669  1.00  0.00     0.092 C
HETATM    3  N4  UNL     1      -0.111 -37.442  18.568  1.00  0.00    -0.195 NA
HETATM    4  C12 UNL     1      -1.822 -40.362  18.748  1.00  0.00     0.049 C
HETATM    5  C13 UNL     1      -1.999 -41.190  19.941  1.00  0.00     0.013 C
HETATM    6  C14 UNL     1      -2.843 -40.633  21.053  1.00  0.00     0.026 C
HETATM    7  C15 UNL     1      -3.878 -39.740  20.443  1.00  0.00     0.031 C
HETATM    8  C16 UNL     1      -2.964 -38.589  20.007  1.00  0.00     0.064 C
HETATM    9  C18 UNL     1      -2.022 -38.496  21.149  1.00  0.00     0.034 A
HETATM   10  N5  UNL     1      -1.271 -37.480  21.643  1.00  0.00    -0.368 N
ATOM     11  H5  UNL     1      -1.297 -36.572  21.179  1.00  0.00     0.165 HD
HETATM   12  C19 UNL     1      -0.502 -37.635  22.715  1.00  0.00     0.092 A
HETATM   13  C20 UNL     1      -0.424 -38.825  23.380  1.00  0.00     0.072 A
HETATM   14  C21 UNL     1      -1.157 -39.880  22.925  1.00  0.00     0.181 A
HETATM   15  O3  UNL     1      -1.159 -41.010  23.455  1.00  0.00    -0.288 OA
HETATM   16  C22 UNL     1      -1.960 -39.703  21.799  1.00  0.00     0.020 A
ENDROOT
BRANCH   1  17
HETATM   17  N3  UNL     1      -3.073 -38.751  17.556  1.00  0.00    -0.294 N
HETATM   18  C9  UNL     1      -4.332 -38.879  16.924  1.00  0.00     0.260 C
HETATM   19  N2  UNL     1      -3.585 -39.011  15.684  1.00  0.00    -0.315 N
HETATM   20  C23 UNL     1      -2.583 -38.232  16.300  1.00  0.00     0.324 C
HETATM   21  O4  UNL     1      -1.675 -37.446  15.933  1.00  0.00    -0.247 OA
BRANCH  19  22
HETATM   22  C8  UNL     1      -3.751 -39.630  14.407  1.00  0.00     0.162 C
BRANCH  22  23
HETATM   23  C7  UNL     1      -3.955 -41.123  14.574  1.00  0.00     0.164 C
BRANCH  23  24
HETATM   24  C6  UNL     1      -2.765 -41.866  14.089  1.00  0.00     0.308 C
BRANCH  24  25
HETATM   25  N1  UNL     1      -2.635 -43.148  14.840  1.00  0.00     0.119 N
BRANCH  25  26
HETATM   26  C5  UNL     1      -2.802 -44.185  13.821  1.00  0.00     0.276 C
BRANCH  26  27
HETATM   27  C4  UNL     1      -3.119 -45.483  14.466  1.00  0.00     0.034 C
BRANCH  27  28
HETATM   28  C2  UNL     1      -2.590 -46.672  13.679  1.00  0.00    -0.021 C
HETATM   29  C1  UNL     1      -2.341 -47.837  14.610  1.00  0.00     0.009 C
HETATM   30  C3  UNL     1      -1.219 -46.244  13.142  1.00  0.00     0.009 C
ENDBRANCH  27  28
ENDBRANCH  26  27
ENDBRANCH  25  26
BRANCH  25  31
HETATM   31  C24 UNL     1      -1.267 -43.191  15.401  1.00  0.00     0.355 C
HETATM   32  C25 UNL     1      -0.345 -42.192  14.800  1.00  0.00     0.073 C
BRANCH  31  33
HETATM   33  O5  UNL     1      -1.362 -43.289  16.733  1.00  0.00    -0.347 OA
BRANCH  33  34
HETATM   34  C26 UNL     1      -0.901 -44.377  17.383  1.00  0.00     0.053 C
HETATM   35  C27 UNL     1      -0.067 -43.946  18.599  1.00  0.00     0.045 C
HETATM   36  C28 UNL     1      -2.123 -45.077  18.001  1.00  0.00     0.045 C
HETATM   37  C29 UNL     1      -0.153 -45.398  16.611  1.00  0.00     0.045 C
ENDBRANCH  33  34
ENDBRANCH  31  33
ENDBRANCH  25  31
ENDBRANCH  24  25
ENDBRANCH  23  24
BRANCH  23  38
HETATM   38  O1  UNL     1      -5.035 -41.498  13.766  1.00  0.00    -0.392 OA
ATOM     39  H1  UNL     1      -5.739 -41.767  14.345  1.00  0.00     0.210 HD
ENDBRANCH  23  38
ENDBRANCH  22  23
ENDBRANCH  19  22
ENDBRANCH   1  17
BRANCH   8  40
HETATM   40  C17 UNL     1      -3.802 -37.340  20.008  1.00  0.00     0.183 C
BRANCH  40  41
HETATM   41  O2  UNL     1      -4.251 -36.950  21.240  1.00  0.00    -0.400 OA
ATOM     42  H2  UNL     1      -3.675 -36.355  21.705  1.00  0.00     0.209 HD
ENDBRANCH  40  41
ENDBRANCH   8  40
TORSDOF 14
ENDMDL