MODEL 5
REMARK VINA RESULT: -7.335918170      2.789      4.915
REMARK  14 active torsions:
REMARK  status: ('A' for Active; 'I' for Inactive)
REMARK    1  A    between atoms: C2_2  and  C3_3
REMARK    2  A    between atoms: C3_3  and  N1_4
REMARK    3  A    between atoms: C3_3  and  C5_8
REMARK       I    between atoms: C5_8  and  N2_10
REMARK    4  A    between atoms: N2_10  and  C6_11
REMARK    5  A    between atoms: N2_10  and  C14_21
REMARK    6  A    between atoms: C13_18  and  O2_19
REMARK    7  A    between atoms: N3_24  and  C17_25
REMARK    8  A    between atoms: C17_25  and  O3_26
REMARK    9  A    between atoms: C17_25  and  C18_28
REMARK   10  A    between atoms: C18_28  and  N4_29
REMARK   11  A    between atoms: C18_28  and  C23_39
REMARK   12  A    between atoms: N4_29  and  C19_30
REMARK   13  A    between atoms: C19_30  and  O4_31
REMARK   14  A    between atoms: C19_30  and  C20_33
ROOT
HETATM    1  C14 UNL     1       0.273 -45.012  14.945  1.00  0.00     0.024 C
HETATM    2  C15 UNL     1       0.821 -43.653  14.855  1.00  0.00     0.078 C
HETATM    3  C16 UNL     1      -0.108 -42.630  15.480  1.00  0.00     0.131 C
HETATM    4  N3  UNL     1      -1.447 -43.064  15.673  1.00  0.00    -0.355 N
HETATM    5  C26 UNL     1      -1.767 -44.429  16.125  1.00  0.00     0.165 C
HETATM    6  C27 UNL     1      -0.541 -45.320  16.172  1.00  0.00    -0.021 C
HETATM    7  C28 UNL     1       0.031 -45.532  17.476  1.00  0.00    -0.020 C
HETATM    8  C29 UNL     1       0.829 -44.532  18.195  1.00  0.00     0.036 C
ENDROOT
BRANCH   1   9
HETATM    9  N2  UNL     1       1.145 -46.073  14.479  1.00  0.00    -0.315 N
HETATM   10  C5  UNL     1       0.655 -46.870  13.392  1.00  0.00     0.255 C
HETATM   11  O1  UNL     1       1.435 -47.805  12.996  1.00  0.00    -0.271 OA
BRANCH  10  12
HETATM   12  C3  UNL     1      -0.609 -46.746  12.692  1.00  0.00     0.276 C
BRANCH  12  13
HETATM   13  C2  UNL     1      -0.468 -46.700  11.176  1.00  0.00     0.038 C
HETATM   14  C1  UNL     1      -0.814 -48.040  10.563  1.00  0.00     0.007 C
ENDBRANCH  12  13
BRANCH  12  15
HETATM   15  N1  UNL     1      -1.344 -48.031  12.904  1.00  0.00    -0.066 N
HETATM   16  C4  UNL     1      -2.055 -48.000  14.163  1.00  0.00     0.267 C
ATOM     17  H12 UNL     1      -1.964 -48.248  12.123  1.00  0.00     0.277 HD
ATOM     18  H11 UNL     1      -0.725 -48.839  12.836  1.00  0.00     0.277 HD
ENDBRANCH  12  15
ENDBRANCH  10  12
BRANCH   9  19
HETATM   19  C6  UNL     1       2.462 -46.315  15.007  1.00  0.00     0.093 C
HETATM   20  C7  UNL     1       3.529 -45.913  13.992  1.00  0.00     0.033 C
HETATM   21  C8  UNL     1       4.909 -46.218  14.448  1.00  0.00     0.017 C
HETATM   22  C9  UNL     1       5.148 -45.667  15.850  1.00  0.00     0.007 C
HETATM   23  C13 UNL     1       5.036 -47.705  14.689  1.00  0.00     0.126 C
HETATM   24  C10 UNL     1       4.681 -46.718  16.806  1.00  0.00     0.007 C
HETATM   25  C11 UNL     1       4.203 -47.845  15.928  1.00  0.00     0.017 C
HETATM   26  C12 UNL     1       2.725 -47.610  15.640  1.00  0.00     0.033 C
BRANCH  23  27
HETATM   27  O2  UNL     1       4.663 -48.491  13.629  1.00  0.00    -0.395 OA
ATOM     28  H2  UNL     1       5.366 -48.708  13.028  1.00  0.00     0.210 HD
ENDBRANCH  23  27
ENDBRANCH   9  19
ENDBRANCH   1   9
BRANCH   4  29
HETATM   29  C17 UNL     1      -2.576 -42.232  15.505  1.00  0.00     0.180 C
BRANCH  29  30
HETATM   30  O3  UNL     1      -3.515 -42.837  14.814  1.00  0.00    -0.344 OA
ATOM     31  H3  UNL     1      -4.231 -43.112  15.374  1.00  0.00     0.219 HD
ENDBRANCH  29  30
BRANCH  29  32
HETATM   32  C18 UNL     1      -2.886 -40.869  15.926  1.00  0.00     0.162 C
BRANCH  32  33
HETATM   33  N4  UNL     1      -2.276 -40.339  17.076  1.00  0.00    -0.373 NA
BRANCH  33  34
HETATM   34  C19 UNL     1      -1.725 -39.886  18.204  1.00  0.00     0.251 C
BRANCH  34  35
HETATM   35  O4  UNL     1      -1.475 -40.631  19.269  1.00  0.00    -0.333 OA
ATOM     36  H4  UNL     1      -0.894 -40.380  19.978  1.00  0.00     0.220 HD
ENDBRANCH  34  35
BRANCH  34  37
HETATM   37  C20 UNL     1      -1.278 -38.490  18.487  1.00  0.00     0.165 A
HETATM   38  C21 UNL     1      -1.114 -37.407  17.711  1.00  0.00     0.064 A
HETATM   39  C22 UNL     1      -0.674 -36.361  18.490  1.00  0.00     0.117 A
HETATM   40  N5  UNL     1      -0.584 -36.855  19.726  1.00  0.00    -0.272 N
HETATM   41  O5  UNL     1      -0.938 -38.099  19.713  1.00  0.00    -0.233 OA
ATOM     42  H5  UNL     1      -0.283 -36.335  20.550  1.00  0.00     0.194 HD
ENDBRANCH  34  37
ENDBRANCH  33  34
ENDBRANCH  32  33
BRANCH  32  43
HETATM   43  C23 UNL     1      -3.812 -40.082  15.112  1.00  0.00    -0.043 C
HETATM   44  C24 UNL     1      -3.515 -40.064  13.613  1.00  0.00     0.046 C
HETATM   45  C25 UNL     1      -4.277 -38.735  15.535  1.00  0.00     0.046 C
ENDBRANCH  32  43
ENDBRANCH  29  32
ENDBRANCH   4  29
TORSDOF 14
ENDMDL