MODEL 3
REMARK VINA RESULT: -8.121187211      2.937      8.672
REMARK  11 active torsions:
REMARK  status: ('A' for Active; 'I' for Inactive)
REMARK    1  A    between atoms: C2_2  and  C3_3
REMARK    2  A    between atoms: N1_10  and  C10_11
REMARK    3  A    between atoms: C10_11  and  C11_12
REMARK    4  A    between atoms: C11_12  and  N2_13
REMARK       I    between atoms: N2_13  and  C12_15
REMARK    5  A    between atoms: C12_15  and  C13_17
REMARK    6  A    between atoms: C13_17  and  O2_18
REMARK    7  A    between atoms: C13_17  and  C14_20
REMARK    8  A    between atoms: C14_20  and  C15_21
REMARK    9  A    between atoms: C14_20  and  N3_26
REMARK   10  A    between atoms: C15_21  and  C16_22
REMARK       I    between atoms: N3_26  and  C20_28
REMARK   11  A    between atoms: C20_28  and  C21_30
REMARK       I    between atoms: N5_39  and  C27_40
ROOT
HETATM    1  N2  UNL     1      -0.978 -45.788  17.537  1.00  0.00    -0.354 N
ATOM      2  H2  UNL     1      -0.053 -46.164  17.331  1.00  0.00     0.162 HD
HETATM    3  C12 UNL     1      -2.035 -45.804  16.558  1.00  0.00     0.248 C
HETATM    4  O1  UNL     1      -3.125 -45.325  16.887  1.00  0.00    -0.271 OA
ENDROOT
BRANCH   3   5
HETATM    5  C13 UNL     1      -1.785 -46.372  15.248  1.00  0.00     0.232 C
BRANCH   5   6
HETATM    6  O2  UNL     1      -1.056 -47.568  15.317  1.00  0.00    -0.384 OA
ATOM      7  H2  UNL     1      -1.222 -48.135  14.573  1.00  0.00     0.210 HD
ENDBRANCH   5   6
BRANCH   5   8
HETATM    8  C14 UNL     1      -1.218 -45.460  14.179  1.00  0.00     0.123 C
BRANCH   8   9
HETATM    9  C15 UNL     1       0.238 -45.572  14.006  1.00  0.00     0.036 C
BRANCH   9  10
HETATM   10  C16 UNL     1       0.812 -45.423  12.640  1.00  0.00    -0.049 C
HETATM   11  C17 UNL     1       2.040 -46.233  12.346  1.00  0.00     0.014 C
HETATM   12  C18 UNL     1       1.140 -43.986  12.288  1.00  0.00     0.014 C
HETATM   13  C19 UNL     1      -0.253 -45.837  11.613  1.00  0.00     0.014 C
ENDBRANCH   9  10
ENDBRANCH   8   9
BRANCH   8  14
HETATM   14  N3  UNL     1      -1.790 -44.162  14.365  1.00  0.00    -0.348 N
HETATM   15  C20 UNL     1      -2.969 -43.684  13.750  1.00  0.00     0.270 C
HETATM   16  O3  UNL     1      -3.643 -44.378  12.953  1.00  0.00    -0.266 OA
ATOM     17  H3  UNL     1      -1.303 -43.526  14.998  1.00  0.00     0.163 HD
BRANCH  15  18
HETATM   18  C21 UNL     1      -3.487 -42.330  14.006  1.00  0.00     0.124 A
HETATM   19  C22 UNL     1      -2.797 -41.291  14.631  1.00  0.00     0.071 A
HETATM   20  C23 UNL     1      -3.658 -40.222  14.653  1.00  0.00     0.075 A
HETATM   21  C24 UNL     1      -3.410 -38.847  15.219  1.00  0.00     0.079 C
HETATM   22  O4  UNL     1      -4.757 -40.615  14.085  1.00  0.00    -0.242 OA
HETATM   23  N4  UNL     1      -4.687 -41.833  13.700  1.00  0.00    -0.256 N
ATOM     24  H4  UNL     1      -5.434 -42.345  13.232  1.00  0.00     0.195 HD
ENDBRANCH  15  18
ENDBRANCH   8  14
ENDBRANCH   5   8
ENDBRANCH   3   5
BRANCH   1  25
HETATM   25  C11 UNL     1      -1.288 -45.219  18.813  1.00  0.00     0.166 C
BRANCH  25  26
HETATM   26  C10 UNL     1      -0.838 -43.831  19.023  1.00  0.00     0.077 C
BRANCH  26  27
HETATM   27  N1  UNL     1      -1.773 -42.817  18.849  1.00  0.00    -0.392 N
HETATM   28  C9  UNL     1      -1.666 -41.876  17.821  1.00  0.00     0.124 C
HETATM   29  C8  UNL     1      -2.145 -40.457  18.194  1.00  0.00     0.051 C
HETATM   30  C7  UNL     1      -3.312 -40.565  19.119  1.00  0.00     0.042 C
HETATM   31  C5  UNL     1      -3.035 -40.192  20.547  1.00  0.00     0.012 C
HETATM   32  C26 UNL     1      -4.007 -41.882  19.015  1.00  0.00     0.051 C
HETATM   33  N5  UNL     1      -4.245 -39.451  18.777  1.00  0.00    -0.338 N
HETATM   34  C4  UNL     1      -3.254 -38.695  20.681  1.00  0.00     0.032 C
HETATM   35  C6  UNL     1      -1.720 -40.571  21.111  1.00  0.00     0.012 C
HETATM   36  C3  UNL     1      -3.486 -38.307  19.206  1.00  0.00     0.088 C
HETATM   37  C25 UNL     1      -3.063 -43.011  19.441  1.00  0.00     0.124 C
HETATM   38  C27 UNL     1      -5.525 -39.541  18.215  1.00  0.00     0.216 C
HETATM   39  C28 UNL     1      -6.430 -38.418  17.930  1.00  0.00     0.117 C
HETATM   40  O5  UNL     1      -5.994 -40.702  17.904  1.00  0.00    -0.274 OA
BRANCH  36  41
HETATM   41  C2  UNL     1      -4.089 -36.966  19.087  1.00  0.00     0.021 C
HETATM   42  C1  UNL     1      -3.313 -36.219  17.960  1.00  0.00     0.007 C
ENDBRANCH  36  41
ENDBRANCH  26  27
ENDBRANCH  25  26
ENDBRANCH   1  25
TORSDOF 11
ENDMDL