MODEL 2
REMARK VINA RESULT: -6.905966827      2.006      2.928
REMARK  17 active torsions:
REMARK  status: ('A' for Active; 'I' for Inactive)
REMARK    1  A    between atoms: C2_2  and  C3_3
REMARK    2  A    between atoms: C3_3  and  C4_4
REMARK    3  A    between atoms: C4_4  and  C5_5
REMARK    4  A    between atoms: C5_5  and  C6_6
REMARK    5  A    between atoms: C6_6  and  N1_7
REMARK    6  A    between atoms: N1_7  and  C7_8
REMARK    7  A    between atoms: N1_7  and  C26_38
REMARK    8  A    between atoms: C7_8  and  O1_9
REMARK    9  A    between atoms: C7_8  and  C8_11
REMARK   10  A    between atoms: N2_13  and  C10_14
REMARK   11  A    between atoms: C10_14  and  C11_15
REMARK   12  A    between atoms: C17_21  and  O2_22
REMARK   13  A    between atoms: C18_24  and  N3_25
REMARK       I    between atoms: N3_25  and  C19_27
REMARK   14  A    between atoms: C19_27  and  O4_29
REMARK   15  A    between atoms: O4_29  and  C20_30
REMARK   16  A    between atoms: C25_35  and  O5_36
REMARK   17  A    between atoms: C26_38  and  C28_40
ROOT
HETATM    1  C8  UNL     1       1.976 -46.318  14.711  1.00  0.00     0.117 C
HETATM    2  C9  UNL     1       1.063 -45.282  15.263  1.00  0.00     0.297 C
HETATM    3  N2  UNL     1       1.746 -44.004  15.320  1.00  0.00     0.098 N
HETATM    4  C14 UNL     1       3.117 -44.298  15.083  1.00  0.00     0.258 C
HETATM    5  C15 UNL     1       3.715 -44.772  16.413  1.00  0.00     0.042 C
HETATM    6  C16 UNL     1       3.186 -46.094  16.842  1.00  0.00     0.043 C
HETATM    7  C17 UNL     1       2.810 -47.038  15.751  1.00  0.00     0.098 C
HETATM    8  C18 UNL     1       4.067 -47.435  14.992  1.00  0.00     0.125 C
HETATM    9  C24 UNL     1       4.291 -46.267  14.073  1.00  0.00     0.070 C
HETATM   10  C25 UNL     1       3.069 -45.423  14.108  1.00  0.00     0.110 C
ENDROOT
BRANCH   1  11
HETATM   11  C7  UNL     1       1.456 -47.171  13.656  1.00  0.00     0.131 C
BRANCH  11  12
HETATM   12  N1  UNL     1       0.260 -47.190  12.952  1.00  0.00    -0.353 N
BRANCH  12  13
HETATM   13  C6  UNL     1      -0.865 -48.009  13.482  1.00  0.00     0.125 C
BRANCH  13  14
HETATM   14  C5  UNL     1      -1.145 -47.686  14.898  1.00  0.00     0.020 C
BRANCH  14  15
HETATM   15  C4  UNL     1      -2.340 -46.881  15.229  1.00  0.00     0.002 C
BRANCH  15  16
HETATM   16  C3  UNL     1      -3.606 -46.988  14.522  1.00  0.00    -0.000 C
BRANCH  16  17
HETATM   17  C2  UNL     1      -3.953 -46.074  13.406  1.00  0.00    -0.005 C
HETATM   18  C1  UNL     1      -3.466 -44.648  13.653  1.00  0.00     0.005 C
ENDBRANCH  16  17
ENDBRANCH  15  16
ENDBRANCH  14  15
ENDBRANCH  13  14
ENDBRANCH  12  13
BRANCH  12  19
HETATM   19  C26 UNL     1       0.051 -46.492  11.740  1.00  0.00     0.151 C
HETATM   20  C27 UNL     1      -0.625 -45.148  11.845  1.00  0.00     0.040 C
BRANCH  19  21
HETATM   21  C28 UNL     1      -0.640 -47.348  10.702  1.00  0.00     0.145 C
HETATM   22  C29 UNL     1      -0.111 -48.650  10.228  1.00  0.00     0.093 C
HETATM   23  O6  UNL     1      -1.690 -46.980  10.204  1.00  0.00    -0.296 OA
ENDBRANCH  19  21
ENDBRANCH  12  19
ENDBRANCH  11  12
BRANCH  11  24
HETATM   24  O1  UNL     1       2.272 -48.121  13.287  1.00  0.00    -0.349 OA
ATOM     25  H1  UNL     1       2.899 -48.348  13.963  1.00  0.00     0.219 HD
ENDBRANCH  11  24
ENDBRANCH   1  11
BRANCH   7  26
HETATM   26  O2  UNL     1       2.191 -48.139  16.313  1.00  0.00    -0.386 OA
ATOM     27  H2  UNL     1       2.381 -48.960  15.874  1.00  0.00     0.210 HD
ENDBRANCH   7  26
BRANCH  10  28
HETATM   28  O5  UNL     1       2.742 -44.959  12.844  1.00  0.00    -0.386 OA
ATOM     29  H5  UNL     1       3.000 -44.055  12.708  1.00  0.00     0.210 HD
ENDBRANCH  10  28
BRANCH   3  30
HETATM   30  C10 UNL     1       1.140 -43.005  14.518  1.00  0.00     0.277 C
BRANCH  30  31
HETATM   31  C11 UNL     1      -0.328 -42.911  14.774  1.00  0.00     0.014 A
HETATM   32  C12 UNL     1      -0.882 -41.607  15.263  1.00  0.00     0.007 A
HETATM   33  C13 UNL     1      -1.103 -42.021  13.838  1.00  0.00     0.007 A
ENDBRANCH  30  31
ENDBRANCH   3  30
BRANCH   8  34
HETATM   34  N3  UNL     1       5.187 -47.727  15.853  1.00  0.00    -0.329 N
HETATM   35  C19 UNL     1       6.365 -48.335  15.354  1.00  0.00     0.361 C
HETATM   36  O3  UNL     1       6.471 -48.644  14.126  1.00  0.00    -0.238 OA
ATOM     37  H3  UNL     1       5.129 -47.490  16.843  1.00  0.00     0.165 HD
BRANCH  35  38
HETATM   38  O4  UNL     1       7.473 -48.639  16.135  1.00  0.00    -0.294 OA
BRANCH  38  39
HETATM   39  C20 UNL     1       7.471 -49.756  17.022  1.00  0.00     0.061 C
HETATM   40  C21 UNL     1       8.906 -50.182  17.214  1.00  0.00     0.046 C
HETATM   41  C22 UNL     1       6.723 -50.925  16.415  1.00  0.00     0.046 C
HETATM   42  C23 UNL     1       6.863 -49.412  18.351  1.00  0.00     0.046 C
ENDBRANCH  38  39
ENDBRANCH  35  38
ENDBRANCH   8  34
TORSDOF 17
ENDMDL