MODEL 2
REMARK VINA RESULT: -7.533458703      1.361      2.018
REMARK  15 active torsions:
REMARK  status: ('A' for Active; 'I' for Inactive)
REMARK    1  A    between atoms: N1_2  and  C2_4
REMARK    2  A    between atoms: C2_4  and  O1_5
REMARK    3  A    between atoms: C2_4  and  C3_7
REMARK    4  A    between atoms: C3_7  and  C4_8
REMARK    5  A    between atoms: C4_8  and  C5_9
REMARK    6  A    between atoms: C8_12  and  C9_13
REMARK       I    between atoms: C9_13  and  N2_15
REMARK    7  A    between atoms: N2_15  and  C10_17
REMARK    8  A    between atoms: C10_17  and  C11_18
REMARK    9  A    between atoms: C10_17  and  C19_31
REMARK       I    between atoms: C11_18  and  N3_20
REMARK   10  A    between atoms: N3_20  and  C12_22
REMARK   11  A    between atoms: C12_22  and  C13_23
REMARK   12  A    between atoms: C12_22  and  C15_27
REMARK   13  A    between atoms: C13_23  and  O5_25
REMARK       I    between atoms: N4_36  and  C24_38
REMARK   14  A    between atoms: C24_38  and  O7_40
REMARK   15  A    between atoms: O7_40  and  C25_41
ROOT
HETATM    1  C5  UNL     1      -2.182 -42.279  16.375  1.00  0.00    -0.078 C
HETATM    2  C6  UNL     1      -2.844 -42.086  15.013  1.00  0.00     0.035 C
HETATM    3  C7  UNL     1      -2.306 -43.166  14.103  1.00  0.00     0.018 C
HETATM    4  C8  UNL     1      -0.869 -42.818  13.790  1.00  0.00     0.078 C
HETATM    5  C22 UNL     1      -0.065 -42.623  15.032  1.00  0.00     0.018 C
HETATM    6  C23 UNL     1      -0.846 -42.882  16.296  1.00  0.00     0.035 C
ENDROOT
BRANCH   4   7
HETATM    7  C9  UNL     1      -0.226 -43.721  12.819  1.00  0.00     0.222 C
HETATM    8  O2  UNL     1       0.306 -43.195  11.807  1.00  0.00    -0.273 OA
HETATM    9  N2  UNL     1      -0.168 -45.121  12.944  1.00  0.00    -0.347 N
ATOM     10  H2  UNL     1      -0.607 -45.525  13.771  1.00  0.00     0.163 HD
BRANCH   9  11
HETATM   11  C10 UNL     1       0.440 -46.032  12.036  1.00  0.00     0.180 C
BRANCH  11  12
HETATM   12  C11 UNL     1       1.834 -46.346  12.328  1.00  0.00     0.241 C
HETATM   13  O3  UNL     1       2.625 -46.622  11.388  1.00  0.00    -0.271 OA
HETATM   14  N3  UNL     1       2.341 -46.351  13.659  1.00  0.00    -0.345 N
ATOM     15  H3  UNL     1       1.696 -46.133  14.419  1.00  0.00     0.163 HD
BRANCH  14  16
HETATM   16  C12 UNL     1       3.717 -46.645  14.001  1.00  0.00     0.191 C
BRANCH  16  17
HETATM   17  C13 UNL     1       3.971 -48.093  14.092  1.00  0.00     0.282 C
HETATM   18  O4  UNL     1       3.080 -48.937  14.422  1.00  0.00    -0.263 OA
BRANCH  17  19
HETATM   19  O5  UNL     1       5.221 -48.638  13.818  1.00  0.00    -0.325 OA
HETATM   20  C14 UNL     1       5.903 -49.535  14.673  1.00  0.00     0.213 C
ENDBRANCH  17  19
ENDBRANCH  16  17
BRANCH  16  21
HETATM   21  C15 UNL     1       4.142 -45.913  15.254  1.00  0.00    -0.022 C
HETATM   22  C16 UNL     1       5.639 -45.789  15.381  1.00  0.00     0.017 C
HETATM   23  C17 UNL     1       3.603 -44.496  15.207  1.00  0.00     0.017 C
HETATM   24  C18 UNL     1       3.606 -46.549  16.506  1.00  0.00     0.017 C
ENDBRANCH  16  21
ENDBRANCH  14  16
ENDBRANCH  11  12
BRANCH  11  25
HETATM   25  C19 UNL     1      -0.332 -47.358  11.926  1.00  0.00     0.009 C
HETATM   26  C20 UNL     1      -1.162 -47.646  13.139  1.00  0.00     0.012 C
HETATM   27  C21 UNL     1      -1.129 -47.380  10.629  1.00  0.00     0.012 C
ENDBRANCH  11  25
ENDBRANCH   9  11
ENDBRANCH   4   7
BRANCH   1  28
HETATM   28  C4  UNL     1      -2.520 -41.247  17.373  1.00  0.00     0.037 C
BRANCH  28  29
HETATM   29  C3  UNL     1      -2.890 -39.914  16.997  1.00  0.00     0.087 C
HETATM   30  N4  UNL     1      -4.136 -39.487  17.279  1.00  0.00    -0.299 N
HETATM   31  C24 UNL     1      -5.078 -40.257  17.966  1.00  0.00     0.365 C
ATOM     32  H4  UNL     1      -4.406 -38.551  16.974  1.00  0.00     0.171 HD
HETATM   33  O6  UNL     1      -5.997 -40.918  17.436  1.00  0.00    -0.238 OA
BRANCH  29  34
HETATM   34  C2  UNL     1      -2.123 -38.937  16.292  1.00  0.00     0.163 C
BRANCH  34  35
HETATM   35  N1  UNL     1      -0.892 -38.340  16.579  1.00  0.00    -0.373 N
HETATM   36  C1  UNL     1      -0.585 -37.827  17.928  1.00  0.00     0.148 C
ATOM     37  H1  UNL     1      -0.193 -38.257  15.841  1.00  0.00     0.161 HD
ENDBRANCH  34  35
BRANCH  34  38
HETATM   38  O1  UNL     1      -2.639 -38.499  15.163  1.00  0.00    -0.345 OA
ATOM     39  H1  UNL     1      -3.371 -37.910  15.307  1.00  0.00     0.219 HD
ENDBRANCH  34  38
ENDBRANCH  29  34
BRANCH  31  40
HETATM   40  O7  UNL     1      -5.012 -40.312  19.357  1.00  0.00    -0.299 OA
BRANCH  40  41
HETATM   41  C25 UNL     1      -4.968 -41.527  20.043  1.00  0.00     0.125 C
HETATM   42  C26 UNL     1      -3.647 -41.787  20.711  1.00  0.00     0.040 C
HETATM   43  C27 UNL     1      -6.084 -41.640  21.073  1.00  0.00     0.040 C
ENDBRANCH  40  41
ENDBRANCH  31  40
ENDBRANCH  28  29
ENDBRANCH   1  28
TORSDOF 15
ENDMDL