MODEL 1
REMARK VINA RESULT: -7.688959498      0.000      0.000
REMARK  13 active torsions:
REMARK  status: ('A' for Active; 'I' for Inactive)
REMARK    1  A    between atoms: C2_2  and  O1_3
REMARK    2  A    between atoms: C2_2  and  C3_5
REMARK    3  A    between atoms: C3_5  and  C4_6
REMARK    4  A    between atoms: C4_6  and  C5_7
REMARK    5  A    between atoms: C4_6  and  N4_38
REMARK       I    between atoms: C5_7  and  N1_9
REMARK    6  A    between atoms: C10_14  and  O3_15
REMARK    7  A    between atoms: O3_15  and  C11_16
REMARK       I    between atoms: C11_16  and  N2_18
REMARK    8  A    between atoms: C14_21  and  C15_22
REMARK    9  A    between atoms: C15_22  and  C16_23
REMARK       I    between atoms: C16_23  and  N3_25
REMARK   10  A    between atoms: N3_25  and  C17_27
REMARK   11  A    between atoms: C17_27  and  C18_28
REMARK   12  A    between atoms: C17_27  and  C23_33
REMARK   13  A    between atoms: C18_28  and  C19_29
ROOT
HETATM    1  C11 UNL     1      -2.819 -41.466  14.950  1.00  0.00     0.364 C
HETATM    2  O4  UNL     1      -1.973 -41.309  14.019  1.00  0.00    -0.238 OA
HETATM    3  N2  UNL     1      -3.447 -40.392  15.605  1.00  0.00    -0.328 N
HETATM    4  C12 UNL     1      -3.119 -39.028  15.194  1.00  0.00     0.128 C
HETATM    5  C13 UNL     1      -3.861 -38.057  16.119  1.00  0.00     0.025 C
HETATM    6  C14 UNL     1      -3.508 -38.414  17.532  1.00  0.00    -0.003 C
HETATM    7  C24 UNL     1      -4.091 -39.759  17.874  1.00  0.00     0.025 C
HETATM    8  C25 UNL     1      -4.393 -40.601  16.665  1.00  0.00     0.128 C
ENDROOT
BRANCH   1   9
HETATM    9  O3  UNL     1      -3.092 -42.805  15.285  1.00  0.00    -0.278 OA
BRANCH   9  10
HETATM   10  C10 UNL     1      -2.269 -43.605  16.057  1.00  0.00     0.237 C
HETATM   11  N1  UNL     1      -1.271 -44.365  15.290  1.00  0.00    -0.319 N
HETATM   12  C5  UNL     1      -1.469 -44.715  13.935  1.00  0.00     0.244 C
HETATM   13  C6  UNL     1      -0.171 -44.626  16.165  1.00  0.00     0.086 C
HETATM   14  O2  UNL     1      -2.558 -44.410  13.330  1.00  0.00    -0.271 OA
HETATM   15  C7  UNL     1      -0.148 -46.082  16.623  1.00  0.00     0.032 C
HETATM   16  C8  UNL     1      -0.349 -43.802  17.425  1.00  0.00     0.029 C
HETATM   17  C9  UNL     1      -1.428 -42.819  17.045  1.00  0.00     0.056 C
BRANCH  12  18
HETATM   18  C4  UNL     1      -0.496 -45.446  13.078  1.00  0.00     0.173 C
BRANCH  18  19
HETATM   19  C3  UNL     1      -0.032 -44.441  12.034  1.00  0.00     0.066 C
BRANCH  19  20
HETATM   20  C2  UNL     1       1.116 -43.604  12.487  1.00  0.00     0.116 C
HETATM   21  C1  UNL     1       2.125 -44.317  13.340  1.00  0.00     0.039 C
BRANCH  20  22
HETATM   22  O1  UNL     1       1.727 -42.875  11.459  1.00  0.00    -0.396 OA
ATOM     23  H1  UNL     1       1.681 -41.939  11.615  1.00  0.00     0.210 HD
ENDBRANCH  20  22
ENDBRANCH  19  20
ENDBRANCH  18  19
BRANCH  18  24
HETATM   24  N4  UNL     1      -1.053 -46.599  12.496  1.00  0.00    -0.409 N
HETATM   25  C26 UNL     1      -1.252 -47.770  13.213  1.00  0.00     0.143 C
HETATM   26  C27 UNL     1      -1.233 -46.690  11.112  1.00  0.00     0.143 C
ENDBRANCH  18  24
ENDBRANCH  12  18
ENDBRANCH   9  10
ENDBRANCH   1   9
BRANCH   6  27
HETATM   27  C15 UNL     1      -4.002 -37.416  18.540  1.00  0.00     0.107 C
BRANCH  27  28
HETATM   28  C16 UNL     1      -3.595 -37.681  19.918  1.00  0.00     0.218 C
HETATM   29  O5  UNL     1      -4.253 -37.283  20.894  1.00  0.00    -0.274 OA
HETATM   30  N3  UNL     1      -2.392 -38.432  20.174  1.00  0.00    -0.346 N
ATOM     31  H3  UNL     1      -1.829 -38.767  19.393  1.00  0.00     0.163 HD
BRANCH  30  32
HETATM   32  C17 UNL     1      -1.980 -38.711  21.523  1.00  0.00     0.186 C
BRANCH  32  33
HETATM   33  C18 UNL     1      -1.520 -40.103  21.732  1.00  0.00     0.044 C
BRANCH  33  34
HETATM   34  C19 UNL     1      -2.352 -40.987  22.592  1.00  0.00    -0.049 C
HETATM   35  C20 UNL     1      -1.853 -41.060  24.018  1.00  0.00     0.014 C
HETATM   36  C21 UNL     1      -2.200 -42.425  22.029  1.00  0.00     0.014 C
HETATM   37  C22 UNL     1      -3.811 -40.644  22.585  1.00  0.00     0.014 C
ENDBRANCH  33  34
ENDBRANCH  32  33
BRANCH  32  38
HETATM   38  C23 UNL     1      -0.824 -37.800  21.846  1.00  0.00     0.196 C
HETATM   39  O6  UNL     1      -0.169 -37.204  20.968  1.00  0.00    -0.646 OA
HETATM   40  O7  UNL     1      -0.481 -37.623  23.171  1.00  0.00    -0.646 OA
ENDBRANCH  32  38
ENDBRANCH  30  32
ENDBRANCH  27  28
ENDBRANCH   6  27
TORSDOF 13
ENDMDL