MODEL 1
REMARK VINA RESULT: -8.144299520      0.000      0.000
REMARK  13 active torsions:
REMARK  status: ('A' for Active; 'I' for Inactive)
REMARK    1  A    between atoms: C2_2  and  C3_3
REMARK    2  A    between atoms: C3_3  and  C27_37
REMARK    3  A    between atoms: C4_4  and  C5_5
REMARK    4  A    between atoms: C5_5  and  C6_6
REMARK    5  A    between atoms: C7_7  and  C8_8
REMARK    6  A    between atoms: C8_8  and  O1_9
REMARK    7  A    between atoms: C9_11  and  O2_12
REMARK    8  A    between atoms: O2_12  and  C10_13
REMARK    9  A    between atoms: C12_16  and  C13_17
REMARK   10  A    between atoms: C13_17  and  S1_18
REMARK   11  A    between atoms: S1_18  and  N1_21
REMARK   12  A    between atoms: C18_26  and  C19_27
REMARK   13  A    between atoms: C27_37  and  O8_38
ROOT
HETATM    1  C6  UNL     1       1.536 -45.007  14.783  1.00  0.00     0.002 C
HETATM    2  C7  UNL     1       1.021 -45.351  13.437  1.00  0.00     0.044 C
HETATM    3  C9  UNL     1      -0.462 -45.632  13.610  1.00  0.00     0.149 C
HETATM    4  C12 UNL     1      -0.771 -45.606  15.113  1.00  0.00     0.012 C
HETATM    5  C20 UNL     1       0.624 -45.862  15.668  1.00  0.00     0.003 C
HETATM    6  C21 UNL     1       1.095 -47.253  15.582  1.00  0.00     0.006 C
HETATM    7  C22 UNL     1       0.065 -48.206  16.153  1.00  0.00     0.001 C
HETATM    8  C23 UNL     1      -1.153 -48.083  15.289  1.00  0.00     0.010 C
HETATM    9  C24 UNL     1      -1.732 -46.686  15.436  1.00  0.00    -0.036 C
HETATM   10  C25 UNL     1      -3.030 -46.659  14.671  1.00  0.00     0.015 C
HETATM   11  C26 UNL     1      -2.157 -46.711  16.919  1.00  0.00     0.015 C
ENDROOT
BRANCH   4  12
HETATM   12  C13 UNL     1      -1.231 -44.224  15.338  1.00  0.00     0.176 C
BRANCH  12  13
HETATM   13  S1  UNL     1      -1.957 -43.134  14.271  1.00  0.00     0.233 S
HETATM   14  O4  UNL     1      -1.156 -42.309  13.319  1.00  0.00    -0.205 OA
HETATM   15  O5  UNL     1      -3.081 -43.704  13.447  1.00  0.00    -0.205 OA
BRANCH  13  16
HETATM   16  N1  UNL     1      -2.730 -41.906  15.285  1.00  0.00    -0.275 N
HETATM   17  C14 UNL     1      -2.403 -42.044  16.625  1.00  0.00     0.077 C
HETATM   18  C15 UNL     1      -1.663 -40.956  17.301  1.00  0.00     0.046 C
HETATM   19  C16 UNL     1      -1.820 -39.595  16.718  1.00  0.00     0.008 C
HETATM   20  C17 UNL     1      -3.019 -39.613  15.815  1.00  0.00     0.038 C
HETATM   21  C18 UNL     1      -2.775 -40.637  14.726  1.00  0.00     0.201 C
BRANCH  21  22
HETATM   22  C19 UNL     1      -3.901 -40.430  13.745  1.00  0.00     0.197 C
HETATM   23  O6  UNL     1      -5.016 -40.973  14.008  1.00  0.00    -0.646 OA
HETATM   24  O7  UNL     1      -3.790 -39.697  12.597  1.00  0.00    -0.646 OA
ENDBRANCH  21  22
ENDBRANCH  13  16
ENDBRANCH  12  13
ENDBRANCH   4  12
BRANCH   3  25
HETATM   25  O2  UNL     1      -0.758 -46.748  12.898  1.00  0.00    -0.315 OA
BRANCH  25  26
HETATM   26  C10 UNL     1      -1.127 -46.724  11.562  1.00  0.00     0.255 C
HETATM   27  C11 UNL     1      -0.842 -47.821  10.601  1.00  0.00     0.126 C
HETATM   28  O3  UNL     1      -1.744 -45.701  11.155  1.00  0.00    -0.266 OA
ENDBRANCH  25  26
ENDBRANCH   3  25
BRANCH   2  29
HETATM   29  C8  UNL     1       1.343 -44.405  12.326  1.00  0.00     0.171 C
BRANCH  29  30
HETATM   30  O1  UNL     1       0.274 -43.872  11.641  1.00  0.00    -0.400 OA
ATOM     31  H1  UNL     1       0.440 -43.584  10.751  1.00  0.00     0.209 HD
ENDBRANCH  29  30
ENDBRANCH   2  29
BRANCH   1  32
HETATM   32  C5  UNL     1       2.998 -45.365  14.929  1.00  0.00     0.033 C
BRANCH  32  33
HETATM   33  C4  UNL     1       3.514 -45.047  16.269  1.00  0.00    -0.017 C
HETATM   34  C3  UNL     1       4.427 -45.688  16.959  1.00  0.00    -0.039 C
BRANCH  34  35
HETATM   35  C2  UNL     1       4.801 -45.201  18.288  1.00  0.00    -0.001 C
HETATM   36  C1  UNL     1       3.931 -45.021  19.243  1.00  0.00     0.012 C
ENDBRANCH  34  35
BRANCH  34  37
HETATM   37  C27 UNL     1       5.122 -46.904  16.484  1.00  0.00     0.202 C
BRANCH  37  38
HETATM   38  O8  UNL     1       6.433 -46.567  16.092  1.00  0.00    -0.396 OA
ATOM     39  H8  UNL     1       7.014 -46.649  16.840  1.00  0.00     0.209 HD
ENDBRANCH  37  38
ENDBRANCH  34  37
ENDBRANCH  32  33
ENDBRANCH   1  32
TORSDOF 13
ENDMDL