MODEL 5
REMARK VINA RESULT: -5.839374285      1.747      3.287
REMARK  4 active torsions:
REMARK  status: ('A' for Active; 'I' for Inactive)
REMARK    1  A    between atoms: C2_2  and  O1_3
REMARK    2  A    between atoms: O1_3  and  C3_4
REMARK    3  A    between atoms: C3_4  and  C4_6
REMARK    4  A    between atoms: C10_12  and  C11_13
ROOT
HETATM    1  C4  UNL     1      -0.020 -21.639  35.748  1.00  0.00     0.091 C
HETATM    2  C5  UNL     1       1.268 -20.873  35.966  1.00  0.00     0.020 C
HETATM    3  C6  UNL     1       2.374 -21.939  35.938  1.00  0.00    -0.012 C
HETATM    4  C7  UNL     1       2.505 -22.275  34.457  1.00  0.00     0.010 C
HETATM    5  C8  UNL     1       1.265 -23.013  34.060  1.00  0.00    -0.007 C
HETATM    6  C9  UNL     1       1.465 -24.448  34.582  1.00  0.00     0.022 C
HETATM    7  C10 UNL     1       0.861 -23.914  35.889  1.00  0.00     0.025 C
HETATM    8  C13 UNL     1       1.907 -23.171  36.670  1.00  0.00     0.022 C
HETATM    9  C14 UNL     1       0.136 -22.907  35.017  1.00  0.00     0.019 C
ENDROOT
BRANCH   1  10
HETATM   10  C3  UNL     1      -1.011 -20.723  35.084  1.00  0.00     0.263 C
HETATM   11  O2  UNL     1      -0.733 -20.134  33.996  1.00  0.00    -0.265 OA
BRANCH  10  12
HETATM   12  O1  UNL     1      -2.254 -20.472  35.603  1.00  0.00    -0.322 OA
BRANCH  12  13
HETATM   13  C2  UNL     1      -2.946 -21.283  36.509  1.00  0.00     0.174 C
HETATM   14  C1  UNL     1      -4.271 -20.731  36.945  1.00  0.00     0.034 C
ENDBRANCH  12  13
ENDBRANCH  10  12
ENDBRANCH   1  10
BRANCH   7  15
HETATM   15  C11 UNL     1       0.032 -24.871  36.612  1.00  0.00     0.132 C
HETATM   16  C12 UNL     1      -0.497 -26.072  35.957  1.00  0.00     0.091 C
HETATM   17  O3  UNL     1      -0.236 -24.683  37.789  1.00  0.00    -0.298 OA
ENDBRANCH   7  15
TORSDOF 4
ENDMDL