MODEL 5
REMARK VINA RESULT: -6.173254664      6.243      8.373
REMARK  3 active torsions:
REMARK  status: ('A' for Active; 'I' for Inactive)
REMARK    1  A    between atoms: C2_2  and  C3_3
REMARK    2  A    between atoms: C3_3  and  N1_4
REMARK    3  A    between atoms: C5_6  and  C6_7
ROOT
HETATM    1  N1  UNL     1      -7.544 -19.262  41.644  1.00  0.00    -0.300 N
HETATM    2  C4  UNL     1      -7.977 -18.988  40.389  1.00  0.00     0.119 A
HETATM    3  C5  UNL     1      -6.945 -18.438  39.656  1.00  0.00    -0.018 A
HETATM    4  C13 UNL     1      -5.874 -18.389  40.520  1.00  0.00     0.116 A
HETATM    5  N2  UNL     1      -6.275 -18.896  41.709  1.00  0.00    -0.309 N
ATOM      6  H2  UNL     1      -5.684 -18.982  42.536  1.00  0.00     0.186 HD
ENDROOT
BRANCH   3   7
HETATM    7  C6  UNL     1      -6.990 -17.993  38.239  1.00  0.00     0.051 C
HETATM    8  C7  UNL     1      -5.691 -17.331  37.812  1.00  0.00     0.018 C
HETATM    9  C8  UNL     1      -5.391 -17.862  36.408  1.00  0.00     0.010 C
HETATM   10  C9  UNL     1      -6.659 -17.673  35.597  1.00  0.00     0.009 C
HETATM   11  C12 UNL     1      -5.105 -19.347  36.582  1.00  0.00     0.172 C
HETATM   12  C10 UNL     1      -7.579 -18.832  35.960  1.00  0.00     0.033 C
HETATM   13  C11 UNL     1      -7.250 -19.210  37.387  1.00  0.00     0.130 C
HETATM   14  O1  UNL     1      -6.076 -19.961  37.347  1.00  0.00    -0.385 OA
ENDBRANCH   3   7
BRANCH   1  15
HETATM   15  C3  UNL     1      -8.343 -19.847  42.702  1.00  0.00     0.174 C
BRANCH  15  16
HETATM   16  C2  UNL     1      -8.998 -18.820  43.526  1.00  0.00    -0.015 C
HETATM   17  C1  UNL     1     -10.279 -18.595  43.409  1.00  0.00     0.008 C
ENDBRANCH  15  16
ENDBRANCH   1  15
TORSDOF 3
ENDMDL