MODEL 5
REMARK VINA RESULT: -5.474739580      1.390      3.328
REMARK  3 active torsions:
REMARK  status: ('A' for Active; 'I' for Inactive)
REMARK    1  A    between atoms: N3_8  and  C4_9
REMARK    2  A    between atoms: C4_9  and  C5_10
REMARK    3  A    between atoms: C4_9  and  C8_13
ROOT
HETATM    1  C4  UNL     1      -8.712 -17.521  40.292  1.00  0.00     0.104 C
ENDROOT
BRANCH   1   2
HETATM    2  N3  UNL     1      -7.778 -18.182  39.421  1.00  0.00    -0.325 N
HETATM    3  C2  UNL     1      -8.059 -19.043  38.399  1.00  0.00     0.095 A
HETATM    4  C1  UNL     1      -9.421 -19.440  38.009  1.00  0.00     0.091 C
HETATM    5  N1  UNL     1      -6.923 -19.473  37.817  1.00  0.00    -0.288 N
HETATM    6  N2  UNL     1      -5.920 -18.917  38.430  1.00  0.00    -0.295 N
ATOM      7  H1  UNL     1      -6.860 -20.121  37.032  1.00  0.00     0.188 HD
HETATM    8  C3  UNL     1      -6.433 -18.123  39.416  1.00  0.00     0.201 A
ATOM      9  H2  UNL     1      -4.932 -19.050  38.215  1.00  0.00     0.187 HD
ENDBRANCH   1   2
BRANCH   1  10
HETATM   10  C5  UNL     1      -8.549 -16.030  40.377  1.00  0.00     0.010 A
HETATM   11  C6  UNL     1      -9.715 -15.102  40.398  1.00  0.00     0.007 A
HETATM   12  C7  UNL     1      -8.893 -15.209  39.163  1.00  0.00     0.007 A
ENDBRANCH   1  10
BRANCH   1  13
HETATM   13  C8  UNL     1      -8.894 -18.202  41.602  1.00  0.00    -0.019 C
HETATM   14  C9  UNL     1      -8.443 -19.616  41.702  1.00  0.00     0.012 C
HETATM   15  C10 UNL     1      -8.163 -19.854  43.201  1.00  0.00     0.005 C
HETATM   16  C11 UNL     1      -8.652 -18.570  43.818  1.00  0.00    -0.014 C
HETATM   17  C12 UNL     1     -10.130 -18.480  43.586  1.00  0.00     0.005 C
HETATM   18  C14 UNL     1      -8.139 -17.573  42.757  1.00  0.00     0.016 C
HETATM   19  C13 UNL     1     -10.321 -18.028  42.144  1.00  0.00     0.012 C
ENDBRANCH   1  13
TORSDOF 3
ENDMDL