MODEL 2
REMARK VINA RESULT: -6.401778763      0.890      1.187
REMARK  4 active torsions:
REMARK  status: ('A' for Active; 'I' for Inactive)
REMARK    1  A    between atoms: C2_2  and  O2_4
REMARK    2  A    between atoms: O2_4  and  C3_5
REMARK    3  A    between atoms: N1_8  and  C6_9
REMARK    4  A    between atoms: C6_9  and  C7_10
ROOT
HETATM    1  C3  UNL     1      -4.649 -18.912  36.609  1.00  0.00     0.135 C
HETATM    2  C4  UNL     1      -4.482 -20.332  37.046  1.00  0.00     0.062 C
HETATM    3  C5  UNL     1      -3.628 -21.106  36.062  1.00  0.00     0.275 C
HETATM    4  N1  UNL     1      -2.490 -20.254  35.738  1.00  0.00     0.088 N
HETATM    5  C13 UNL     1      -2.916 -19.189  34.874  1.00  0.00     0.275 C
HETATM    6  C14 UNL     1      -4.329 -18.720  35.137  1.00  0.00     0.062 C
ENDROOT
BRANCH   4   7
HETATM    7  C6  UNL     1      -1.473 -21.021  35.014  1.00  0.00     0.277 C
BRANCH   7   8
HETATM    8  C7  UNL     1      -0.468 -21.487  36.057  1.00  0.00     0.014 C
HETATM    9  C8  UNL     1      -0.778 -22.935  36.355  1.00  0.00     0.006 C
HETATM   10  C9  UNL     1       0.089 -23.423  37.488  1.00  0.00     0.000 C
HETATM   11  C10 UNL     1       1.505 -22.911  37.339  1.00  0.00     0.000 C
HETATM   12  C11 UNL     1       1.808 -22.478  35.919  1.00  0.00     0.000 C
HETATM   13  C12 UNL     1       0.919 -21.348  35.459  1.00  0.00     0.006 C
ENDBRANCH   7   8
ENDBRANCH   4   7
BRANCH   1  14
HETATM   14  O2  UNL     1      -5.936 -18.420  36.907  1.00  0.00    -0.316 OA
BRANCH  14  15
HETATM   15  C2  UNL     1      -7.102 -19.033  36.525  1.00  0.00     0.255 C
HETATM   16  C1  UNL     1      -7.712 -18.772  35.203  1.00  0.00     0.126 C
HETATM   17  O1  UNL     1      -7.672 -19.831  37.302  1.00  0.00    -0.266 OA
ENDBRANCH  14  15
ENDBRANCH   1  14
TORSDOF 4
ENDMDL