MODEL 1
REMARK VINA RESULT: -7.489011136      0.000      0.000
REMARK  4 active torsions:
REMARK  status: ('A' for Active; 'I' for Inactive)
REMARK    1  A    between atoms: C2_2  and  C3_4
REMARK    2  A    between atoms: C3_4  and  C4_5
REMARK    3  A    between atoms: C4_5  and  O3_7
REMARK    4  A    between atoms: O3_7  and  C5_8
ROOT
HETATM    1  C5  UNL     1      -1.988 -21.716  36.265  1.00  0.00     0.132 C
HETATM    2  C6  UNL     1      -1.681 -20.990  34.985  1.00  0.00     0.032 C
HETATM    3  C7  UNL     1      -0.253 -20.648  34.768  1.00  0.00     0.002 C
HETATM    4  C8  UNL     1       0.676 -21.156  35.843  1.00  0.00     0.001 C
HETATM    5  C9  UNL     1       0.784 -22.650  35.678  1.00  0.00     0.009 C
HETATM    6  C10 UNL     1      -0.162 -23.440  36.522  1.00  0.00    -0.045 C
HETATM    7  C11 UNL     1       0.242 -23.282  37.961  1.00  0.00     0.015 C
HETATM    8  C12 UNL     1       0.058 -24.908  36.155  1.00  0.00     0.015 C
HETATM    9  C13 UNL     1      -1.613 -23.151  36.265  1.00  0.00     0.041 C
ENDROOT
BRANCH   1  10
HETATM   10  O3  UNL     1      -3.411 -21.636  36.408  1.00  0.00    -0.316 OA
BRANCH  10  11
HETATM   11  C4  UNL     1      -4.058 -20.455  36.648  1.00  0.00     0.266 C
HETATM   12  O2  UNL     1      -4.804 -20.401  37.677  1.00  0.00    -0.265 OA
BRANCH  11  13
HETATM   13  C3  UNL     1      -3.984 -19.221  35.828  1.00  0.00     0.188 C
BRANCH  13  14
HETATM   14  C2  UNL     1      -5.304 -18.504  35.842  1.00  0.00     0.132 C
HETATM   15  C1  UNL     1      -5.444 -17.203  36.577  1.00  0.00     0.091 C
HETATM   16  O1  UNL     1      -6.297 -18.917  35.280  1.00  0.00    -0.298 OA
ENDBRANCH  13  14
ENDBRANCH  11  13
ENDBRANCH  10  11
ENDBRANCH   1  10
TORSDOF 4
ENDMDL