MODEL 2
REMARK VINA RESULT: -5.600494007      0.912      1.021
REMARK  3 active torsions:
REMARK  status: ('A' for Active; 'I' for Inactive)
REMARK    1  A    between atoms: C2_2  and  C3_3
REMARK    2  A    between atoms: C3_3  and  C4_4
REMARK    3  A    between atoms: C4_4  and  N1_5
ROOT
HETATM    1  N1  UNL     1      -8.470 -17.616  40.431  1.00  0.00     0.091 N
HETATM    2  C5  UNL     1      -9.730 -18.244  40.322  1.00  0.00     0.272 C
HETATM    3  C6  UNL     1     -10.146 -18.693  38.951  1.00  0.00     0.033 C
HETATM    4  C7  UNL     1      -9.032 -19.596  38.470  1.00  0.00     0.041 C
HETATM    5  C8  UNL     1      -7.816 -18.712  38.278  1.00  0.00     0.087 C
HETATM    6  C9  UNL     1      -7.968 -17.786  37.095  1.00  0.00     0.040 C
HETATM    7  C10 UNL     1      -7.962 -18.646  35.856  1.00  0.00     0.003 C
HETATM    8  C11 UNL     1      -6.618 -18.492  35.186  1.00  0.00     0.002 C
HETATM    9  C12 UNL     1      -5.520 -19.187  35.929  1.00  0.00     0.026 C
HETATM   10  C13 UNL     1      -5.663 -19.071  37.436  1.00  0.00     0.168 C
HETATM   11  O1  UNL     1      -6.803 -19.625  37.935  1.00  0.00    -0.378 OA
HETATM   12  C14 UNL     1      -7.465 -17.943  39.483  1.00  0.00     0.310 C
ENDROOT
BRANCH   1  13
HETATM   13  C4  UNL     1      -7.949 -18.032  41.747  1.00  0.00     0.272 C
BRANCH  13  14
HETATM   14  C3  UNL     1      -8.349 -19.440  42.102  1.00  0.00     0.030 C
BRANCH  14  15
HETATM   15  C2  UNL     1      -7.890 -19.764  43.529  1.00  0.00    -0.003 C
HETATM   16  C1  UNL     1      -6.480 -20.314  43.510  1.00  0.00     0.005 C
ENDBRANCH  14  15
ENDBRANCH  13  14
ENDBRANCH   1  13
TORSDOF 3
ENDMDL