MODEL 4
REMARK VINA RESULT: -5.672932785      3.956      6.377
REMARK  3 active torsions:
REMARK  status: ('A' for Active; 'I' for Inactive)
REMARK    1  A    between atoms: C2_2  and  C4_4
REMARK    2  A    between atoms: C4_4  and  C5_5
REMARK    3  A    between atoms: N1_9  and  C9_10
ROOT
HETATM    1  C5  UNL     1      -7.956 -18.967  38.508  1.00  0.00     0.080 C
HETATM    2  C6  UNL     1      -9.028 -19.694  37.680  1.00  0.00     0.026 C
HETATM    3  C7  UNL     1     -10.321 -19.548  38.450  1.00  0.00     0.021 C
HETATM    4  C8  UNL     1     -10.001 -18.346  39.357  1.00  0.00     0.118 C
HETATM    5  N1  UNL     1      -8.647 -18.573  39.647  1.00  0.00    -0.401 N
ENDROOT
BRANCH   5   6
HETATM    6  C9  UNL     1      -8.043 -18.137  40.797  1.00  0.00     0.111 C
HETATM    7  C10 UNL     1      -6.749 -18.875  41.190  1.00  0.00     0.059 C
HETATM    8  C11 UNL     1      -6.803 -18.719  42.691  1.00  0.00     0.124 C
HETATM    9  C12 UNL     1      -7.502 -19.961  43.242  1.00  0.00     0.034 C
HETATM   10  O1  UNL     1      -7.826 -17.779  42.958  1.00  0.00    -0.379 OA
HETATM   11  C13 UNL     1      -8.863 -19.740  42.564  1.00  0.00     0.036 C
HETATM   12  C14 UNL     1      -8.808 -18.317  42.083  1.00  0.00     0.144 C
ENDBRANCH   5   6
BRANCH   1  13
HETATM   13  C4  UNL     1      -7.361 -17.919  37.647  1.00  0.00     0.028 C
BRANCH  13  14
HETATM   14  C2  UNL     1      -5.852 -18.006  37.620  1.00  0.00    -0.021 C
HETATM   15  C1  UNL     1      -5.271 -16.890  36.746  1.00  0.00     0.009 C
HETATM   16  C3  UNL     1      -5.456 -19.345  37.022  1.00  0.00     0.009 C
ENDBRANCH  13  14
ENDBRANCH   1  13
TORSDOF 3
ENDMDL