MODEL 4
REMARK VINA RESULT: -5.445241164      8.963     12.410
REMARK  3 active torsions:
REMARK  status: ('A' for Active; 'I' for Inactive)
REMARK    1  A    between atoms: C2_3  and  C3_4
REMARK    2  A    between atoms: C3_4  and  C4_5
REMARK    3  A    between atoms: C12_13  and  C13_14
ROOT
HETATM    1  N1  UNL     1      -6.111 -19.683  37.447  1.00  0.00    -0.197 NA
HETATM    2  C1  UNL     1      -6.875 -19.078  38.078  1.00  0.00     0.059 C
HETATM    3  C2  UNL     1      -7.832 -18.331  38.891  1.00  0.00     0.124 C
ENDROOT
BRANCH   3   4
HETATM    4  C3  UNL     1      -7.684 -18.670  40.337  1.00  0.00     0.022 C
BRANCH   4   5
HETATM    5  C4  UNL     1      -8.973 -18.717  41.078  1.00  0.00     0.031 C
HETATM    6  C5  UNL     1      -9.692 -17.403  40.870  1.00  0.00     0.127 C
HETATM    7  C6  UNL     1     -11.110 -17.645  41.374  1.00  0.00     0.037 C
HETATM    8  O2  UNL     1      -9.083 -16.328  41.405  1.00  0.00    -0.380 OA
HETATM    9  C7  UNL     1     -11.042 -17.827  42.867  1.00  0.00    -0.011 C
HETATM   10  C8  UNL     1     -10.931 -16.470  43.493  1.00  0.00     0.007 C
HETATM   11  C14 UNL     1     -10.051 -18.822  43.329  1.00  0.00     0.021 C
HETATM   12  C9  UNL     1      -9.556 -15.975  43.709  1.00  0.00     0.032 C
HETATM   13  C10 UNL     1      -8.562 -16.406  42.646  1.00  0.00     0.123 C
HETATM   14  C11 UNL     1      -7.921 -17.712  43.022  1.00  0.00     0.049 C
HETATM   15  C12 UNL     1      -8.766 -18.884  42.552  1.00  0.00     0.021 C
BRANCH  15  16
HETATM   16  C13 UNL     1      -8.053 -20.121  42.928  1.00  0.00     0.241 C
HETATM   17  O1  UNL     1      -7.052 -20.101  43.614  1.00  0.00    -0.306 OA
ENDBRANCH  15  16
ENDBRANCH   4   5
ENDBRANCH   3   4
TORSDOF 3
ENDMDL