MODEL 2
REMARK VINA RESULT: -7.181323466      1.175      1.329
REMARK  3 active torsions:
REMARK  status: ('A' for Active; 'I' for Inactive)
REMARK    1  A    between atoms: C1_2  and  C2_3
REMARK       I    between atoms: C1_2  and  N1_10
REMARK    2  A    between atoms: C2_3  and  C3_4
REMARK    3  A    between atoms: C3_4  and  C4_5
ROOT
HETATM    1  O1  UNL     1      -2.730 -21.080  36.021  1.00  0.00    -0.273 OA
HETATM    2  C1  UNL     1      -1.676 -20.981  35.352  1.00  0.00     0.219 C
HETATM    3  N1  UNL     1      -0.612 -21.876  35.676  1.00  0.00    -0.352 N
HETATM    4  C7  UNL     1       0.632 -21.783  34.946  1.00  0.00     0.125 C
HETATM    5  C8  UNL     1       1.770 -21.906  35.970  1.00  0.00     0.020 C
HETATM    6  C9  UNL     1       1.623 -23.267  36.616  1.00  0.00     0.003 C
HETATM    7  C10 UNL     1       0.414 -23.153  37.535  1.00  0.00     0.020 C
HETATM    8  C11 UNL     1      -0.810 -22.862  36.716  1.00  0.00     0.125 C
ENDROOT
BRANCH   2   9
HETATM    9  C2  UNL     1      -1.523 -19.993  34.282  1.00  0.00     0.104 C
BRANCH   9  10
HETATM   10  C3  UNL     1      -2.163 -18.672  34.479  1.00  0.00     0.025 C
BRANCH  10  11
HETATM   11  C4  UNL     1      -3.463 -18.389  33.868  1.00  0.00     0.060 C
HETATM   12  C5  UNL     1      -4.442 -17.970  34.987  1.00  0.00     0.027 C
HETATM   13  C6  UNL     1      -5.840 -18.043  34.364  1.00  0.00     0.087 C
HETATM   14  S1  UNL     1      -5.730 -16.664  33.137  1.00  0.00    -0.097 SA
HETATM   15  S2  UNL     1      -3.608 -16.963  32.781  1.00  0.00    -0.093 SA
ENDBRANCH  10  11
ENDBRANCH   9  10
ENDBRANCH   2   9
TORSDOF 3
ENDMDL