MODEL 4
REMARK VINA RESULT: -5.610255611      2.618      5.287
REMARK  3 active torsions:
REMARK  status: ('A' for Active; 'I' for Inactive)
REMARK    1  A    between atoms: C2_2  and  C4_4
REMARK    2  A    between atoms: C4_4  and  C5_5
REMARK    3  A    between atoms: C6_6  and  C7_7
ROOT
HETATM    1  C5  UNL     1      -6.768 -16.047  38.825  1.00  0.00     0.003 A
HETATM    2  C6  UNL     1      -5.914 -17.248  39.030  1.00  0.00     0.058 A
HETATM    3  C11 UNL     1      -6.355 -16.983  37.671  1.00  0.00    -0.035 A
HETATM    4  C12 UNL     1      -7.523 -17.636  37.012  1.00  0.00     0.016 C
HETATM    5  C13 UNL     1      -5.309 -16.458  36.687  1.00  0.00     0.016 C
ENDROOT
BRANCH   2   6
HETATM    6  C7  UNL     1      -6.464 -18.362  39.881  1.00  0.00     0.367 C
HETATM    7  N1  UNL     1      -7.626 -18.005  40.621  1.00  0.00    -0.011 N
HETATM    8  C8  UNL     1      -7.519 -18.861  41.801  1.00  0.00     0.254 C
ATOM      9  H12 UNL     1      -7.720 -17.009  40.820  1.00  0.00     0.284 HD
ATOM     10  H11 UNL     1      -8.504 -18.087  40.108  1.00  0.00     0.284 HD
HETATM   11  C9  UNL     1      -7.380 -18.007  43.031  1.00  0.00     0.081 C
HETATM   12  C10 UNL     1      -8.706 -19.757  41.952  1.00  0.00     0.081 C
HETATM   13  O1  UNL     1      -6.338 -19.568  41.610  1.00  0.00    -0.199 OA
HETATM   14  O2  UNL     1      -5.580 -18.846  40.812  1.00  0.00    -0.204 OA
ENDBRANCH   2   6
BRANCH   1  15
HETATM   15  C4  UNL     1      -6.212 -14.672  38.700  1.00  0.00     0.010 C
BRANCH  15  16
HETATM   16  C2  UNL     1      -6.991 -13.743  39.604  1.00  0.00    -0.022 C
HETATM   17  C1  UNL     1      -7.125 -12.356  39.004  1.00  0.00     0.009 C
HETATM   18  C3  UNL     1      -8.313 -14.309  39.993  1.00  0.00     0.009 C
ENDBRANCH  15  16
ENDBRANCH   1  15
TORSDOF 3
ENDMDL