MODEL 3
REMARK VINA RESULT: -6.825229068      2.927      5.117
REMARK  12 active torsions:
REMARK  status: ('A' for Active; 'I' for Inactive)
REMARK    1  A    between atoms: C2_2  and  O2_4
REMARK    2  A    between atoms: O2_4  and  C3_5
REMARK    3  A    between atoms: C4_8  and  S1_9
REMARK    4  A    between atoms: S1_9  and  N2_10
REMARK    5  A    between atoms: C6_16  and  N3_17
REMARK    6  A    between atoms: C7_20  and  N4_21
REMARK    7  A    between atoms: N4_21  and  N5_23
REMARK    8  A    between atoms: N5_23  and  C8_25
REMARK    9  A    between atoms: C8_25  and  N6_27
REMARK   10  A    between atoms: N6_27  and  C9_29
REMARK   11  A    between atoms: C9_29  and  C10_30
REMARK   12  A    between atoms: C10_30  and  O7_31
ROOT
HETATM    1  C3  UNL     1     -60.399  30.021  -7.450  1.00  0.00     0.183 A
HETATM    2  N1  UNL     1     -59.205  29.670  -8.009  1.00  0.00    -0.324 N
ATOM      3  H1  UNL     1     -58.748  28.818  -7.684  1.00  0.00     0.169 HD
HETATM    4  C4  UNL     1     -58.604  30.395  -8.967  1.00  0.00     0.153 A
HETATM    5  C5  UNL     1     -59.244  31.536  -9.383  1.00  0.00     0.082 A
HETATM    6  C6  UNL     1     -60.463  31.938  -8.846  1.00  0.00     0.138 A
HETATM    7  C7  UNL     1     -61.053  31.162  -7.859  1.00  0.00     0.133 A
ENDROOT
BRANCH   7   8
HETATM    8  N4  UNL     1     -62.321  31.572  -7.321  1.00  0.00    -0.292 N
ATOM      9  H4  UNL     1     -62.481  32.546  -7.067  1.00  0.00     0.187 HD
BRANCH   8  10
HETATM   10  N5  UNL     1     -63.329  30.626  -7.151  1.00  0.00    -0.276 N
ATOM     11  H5  UNL     1     -63.327  30.067  -6.298  1.00  0.00     0.189 HD
BRANCH  10  12
HETATM   12  C8  UNL     1     -64.367  30.395  -8.111  1.00  0.00     0.186 C
HETATM   13  S2  UNL     1     -65.364  29.143  -7.812  1.00  0.00    -0.040 SA
BRANCH  12  14
HETATM   14  N6  UNL     1     -64.483  31.215  -9.244  1.00  0.00    -0.364 N
ATOM     15  H6  UNL     1     -64.273  32.209  -9.143  1.00  0.00     0.162 HD
BRANCH  14  16
HETATM   16  C9  UNL     1     -64.881  30.731 -10.543  1.00  0.00     0.148 C
BRANCH  16  17
HETATM   17  C10 UNL     1     -65.482  31.846 -11.346  1.00  0.00     0.183 C
BRANCH  17  18
HETATM   18  O7  UNL     1     -64.486  32.762 -11.735  1.00  0.00    -0.399 OA
ATOM     19  H7  UNL     1     -64.872  33.607 -11.929  1.00  0.00     0.209 HD
ENDBRANCH  17  18
ENDBRANCH  16  17
ENDBRANCH  14  16
ENDBRANCH  12  14
ENDBRANCH  10  12
ENDBRANCH   8  10
ENDBRANCH   7   8
BRANCH   1  20
HETATM   20  O2  UNL     1     -60.949  29.214  -6.465  1.00  0.00    -0.259 OA
BRANCH  20  21
HETATM   21  C2  UNL     1     -60.445  29.150  -5.191  1.00  0.00     0.261 C
HETATM   22  C1  UNL     1     -61.099  28.357  -4.107  1.00  0.00     0.126 C
HETATM   23  O1  UNL     1     -59.401  29.771  -4.905  1.00  0.00    -0.265 OA
ENDBRANCH  20  21
ENDBRANCH   1  20
BRANCH   6  24
HETATM   24  N3  UNL     1     -61.059  33.128  -9.309  1.00  0.00    -0.113 N
HETATM   25  O5  UNL     1     -60.471  34.200  -9.149  1.00  0.00    -0.532 OA
HETATM   26  O6  UNL     1     -62.265  33.102  -9.935  1.00  0.00    -0.532 OA
ENDBRANCH   6  24
BRANCH   4  27
HETATM   27  S1  UNL     1     -57.063  29.922  -9.639  1.00  0.00     0.272 S
HETATM   28  O3  UNL     1     -57.165  28.953 -10.750  1.00  0.00    -0.199 OA
HETATM   29  O4  UNL     1     -56.197  29.330  -8.546  1.00  0.00    -0.199 OA
BRANCH  27  30
HETATM   30  N2  UNL     1     -56.234  31.377 -10.124  1.00  0.00    -0.323 N
ATOM     31  H22 UNL     1     -56.458  32.320  -9.807  1.00  0.00     0.169 HD
ATOM     32  H21 UNL     1     -55.496  31.106 -10.774  1.00  0.00     0.169 HD
ENDBRANCH  27  30
ENDBRANCH   4  27
TORSDOF 12
ENDMDL