MODEL 5
REMARK VINA RESULT: -6.960338011      1.395      1.662
REMARK  11 active torsions:
REMARK  status: ('A' for Active; 'I' for Inactive)
REMARK    1  A    between atoms: O1_2  and  C2_3
REMARK    2  A    between atoms: C2_3  and  C3_4
REMARK       I    between atoms: C3_4  and  N1_6
REMARK       I    between atoms: N1_6  and  C4_8
REMARK    3  A    between atoms: C4_8  and  C5_10
REMARK    4  A    between atoms: C5_10  and  C6_11
REMARK    5  A    between atoms: C6_11  and  C7_12
REMARK    6  A    between atoms: C7_12  and  O4_13
REMARK    7  A    between atoms: O4_13  and  C8_14
REMARK    8  A    between atoms: C8_14  and  C9_16
REMARK    9  A    between atoms: C11_20  and  N3_21
REMARK   10  A    between atoms: N3_21  and  N4_23
REMARK   11  A    between atoms: C12_28  and  N6_29
ROOT
HETATM    1  C9  UNL     1     -63.149  29.304  -6.639  1.00  0.00     0.153 A
HETATM    2  N2  UNL     1     -63.650  29.960  -7.663  1.00  0.00    -0.340 N
ATOM      3  H2  UNL     1     -64.597  29.756  -7.985  1.00  0.00     0.167 HD
HETATM    4  C10 UNL     1     -62.938  30.868  -8.265  1.00  0.00     0.114 A
HETATM    5  C11 UNL     1     -63.335  31.653  -9.371  1.00  0.00     0.165 A
HETATM    6  N5  UNL     1     -62.484  32.547  -9.878  1.00  0.00    -0.173 N
ATOM      7  H5  UNL     1     -62.796  33.099 -10.677  1.00  0.00     0.186 HD
HETATM    8  C12 UNL     1     -61.246  32.772  -9.410  1.00  0.00     0.678 A
HETATM    9  N7  UNL     1     -60.845  32.035  -8.354  1.00  0.00    -0.183 N
ATOM     10  H7  UNL     1     -59.911  32.174  -7.967  1.00  0.00     0.185 HD
HETATM   11  C13 UNL     1     -61.677  31.104  -7.797  1.00  0.00     0.123 A
HETATM   12  S1  UNL     1     -61.587  29.988  -6.498  1.00  0.00    -0.045 SA
ENDROOT
BRANCH   1  13
HETATM   13  C8  UNL     1     -63.751  28.248  -5.809  1.00  0.00     0.317 C
HETATM   14  O5  UNL     1     -63.018  27.617  -5.014  1.00  0.00    -0.257 OA
BRANCH  13  15
HETATM   15  O4  UNL     1     -65.081  27.938  -5.884  1.00  0.00    -0.316 OA
BRANCH  15  16
HETATM   16  C7  UNL     1     -65.607  26.719  -6.304  1.00  0.00     0.179 C
BRANCH  16  17
HETATM   17  C6  UNL     1     -67.082  26.954  -6.658  1.00  0.00     0.036 C
BRANCH  17  18
HETATM   18  C5  UNL     1     -67.302  28.432  -6.876  1.00  0.00     0.105 C
BRANCH  18  19
HETATM   19  C4  UNL     1     -67.098  28.744  -8.316  1.00  0.00     0.224 C
HETATM   20  N1  UNL     1     -67.465  27.783  -9.298  1.00  0.00    -0.296 N
HETATM   21  C3  UNL     1     -67.328  27.940 -10.693  1.00  0.00     0.247 C
ATOM     22  H1  UNL     1     -67.861  26.904  -8.965  1.00  0.00     0.171 HD
HETATM   23  O2  UNL     1     -67.683  26.985 -11.424  1.00  0.00    -0.271 OA
HETATM   24  O3  UNL     1     -66.602  29.858  -8.605  1.00  0.00    -0.273 OA
BRANCH  21  25
HETATM   25  C2  UNL     1     -66.794  29.162 -11.299  1.00  0.00     0.270 C
BRANCH  25  26
HETATM   26  O1  UNL     1     -65.453  29.147 -11.551  1.00  0.00    -0.387 OA
HETATM   27  C1  UNL     1     -65.065  28.969 -12.856  1.00  0.00     0.202 C
ENDBRANCH  25  26
ENDBRANCH  21  25
ENDBRANCH  18  19
ENDBRANCH  17  18
ENDBRANCH  16  17
ENDBRANCH  15  16
ENDBRANCH  13  15
ENDBRANCH   1  13
BRANCH   5  28
HETATM   28  N3  UNL     1     -64.494  31.529  -9.905  1.00  0.00    -0.290 N
ATOM     29  H3  UNL     1     -65.170  30.908  -9.459  1.00  0.00     0.188 HD
BRANCH  28  30
HETATM   30  N4  UNL     1     -64.879  32.201 -11.069  1.00  0.00    -0.344 N
ATOM     31  H42 UNL     1     -64.184  32.288 -11.810  1.00  0.00     0.176 HD
ATOM     32  H41 UNL     1     -65.807  32.602 -11.202  1.00  0.00     0.176 HD
ENDBRANCH  28  30
ENDBRANCH   5  28
BRANCH   8  33
HETATM   33  N6  UNL     1     -60.431  33.632  -9.899  1.00  0.00    -0.234 N
ATOM     34  H62 UNL     1     -59.487  33.327 -10.135  1.00  0.00     0.174 HD
ATOM     35  H61 UNL     1     -60.662  34.611 -10.073  1.00  0.00     0.174 HD
ENDBRANCH   8  33
TORSDOF 11
ENDMDL