MODEL 1
REMARK VINA RESULT: -8.042431776      0.000      0.000
REMARK  11 active torsions:
REMARK  status: ('A' for Active; 'I' for Inactive)
REMARK    1  A    between atoms: C2_5  and  C3_6
REMARK    2  A    between atoms: C3_6  and  C4_7
REMARK    3  A    between atoms: C4_7  and  N3_8
REMARK    4  A    between atoms: N3_8  and  C5_10
REMARK    5  A    between atoms: N4_13  and  C8_14
REMARK    6  A    between atoms: C8_14  and  O1_15
REMARK    7  A    between atoms: O1_15  and  C9_16
REMARK    8  A    between atoms: C9_16  and  C10_17
REMARK    9  A    between atoms: C10_17  and  O2_18
REMARK   10  A    between atoms: N5_22  and  N6_23
REMARK   11  A    between atoms: N6_23  and  N7_25
ROOT
HETATM    1  C1  UNL     1     -68.962  31.448  -6.039  1.00  0.00     0.179 C
HETATM    2  N1  UNL     1     -68.332  30.228  -6.529  1.00  0.00    -0.280 N
HETATM    3  N2  UNL     1     -68.031  29.179  -5.792  1.00  0.00    -0.300 N
ATOM      4  H2  UNL     1     -68.207  29.108  -4.790  1.00  0.00     0.187 HD
HETATM    5  C2  UNL     1     -67.461  28.215  -6.532  1.00  0.00     0.046 A
HETATM    6  C12 UNL     1     -67.403  28.694  -7.811  1.00  0.00     0.056 A
HETATM    7  C13 UNL     1     -67.010  28.412  -9.116  1.00  0.00     0.076 A
HETATM    8  C14 UNL     1     -66.388  27.183  -9.543  1.00  0.00     0.102 C
HETATM    9  N8  UNL     1     -65.889  26.190  -9.868  1.00  0.00    -0.191 NA
HETATM   10  C15 UNL     1     -67.334  29.523  -9.869  1.00  0.00     0.113 A
HETATM   11  N9  UNL     1     -67.897  30.433  -9.058  1.00  0.00    -0.349 N
ATOM     12  H9  UNL     1     -68.232  31.350  -9.357  1.00  0.00     0.167 HD
HETATM   13  C16 UNL     1     -67.959  29.973  -7.802  1.00  0.00     0.135 A
ENDROOT
BRANCH   5  14
HETATM   14  C3  UNL     1     -66.994  26.890  -6.031  1.00  0.00     0.104 C
BRANCH  14  15
HETATM   15  C4  UNL     1     -65.472  26.814  -6.147  1.00  0.00     0.068 C
BRANCH  15  16
HETATM   16  N3  UNL     1     -64.823  27.986  -5.862  1.00  0.00    -0.354 N
ATOM     17  H3  UNL     1     -65.309  28.436  -5.087  1.00  0.00     0.166 HD
BRANCH  16  18
HETATM   18  C5  UNL     1     -63.866  28.712  -6.188  1.00  0.00     0.134 A
HETATM   19  C6  UNL     1     -64.073  29.765  -7.115  1.00  0.00     0.068 A
HETATM   20  C7  UNL     1     -63.057  30.584  -7.519  1.00  0.00     0.102 A
HETATM   21  N4  UNL     1     -61.829  30.386  -7.025  1.00  0.00    -0.286 N
HETATM   22  C11 UNL     1     -61.639  29.398  -6.155  1.00  0.00     0.352 A
HETATM   23  O3  UNL     1     -60.463  29.211  -5.682  1.00  0.00    -0.244 OA
HETATM   24  N5  UNL     1     -62.626  28.554  -5.722  1.00  0.00    -0.174 N
BRANCH  21  25
HETATM   25  C8  UNL     1     -60.740  31.262  -7.454  1.00  0.00     0.302 C
BRANCH  25  26
HETATM   26  O1  UNL     1     -60.198  30.866  -8.646  1.00  0.00    -0.369 OA
BRANCH  26  27
HETATM   27  C9  UNL     1     -59.903  31.940  -9.434  1.00  0.00     0.196 C
BRANCH  27  28
HETATM   28  C10 UNL     1     -61.021  32.915  -9.673  1.00  0.00     0.190 C
BRANCH  28  29
HETATM   29  O2  UNL     1     -60.494  34.206  -9.426  1.00  0.00    -0.399 OA
ATOM     30  H2  UNL     1     -59.590  34.192  -9.719  1.00  0.00     0.209 HD
ENDBRANCH  28  29
ENDBRANCH  27  28
ENDBRANCH  26  27
ENDBRANCH  25  26
ENDBRANCH  21  25
BRANCH  24  31
HETATM   31  N6  UNL     1     -62.248  27.575  -4.772  1.00  0.00    -0.237 N
ATOM     32  H6  UNL     1     -62.308  26.587  -5.018  1.00  0.00     0.208 HD
BRANCH  31  33
HETATM   33  N7  UNL     1     -61.795  27.941  -3.507  1.00  0.00    -0.330 N
ATOM     34  H72 UNL     1     -60.840  27.698  -3.243  1.00  0.00     0.178 HD
ATOM     35  H71 UNL     1     -62.402  28.440  -2.856  1.00  0.00     0.178 HD
ENDBRANCH  31  33
ENDBRANCH  24  31
ENDBRANCH  16  18
ENDBRANCH  15  16
ENDBRANCH  14  15
ENDBRANCH   5  14
TORSDOF 11
ENDMDL