MODEL 3
REMARK VINA RESULT: -8.885211597      2.455      6.845
REMARK  9 active torsions:
REMARK  status: ('A' for Active; 'I' for Inactive)
REMARK    1  A    between atoms: C1_2  and  O2_3
REMARK    2  A    between atoms: C1_2  and  C6_14
REMARK    3  A    between atoms: O2_3  and  C2_4
REMARK    4  A    between atoms: C2_4  and  C3_5
REMARK    5  A    between atoms: C6_14  and  C7_15
REMARK    6  A    between atoms: C7_15  and  C8_16
REMARK    7  A    between atoms: C12_20  and  N3_21
REMARK    8  A    between atoms: N4_25  and  N5_27
REMARK    9  A    between atoms: N5_27  and  C14_29
ROOT
HETATM    1  C6  UNL     1     -63.645  30.296  -6.704  1.00  0.00     0.105 C
HETATM    2  N4  UNL     1     -63.108  29.765  -5.657  1.00  0.00    -0.284 N
ATOM      3  H4  UNL     1     -63.381  28.810  -5.427  1.00  0.00     0.187 HD
ENDROOT
BRANCH   1   4
HETATM    4  C1  UNL     1     -64.588  29.481  -7.452  1.00  0.00     0.307 C
HETATM    5  O1  UNL     1     -65.442  29.954  -8.249  1.00  0.00    -0.258 OA
BRANCH   4   6
HETATM    6  O2  UNL     1     -64.612  28.088  -7.335  1.00  0.00    -0.313 OA
BRANCH   6   7
HETATM    7  C2  UNL     1     -65.837  27.385  -7.377  1.00  0.00     0.241 C
BRANCH   7   8
HETATM    8  C3  UNL     1     -66.342  27.091  -5.983  1.00  0.00     0.406 C
HETATM    9  N1  UNL     1     -66.966  25.799  -5.997  1.00  0.00    -0.042 N
HETATM   10  C4  UNL     1     -68.348  25.998  -5.599  1.00  0.00     0.262 C
ATOM     11  H12 UNL     1     -66.870  25.315  -6.890  1.00  0.00     0.279 HD
ATOM     12  H11 UNL     1     -66.478  25.110  -5.425  1.00  0.00     0.279 HD
HETATM   13  C5  UNL     1     -68.585  27.442  -6.030  1.00  0.00     0.262 C
HETATM   14  N2  UNL     1     -67.354  28.067  -5.646  1.00  0.00    -0.042 N
ATOM     15  H22 UNL     1     -67.328  28.380  -4.676  1.00  0.00     0.279 HD
ATOM     16  H21 UNL     1     -67.204  28.986  -6.063  1.00  0.00     0.279 HD
ENDBRANCH   7   8
ENDBRANCH   6   7
ENDBRANCH   4   6
ENDBRANCH   1   4
BRANCH   1  17
HETATM   17  C7  UNL     1     -63.294  31.658  -7.088  1.00  0.00     0.103 C
BRANCH  17  18
HETATM   18  C8  UNL     1     -62.132  31.782  -7.996  1.00  0.00    -0.050 A
HETATM   19  C9  UNL     1     -62.090  32.828  -8.888  1.00  0.00     0.007 A
HETATM   20  C10 UNL     1     -61.047  33.006  -9.772  1.00  0.00     0.003 A
HETATM   21  C11 UNL     1     -59.989  32.126  -9.794  1.00  0.00     0.036 A
HETATM   22  C12 UNL     1     -60.008  31.069  -8.909  1.00  0.00     0.103 A
HETATM   23  C13 UNL     1     -61.076  30.908  -8.021  1.00  0.00     0.043 A
BRANCH  22  24
HETATM   24  N3  UNL     1     -58.927  30.139  -8.906  1.00  0.00    -0.116 N
HETATM   25  O3  UNL     1     -58.826  29.269  -7.989  1.00  0.00    -0.532 OA
HETATM   26  O4  UNL     1     -58.002  30.205  -9.911  1.00  0.00    -0.532 OA
ENDBRANCH  22  24
ENDBRANCH  17  18
ENDBRANCH   1  17
BRANCH   2  27
HETATM   27  N5  UNL     1     -62.199  30.376  -4.827  1.00  0.00    -0.130 N
ATOM     28  H5  UNL     1     -62.338  31.348  -4.551  1.00  0.00     0.205 HD
BRANCH  27  29
HETATM   29  C14 UNL     1     -61.178  29.733  -4.399  1.00  0.00     0.722 A
HETATM   30  N6  UNL     1     -59.967  29.744  -4.973  1.00  0.00    -0.115 N
HETATM   31  N7  UNL     1     -59.179  28.966  -4.250  1.00  0.00     0.006 NA
ATOM     32  H6  UNL     1     -59.703  30.258  -5.814  1.00  0.00     0.202 HD
HETATM   33  N8  UNL     1     -59.848  28.456  -3.228  1.00  0.00     0.006 NA
HETATM   34  N9  UNL     1     -61.086  28.931  -3.322  1.00  0.00    -0.115 N
ATOM     35  H9  UNL     1     -61.847  28.720  -2.677  1.00  0.00     0.202 HD
ENDBRANCH  27  29
ENDBRANCH   2  27
TORSDOF 9
ENDMDL