MODEL 5
REMARK VINA RESULT: -7.178578299      1.221      2.309
REMARK  10 active torsions:
REMARK  status: ('A' for Active; 'I' for Inactive)
REMARK    1  A    between atoms: O1_2  and  S1_3
REMARK    2  A    between atoms: S1_3  and  N1_4
REMARK    3  A    between atoms: S1_3  and  N2_8
REMARK       I    between atoms: N2_8  and  C2_10
REMARK    4  A    between atoms: C2_10  and  C3_12
REMARK    5  A    between atoms: C3_12  and  N3_14
REMARK       I    between atoms: N3_14  and  C5_15
REMARK    6  A    between atoms: C5_15  and  C6_17
REMARK    7  A    between atoms: C6_17  and  N4_18
REMARK    8  A    between atoms: C8_20  and  O5_21
REMARK    9  A    between atoms: C10_25  and  C11_26
REMARK   10  A    between atoms: C13_29  and  O8_30
ROOT
HETATM    1  N3  UNL     1     -61.481  30.629  -9.143  1.00  0.00    -0.368 NA
HETATM    2  C5  UNL     1     -62.719  31.178  -9.050  1.00  0.00     0.310 C
HETATM    3  O4  UNL     1     -63.312  31.928  -9.850  1.00  0.00    -0.255 OA
ENDROOT
BRANCH   2   4
HETATM    4  C6  UNL     1     -63.549  30.866  -7.794  1.00  0.00     0.249 C
BRANCH   4   5
HETATM    5  N4  UNL     1     -64.469  29.787  -7.993  1.00  0.00    -0.324 N
HETATM    6  C7  UNL     1     -64.975  29.621  -9.253  1.00  0.00     0.134 A
HETATM    7  C8  UNL     1     -65.830  28.600  -9.599  1.00  0.00     0.133 A
HETATM    8  C9  UNL     1     -66.181  27.712  -8.607  1.00  0.00     0.224 A
HETATM    9  O6  UNL     1     -66.961  26.757  -8.880  1.00  0.00    -0.284 OA
HETATM   10  C10 UNL     1     -65.693  27.837  -7.308  1.00  0.00     0.113 A
HETATM   11  C13 UNL     1     -64.845  28.898  -7.071  1.00  0.00     0.161 A
BRANCH   7  12
HETATM   12  O5  UNL     1     -66.327  28.448 -10.895  1.00  0.00    -0.356 OA
ATOM     13  H5  UNL     1     -66.081  27.718 -11.452  1.00  0.00     0.218 HD
ENDBRANCH   7  12
BRANCH  10  14
HETATM   14  C11 UNL     1     -66.080  26.880  -6.313  1.00  0.00     0.164 C
HETATM   15  C12 UNL     1     -65.491  25.572  -6.051  1.00  0.00     0.097 C
HETATM   16  O7  UNL     1     -67.070  27.218  -5.563  1.00  0.00    -0.292 OA
ENDBRANCH  10  14
BRANCH  11  17
HETATM   17  O8  UNL     1     -64.356  29.034  -5.780  1.00  0.00    -0.345 OA
ATOM     18  H8  UNL     1     -64.716  28.479  -5.098  1.00  0.00     0.219 HD
ENDBRANCH  11  17
ENDBRANCH   4   5
ENDBRANCH   2   4
BRANCH   1  19
HETATM   19  C3  UNL     1     -60.288  30.169  -9.341  1.00  0.00     0.153 C
HETATM   20  C4  UNL     1     -60.016  30.012  -7.558  1.00  0.00     0.091 C
BRANCH  19  21
HETATM   21  C2  UNL     1     -58.998  29.675  -9.556  1.00  0.00     0.291 C
HETATM   22  N2  UNL     1     -57.860  30.621  -9.622  1.00  0.00    -0.243 N
ATOM     23  H2  UNL     1     -58.022  31.623  -9.520  1.00  0.00     0.182 HD
HETATM   24  O3  UNL     1     -58.651  28.466  -9.704  1.00  0.00    -0.264 OA
BRANCH  22  25
HETATM   25  S1  UNL     1     -56.289  30.034  -9.867  1.00  0.00     0.235 S
HETATM   26  O2  UNL     1     -55.830  29.138  -8.750  1.00  0.00    -0.199 OA
BRANCH  25  27
HETATM   27  O1  UNL     1     -55.153  31.231 -10.212  1.00  0.00    -0.281 OA
HETATM   28  C1  UNL     1     -55.514  32.470  -9.771  1.00  0.00     0.225 C
ENDBRANCH  25  27
BRANCH  25  29
HETATM   29  N1  UNL     1     -56.351  29.130 -11.159  1.00  0.00    -0.323 N
ATOM     30  H12 UNL     1     -56.814  28.224 -11.245  1.00  0.00     0.169 HD
ATOM     31  H11 UNL     1     -55.836  29.643 -11.874  1.00  0.00     0.169 HD
ENDBRANCH  25  29
ENDBRANCH  22  25
ENDBRANCH  19  21
ENDBRANCH   1  19
TORSDOF 10
ENDMDL