MODEL 5
REMARK VINA RESULT: -7.997547503      1.137      1.500
REMARK  11 active torsions:
REMARK  status: ('A' for Active; 'I' for Inactive)
REMARK    1  A    between atoms: C2_3  and  C3_4
REMARK       I    between atoms: C3_4  and  N2_6
REMARK    2  A    between atoms: N2_6  and  N3_8
REMARK    3  A    between atoms: C4_10  and  C5_11
REMARK       I    between atoms: C5_11  and  N4_13
REMARK    4  A    between atoms: N4_13  and  O3_15
REMARK    5  A    between atoms: O3_15  and  C6_16
REMARK    6  A    between atoms: C6_16  and  O4_17
REMARK    7  A    between atoms: C9_21  and  C10_22
REMARK    8  A    between atoms: C10_22  and  O6_24
REMARK    9  A    between atoms: O6_24  and  N5_25
REMARK       I    between atoms: N5_25  and  C11_27
REMARK   10  A    between atoms: C11_27  and  C12_29
REMARK   11  A    between atoms: C12_29  and  N6_32
ROOT
HETATM    1  C1  UNL     1     -64.964  28.348  -9.208  1.00  0.00     0.157 C
HETATM    2  N1  UNL     1     -65.431  29.463  -9.996  1.00  0.00    -0.342 N
HETATM    3  C2  UNL     1     -64.806  30.626 -10.225  1.00  0.00     0.104 A
HETATM    4  C7  UNL     1     -65.670  31.383 -11.046  1.00  0.00     0.038 A
HETATM    5  C8  UNL     1     -66.798  30.640 -11.285  1.00  0.00     0.038 A
HETATM    6  C9  UNL     1     -66.640  29.448 -10.629  1.00  0.00     0.112 A
ENDROOT
BRANCH   3   7
HETATM    7  C3  UNL     1     -63.523  31.085  -9.771  1.00  0.00     0.286 C
HETATM    8  O1  UNL     1     -63.339  32.224  -9.327  1.00  0.00    -0.264 OA
HETATM    9  N2  UNL     1     -62.377  30.211  -9.819  1.00  0.00    -0.265 N
ATOM     10  H2  UNL     1     -62.501  29.264 -10.178  1.00  0.00     0.190 HD
BRANCH   9  11
HETATM   11  N3  UNL     1     -61.148  30.591  -9.410  1.00  0.00    -0.304 N
HETATM   12  C4  UNL     1     -60.617  30.585  -8.281  1.00  0.00     0.183 C
ATOM     13  H3  UNL     1     -60.548  30.944 -10.156  1.00  0.00     0.186 HD
BRANCH  12  14
HETATM   14  C5  UNL     1     -61.137  30.162  -7.002  1.00  0.00     0.281 C
HETATM   15  O2  UNL     1     -62.344  29.700  -6.952  1.00  0.00    -0.265 OA
HETATM   16  N4  UNL     1     -60.449  30.207  -5.784  1.00  0.00    -0.228 N
ATOM     17  H4  UNL     1     -59.497  30.571  -5.800  1.00  0.00     0.198 HD
BRANCH  16  18
HETATM   18  O3  UNL     1     -60.941  29.808  -4.583  1.00  0.00    -0.252 OA
BRANCH  18  19
HETATM   19  C6  UNL     1     -60.303  28.740  -4.019  1.00  0.00     0.366 C
BRANCH  19  20
HETATM   20  O4  UNL     1     -61.102  28.003  -3.132  1.00  0.00    -0.375 OA
ATOM     21  H4  UNL     1     -60.621  27.359  -2.625  1.00  0.00     0.212 HD
ENDBRANCH  19  20
ENDBRANCH  18  19
ENDBRANCH  16  18
ENDBRANCH  12  14
ENDBRANCH   9  11
ENDBRANCH   3   7
BRANCH   6  22
HETATM   22  C10 UNL     1     -67.570  28.338 -10.598  1.00  0.00     0.332 C
HETATM   23  O5  UNL     1     -67.552  27.365 -11.386  1.00  0.00    -0.256 OA
BRANCH  22  24
HETATM   24  O6  UNL     1     -68.575  28.325  -9.625  1.00  0.00    -0.191 OA
BRANCH  24  25
HETATM   25  N5  UNL     1     -68.301  28.407  -8.273  1.00  0.00    -0.223 N
HETATM   26  C11 UNL     1     -67.751  27.321  -7.563  1.00  0.00     0.277 C
HETATM   27  O7  UNL     1     -67.507  26.258  -8.173  1.00  0.00    -0.269 OA
ATOM     28  H5  UNL     1     -68.500  29.275  -7.777  1.00  0.00     0.198 HD
BRANCH  26  29
HETATM   29  C12 UNL     1     -67.465  27.445  -6.111  1.00  0.00     0.198 C
HETATM   30  C13 UNL     1     -68.625  28.035  -5.387  1.00  0.00     0.056 C
HETATM   31  C14 UNL     1     -67.164  26.028  -5.607  1.00  0.00     0.056 C
BRANCH  29  32
HETATM   32  N6  UNL     1     -66.258  28.207  -5.868  1.00  0.00    -0.062 N
ATOM     33  H63 UNL     1     -65.557  27.649  -5.380  1.00  0.00     0.275 HD
ATOM     34  H62 UNL     1     -65.747  28.381  -6.733  1.00  0.00     0.275 HD
ATOM     35  H61 UNL     1     -66.456  29.075  -5.370  1.00  0.00     0.275 HD
ENDBRANCH  29  32
ENDBRANCH  26  29
ENDBRANCH  24  25
ENDBRANCH  22  24
ENDBRANCH   6  22
TORSDOF 11
ENDMDL