MODEL 1
REMARK VINA RESULT: -8.110531628      0.000      0.000
REMARK  11 active torsions:
REMARK  status: ('A' for Active; 'I' for Inactive)
REMARK    1  A    between atoms: C2_2  and  O1_3
REMARK    2  A    between atoms: O1_3  and  C3_4
REMARK    3  A    between atoms: C3_4  and  C4_5
REMARK    4  A    between atoms: C3_4  and  C6_8
REMARK    5  A    between atoms: C6_8  and  N1_9
REMARK    6  A    between atoms: C6_8  and  C9_15
REMARK       I    between atoms: N1_9  and  C7_11
REMARK    7  A    between atoms: C7_11  and  O4_13
REMARK    8  A    between atoms: C9_15  and  O5_16
REMARK    9  A    between atoms: C9_15  and  N2_18
REMARK       I    between atoms: N2_18  and  C10_20
REMARK   10  A    between atoms: C10_20  and  C11_22
REMARK   11  A    between atoms: C13_27  and  O8_28
ROOT
HETATM    1  C9  UNL     1     -66.519  27.722  -6.421  1.00  0.00     0.144 C
ENDROOT
BRANCH   1   2
HETATM    2  C6  UNL     1     -67.498  28.044  -7.447  1.00  0.00     0.197 C
BRANCH   2   3
HETATM    3  C3  UNL     1     -66.930  27.957  -8.884  1.00  0.00     0.221 C
BRANCH   3   4
HETATM    4  O1  UNL     1     -66.943  26.639  -9.225  1.00  0.00    -0.376 OA
BRANCH   4   5
HETATM    5  C2  UNL     1     -66.149  26.183 -10.215  1.00  0.00     0.164 C
HETATM    6  C1  UNL     1     -66.783  25.679 -11.460  1.00  0.00     0.033 C
ENDBRANCH   4   5
ENDBRANCH   3   4
BRANCH   3   7
HETATM    7  C4  UNL     1     -67.735  28.800  -9.823  1.00  0.00     0.154 C
HETATM    8  C5  UNL     1     -67.136  29.854 -10.658  1.00  0.00     0.093 C
HETATM    9  O2  UNL     1     -68.933  28.614  -9.903  1.00  0.00    -0.295 OA
ENDBRANCH   3   7
ENDBRANCH   2   3
BRANCH   2  10
HETATM   10  N1  UNL     1     -67.956  29.441  -7.294  1.00  0.00    -0.322 N
HETATM   11  C7  UNL     1     -68.720  29.901  -6.221  1.00  0.00     0.360 C
HETATM   12  O3  UNL     1     -69.094  29.138  -5.268  1.00  0.00    -0.239 OA
ATOM     13  H1  UNL     1     -67.697  30.112  -8.018  1.00  0.00     0.165 HD
BRANCH  11  14
HETATM   14  O4  UNL     1     -69.123  31.224  -6.125  1.00  0.00    -0.309 OA
HETATM   15  C8  UNL     1     -69.502  31.838  -4.925  1.00  0.00     0.215 C
ENDBRANCH  11  14
ENDBRANCH   2  10
ENDBRANCH   1   2
BRANCH   1  16
HETATM   16  O5  UNL     1     -66.886  26.761  -5.616  1.00  0.00    -0.348 OA
ATOM     17  H5  UNL     1     -66.163  26.290  -5.220  1.00  0.00     0.219 HD
ENDBRANCH   1  16
BRANCH   1  18
HETATM   18  N2  UNL     1     -65.257  28.273  -6.161  1.00  0.00    -0.303 N
HETATM   19  C10 UNL     1     -64.165  27.575  -5.644  1.00  0.00     0.291 C
HETATM   20  O6  UNL     1     -64.207  26.372  -5.363  1.00  0.00    -0.264 OA
ATOM     21  H2  UNL     1     -65.126  29.264  -6.365  1.00  0.00     0.171 HD
BRANCH  19  22
HETATM   22  C11 UNL     1     -62.867  28.248  -5.398  1.00  0.00     0.179 A
HETATM   23  N3  UNL     1     -62.175  27.979  -4.264  1.00  0.00    -0.302 N
HETATM   24  C12 UNL     1     -60.986  28.574  -4.005  1.00  0.00     0.283 A
ATOM     25  H3  UNL     1     -62.558  27.314  -3.593  1.00  0.00     0.171 HD
HETATM   26  O7  UNL     1     -60.336  28.341  -2.970  1.00  0.00    -0.265 OA
HETATM   27  C13 UNL     1     -60.453  29.482  -4.913  1.00  0.00     0.176 A
HETATM   28  C14 UNL     1     -61.165  29.739  -6.049  1.00  0.00     0.157 A
HETATM   29  N4  UNL     1     -60.656  30.660  -7.003  1.00  0.00    -0.079 NA
HETATM   30  N5  UNL     1     -62.340  29.119  -6.254  1.00  0.00    -0.324 N
ATOM     31  H5  UNL     1     -62.855  29.326  -7.110  1.00  0.00     0.169 HD
BRANCH  27  32
HETATM   32  O8  UNL     1     -59.236  30.095  -4.652  1.00  0.00    -0.353 OA
ATOM     33  H8  UNL     1     -59.200  31.026  -4.471  1.00  0.00     0.218 HD
ENDBRANCH  27  32
ENDBRANCH  19  22
ENDBRANCH   1  18
TORSDOF 11
ENDMDL