MODEL 1
REMARK VINA RESULT: -8.672741198      0.000      0.000
REMARK  8 active torsions:
REMARK  status: ('A' for Active; 'I' for Inactive)
REMARK    1  A    between atoms: C2_5  and  O2_6
REMARK    2  A    between atoms: O2_6  and  C3_7
REMARK    3  A    between atoms: C3_7  and  C4_8
REMARK    4  A    between atoms: C4_8  and  O3_9
REMARK    5  A    between atoms: O3_9  and  C5_10
REMARK    6  A    between atoms: C8_13  and  C9_14
REMARK    7  A    between atoms: N2_15  and  N3_17
REMARK    8  A    between atoms: N3_17  and  C10_19
ROOT
HETATM    1  C5  UNL     1     -62.755  32.022  -8.665  1.00  0.00     0.068 A
HETATM    2  C6  UNL     1     -63.334  32.101  -7.397  1.00  0.00     0.037 A
HETATM    3  C7  UNL     1     -64.420  31.317  -7.055  1.00  0.00     0.015 A
HETATM    4  C8  UNL     1     -64.971  30.436  -7.943  1.00  0.00    -0.019 A
HETATM    5  C13 UNL     1     -64.403  30.347  -9.210  1.00  0.00     0.015 A
HETATM    6  C14 UNL     1     -63.318  31.131  -9.548  1.00  0.00     0.037 A
ENDROOT
BRANCH   1   7
HETATM    7  O3  UNL     1     -61.670  32.814  -8.982  1.00  0.00    -0.349 OA
BRANCH   7   8
HETATM    8  C4  UNL     1     -60.379  32.432  -9.259  1.00  0.00     0.202 C
BRANCH   8   9
HETATM    9  C3  UNL     1     -59.701  31.620  -8.207  1.00  0.00     0.205 C
BRANCH   9  10
HETATM   10  O2  UNL     1     -60.317  30.482  -7.771  1.00  0.00    -0.320 OA
BRANCH  10  11
HETATM   11  C2  UNL     1     -60.532  29.862  -6.618  1.00  0.00     0.230 C
HETATM   12  N1  UNL     1     -61.636  29.062  -6.515  1.00  0.00    -0.274 N
HETATM   13  C1  UNL     1     -62.258  28.590  -5.398  1.00  0.00     0.330 C
ATOM     14  H1  UNL     1     -62.053  28.778  -7.401  1.00  0.00     0.174 HD
HETATM   15  O1  UNL     1     -63.488  28.341  -5.520  1.00  0.00    -0.246 OA
HETATM   16  N7  UNL     1     -61.712  28.365  -4.204  1.00  0.00    -0.271 N
HETATM   17  C16 UNL     1     -60.630  28.993  -3.655  1.00  0.00     0.317 C
ATOM     18  H7  UNL     1     -62.153  27.642  -3.635  1.00  0.00     0.174 HD
HETATM   19  C15 UNL     1     -59.816  29.920  -4.272  1.00  0.00     0.316 C
HETATM   20  O5  UNL     1     -60.340  28.706  -2.484  1.00  0.00    -0.262 OA
HETATM   21  N6  UNL     1     -59.664  30.038  -5.609  1.00  0.00    -0.284 N
HETATM   22  O4  UNL     1     -59.174  30.709  -3.541  1.00  0.00    -0.262 OA
ATOM     23  H6  UNL     1     -58.726  30.308  -5.903  1.00  0.00     0.172 HD
ENDBRANCH  10  11
ENDBRANCH   9  10
ENDBRANCH   8   9
ENDBRANCH   7   8
ENDBRANCH   1   7
BRANCH   4  24
HETATM   24  C9  UNL     1     -66.129  29.615  -7.583  1.00  0.00     0.118 C
HETATM   25  N2  UNL     1     -67.158  30.240  -7.092  1.00  0.00    -0.308 N
ATOM     26  H2  UNL     1     -67.141  31.253  -6.972  1.00  0.00     0.186 HD
BRANCH  25  27
HETATM   27  N3  UNL     1     -68.270  29.511  -6.738  1.00  0.00    -0.272 N
ATOM     28  H3  UNL     1     -69.167  29.980  -6.612  1.00  0.00     0.190 HD
BRANCH  27  29
HETATM   29  C10 UNL     1     -68.174  28.109  -6.547  1.00  0.00     0.190 C
HETATM   30  N4  UNL     1     -68.243  27.437  -5.434  1.00  0.00    -0.360 N
HETATM   31  C11 UNL     1     -68.098  26.019  -5.664  1.00  0.00     0.142 C
ATOM     32  H4  UNL     1     -68.380  27.859  -4.516  1.00  0.00     0.162 HD
HETATM   33  C12 UNL     1     -67.459  25.984  -7.039  1.00  0.00     0.142 C
HETATM   34  N5  UNL     1     -67.981  27.198  -7.641  1.00  0.00    -0.360 N
ATOM     35  H5  UNL     1     -68.170  27.367  -8.629  1.00  0.00     0.162 HD
ENDBRANCH  27  29
ENDBRANCH  25  27
ENDBRANCH   4  24
TORSDOF 8
ENDMDL