MODEL 4
REMARK VINA RESULT: -8.231457067      1.665      1.835
REMARK  10 active torsions:
REMARK  status: ('A' for Active; 'I' for Inactive)
REMARK    1  A    between atoms: C3_3  and  C4_4
REMARK    2  A    between atoms: C4_4  and  S1_5
REMARK    3  A    between atoms: S1_5  and  N1_6
REMARK    4  A    between atoms: N2_10  and  C5_11
REMARK    5  A    between atoms: C5_11  and  C6_12
REMARK    6  A    between atoms: C6_12  and  C7_13
REMARK    7  A    between atoms: C7_13  and  O2_14
REMARK    8  A    between atoms: O2_14  and  S2_15
REMARK    9  A    between atoms: N4_24  and  N5_25
REMARK   10  A    between atoms: C10_28  and  N6_29
ROOT
HETATM    1  C1  UNL     1     -64.632  30.464  -7.232  1.00  0.00     0.051 C
HETATM    2  C2  UNL     1     -63.140  30.539  -7.260  1.00  0.00    -0.021 A
HETATM    3  C3  UNL     1     -62.442  31.223  -8.235  1.00  0.00     0.033 A
HETATM    4  N2  UNL     1     -61.139  31.050  -7.952  1.00  0.00    -0.334 N
HETATM    5  C8  UNL     1     -60.990  30.290  -6.835  1.00  0.00     0.126 A
HETATM    6  N3  UNL     1     -59.936  29.855  -6.162  1.00  0.00    -0.292 N
ATOM      7  H3  UNL     1     -58.995  30.085  -6.482  1.00  0.00     0.172 HD
HETATM    8  C9  UNL     1     -60.109  29.110  -5.057  1.00  0.00     0.348 A
HETATM    9  O6  UNL     1     -59.091  28.688  -4.410  1.00  0.00    -0.245 OA
HETATM   10  N4  UNL     1     -61.315  28.778  -4.590  1.00  0.00    -0.195 N
HETATM   11  C10 UNL     1     -62.456  29.180  -5.221  1.00  0.00     0.140 A
HETATM   12  C11 UNL     1     -62.255  29.950  -6.370  1.00  0.00     0.062 A
ENDROOT
BRANCH   4  13
HETATM   13  C5  UNL     1     -60.044  31.542  -8.789  1.00  0.00     0.133 C
BRANCH  13  14
HETATM   14  C6  UNL     1     -59.596  30.449  -9.720  1.00  0.00     0.048 C
BRANCH  14  15
HETATM   15  C7  UNL     1     -58.251  29.864  -9.455  1.00  0.00     0.194 C
BRANCH  15  16
HETATM   16  O2  UNL     1     -57.360  30.961  -9.531  1.00  0.00    -0.257 OA
BRANCH  16  17
HETATM   17  S2  UNL     1     -55.779  30.462  -9.727  1.00  0.00     0.251 S
HETATM   18  O3  UNL     1     -54.928  31.711  -9.855  1.00  0.00    -0.572 OA
HETATM   19  O4  UNL     1     -55.316  29.765  -8.502  1.00  0.00    -0.572 OA
HETATM   20  O5  UNL     1     -55.624  29.471 -11.063  1.00  0.00    -0.572 OA
ENDBRANCH  16  17
ENDBRANCH  15  16
ENDBRANCH  14  15
ENDBRANCH  13  14
ENDBRANCH   4  13
BRANCH   3  21
HETATM   21  C4  UNL     1     -62.982  31.905  -9.410  1.00  0.00     0.189 C
BRANCH  21  22
HETATM   22  S1  UNL     1     -64.273  31.053 -10.243  1.00  0.00     0.113 S
HETATM   23  O1  UNL     1     -63.857  29.452 -10.536  1.00  0.00    -0.236 OA
BRANCH  22  24
HETATM   24  N1  UNL     1     -64.968  31.833 -11.595  1.00  0.00    -0.349 NA
ATOM     25  H12 UNL     1     -64.348  31.870 -12.404  1.00  0.00     0.166 HD
ATOM     26  H11 UNL     1     -65.413  32.736 -11.429  1.00  0.00     0.166 HD
ENDBRANCH  22  24
ENDBRANCH  21  22
ENDBRANCH   3  21
BRANCH  11  27
HETATM   27  N6  UNL     1     -63.575  28.906  -4.800  1.00  0.00    -0.383 N
ATOM     28  H62 UNL     1     -63.737  28.584  -3.845  1.00  0.00     0.157 HD
ATOM     29  H61 UNL     1     -64.411  28.964  -5.383  1.00  0.00     0.157 HD
ENDBRANCH  11  27
BRANCH  10  30
HETATM   30  N5  UNL     1     -61.526  27.981  -3.449  1.00  0.00    -0.333 N
ATOM     31  H52 UNL     1     -61.131  27.042  -3.507  1.00  0.00     0.177 HD
ATOM     32  H51 UNL     1     -62.016  28.300  -2.613  1.00  0.00     0.177 HD
ENDBRANCH  10  30
TORSDOF 10
ENDMDL