MODEL 5
REMARK VINA RESULT: -6.980102691      3.672      6.076
REMARK  5 active torsions:
REMARK  status: ('A' for Active; 'I' for Inactive)
REMARK    1  A    between atoms: C2_2  and  C3_3
REMARK    2  A    between atoms: C3_3  and  N2_7
REMARK    3  A    between atoms: C11_18  and  C12_19
REMARK       I    between atoms: C12_19  and  N3_21
REMARK    4  A    between atoms: N3_21  and  C13_23
REMARK    5  A    between atoms: C17_27  and  O2_28
ROOT
HETATM    1  N2  UNL     1      38.916  16.979  12.016  1.00  0.00    -0.351 N
HETATM    2  C4  UNL     1      38.355  18.286  11.613  1.00  0.00     0.127 C
HETATM    3  C5  UNL     1      37.186  18.582  12.492  1.00  0.00     0.030 C
HETATM    4  C6  UNL     1      36.228  17.453  12.676  1.00  0.00     0.078 C
HETATM    5  S1  UNL     1      36.522  16.030  11.629  1.00  0.00    -0.136 SA
HETATM    6  C7  UNL     1      38.349  15.867  11.373  1.00  0.00     0.100 C
HETATM    7  C8  UNL     1      38.677  14.504  11.909  1.00  0.00     0.122 C
HETATM    8  C9  UNL     1      37.828  13.630  10.971  1.00  0.00     0.247 C
HETATM    9  F1  UNL     1      38.462  12.456  10.671  1.00  0.00    -0.206 F
HETATM   10  F2  UNL     1      36.600  13.347  11.532  1.00  0.00    -0.206 F
HETATM   11  C10 UNL     1      37.661  14.446   9.689  1.00  0.00     0.096 C
HETATM   12  C11 UNL     1      38.518  15.692   9.917  1.00  0.00     0.122 C
ENDROOT
BRANCH  12  13
HETATM   13  C12 UNL     1      39.843  15.561   9.361  1.00  0.00     0.225 C
HETATM   14  O1  UNL     1      39.986  15.799   8.105  1.00  0.00    -0.273 OA
HETATM   15  N3  UNL     1      41.042  15.200  10.003  1.00  0.00    -0.356 N
ATOM     16  H3  UNL     1      40.990  15.000  11.003  1.00  0.00     0.162 HD
BRANCH  15  17
HETATM   17  C13 UNL     1      42.333  15.086   9.384  1.00  0.00     0.086 C
HETATM   18  C14 UNL     1      43.138  13.929   9.873  1.00  0.00     0.025 C
HETATM   19  C15 UNL     1      44.510  14.304  10.371  1.00  0.00     0.004 C
HETATM   20  C16 UNL     1      45.283  15.125   9.367  1.00  0.00     0.032 C
HETATM   21  C17 UNL     1      44.398  16.086   8.609  1.00  0.00     0.120 C
HETATM   22  C18 UNL     1      43.165  16.335   9.487  1.00  0.00     0.056 C
BRANCH  21  23
HETATM   23  O2  UNL     1      45.013  17.282   8.313  1.00  0.00    -0.396 OA
ATOM     24  H2  UNL     1      45.275  17.774   9.082  1.00  0.00     0.210 HD
ENDBRANCH  21  23
ENDBRANCH  15  17
ENDBRANCH  12  13
BRANCH   1  25
HETATM   25  C3  UNL     1      39.929  17.041  12.992  1.00  0.00     0.073 C
HETATM   26  N1  UNL     1      41.122  17.336  12.529  1.00  0.00    -0.389 N
ATOM     27  H12 UNL     1      41.857  17.381  13.237  1.00  0.00     0.157 HD
ATOM     28  H11 UNL     1      41.221  17.487  11.525  1.00  0.00     0.157 HD
BRANCH  25  29
HETATM   29  C2  UNL     1      39.788  16.826  14.424  1.00  0.00     0.071 C
HETATM   30  C1  UNL     1      39.578  18.158  15.140  1.00  0.00     0.013 C
ENDBRANCH  25  29
ENDBRANCH   1  25
TORSDOF 5
ENDMDL