MODEL 4
REMARK VINA RESULT: -7.089060616      1.996      2.404
REMARK  5 active torsions:
REMARK  status: ('A' for Active; 'I' for Inactive)
REMARK    1  A    between atoms: C2_2  and  O1_4
REMARK    2  A    between atoms: O1_4  and  C4_5
REMARK       I    between atoms: C4_5  and  N1_7
REMARK    3  A    between atoms: N1_7  and  N2_9
REMARK       I    between atoms: N2_9  and  C5_11
REMARK    4  A    between atoms: C5_11  and  C6_13
REMARK    5  A    between atoms: C11_20  and  O4_21
ROOT
HETATM    1  N2  UNL     1      39.374  12.878  10.497  1.00  0.00    -0.261 N
ATOM      2  H2  UNL     1      39.075  13.214   9.581  1.00  0.00     0.190 HD
HETATM    3  C5  UNL     1      38.442  12.153  11.234  1.00  0.00     0.273 C
HETATM    4  O3  UNL     1      38.828  11.746  12.383  1.00  0.00    -0.266 OA
ENDROOT
BRANCH   3   5
HETATM    5  C6  UNL     1      37.082  11.804  10.852  1.00  0.00     0.069 A
HETATM    6  C7  UNL     1      36.276  12.843  10.386  1.00  0.00     0.039 A
HETATM    7  C8  UNL     1      34.960  12.630   9.974  1.00  0.00     0.013 A
HETATM    8 BR1  UNL     1      33.869  14.067   9.337  1.00  0.00    -0.051 Br
HETATM    9  C9  UNL     1      34.476  11.358  10.034  1.00  0.00     0.041 A
HETATM   10  C10 UNL     1      35.227  10.308  10.484  1.00  0.00     0.046 A
HETATM   11 BR2  UNL     1      34.484   8.569  10.547  1.00  0.00    -0.048 Br
HETATM   12  C11 UNL     1      36.554  10.557  10.898  1.00  0.00     0.099 A
BRANCH  12  13
HETATM   13  O4  UNL     1      37.292   9.482  11.351  1.00  0.00    -0.358 OA
ATOM     14  H4  UNL     1      36.985   8.590  11.237  1.00  0.00     0.217 HD
ENDBRANCH  12  13
ENDBRANCH   3   5
BRANCH   1  15
HETATM   15  N1  UNL     1      40.663  13.188  10.883  1.00  0.00    -0.242 N
HETATM   16  C4  UNL     1      41.851  13.389  10.228  1.00  0.00     0.379 C
HETATM   17  O2  UNL     1      42.108  13.334   8.983  1.00  0.00    -0.237 OA
ATOM     18  H1  UNL     1      40.753  13.292  11.894  1.00  0.00     0.192 HD
BRANCH  16  19
HETATM   19  O1  UNL     1      43.011  13.718  10.963  1.00  0.00    -0.298 OA
BRANCH  19  20
HETATM   20  C2  UNL     1      43.855  14.803  10.683  1.00  0.00     0.125 C
HETATM   21  C1  UNL     1      44.158  15.493  12.022  1.00  0.00     0.040 C
HETATM   22  C3  UNL     1      45.233  14.296  10.214  1.00  0.00     0.040 C
ENDBRANCH  19  20
ENDBRANCH  16  19
ENDBRANCH   1  15
TORSDOF 5
ENDMDL