MODEL 5
REMARK VINA RESULT: -7.353796820      1.809      6.832
REMARK  4 active torsions:
REMARK  status: ('A' for Active; 'I' for Inactive)
REMARK    1  A    between atoms: C2_2  and  C3_3
REMARK    2  A    between atoms: C5_5  and  O1_6
REMARK    3  A    between atoms: C9_12  and  O2_13
REMARK    4  A    between atoms: C14_21  and  O4_22
ROOT
HETATM    1  C3  UNL     1      33.005  12.315   9.896  1.00  0.00     0.007 C
HETATM    2  C4  UNL     1      31.953  12.211   8.841  1.00  0.00     0.023 C
HETATM    3  C5  UNL     1      33.653  10.938  10.099  1.00  0.00     0.131 C
HETATM    4  C6  UNL     1      34.872  11.336  10.911  1.00  0.00     0.041 C
HETATM    5  C7  UNL     1      35.361  12.522  10.142  1.00  0.00     0.040 C
HETATM    6  C8  UNL     1      36.207  13.474  10.983  1.00  0.00     0.138 C
HETATM    7  F1  UNL     1      35.459  13.870  12.082  1.00  0.00    -0.239 F
HETATM    8  C9  UNL     1      37.416  12.754  11.472  1.00  0.00     0.164 C
HETATM    9  C10 UNL     1      38.432  13.740  11.999  1.00  0.00     0.109 C
HETATM   10  C11 UNL     1      38.830  14.622  10.838  1.00  0.00     0.211 C
HETATM   11  F2  UNL     1      39.110  13.792   9.759  1.00  0.00    -0.211 F
HETATM   12  O3  UNL     1      39.969  15.328  11.118  1.00  0.00    -0.343 OA
HETATM   13  C12 UNL     1      39.861  16.682  10.892  1.00  0.00     0.150 C
HETATM   14  C13 UNL     1      41.149  17.327  11.376  1.00  0.00     0.042 C
HETATM   15  C14 UNL     1      38.748  17.197  11.772  1.00  0.00     0.147 C
HETATM   16  C15 UNL     1      37.426  16.513  11.492  1.00  0.00     0.045 C
HETATM   17  C16 UNL     1      37.657  15.467  10.451  1.00  0.00     0.063 C
HETATM   18  C17 UNL     1      36.467  14.648  10.104  1.00  0.00     0.038 C
HETATM   19  C18 UNL     1      35.179  15.444  10.081  1.00  0.00     0.009 C
HETATM   20  C19 UNL     1      33.964  14.609   9.986  1.00  0.00     0.011 C
HETATM   21  C20 UNL     1      34.168  13.200   9.527  1.00  0.00    -0.024 C
HETATM   22  C21 UNL     1      34.373  13.229   8.028  1.00  0.00     0.017 C
ENDROOT
BRANCH   1  23
HETATM   23  C2  UNL     1      32.354  12.684  11.171  1.00  0.00    -0.024 C
HETATM   24  C1  UNL     1      31.059  12.940  11.285  1.00  0.00     0.008 C
ENDBRANCH   1  23
BRANCH   3  25
HETATM   25  O1  UNL     1      32.826  10.071  10.770  1.00  0.00    -0.394 OA
ATOM     26  H1  UNL     1      33.071   9.164  10.632  1.00  0.00     0.210 HD
ENDBRANCH   3  25
BRANCH   8  27
HETATM   27  O2  UNL     1      37.947  11.855  10.568  1.00  0.00    -0.392 OA
ATOM     28  H2  UNL     1      38.771  12.129  10.181  1.00  0.00     0.210 HD
ENDBRANCH   8  27
BRANCH  15  29
HETATM   29  O4  UNL     1      39.115  16.935  13.097  1.00  0.00    -0.393 OA
ATOM     30  H4  UNL     1      39.356  17.766  13.490  1.00  0.00     0.210 HD
ENDBRANCH  15  29
TORSDOF 4
ENDMDL