MODEL 1
REMARK VINA RESULT: -6.683912263      0.000      0.000
REMARK  9 active torsions:
REMARK  status: ('A' for Active; 'I' for Inactive)
REMARK    1  A    between atoms: C2_2  and  C5_5
REMARK    2  A    between atoms: C5_5  and  O1_6
REMARK    3  A    between atoms: C5_5  and  N1_8
REMARK    4  A    between atoms: N1_8  and  C6_10
REMARK    5  A    between atoms: C6_10  and  O2_11
REMARK    6  A    between atoms: N2_13  and  C7_15
REMARK    7  A    between atoms: C8_18  and  C9_19
REMARK    8  A    between atoms: C9_19  and  N4_22
REMARK       I    between atoms: N4_22  and  C12_24
REMARK    9  A    between atoms: C12_24  and  C13_26
ROOT
HETATM    1  C7  UNL     1      37.390  11.683  10.825  1.00  0.00     0.151 A
HETATM    2  N3  UNL     1      38.520  12.369  10.692  1.00  0.00    -0.337 N
ATOM      3  H3  UNL     1      39.418  11.886  10.734  1.00  0.00     0.168 HD
HETATM    4  C8  UNL     1      38.482  13.664  10.505  1.00  0.00     0.045 A
HETATM    5  C15 UNL     1      37.246  14.258  10.458  1.00  0.00     0.081 A
HETATM    6  S1  UNL     1      36.197  12.953  10.679  1.00  0.00    -0.064 SA
ENDROOT
BRANCH   1   7
HETATM    7  N2  UNL     1      37.124  10.437  10.986  1.00  0.00    -0.302 N
HETATM    8  C6  UNL     1      37.932   9.385  11.259  1.00  0.00     0.224 C
ATOM      9  H2  UNL     1      36.137  10.199  10.893  1.00  0.00     0.171 HD
BRANCH   8  10
HETATM   10  N1  UNL     1      37.485   8.110  11.636  1.00  0.00    -0.306 N
ATOM     11  H1  UNL     1      38.107   7.633  12.289  1.00  0.00     0.171 HD
BRANCH  10  12
HETATM   12  C5  UNL     1      36.378   7.383  11.299  1.00  0.00     0.126 C
BRANCH  12  13
HETATM   13  C2  UNL     1      35.997   6.010  11.544  1.00  0.00     0.014 C
HETATM   14  C1  UNL     1      35.733   5.684  13.004  1.00  0.00     0.023 C
HETATM   15  C3  UNL     1      37.286   5.161  11.196  1.00  0.00     0.023 C
HETATM   16  C4  UNL     1      34.919   5.428  10.690  1.00  0.00     0.023 C
ENDBRANCH  12  13
BRANCH  12  17
HETATM   17  O1  UNL     1      35.467   8.069  10.603  1.00  0.00    -0.349 OA
ATOM     18  H1  UNL     1      35.560   9.011  10.687  1.00  0.00     0.219 HD
ENDBRANCH  12  17
ENDBRANCH  10  12
ENDBRANCH   8  10
BRANCH   8  19
HETATM   19  O2  UNL     1      39.226   9.551  11.164  1.00  0.00    -0.332 OA
ATOM     20  H2  UNL     1      39.596   9.530  10.290  1.00  0.00     0.221 HD
ENDBRANCH   8  19
ENDBRANCH   1   7
BRANCH   4  21
HETATM   21  C9  UNL     1      39.737  14.525  10.358  1.00  0.00     0.068 C
HETATM   22  C10 UNL     1      40.915  13.615  10.148  1.00  0.00     0.045 C
HETATM   23  C11 UNL     1      39.614  15.431   9.148  1.00  0.00     0.045 C
BRANCH  21  24
HETATM   24  N4  UNL     1      39.959  15.322  11.543  1.00  0.00    -0.343 N
HETATM   25  C12 UNL     1      40.130  14.778  12.822  1.00  0.00     0.274 C
HETATM   26  O3  UNL     1      40.098  13.511  12.957  1.00  0.00    -0.268 OA
ATOM     27  H4  UNL     1      39.993  16.337  11.442  1.00  0.00     0.163 HD
BRANCH  25  28
HETATM   28  C13 UNL     1      40.340  15.626  13.997  1.00  0.00     0.255 C
HETATM   29  C14 UNL     1      39.866  17.044  13.789  1.00  0.00     0.081 C
HETATM   30  F1  UNL     1      41.732  15.738  14.184  1.00  0.00    -0.215 F
HETATM   31 CL1  UNL     1      39.648  14.841  15.404  1.00  0.00    -0.073 Cl
ENDBRANCH  25  28
ENDBRANCH  21  24
ENDBRANCH   4  21
TORSDOF 9
ENDMDL