MODEL 3
REMARK VINA RESULT: -7.633770362      4.773      7.837
REMARK  7 active torsions:
REMARK  status: ('A' for Active; 'I' for Inactive)
REMARK    1  A    between atoms: C2_2  and  N1_5
REMARK    2  A    between atoms: N1_5  and  C5_7
REMARK    3  A    between atoms: C10_15  and  N4_16
REMARK    4  A    between atoms: N4_16  and  C11_17
REMARK    5  A    between atoms: C11_17  and  O1_18
REMARK    6  A    between atoms: C11_17  and  C12_20
REMARK    7  A    between atoms: C12_20  and  C13_21
ROOT
HETATM    1  C5  UNL     1      37.574  12.232  10.806  1.00  0.00     0.089 A
HETATM    2  C6  UNL     1      38.878  11.808  10.934  1.00  0.00     0.058 A
HETATM    3  C7  UNL     1      39.102  10.472  11.203  1.00  0.00     0.062 A
HETATM    4  C8  UNL     1      40.423   9.971  11.347  1.00  0.00     0.101 C
HETATM    5  N2  UNL     1      41.491   9.565  11.481  1.00  0.00    -0.191 NA
HETATM    6  C9  UNL     1      38.055   9.608  11.335  1.00  0.00     0.113 A
HETATM    7  N3  UNL     1      36.829  10.066  11.203  1.00  0.00    -0.338 N
ATOM      8  H3  UNL     1      36.067   9.395  11.306  1.00  0.00     0.168 HD
HETATM    9  C10 UNL     1      36.485  11.368  10.937  1.00  0.00     0.208 A
ENDROOT
BRANCH   1  10
HETATM   10  N1  UNL     1      37.381  13.608  10.549  1.00  0.00    -0.378 N
ATOM     11  H1  UNL     1      36.796  13.835   9.746  1.00  0.00     0.160 HD
BRANCH  10  12
HETATM   12  C2  UNL     1      37.903  14.718  11.275  1.00  0.00     0.019 C
HETATM   13  C1  UNL     1      36.828  15.829  11.288  1.00  0.00     0.037 C
HETATM   14  C3  UNL     1      39.179  15.303  10.669  1.00  0.00     0.037 C
HETATM   15  C4  UNL     1      38.185  14.445  12.733  1.00  0.00     0.037 C
ENDBRANCH  10  12
ENDBRANCH   1  10
BRANCH   9  16
HETATM   16  N4  UNL     1      35.335  11.644  10.825  1.00  0.00    -0.362 NA
BRANCH  16  17
HETATM   17  C11 UNL     1      34.058  11.952  11.015  1.00  0.00     0.233 C
BRANCH  17  18
HETATM   18  O1  UNL     1      33.592  11.799  12.221  1.00  0.00    -0.337 OA
ATOM     19  H1  UNL     1      33.987  12.329  12.903  1.00  0.00     0.220 HD
ENDBRANCH  17  18
BRANCH  17  20
HETATM   20  C12 UNL     1      33.016  12.469  10.049  1.00  0.00     0.246 C
HETATM   21  N5  UNL     1      33.586  12.378   8.709  1.00  0.00    -0.051 N
HETATM   22  C16 UNL     1      34.401  13.562   8.595  1.00  0.00     0.271 C
ATOM     23  H52 UNL     1      34.084  11.507   8.524  1.00  0.00     0.278 HD
ATOM     24  H51 UNL     1      32.896  12.271   7.966  1.00  0.00     0.278 HD
HETATM   25  C17 UNL     1      33.398  14.593   9.092  1.00  0.00     0.206 C
HETATM   26  F2  UNL     1      34.059  15.707   9.472  1.00  0.00    -0.247 F
HETATM   27  C18 UNL     1      32.701  13.853  10.256  1.00  0.00     0.030 C
HETATM   28  C19 UNL     1      33.277  14.541  11.498  1.00  0.00     0.021 C
HETATM   29  C20 UNL     1      31.278  14.335  10.174  1.00  0.00     0.021 C
BRANCH  20  30
HETATM   30  C13 UNL     1      31.933  11.430  10.012  1.00  0.00     0.139 C
HETATM   31  C14 UNL     1      31.109  11.258  11.221  1.00  0.00     0.054 C
HETATM   32  C15 UNL     1      31.125  11.361   8.749  1.00  0.00     0.054 C
HETATM   33  F1  UNL     1      32.670  10.202   9.915  1.00  0.00    -0.240 F
ENDBRANCH  20  30
ENDBRANCH  17  20
ENDBRANCH  16  17
ENDBRANCH   9  16
TORSDOF 7
ENDMDL