MODEL 4
REMARK VINA RESULT: -7.687547984      2.821      6.469
REMARK  5 active torsions:
REMARK  status: ('A' for Active; 'I' for Inactive)
REMARK    1  A    between atoms: C7_8  and  C8_9
REMARK    2  A    between atoms: C8_9  and  O1_10
REMARK    3  A    between atoms: C16_19  and  O2_20
REMARK    4  A    between atoms: C19_26  and  C20_27
REMARK    5  A    between atoms: C20_27  and  O4_28
ROOT
HETATM    1  C1  UNL     1      39.445  12.062  12.647  1.00  0.00     0.011 C
HETATM    2  C2  UNL     1      39.210  13.515  12.760  1.00  0.00    -0.006 C
HETATM    3  C3  UNL     1      40.342  14.227  13.392  1.00  0.00     0.043 C
HETATM    4  C4  UNL     1      41.425  14.709  12.505  1.00  0.00     0.179 C
HETATM    5  F1  UNL     1      42.112  15.689  13.242  1.00  0.00    -0.249 F
HETATM    6  C5  UNL     1      40.821  15.396  11.316  1.00  0.00     0.057 C
HETATM    7  C6  UNL     1      41.989  15.745  10.403  1.00  0.00    -0.074 C
HETATM    8  C7  UNL     1      42.670  16.858  10.682  1.00  0.00     0.002 C
HETATM    9  C9  UNL     1      42.395  14.936   9.247  1.00  0.00     0.034 C
HETATM   10  C10 UNL     1      41.496  13.797   8.963  1.00  0.00     0.005 C
HETATM   11  C11 UNL     1      40.558  13.393  10.065  1.00  0.00     0.011 C
HETATM   12  C12 UNL     1      39.785  14.589  10.592  1.00  0.00    -0.026 C
HETATM   13  C13 UNL     1      39.343  15.356   9.400  1.00  0.00     0.016 C
HETATM   14  C14 UNL     1      38.657  14.199  11.510  1.00  0.00    -0.024 C
HETATM   15  C15 UNL     1      37.672  13.256  10.961  1.00  0.00     0.046 C
HETATM   16  C16 UNL     1      36.543  13.830  10.152  1.00  0.00     0.164 C
HETATM   17  C17 UNL     1      35.790  14.861  10.928  1.00  0.00     0.183 C
HETATM   18  F2  UNL     1      35.064  15.671  10.071  1.00  0.00    -0.234 F
HETATM   19  C18 UNL     1      34.991  14.276  12.056  1.00  0.00     0.218 C
HETATM   20  O3  UNL     1      35.866  14.851  12.953  1.00  0.00    -0.371 OA
HETATM   21  C19 UNL     1      36.546  15.560  11.962  1.00  0.00     0.123 C
HETATM   22  C21 UNL     1      38.011  15.470  11.995  1.00  0.00     0.054 C
ENDROOT
BRANCH  16  23
HETATM   23  O2  UNL     1      35.628  12.758   9.969  1.00  0.00    -0.392 OA
ATOM     24  H2  UNL     1      35.885  12.345   9.153  1.00  0.00     0.210 HD
ENDBRANCH  16  23
BRANCH  21  25
HETATM   25  C20 UNL     1      36.092  17.027  12.038  1.00  0.00     0.205 C
BRANCH  25  26
HETATM   26  O4  UNL     1      36.470  17.609  13.223  1.00  0.00    -0.398 OA
ATOM     27  H4  UNL     1      36.638  18.539  13.117  1.00  0.00     0.209 HD
ENDBRANCH  25  26
ENDBRANCH  21  25
BRANCH   8  28
HETATM   28  C8  UNL     1      43.819  17.412   9.976  1.00  0.00     0.191 C
BRANCH  28  29
HETATM   29  O1  UNL     1      44.759  18.078  10.723  1.00  0.00    -0.397 OA
ATOM     30  H1  UNL     1      44.590  18.991  10.925  1.00  0.00     0.209 HD
ENDBRANCH  28  29
ENDBRANCH   8  28
TORSDOF 5
ENDMDL