MODEL 4
REMARK VINA RESULT: -6.965736454      8.230     10.555
REMARK  3 active torsions:
REMARK  status: ('A' for Active; 'I' for Inactive)
REMARK    1  A    between atoms: C3_3  and  O1_4
REMARK    2  A    between atoms: C4_6  and  C5_7
REMARK    3  A    between atoms: C14_19  and  O3_20
ROOT
HETATM    1  C1  UNL     1      32.534   9.995  11.739  1.00  0.00     0.017 C
HETATM    2  C2  UNL     1      33.043  11.113  11.239  1.00  0.00    -0.050 A
HETATM    3  C3  UNL     1      34.304  11.522  10.608  1.00  0.00     0.183 A
HETATM    4  C4  UNL     1      33.756  12.913  10.352  1.00  0.00     0.111 A
HETATM    5  O2  UNL     1      33.637  13.125   8.999  1.00  0.00    -0.372 OA
HETATM    6  C7  UNL     1      32.470  13.707   8.606  1.00  0.00     0.217 C
HETATM    7  C8  UNL     1      31.250  12.831   8.936  1.00  0.00     0.151 C
HETATM    8  F1  UNL     1      31.416  11.621   8.329  1.00  0.00    -0.235 F
HETATM    9  C9  UNL     1      30.112  13.576   8.387  1.00  0.00    -0.048 C
HETATM   10  C10 UNL     1      29.320  12.778   7.706  1.00  0.00     0.017 C
HETATM   11  C11 UNL     1      29.572  14.973   8.351  1.00  0.00     0.037 C
HETATM   12  C12 UNL     1      28.400  15.095   9.223  1.00  0.00     0.012 C
HETATM   13  C13 UNL     1      27.983  13.995  10.099  1.00  0.00     0.022 A
HETATM   14  C14 UNL     1      27.819  14.147  11.568  1.00  0.00     0.127 A
HETATM   15  C15 UNL     1      28.872  13.238  10.911  1.00  0.00     0.022 A
HETATM   16  C16 UNL     1      30.284  13.622  11.095  1.00  0.00     0.016 C
HETATM   17  C17 UNL     1      31.242  12.632  10.409  1.00  0.00     0.044 C
HETATM   18  C18 UNL     1      32.554  12.529  11.078  1.00  0.00     0.063 A
ENDROOT
BRANCH   4  19
HETATM   19  C5  UNL     1      34.663  13.942  10.976  1.00  0.00     0.092 C
HETATM   20  C6  UNL     1      35.628  14.535   9.972  1.00  0.00     0.025 C
HETATM   21 BR1  UNL     1      33.668  15.389  11.775  1.00  0.00    -0.088 Br
ENDBRANCH   4  19
BRANCH   3  22
HETATM   22  O1  UNL     1      35.428  11.494  11.447  1.00  0.00    -0.388 OA
ATOM     23  H1  UNL     1      36.254  11.693  11.022  1.00  0.00     0.210 HD
ENDBRANCH   3  22
BRANCH  14  24
HETATM   24  O3  UNL     1      26.769  13.513  12.231  1.00  0.00    -0.395 OA
ATOM     25  H3  UNL     1      26.269  12.830  11.799  1.00  0.00     0.210 HD
ENDBRANCH  14  24
TORSDOF 3
ENDMDL