MODEL 2
REMARK VINA RESULT: -7.305176367      2.998      6.190
REMARK  4 active torsions:
REMARK  status: ('A' for Active; 'I' for Inactive)
REMARK    1  A    between atoms: C2_2  and  C3_4
REMARK    2  A    between atoms: C3_4  and  O2_5
REMARK    3  A    between atoms: C11_14  and  O3_15
REMARK    4  A    between atoms: C12_17  and  C13_19
ROOT
HETATM    1  C3  UNL     1      36.287  14.042  10.421  1.00  0.00     0.125 C
HETATM    2  C4  UNL     1      36.515  12.552  10.588  1.00  0.00     0.047 C
HETATM    3  C5  UNL     1      37.873  12.486  11.317  1.00  0.00     0.010 C
HETATM    4  C6  UNL     1      38.576  13.573  10.601  1.00  0.00     0.010 C
HETATM    5  C7  UNL     1      39.969  13.884  11.009  1.00  0.00    -0.015 C
HETATM    6  C8  UNL     1      40.172  14.042  12.474  1.00  0.00     0.020 C
HETATM    7  C9  UNL     1      40.847  12.717  10.543  1.00  0.00     0.016 C
HETATM    8  C10 UNL     1      41.755  13.103   9.426  1.00  0.00     0.035 C
HETATM    9  C11 UNL     1      42.651  14.233   9.854  1.00  0.00     0.143 C
HETATM   10  C12 UNL     1      41.813  15.469  10.090  1.00  0.00     0.080 C
HETATM   11 BR1  UNL     1      42.073  16.623   8.532  1.00  0.00    -0.076 Br
HETATM   12  C14 UNL     1      40.355  15.105  10.207  1.00  0.00    -0.052 C
HETATM   13  C15 UNL     1      39.469  15.864   9.576  1.00  0.00    -0.021 C
HETATM   14  C16 UNL     1      37.999  15.654   9.548  1.00  0.00     0.040 C
HETATM   15  C17 UNL     1      37.626  14.722  10.660  1.00  0.00     0.002 C
HETATM   16  C18 UNL     1      37.649  15.523  11.927  1.00  0.00     0.019 C
ENDROOT
BRANCH   1  17
HETATM   17  C2  UNL     1      35.235  14.436  11.368  1.00  0.00     0.158 C
HETATM   18  C1  UNL     1      34.394  15.657  11.212  1.00  0.00     0.094 C
HETATM   19  O1  UNL     1      35.025  13.734  12.342  1.00  0.00    -0.295 OA
ENDBRANCH   1  17
BRANCH   1  20
HETATM   20  O2  UNL     1      35.909  14.383   9.130  1.00  0.00    -0.381 OA
ATOM     21  H2  UNL     1      35.194  15.008   9.158  1.00  0.00     0.211 HD
ENDBRANCH   1  20
BRANCH  10  22
HETATM   22  C13 UNL     1      42.308  16.265  11.270  1.00  0.00     0.143 C
HETATM   23 CL1  UNL     1      42.167  17.994  10.789  1.00  0.00    -0.128 Cl
ENDBRANCH  10  22
BRANCH   9  24
HETATM   24  O3  UNL     1      43.438  13.950  10.947  1.00  0.00    -0.394 OA
ATOM     25  H3  UNL     1      42.994  14.038  11.783  1.00  0.00     0.210 HD
ENDBRANCH   9  24
TORSDOF 4
ENDMDL