MODEL 5
REMARK VINA RESULT: -7.648171550      2.889      6.112
REMARK  5 active torsions:
REMARK  status: ('A' for Active; 'I' for Inactive)
REMARK    1  A    between atoms: C3_3  and  O1_4
REMARK    2  A    between atoms: C5_7  and  O2_8
REMARK    3  A    between atoms: C11_15  and  O3_16
REMARK    4  A    between atoms: C16_23  and  C17_24
REMARK    5  A    between atoms: C17_24  and  C18_25
ROOT
HETATM    1  C1  UNL     1      43.423  14.457  10.682  1.00  0.00     0.022 C
HETATM    2  C2  UNL     1      42.325  15.459  10.778  1.00  0.00     0.024 C
HETATM    3  C3  UNL     1      42.953  16.839  10.556  1.00  0.00     0.132 C
HETATM    4  C4  UNL     1      43.660  16.772   9.233  1.00  0.00     0.064 C
HETATM    5  C5  UNL     1      42.870  16.276   8.099  1.00  0.00     0.121 C
HETATM    6  C6  UNL     1      41.897  15.189   8.358  1.00  0.00     0.037 C
HETATM    7  C7  UNL     1      41.253  15.348   9.743  1.00  0.00     0.006 C
HETATM    8  C8  UNL     1      40.191  14.373  10.014  1.00  0.00    -0.005 C
HETATM    9  C9  UNL     1      40.747  13.326  10.992  1.00  0.00     0.009 C
HETATM   10  C10 UNL     1      41.177  13.930  12.280  1.00  0.00     0.046 C
HETATM   11  C11 UNL     1      41.740  15.331  12.165  1.00  0.00     0.121 C
HETATM   12  C12 UNL     1      40.756  16.367  12.500  1.00  0.00     0.125 C
HETATM   13  F1  UNL     1      41.051  17.146  13.598  1.00  0.00    -0.208 F
HETATM   14  C13 UNL     1      39.587  16.784  12.006  1.00  0.00     0.019 C
HETATM   15  C14 UNL     1      38.791  16.313  10.840  1.00  0.00     0.015 C
HETATM   16  C15 UNL     1      37.319  16.390  11.287  1.00  0.00     0.014 C
HETATM   17  C16 UNL     1      36.632  15.347  10.400  1.00  0.00    -0.005 C
HETATM   18  C19 UNL     1      37.703  14.585   9.696  1.00  0.00     0.010 C
HETATM   19  C20 UNL     1      38.923  14.856  10.591  1.00  0.00    -0.002 C
ENDROOT
BRANCH  17  20
HETATM   20  C17 UNL     1      35.780  14.504  11.302  1.00  0.00     0.101 C
BRANCH  20  21
HETATM   21  C18 UNL     1      35.521  13.156  10.753  1.00  0.00     0.219 C
HETATM   22  O4  UNL     1      35.884  12.120  11.264  1.00  0.00    -0.280 OA
HETATM   23 CL1  UNL     1      34.617  13.056   9.245  1.00  0.00    -0.044 Cl
ENDBRANCH  20  21
ENDBRANCH  17  20
BRANCH  11  24
HETATM   24  O3  UNL     1      42.820  15.386  13.055  1.00  0.00    -0.382 OA
ATOM     25  H3  UNL     1      43.594  15.162  12.550  1.00  0.00     0.211 HD
ENDBRANCH  11  24
BRANCH   3  26
HETATM   26  O1  UNL     1      43.865  17.058  11.560  1.00  0.00    -0.395 OA
ATOM     27  H1  UNL     1      43.950  17.996  11.681  1.00  0.00     0.210 HD
ENDBRANCH   3  26
BRANCH   5  28
HETATM   28  O2  UNL     1      42.235  17.382   7.486  1.00  0.00    -0.395 OA
ATOM     29  H2  UNL     1      41.478  17.616   8.009  1.00  0.00     0.210 HD
ENDBRANCH   5  28
TORSDOF 5
ENDMDL