MODEL 1
REMARK VINA RESULT: -6.971919130      0.000      0.000
REMARK  13 active torsions:
REMARK  status: ('A' for Active; 'I' for Inactive)
REMARK    1  A    between atoms: C2_2  and  C3_3
REMARK    2  A    between atoms: C2_2  and  C29_38
REMARK    3  A    between atoms: C4_4  and  C5_5
REMARK    4  A    between atoms: C5_5  and  O2_7
REMARK    5  A    between atoms: O2_7  and  C6_8
REMARK    6  A    between atoms: C12_14  and  C13_15
REMARK    7  A    between atoms: C13_15  and  C15_17
REMARK    8  A    between atoms: C15_17  and  O3_18
REMARK    9  A    between atoms: C15_17  and  C16_20
REMARK   10  A    between atoms: C16_20  and  O4_21
REMARK   11  A    between atoms: C16_20  and  C17_23
REMARK   12  A    between atoms: C17_23  and  O5_26
REMARK   13  A    between atoms: C29_38  and  N1_39
ROOT
HETATM    1  C6  UNL     1      41.783 -34.648  20.035  1.00  0.00     0.141 C
HETATM    2  C7  UNL     1      42.250 -33.785  21.253  1.00  0.00     0.041 C
HETATM    3  C8  UNL     1      40.950 -33.594  22.050  1.00  0.00     0.030 C
HETATM    4  C9  UNL     1      40.303 -34.919  22.330  1.00  0.00     0.005 C
HETATM    5  C10 UNL     1      41.109 -36.096  21.941  1.00  0.00     0.002 A
HETATM    6  C11 UNL     1      40.324 -37.313  21.472  1.00  0.00     0.012 A
HETATM    7  C12 UNL     1      40.954 -37.131  20.105  1.00  0.00     0.003 A
HETATM    8  C20 UNL     1      41.722 -36.008  20.545  1.00  0.00    -0.009 A
HETATM    9  C21 UNL     1      43.232 -36.395  20.764  1.00  0.00     0.018 C
HETATM   10  C22 UNL     1      39.944 -35.067  23.806  1.00  0.00    -0.043 C
HETATM   11  C23 UNL     1      38.937 -36.196  23.987  1.00  0.00     0.015 C
HETATM   12  C24 UNL     1      41.113 -35.365  24.681  1.00  0.00     0.015 C
HETATM   13  C25 UNL     1      39.222 -33.801  24.207  1.00  0.00     0.012 C
HETATM   14  C26 UNL     1      40.228 -32.708  24.291  1.00  0.00     0.041 C
HETATM   15  C27 UNL     1      41.299 -32.779  23.242  1.00  0.00     0.086 A
HETATM   16  C28 UNL     1      41.851 -31.400  22.877  1.00  0.00     0.207 A
HETATM   17  O6  UNL     1      42.588 -32.369  23.509  1.00  0.00    -0.375 OA
ENDROOT
BRANCH   1  18
HETATM   18  O2  UNL     1      40.722 -33.954  19.547  1.00  0.00    -0.312 OA
BRANCH  18  19
HETATM   19  C5  UNL     1      40.762 -33.373  18.262  1.00  0.00     0.283 C
HETATM   20  O1  UNL     1      40.891 -34.183  17.319  1.00  0.00    -0.260 OA
BRANCH  19  21
HETATM   21  C4  UNL     1      40.658 -31.955  18.074  1.00  0.00     0.078 C
HETATM   22  C3  UNL     1      40.006 -31.274  17.195  1.00  0.00    -0.015 C
BRANCH  22  23
HETATM   23  C2  UNL     1      39.157 -31.758  16.102  1.00  0.00     0.032 C
HETATM   24  C1  UNL     1      38.641 -30.584  15.248  1.00  0.00     0.016 C
BRANCH  23  25
HETATM   25  C29 UNL     1      37.904 -32.414  16.650  1.00  0.00     0.280 C
BRANCH  25  26
HETATM   26  N1  UNL     1      37.146 -33.076  15.607  1.00  0.00     0.093 N
HETATM   27  C30 UNL     1      36.061 -33.820  16.216  1.00  0.00     0.298 C
HETATM   28  C31 UNL     1      36.499 -35.117  16.810  1.00  0.00     0.198 C
HETATM   29  O7  UNL     1      37.246 -35.893  15.932  1.00  0.00    -0.388 OA
HETATM   30  C32 UNL     1      37.295 -35.308  14.653  1.00  0.00     0.198 C
HETATM   31  C33 UNL     1      38.007 -33.963  14.844  1.00  0.00     0.298 C
ENDBRANCH  25  26
ENDBRANCH  23  25
ENDBRANCH  22  23
ENDBRANCH  19  21
ENDBRANCH  18  19
ENDBRANCH   1  18
BRANCH   7  32
HETATM   32  C13 UNL     1      40.066 -37.287  18.942  1.00  0.00     0.018 C
HETATM   33  C14 UNL     1      38.863 -38.128  19.069  1.00  0.00     0.013 C
BRANCH  32  34
HETATM   34  C15 UNL     1      40.881 -37.890  17.772  1.00  0.00     0.154 C
BRANCH  34  35
HETATM   35  O3  UNL     1      41.913 -36.948  17.520  1.00  0.00    -0.393 OA
ATOM     36  H3  UNL     1      41.649 -36.502  16.724  1.00  0.00     0.210 HD
ENDBRANCH  34  35
BRANCH  34  37
HETATM   37  C16 UNL     1      40.099 -37.975  16.511  1.00  0.00     0.180 C
BRANCH  37  38
HETATM   38  O4  UNL     1      40.197 -36.740  15.848  1.00  0.00    -0.390 OA
ATOM     39  H4  UNL     1      39.480 -36.677  15.228  1.00  0.00     0.210 HD
ENDBRANCH  37  38
BRANCH  37  40
HETATM   40  C17 UNL     1      40.760 -38.978  15.582  1.00  0.00     0.079 C
HETATM   41  C18 UNL     1      41.402 -40.107  16.348  1.00  0.00     0.048 C
HETATM   42  C19 UNL     1      39.665 -39.614  14.715  1.00  0.00     0.048 C
BRANCH  40  43
HETATM   43  O5  UNL     1      41.659 -38.397  14.721  1.00  0.00    -0.388 OA
ATOM     44  H5  UNL     1      41.511 -38.639  13.815  1.00  0.00     0.210 HD
ENDBRANCH  40  43
ENDBRANCH  37  40
ENDBRANCH  34  37
ENDBRANCH  32  34
ENDBRANCH   7  32
TORSDOF 13
ENDMDL