MODEL 2
REMARK VINA RESULT: -7.114634969     10.728     12.812
REMARK  14 active torsions:
REMARK  status: ('A' for Active; 'I' for Inactive)
REMARK    1  A    between atoms: O1_2  and  C2_3
REMARK    2  A    between atoms: C2_3  and  O3_5
REMARK    3  A    between atoms: O3_5  and  C3_6
REMARK    4  A    between atoms: C3_6  and  C4_8
REMARK    5  A    between atoms: C11_18  and  C12_19
REMARK    6  A    between atoms: C12_19  and  O8_21
REMARK    7  A    between atoms: C12_19  and  C14_23
REMARK    8  A    between atoms: C14_23  and  O9_24
REMARK    9  A    between atoms: C14_23  and  C15_26
REMARK   10  A    between atoms: C15_26  and  C16_27
REMARK   11  A    between atoms: C16_27  and  C18_29
REMARK   12  A    between atoms: C19_30  and  C21_32
REMARK   13  A    between atoms: C21_32  and  O10_33
REMARK   14  A    between atoms: C21_32  and  C22_35
ROOT
HETATM    1  C4  UNL     1      38.233 -34.644  14.516  1.00  0.00     0.166 C
HETATM    2  C5  UNL     1      37.192 -35.216  15.380  1.00  0.00     0.170 C
HETATM    3  O5  UNL     1      37.107 -34.860  16.555  1.00  0.00    -0.294 OA
HETATM    4  C6  UNL     1      36.193 -36.226  14.940  1.00  0.00     0.204 C
HETATM    5  O6  UNL     1      36.005 -37.144  15.972  1.00  0.00    -0.364 OA
HETATM    6  C7  UNL     1      36.266 -38.178  15.079  1.00  0.00     0.203 C
HETATM    7  C8  UNL     1      37.209 -39.202  15.525  1.00  0.00     0.160 C
HETATM    8  O7  UNL     1      37.048 -39.496  16.721  1.00  0.00    -0.295 OA
HETATM    9  C9  UNL     1      38.309 -39.956  14.851  1.00  0.00     0.061 C
HETATM   10  C10 UNL     1      37.851 -40.526  13.524  1.00  0.00     0.018 C
HETATM   11  C11 UNL     1      39.482 -39.038  14.716  1.00  0.00     0.033 C
HETATM   12  C25 UNL     1      39.039 -37.581  14.934  1.00  0.00     0.014 C
HETATM   13  C26 UNL     1      38.172 -37.078  13.831  1.00  0.00     0.009 C
HETATM   14  C27 UNL     1      38.581 -35.646  13.458  1.00  0.00    -0.024 C
HETATM   15  C28 UNL     1      37.775 -35.196  12.224  1.00  0.00     0.016 C
HETATM   16  C29 UNL     1      40.002 -35.593  12.989  1.00  0.00     0.016 C
HETATM   17  C30 UNL     1      36.721 -37.257  14.013  1.00  0.00     0.027 C
HETATM   18  C31 UNL     1      35.904 -37.502  12.738  1.00  0.00     0.022 C
ENDROOT
BRANCH  11  19
HETATM   19  C12 UNL     1      40.576 -39.292  15.690  1.00  0.00     0.084 C
HETATM   20  C13 UNL     1      40.344 -40.606  16.394  1.00  0.00     0.049 C
BRANCH  19  21
HETATM   21  O8  UNL     1      41.777 -39.383  14.989  1.00  0.00    -0.387 OA
ATOM     22  H8  UNL     1      42.386 -39.899  15.504  1.00  0.00     0.210 HD
ENDBRANCH  19  21
BRANCH  19  23
HETATM   23  C14 UNL     1      40.759 -38.246  16.754  1.00  0.00     0.153 C
BRANCH  23  24
HETATM   24  O9  UNL     1      42.129 -37.979  16.822  1.00  0.00    -0.393 OA
ATOM     25  H9  UNL     1      42.218 -37.088  17.141  1.00  0.00     0.210 HD
ENDBRANCH  23  24
BRANCH  23  26
HETATM   26  C15 UNL     1      40.306 -38.676  18.099  1.00  0.00     0.043 C
BRANCH  26  27
HETATM   27  C16 UNL     1      39.874 -37.479  18.979  1.00  0.00     0.007 C
HETATM   28  C17 UNL     1      38.678 -38.084  19.768  1.00  0.00     0.014 C
BRANCH  27  29
HETATM   29  C18 UNL     1      40.929 -37.135  19.931  1.00  0.00    -0.018 C
HETATM   30  C19 UNL     1      41.793 -36.188  20.033  1.00  0.00    -0.059 C
HETATM   31  C20 UNL     1      42.721 -36.302  21.296  1.00  0.00     0.046 C
BRANCH  30  32
HETATM   32  C21 UNL     1      42.109 -34.981  19.292  1.00  0.00     0.149 C
BRANCH  32  33
HETATM   33  O10 UNL     1      42.530 -35.291  17.965  1.00  0.00    -0.391 OA
ATOM     34  H10 UNL     1      41.906 -35.863  17.534  1.00  0.00     0.210 HD
ENDBRANCH  32  33
BRANCH  32  35
HETATM   35  C22 UNL     1      41.166 -33.862  19.175  1.00  0.00     0.010 C
HETATM   36  C23 UNL     1      41.026 -33.258  20.614  1.00  0.00     0.012 C
HETATM   37  C24 UNL     1      41.795 -32.685  18.406  1.00  0.00     0.012 C
ENDBRANCH  32  35
ENDBRANCH  30  32
ENDBRANCH  27  29
ENDBRANCH  26  27
ENDBRANCH  23  26
ENDBRANCH  19  23
ENDBRANCH  11  19
BRANCH   1  38
HETATM   38  C3  UNL     1      39.383 -34.157  15.288  1.00  0.00     0.280 C
HETATM   39  O4  UNL     1      40.005 -34.957  16.029  1.00  0.00    -0.264 OA
BRANCH  38  40
HETATM   40  O3  UNL     1      39.841 -32.854  15.261  1.00  0.00    -0.220 OA
BRANCH  40  41
HETATM   41  C2  UNL     1      39.216 -31.771  15.813  1.00  0.00     0.413 C
HETATM   42  O2  UNL     1      39.103 -30.730  15.117  1.00  0.00    -0.229 OA
BRANCH  41  43
HETATM   43  O1  UNL     1      38.703 -31.776  17.108  1.00  0.00    -0.303 OA
HETATM   44  C1  UNL     1      37.349 -31.494  17.367  1.00  0.00     0.215 C
ENDBRANCH  41  43
ENDBRANCH  40  41
ENDBRANCH  38  40
ENDBRANCH   1  38
TORSDOF 14
ENDMDL