MODEL 3
REMARK VINA RESULT: -6.481494469     14.094     16.379
REMARK  12 active torsions:
REMARK  status: ('A' for Active; 'I' for Inactive)
REMARK    1  A    between atoms: C2_2  and  C3_3
REMARK    2  A    between atoms: C2_2  and  C9_11
REMARK    3  A    between atoms: C12_15  and  N1_16
REMARK    4  A    between atoms: C14_21  and  C15_22
REMARK    5  A    between atoms: C15_22  and  C17_24
REMARK    6  A    between atoms: C18_25  and  C20_27
REMARK    7  A    between atoms: C21_28  and  C22_29
REMARK    8  A    between atoms: C25_32  and  C26_33
REMARK    9  A    between atoms: C26_33  and  O4_34
REMARK   10  A    between atoms: O4_34  and  S1_35
REMARK   11  A    between atoms: C28_39  and  O7_40
REMARK   12  A    between atoms: C29_42  and  O8_43
ROOT
HETATM    1  C15 UNL     1      56.929 -35.866  14.047  1.00  0.00     0.011 C
HETATM    2  C16 UNL     1      57.562 -35.552  12.672  1.00  0.00     0.015 C
ENDROOT
BRANCH   1   3
HETATM    3  C14 UNL     1      56.243 -37.193  13.865  1.00  0.00     0.028 C
HETATM    4  C9  UNL     1      56.180 -38.101  15.027  1.00  0.00     0.157 C
HETATM    5  O3  UNL     1      55.259 -39.102  14.733  1.00  0.00    -0.374 OA
HETATM    6  C10 UNL     1      55.224 -39.642  13.509  1.00  0.00     0.148 C
HETATM    7  C11 UNL     1      56.184 -40.818  13.273  1.00  0.00     0.042 C
HETATM    8  C12 UNL     1      55.256 -38.722  12.323  1.00  0.00     0.212 C
HETATM    9  C13 UNL     1      56.495 -37.829  12.551  1.00  0.00     0.043 C
BRANCH   4  10
HETATM   10  C2  UNL     1      57.414 -38.603  15.619  1.00  0.00    -0.031 C
HETATM   11  C1  UNL     1      58.579 -38.778  14.991  1.00  0.00     0.019 C
BRANCH  10  12
HETATM   12  C3  UNL     1      57.429 -38.977  17.057  1.00  0.00     0.167 C
HETATM   13  O1  UNL     1      56.682 -38.067  17.857  1.00  0.00    -0.311 OA
HETATM   14  C4  UNL     1      57.521 -37.181  18.489  1.00  0.00     0.263 C
HETATM   15  O2  UNL     1      57.258 -36.008  18.920  1.00  0.00    -0.265 OA
HETATM   16  C5  UNL     1      58.839 -37.792  18.614  1.00  0.00     0.088 C
HETATM   17  C6  UNL     1      59.174 -38.120  20.047  1.00  0.00     0.021 C
HETATM   18  C7  UNL     1      58.710 -39.064  17.761  1.00  0.00     0.029 C
HETATM   19  C8  UNL     1      58.654 -40.256  18.742  1.00  0.00     0.014 C
ENDBRANCH  10  12
ENDBRANCH   4  10
BRANCH   8  20
HETATM   20  N1  UNL     1      55.434 -39.470  11.121  1.00  0.00    -0.073 N
ATOM     21  H13 UNL     1      56.365 -39.881  11.063  1.00  0.00     0.274 HD
ATOM     22  H12 UNL     1      54.889 -40.332  11.126  1.00  0.00     0.274 HD
ATOM     23  H11 UNL     1      55.222 -38.889  10.310  1.00  0.00     0.274 HD
ENDBRANCH   8  20
ENDBRANCH   1   3
BRANCH   1  24
HETATM   24  C17 UNL     1      55.979 -34.766  14.258  1.00  0.00    -0.015 C
HETATM   25  C18 UNL     1      56.204 -33.848  15.182  1.00  0.00    -0.065 C
HETATM   26  C19 UNL     1      57.416 -33.938  15.992  1.00  0.00     0.048 C
BRANCH  25  27
HETATM   27  C20 UNL     1      55.238 -32.753  15.383  1.00  0.00     0.007 C
HETATM   28  C21 UNL     1      53.945 -32.867  15.392  1.00  0.00     0.010 C
BRANCH  28  29
HETATM   29  C22 UNL     1      52.945 -31.835  15.584  1.00  0.00    -0.031 C
HETATM   30  C23 UNL     1      52.514 -31.172  14.469  1.00  0.00    -0.016 C
HETATM   31  C24 UNL     1      51.498 -30.120  14.661  1.00  0.00     0.037 C
HETATM   32  C25 UNL     1      50.350 -30.539  15.554  1.00  0.00     0.046 C
HETATM   33  C28 UNL     1      50.770 -31.468  16.643  1.00  0.00     0.158 C
HETATM   34  C29 UNL     1      52.300 -31.385  16.817  1.00  0.00     0.180 C
BRANCH  32  35
HETATM   35  C26 UNL     1      49.281 -31.166  14.684  1.00  0.00     0.197 C
BRANCH  35  36
HETATM   36  O4  UNL     1      48.762 -30.264  13.767  1.00  0.00    -0.276 OA
BRANCH  36  37
HETATM   37  S1  UNL     1      48.667 -31.027  12.283  1.00  0.00     0.261 S
HETATM   38  C27 UNL     1      48.306 -29.852  10.999  1.00  0.00     0.194 C
HETATM   39  O5  UNL     1      47.517 -32.012  12.335  1.00  0.00    -0.199 OA
HETATM   40  O6  UNL     1      49.948 -31.729  11.923  1.00  0.00    -0.199 OA
ENDBRANCH  36  37
ENDBRANCH  35  36
ENDBRANCH  32  35
BRANCH  33  41
HETATM   41  O7  UNL     1      50.217 -31.054  17.849  1.00  0.00    -0.392 OA
ATOM     42  H7  UNL     1      50.361 -31.720  18.511  1.00  0.00     0.210 HD
ENDBRANCH  33  41
BRANCH  34  43
HETATM   43  O8  UNL     1      52.584 -32.082  17.958  1.00  0.00    -0.388 OA
ATOM     44  H8  UNL     1      52.117 -32.899  18.093  1.00  0.00     0.210 HD
ENDBRANCH  34  43
ENDBRANCH  28  29
ENDBRANCH  25  27
ENDBRANCH   1  24
TORSDOF 12
ENDMDL