MODEL 2
REMARK VINA RESULT: -5.890389699      2.169      6.886
REMARK  14 active torsions:
REMARK  status: ('A' for Active; 'I' for Inactive)
REMARK    1  A    between atoms: C2_2  and  C4_4
REMARK    2  A    between atoms: C4_4  and  O1_6
REMARK    3  A    between atoms: C4_4  and  C6_8
REMARK    4  A    between atoms: C7_9  and  C8_10
REMARK    5  A    between atoms: C8_10  and  C10_12
REMARK    6  A    between atoms: C10_12  and  C11_13
REMARK    7  A    between atoms: C23_26  and  C24_27
REMARK    8  A    between atoms: C23_26  and  C25_30
REMARK    9  A    between atoms: C24_27  and  O3_28
REMARK   10  A    between atoms: C25_30  and  O4_31
REMARK   11  A    between atoms: O4_31  and  C26_32
REMARK   12  A    between atoms: C29_38  and  C30_39
REMARK   13  A    between atoms: C30_39  and  O8_40
REMARK   14  A    between atoms: C32_42  and  O9_43
ROOT
HETATM    1  C11 UNL     1      38.836 -36.841  17.107  1.00  0.00     0.128 C
HETATM    2  O2  UNL     1      38.447 -35.568  16.844  1.00  0.00    -0.377 OA
HETATM    3  C12 UNL     1      39.150 -34.485  17.046  1.00  0.00     0.167 C
HETATM    4  C13 UNL     1      39.078 -33.638  15.779  1.00  0.00     0.117 C
HETATM    5  C14 UNL     1      39.761 -34.244  14.596  1.00  0.00     0.018 C
HETATM    6  C15 UNL     1      38.906 -34.940  13.605  1.00  0.00     0.012 C
HETATM    7  C16 UNL     1      38.609 -36.362  13.784  1.00  0.00    -0.023 A
HETATM    8  C17 UNL     1      37.183 -36.813  13.887  1.00  0.00     0.020 C
HETATM    9  C18 UNL     1      36.988 -37.168  15.380  1.00  0.00    -0.041 C
HETATM   10  C19 UNL     1      36.143 -36.124  15.936  1.00  0.00     0.015 C
HETATM   11  C20 UNL     1      36.107 -38.436  15.444  1.00  0.00     0.015 C
HETATM   12  C21 UNL     1      38.340 -37.504  15.788  1.00  0.00     0.028 C
HETATM   13  C22 UNL     1      39.371 -37.109  14.769  1.00  0.00     0.016 A
HETATM   14  C23 UNL     1      39.540 -37.484  13.392  1.00  0.00     0.016 A
HETATM   15  C28 UNL     1      39.574 -32.243  16.049  1.00  0.00     0.266 C
HETATM   16  O6  UNL     1      39.156 -31.331  15.305  1.00  0.00    -0.265 OA
HETATM   17  O7  UNL     1      40.445 -32.061  17.083  1.00  0.00    -0.311 OA
HETATM   18  C29 UNL     1      40.780 -33.002  18.049  1.00  0.00     0.186 C
HETATM   19  C32 UNL     1      40.530 -34.441  17.536  1.00  0.00     0.179 C
ENDROOT
BRANCH   1  20
HETATM   20  C10 UNL     1      38.359 -37.464  18.336  1.00  0.00     0.040 C
BRANCH  20  21
HETATM   21  C8  UNL     1      39.051 -38.547  19.030  1.00  0.00     0.006 C
HETATM   22  C9  UNL     1      39.584 -38.417  20.389  1.00  0.00     0.014 C
BRANCH  21  23
HETATM   23  C7  UNL     1      40.203 -39.031  18.172  1.00  0.00    -0.023 C
HETATM   24  C6  UNL     1      40.183 -40.141  17.491  1.00  0.00     0.011 C
BRANCH  24  25
HETATM   25  C4  UNL     1      41.339 -40.582  16.657  1.00  0.00     0.094 C
HETATM   26  C5  UNL     1      40.847 -40.824  15.253  1.00  0.00     0.055 C
BRANCH  25  27
HETATM   27  C2  UNL     1      41.973 -41.819  17.187  1.00  0.00    -0.056 C
HETATM   28  C1  UNL     1      43.229 -42.162  16.949  1.00  0.00     0.017 C
HETATM   29  C3  UNL     1      41.139 -42.710  18.032  1.00  0.00     0.046 C
ENDBRANCH  25  27
BRANCH  25  30
HETATM   30  O1  UNL     1      42.306 -39.579  16.581  1.00  0.00    -0.382 OA
ATOM     31  H1  UNL     1      42.130 -39.043  15.816  1.00  0.00     0.211 HD
ENDBRANCH  25  30
ENDBRANCH  24  25
ENDBRANCH  21  23
ENDBRANCH  20  21
ENDBRANCH   1  20
BRANCH  19  32
HETATM   32  O9  UNL     1      40.868 -35.222  18.610  1.00  0.00    -0.390 OA
ATOM     33  H9  UNL     1      41.126 -36.123  18.452  1.00  0.00     0.210 HD
ENDBRANCH  19  32
BRANCH  14  34
HETATM   34  C24 UNL     1      38.954 -38.692  12.704  1.00  0.00     0.177 C
BRANCH  34  35
HETATM   35  O3  UNL     1      39.862 -39.498  12.040  1.00  0.00    -0.400 OA
ATOM     36  H3  UNL     1      40.147 -39.177  11.192  1.00  0.00     0.209 HD
ENDBRANCH  34  35
ENDBRANCH  14  34
BRANCH  14  37
HETATM   37  C25 UNL     1      40.686 -36.902  12.589  1.00  0.00     0.191 C
BRANCH  37  38
HETATM   38  O4  UNL     1      40.583 -36.967  11.214  1.00  0.00    -0.321 OA
BRANCH  38  39
HETATM   39  C26 UNL     1      39.878 -36.137  10.370  1.00  0.00     0.254 C
HETATM   40  C27 UNL     1      38.655 -36.621   9.707  1.00  0.00     0.126 C
HETATM   41  O5  UNL     1      40.323 -34.975  10.200  1.00  0.00    -0.266 OA
ENDBRANCH  38  39
ENDBRANCH  37  38
ENDBRANCH  14  37
BRANCH  18  42
HETATM   42  C30 UNL     1      42.217 -32.843  18.466  1.00  0.00     0.202 C
BRANCH  42  43
HETATM   43  O8  UNL     1      42.391 -33.225  19.790  1.00  0.00    -0.393 OA
HETATM   44  C31 UNL     1      41.703 -32.443  20.696  1.00  0.00     0.201 C
ENDBRANCH  42  43
ENDBRANCH  18  42
TORSDOF 14
ENDMDL