MODEL 1
REMARK VINA RESULT: -6.130558368      0.000      0.000
REMARK  12 active torsions:
REMARK  status: ('A' for Active; 'I' for Inactive)
REMARK    1  A    between atoms: C2_2  and  C3_3
REMARK    2  A    between atoms: C12_14  and  O3_15
REMARK    3  A    between atoms: C20_26  and  O6_27
REMARK    4  A    between atoms: O6_27  and  C21_28
REMARK    5  A    between atoms: C21_28  and  C22_30
REMARK    6  A    between atoms: C22_30  and  C23_31
REMARK    7  A    between atoms: C23_31  and  C24_32
REMARK    8  A    between atoms: C24_32  and  C25_33
REMARK    9  A    between atoms: C25_33  and  C26_34
REMARK   10  A    between atoms: C26_34  and  C27_35
REMARK   11  A    between atoms: C30_38  and  O8_39
REMARK   12  A    between atoms: C31_41  and  O9_42
ROOT
HETATM    1  C3  UNL     1      38.062 -39.811   9.376  1.00  0.00    -0.014 C
HETATM    2  C4  UNL     1      36.664 -39.662   8.853  1.00  0.00     0.020 C
HETATM    3  C5  UNL     1      38.051 -40.365  10.744  1.00  0.00     0.092 C
HETATM    4  C6  UNL     1      37.767 -39.483  11.867  1.00  0.00     0.133 C
HETATM    5  O1  UNL     1      36.784 -38.778  11.859  1.00  0.00    -0.298 OA
HETATM    6  C7  UNL     1      38.647 -39.414  13.038  1.00  0.00     0.067 C
HETATM    7  C8  UNL     1      39.341 -40.726  13.185  1.00  0.00     0.019 C
HETATM    8  C9  UNL     1      39.565 -38.197  13.076  1.00  0.00     0.038 C
HETATM    9  C10 UNL     1      40.815 -38.666  13.843  1.00  0.00     0.025 C
HETATM   10  C11 UNL     1      40.095 -37.855  11.724  1.00  0.00     0.186 C
HETATM   11  O2  UNL     1      41.103 -38.440  11.275  1.00  0.00    -0.293 OA
HETATM   12  C12 UNL     1      39.549 -36.856  10.802  1.00  0.00     0.241 C
HETATM   13  C13 UNL     1      38.683 -37.389   9.726  1.00  0.00     0.177 C
HETATM   14  O4  UNL     1      37.715 -36.697   9.395  1.00  0.00    -0.294 OA
HETATM   15  C14 UNL     1      38.963 -38.661   9.093  1.00  0.00     0.096 C
HETATM   16  C15 UNL     1      38.883 -35.811  11.609  1.00  0.00     0.185 C
HETATM   17  O5  UNL     1      38.230 -35.015  10.972  1.00  0.00    -0.293 OA
HETATM   18  C16 UNL     1      38.985 -35.713  13.072  1.00  0.00     0.034 C
HETATM   19  C17 UNL     1      40.276 -34.948  13.346  1.00  0.00     0.025 C
HETATM   20  C18 UNL     1      37.880 -34.760  13.498  1.00  0.00     0.027 C
HETATM   21  C19 UNL     1      36.554 -35.004  12.875  1.00  0.00     0.014 C
HETATM   22  C20 UNL     1      37.735 -34.548  14.957  1.00  0.00     0.139 C
HETATM   23  C29 UNL     1      37.064 -35.745  15.574  1.00  0.00     0.067 C
HETATM   24  C30 UNL     1      38.040 -36.726  16.145  1.00  0.00     0.149 C
HETATM   25  C31 UNL     1      39.222 -36.988  15.242  1.00  0.00     0.153 C
HETATM   26  C32 UNL     1      38.904 -37.017  13.777  1.00  0.00     0.049 C
ENDROOT
BRANCH  22  27
HETATM   27  O6  UNL     1      36.797 -33.465  15.113  1.00  0.00    -0.316 OA
BRANCH  27  28
HETATM   28  C21 UNL     1      36.948 -32.493  16.103  1.00  0.00     0.259 C
HETATM   29  O7  UNL     1      36.424 -32.768  17.212  1.00  0.00    -0.265 OA
BRANCH  28  30
HETATM   30  C22 UNL     1      37.675 -31.224  15.860  1.00  0.00     0.111 C
BRANCH  30  31
HETATM   31  C23 UNL     1      39.142 -31.535  15.707  1.00  0.00     0.010 C
BRANCH  31  32
HETATM   32  C24 UNL     1      39.855 -31.826  16.986  1.00  0.00     0.000 C
BRANCH  32  33
HETATM   33  C25 UNL     1      40.560 -33.154  16.970  1.00  0.00     0.000 C
BRANCH  33  34
HETATM   34  C26 UNL     1      41.624 -33.180  18.052  1.00  0.00    -0.000 C
BRANCH  34  35
HETATM   35  C27 UNL     1      42.017 -34.620  18.346  1.00  0.00    -0.005 C
HETATM   36  C28 UNL     1      40.817 -35.353  18.909  1.00  0.00     0.005 C
ENDBRANCH  34  35
ENDBRANCH  33  34
ENDBRANCH  32  33
ENDBRANCH  31  32
ENDBRANCH  30  31
ENDBRANCH  28  30
ENDBRANCH  27  28
ENDBRANCH  22  27
BRANCH  24  37
HETATM   37  O8  UNL     1      37.374 -37.916  16.411  1.00  0.00    -0.393 OA
ATOM     38  H8  UNL     1      37.949 -38.641  16.202  1.00  0.00     0.210 HD
ENDBRANCH  24  37
BRANCH  25  39
HETATM   39  O9  UNL     1      40.320 -36.204  15.589  1.00  0.00    -0.393 OA
ATOM     40  H9  UNL     1      41.090 -36.733  15.764  1.00  0.00     0.210 HD
ENDBRANCH  25  39
BRANCH  12  41
HETATM   41  O3  UNL     1      40.615 -36.217  10.087  1.00  0.00    -0.369 OA
ATOM     42  H3  UNL     1      40.517 -35.273  10.138  1.00  0.00     0.212 HD
ENDBRANCH  12  41
BRANCH   1  43
HETATM   43  C2  UNL     1      38.643 -40.944   8.518  1.00  0.00    -0.027 C
HETATM   44  C1  UNL     1      39.861 -41.398   8.705  1.00  0.00     0.007 C
ENDBRANCH   1  43
TORSDOF 12
ENDMDL