MODEL 4
REMARK VINA RESULT: -6.249476362     13.662     15.830
REMARK  12 active torsions:
REMARK  status: ('A' for Active; 'I' for Inactive)
REMARK    1  A    between atoms: O1_2  and  C2_3
REMARK    2  A    between atoms: C3_4  and  O2_5
REMARK    3  A    between atoms: C6_10  and  O4_11
REMARK    4  A    between atoms: O4_11  and  C7_12
REMARK    5  A    between atoms: C21_27  and  C23_29
REMARK    6  A    between atoms: C24_30  and  C25_31
REMARK    7  A    between atoms: C26_32  and  C27_33
REMARK    8  A    between atoms: C27_33  and  C28_34
REMARK    9  A    between atoms: C28_34  and  O7_36
REMARK   10  A    between atoms: O7_36  and  C29_37
REMARK   11  A    between atoms: C29_37  and  C30_38
REMARK   12  A    between atoms: C31_41  and  O10_42
ROOT
HETATM    1  C7  UNL     1      39.097 -39.105  14.891  1.00  0.00     0.053 C
HETATM    2  C8  UNL     1      37.817 -38.998  14.544  1.00  0.00     0.038 C
HETATM    3  C9  UNL     1      36.666 -39.533  15.218  1.00  0.00    -0.063 C
HETATM    4  C10 UNL     1      35.864 -40.632  14.553  1.00  0.00     0.048 C
HETATM    5  C11 UNL     1      36.180 -39.103  16.396  1.00  0.00    -0.019 C
HETATM    6  C12 UNL     1      36.721 -38.019  17.202  1.00  0.00     0.036 C
HETATM    7  C13 UNL     1      37.233 -38.400  18.574  1.00  0.00    -0.040 C
HETATM    8  C14 UNL     1      36.835 -39.806  18.837  1.00  0.00     0.015 C
HETATM    9  C15 UNL     1      36.430 -37.540  19.572  1.00  0.00     0.015 C
HETATM   10  C16 UNL     1      38.664 -38.049  18.626  1.00  0.00     0.014 A
HETATM   11  C17 UNL     1      39.611 -39.163  18.398  1.00  0.00     0.041 A
HETATM   12  C18 UNL     1      40.305 -38.968  17.097  1.00  0.00     0.093 A
HETATM   13  C19 UNL     1      41.714 -38.742  16.915  1.00  0.00     0.207 A
HETATM   14  O5  UNL     1      40.758 -37.758  16.661  1.00  0.00    -0.374 OA
HETATM   15  C20 UNL     1      39.616 -39.824  16.065  1.00  0.00     0.105 C
HETATM   16  C21 UNL     1      39.677 -38.373  19.606  1.00  0.00    -0.015 A
HETATM   17  C22 UNL     1      39.309 -39.115  20.906  1.00  0.00     0.020 C
ENDROOT
BRANCH   1  18
HETATM   18  O4  UNL     1      40.025 -38.482  14.063  1.00  0.00    -0.322 OA
BRANCH  18  19
HETATM   19  C6  UNL     1      39.672 -37.543  13.097  1.00  0.00     0.297 C
HETATM   20  O3  UNL     1      40.221 -37.816  11.876  1.00  0.00    -0.351 OA
HETATM   21  C4  UNL     1      40.240 -36.835  10.948  1.00  0.00     0.152 C
HETATM   22  C3  UNL     1      39.399 -35.633  11.181  1.00  0.00     0.178 C
HETATM   23  C5  UNL     1      39.954 -37.459   9.578  1.00  0.00     0.042 C
HETATM   24  C2  UNL     1      39.154 -35.261  12.591  1.00  0.00     0.185 C
HETATM   25  C31 UNL     1      40.075 -36.134  13.454  1.00  0.00     0.205 C
BRANCH  22  26
HETATM   26  O2  UNL     1      39.956 -34.500  10.538  1.00  0.00    -0.390 OA
ATOM     27  H2  UNL     1      40.405 -34.810   9.761  1.00  0.00     0.210 HD
ENDBRANCH  22  26
BRANCH  24  28
HETATM   28  O1  UNL     1      37.850 -35.612  12.936  1.00  0.00    -0.385 OA
HETATM   29  C1  UNL     1      36.939 -34.978  12.069  1.00  0.00     0.202 C
ENDBRANCH  24  28
BRANCH  25  30
HETATM   30  O10 UNL     1      39.952 -35.845  14.791  1.00  0.00    -0.388 OA
ATOM     31  H10 UNL     1      40.781 -35.919  15.249  1.00  0.00     0.210 HD
ENDBRANCH  25  30
ENDBRANCH  18  19
ENDBRANCH   1  18
BRANCH  16  32
HETATM   32  C23 UNL     1      40.706 -37.332  19.876  1.00  0.00    -0.017 C
HETATM   33  C24 UNL     1      40.312 -36.046  19.811  1.00  0.00    -0.004 C
BRANCH  33  34
HETATM   34  C25 UNL     1      41.265 -34.977  20.062  1.00  0.00    -0.004 C
HETATM   35  C26 UNL     1      41.736 -34.228  19.117  1.00  0.00    -0.017 C
BRANCH  35  36
HETATM   36  C27 UNL     1      41.407 -34.324  17.691  1.00  0.00     0.138 C
BRANCH  36  37
HETATM   37  C28 UNL     1      40.704 -33.105  17.194  1.00  0.00     0.262 C
HETATM   38  O6  UNL     1      40.577 -32.139  17.981  1.00  0.00    -0.265 OA
BRANCH  37  39
HETATM   39  O7  UNL     1      40.230 -33.097  15.904  1.00  0.00    -0.311 OA
BRANCH  39  40
HETATM   40  C29 UNL     1      39.008 -32.496  15.579  1.00  0.00     0.291 C
BRANCH  40  41
HETATM   41  C30 UNL     1      37.816 -33.172  16.092  1.00  0.00     0.198 C
HETATM   42  O8  UNL     1      37.715 -34.415  15.989  1.00  0.00    -0.646 OA
HETATM   43  O9  UNL     1      36.766 -32.512  16.700  1.00  0.00    -0.646 OA
ENDBRANCH  40  41
ENDBRANCH  39  40
ENDBRANCH  37  39
ENDBRANCH  36  37
ENDBRANCH  35  36
ENDBRANCH  33  34
ENDBRANCH  16  32
TORSDOF 12
ENDMDL