MODEL 2
REMARK VINA RESULT: -8.948127490      0.857      1.273
REMARK  14 active torsions:
REMARK  status: ('A' for Active; 'I' for Inactive)
REMARK    1  A    between atoms: C2_2  and  O2_4
REMARK    2  A    between atoms: O2_4  and  C3_5
REMARK    3  A    between atoms: C4_6  and  O3_7
REMARK    4  A    between atoms: O3_7  and  C5_8
REMARK    5  A    between atoms: C5_8  and  C6_10
REMARK    6  A    between atoms: C6_10  and  O5_11
REMARK    7  A    between atoms: C6_10  and  C7_13
REMARK    8  A    between atoms: C10_16  and  O6_18
REMARK    9  A    between atoms: C16_25  and  C17_26
REMARK   10  A    between atoms: C17_26  and  C18_27
REMARK   11  A    between atoms: C18_27  and  O8_28
REMARK   12  A    between atoms: C18_27  and  C19_30
REMARK   13  A    between atoms: C20_31  and  C21_32
REMARK   14  A    between atoms: C21_32  and  C22_33
ROOT
HETATM    1  C3  UNL     1      45.521 -27.970  15.092  1.00  0.00     0.183 C
HETATM    2  C4  UNL     1      45.659 -26.639  14.397  1.00  0.00     0.198 C
HETATM    3  C10 UNL     1      46.151 -27.452  13.185  1.00  0.00     0.101 C
HETATM    4  C11 UNL     1      45.064 -27.903  12.268  1.00  0.00     0.050 C
HETATM    5  C12 UNL     1      46.637 -28.475  14.202  1.00  0.00     0.086 C
HETATM    6  C13 UNL     1      46.428 -29.877  13.882  1.00  0.00     0.145 C
HETATM    7  O7  UNL     1      45.257 -30.271  13.746  1.00  0.00    -0.296 OA
HETATM    8  C14 UNL     1      47.508 -30.856  13.711  1.00  0.00     0.056 C
HETATM    9  C15 UNL     1      47.156 -31.672  12.479  1.00  0.00     0.018 C
HETATM   10  C16 UNL     1      48.870 -30.272  13.578  1.00  0.00    -0.001 C
HETATM   11  C30 UNL     1      49.011 -28.806  13.738  1.00  0.00     0.011 C
HETATM   12  C31 UNL     1      48.025 -28.151  14.644  1.00  0.00     0.003 C
HETATM   13  C32 UNL     1      48.314 -28.453  16.084  1.00  0.00     0.011 C
ENDROOT
BRANCH   1  14
HETATM   14  O2  UNL     1      45.743 -28.010  16.462  1.00  0.00    -0.312 OA
BRANCH  14  15
HETATM   15  C2  UNL     1      44.762 -27.599  17.354  1.00  0.00     0.255 C
HETATM   16  C1  UNL     1      44.311 -26.193  17.504  1.00  0.00     0.126 C
HETATM   17  O1  UNL     1      44.219 -28.466  18.082  1.00  0.00    -0.266 OA
ENDBRANCH  14  15
ENDBRANCH   1  14
BRANCH   3  18
HETATM   18  O6  UNL     1      47.149 -26.709  12.563  1.00  0.00    -0.386 OA
ATOM     19  H6  UNL     1      47.966 -27.182  12.673  1.00  0.00     0.210 HD
ENDBRANCH   3  18
BRANCH   2  20
HETATM   20  O3  UNL     1      44.449 -25.943  14.158  1.00  0.00    -0.308 OA
BRANCH  20  21
HETATM   21  C5  UNL     1      44.573 -24.581  13.863  1.00  0.00     0.288 C
HETATM   22  O4  UNL     1      45.624 -24.138  13.336  1.00  0.00    -0.262 OA
BRANCH  21  23
HETATM   23  C6  UNL     1      43.428 -23.695  14.193  1.00  0.00     0.221 C
BRANCH  23  24
HETATM   24  O5  UNL     1      43.838 -22.609  14.961  1.00  0.00    -0.385 OA
ATOM     25  H5  UNL     1      44.577 -22.166  14.563  1.00  0.00     0.210 HD
ENDBRANCH  23  24
BRANCH  23  26
HETATM   26  C7  UNL     1      42.402 -24.499  14.996  1.00  0.00     0.016 C
HETATM   27  C8  UNL     1      42.187 -23.866  16.351  1.00  0.00     0.012 C
HETATM   28  C9  UNL     1      41.141 -24.557  14.171  1.00  0.00     0.012 C
ENDBRANCH  23  26
ENDBRANCH  21  23
ENDBRANCH  20  21
ENDBRANCH   2  20
BRANCH  10  29
HETATM   29  C17 UNL     1      49.873 -31.002  14.432  1.00  0.00     0.041 C
BRANCH  29  30
HETATM   30  C18 UNL     1      50.864 -31.844  13.630  1.00  0.00     0.141 C
BRANCH  30  31
HETATM   31  O8  UNL     1      50.430 -32.067  12.364  1.00  0.00    -0.392 OA
ATOM     32  H8  UNL     1      51.125 -31.953  11.726  1.00  0.00     0.210 HD
ENDBRANCH  30  31
BRANCH  30  33
HETATM   33  C19 UNL     1      52.207 -31.304  13.712  1.00  0.00     0.000 C
HETATM   34  C20 UNL     1      53.178 -31.602  14.497  1.00  0.00    -0.027 C
BRANCH  34  35
HETATM   35  C21 UNL     1      53.336 -32.563  15.594  1.00  0.00     0.039 C
BRANCH  35  36
HETATM   36  C22 UNL     1      54.240 -32.022  16.661  1.00  0.00     0.051 C
HETATM   37  C23 UNL     1      55.443 -32.759  16.993  1.00  0.00    -0.078 C
HETATM   38  C24 UNL     1      56.438 -33.245  15.983  1.00  0.00     0.043 C
HETATM   39  C25 UNL     1      55.681 -32.989  18.309  1.00  0.00     0.008 C
HETATM   40  C26 UNL     1      54.686 -32.457  19.260  1.00  0.00     0.148 C
HETATM   41  C27 UNL     1      54.340 -31.024  18.908  1.00  0.00     0.074 C
HETATM   42  O9  UNL     1      53.428 -32.827  18.805  1.00  0.00    -0.370 OA
HETATM   43  C28 UNL     1      53.449 -31.765  17.937  1.00  0.00     0.068 C
HETATM   44  C29 UNL     1      52.155 -31.047  17.695  1.00  0.00     0.047 C
ENDBRANCH  35  36
ENDBRANCH  34  35
ENDBRANCH  30  33
ENDBRANCH  29  30
ENDBRANCH  10  29
TORSDOF 14
ENDMDL