MODEL 1
REMARK VINA RESULT: -6.227019992      0.000      0.000
REMARK  13 active torsions:
REMARK  status: ('A' for Active; 'I' for Inactive)
REMARK    1  A    between atoms: C4_4  and  C5_5
REMARK    2  A    between atoms: C5_5  and  C8_8
REMARK    3  A    between atoms: C8_8  and  O1_10
REMARK    4  A    between atoms: C11_13  and  O2_14
REMARK    5  A    between atoms: C12_16  and  C13_17
REMARK    6  A    between atoms: C14_18  and  C15_19
REMARK    7  A    between atoms: C20_24  and  O3_25
REMARK    8  A    between atoms: O3_25  and  C21_26
REMARK    9  A    between atoms: C24_30  and  O5_31
REMARK   10  A    between atoms: C26_33  and  O6_34
REMARK   11  A    between atoms: C28_36  and  O7_37
REMARK   12  A    between atoms: O7_37  and  C29_38
REMARK   13  A    between atoms: C31_41  and  O9_42
ROOT
HETATM    1  C15 UNL     1      38.208 -33.904  15.361  1.00  0.00     0.039 C
HETATM    2  C16 UNL     1      37.126 -33.778  16.414  1.00  0.00     0.011 C
HETATM    3  C17 UNL     1      37.209 -32.356  16.930  1.00  0.00     0.007 C
HETATM    4  C18 UNL     1      38.606 -31.832  17.011  1.00  0.00     0.013 C
HETATM    5  C19 UNL     1      38.878 -30.771  15.942  1.00  0.00     0.012 C
HETATM    6  C20 UNL     1      39.674 -32.868  17.054  1.00  0.00     0.158 C
HETATM    7  C31 UNL     1      39.520 -33.997  16.100  1.00  0.00     0.155 C
ENDROOT
BRANCH   1   8
HETATM    8  C14 UNL     1      37.989 -35.109  14.490  1.00  0.00    -0.023 C
HETATM    9  C13 UNL     1      38.159 -35.065  13.204  1.00  0.00    -0.019 C
BRANCH   9  10
HETATM   10  C12 UNL     1      38.034 -36.007  12.128  1.00  0.00     0.065 C
HETATM   11  C2  UNL     1      36.798 -36.169  11.375  1.00  0.00    -0.079 C
HETATM   12  C1  UNL     1      35.875 -35.310  11.146  1.00  0.00     0.015 C
HETATM   13  C3  UNL     1      36.653 -37.557  10.748  1.00  0.00     0.039 C
HETATM   14  C4  UNL     1      38.019 -37.781  10.121  1.00  0.00     0.002 C
HETATM   15  C10 UNL     1      38.650 -36.457   9.766  1.00  0.00     0.038 C
HETATM   16  C11 UNL     1      39.072 -35.672  11.008  1.00  0.00     0.130 C
BRANCH  14  17
HETATM   17  C5  UNL     1      37.988 -38.755   8.995  1.00  0.00    -0.018 C
HETATM   18  C6  UNL     1      38.608 -40.084   9.371  1.00  0.00     0.018 C
HETATM   19  C7  UNL     1      36.531 -39.080   8.633  1.00  0.00     0.018 C
BRANCH  17  20
HETATM   20  C8  UNL     1      38.644 -38.291   7.731  1.00  0.00     0.122 C
HETATM   21  C9  UNL     1      37.679 -38.479   6.551  1.00  0.00     0.040 C
BRANCH  20  22
HETATM   22  O1  UNL     1      39.767 -39.058   7.384  1.00  0.00    -0.395 OA
ATOM     23  H1  UNL     1      40.290 -38.660   6.698  1.00  0.00     0.210 HD
ENDBRANCH  20  22
ENDBRANCH  17  20
ENDBRANCH  14  17
BRANCH  16  24
HETATM   24  O2  UNL     1      40.352 -35.937  11.415  1.00  0.00    -0.395 OA
ATOM     25  H2  UNL     1      40.443 -36.765  11.871  1.00  0.00     0.210 HD
ENDBRANCH  16  24
ENDBRANCH   9  10
ENDBRANCH   1   8
BRANCH   7  26
HETATM   26  O9  UNL     1      40.598 -34.141  15.233  1.00  0.00    -0.392 OA
ATOM     27  H9  UNL     1      41.395 -34.377  15.692  1.00  0.00     0.210 HD
ENDBRANCH   7  26
BRANCH   6  28
HETATM   28  O3  UNL     1      39.827 -33.287  18.371  1.00  0.00    -0.350 OA
BRANCH  28  29
HETATM   29  C21 UNL     1      41.117 -33.232  18.836  1.00  0.00     0.293 C
HETATM   30  O4  UNL     1      41.386 -32.220  19.701  1.00  0.00    -0.351 OA
HETATM   31  C22 UNL     1      41.088 -32.359  21.000  1.00  0.00     0.152 C
HETATM   32  C23 UNL     1      42.125 -31.574  21.815  1.00  0.00     0.042 C
HETATM   33  C24 UNL     1      40.963 -33.720  21.569  1.00  0.00     0.181 C
HETATM   34  C26 UNL     1      40.549 -34.779  20.564  1.00  0.00     0.186 C
HETATM   35  C28 UNL     1      41.470 -34.604  19.371  1.00  0.00     0.218 C
BRANCH  33  36
HETATM   36  O5  UNL     1      42.129 -34.195  22.169  1.00  0.00    -0.385 OA
HETATM   37  C25 UNL     1      41.961 -34.431  23.529  1.00  0.00     0.202 C
ENDBRANCH  33  36
BRANCH  34  38
HETATM   38  O6  UNL     1      40.717 -36.009  21.188  1.00  0.00    -0.385 OA
HETATM   39  C27 UNL     1      40.154 -37.058  20.485  1.00  0.00     0.202 C
ENDBRANCH  34  38
BRANCH  35  40
HETATM   40  O7  UNL     1      42.791 -34.678  19.844  1.00  0.00    -0.309 OA
BRANCH  40  41
HETATM   41  C29 UNL     1      43.553 -35.805  19.573  1.00  0.00     0.255 C
HETATM   42  C30 UNL     1      44.733 -36.116  20.436  1.00  0.00     0.126 C
HETATM   43  O8  UNL     1      43.218 -36.521  18.607  1.00  0.00    -0.266 OA
ENDBRANCH  40  41
ENDBRANCH  35  40
ENDBRANCH  28  29
ENDBRANCH   6  28
TORSDOF 13
ENDMDL