MODEL 3
REMARK VINA RESULT: -5.847677582     16.728     18.619
REMARK  15 active torsions:
REMARK  status: ('A' for Active; 'I' for Inactive)
REMARK    1  A    between atoms: C2_2  and  C4_4
REMARK    2  A    between atoms: C4_4  and  O1_5
REMARK    3  A    between atoms: C5_7  and  C6_8
REMARK    4  A    between atoms: C6_8  and  O2_9
REMARK    5  A    between atoms: C10_15  and  O4_16
REMARK    6  A    between atoms: O4_16  and  C11_17
REMARK    7  A    between atoms: C11_17  and  C12_19
REMARK    8  A    between atoms: C16_23  and  O6_24
REMARK    9  A    between atoms: C18_26  and  O7_27
REMARK   10  A    between atoms: C20_29  and  O8_30
REMARK       I    between atoms: N1_32  and  C21_33
REMARK   11  A    between atoms: C21_33  and  C22_35
REMARK   12  A    between atoms: C23_36  and  C24_37
REMARK   13  A    between atoms: C25_38  and  C26_39
REMARK   14  A    between atoms: C27_40  and  C28_41
REMARK   15  A    between atoms: C28_41  and  C30_43
ROOT
HETATM    1  C4  UNL     1      38.197 -33.472  15.576  1.00  0.00     0.191 C
HETATM    2  C5  UNL     1      37.643 -34.422  14.591  1.00  0.00     0.208 C
HETATM    3  O3  UNL     1      37.658 -35.673  15.224  1.00  0.00    -0.345 OA
HETATM    4  C7  UNL     1      38.797 -35.691  16.038  1.00  0.00     0.176 C
HETATM    5  C8  UNL     1      38.418 -36.506  17.244  1.00  0.00     0.072 C
HETATM    6  C9  UNL     1      36.932 -36.773  17.329  1.00  0.00     0.017 C
HETATM    7  C10 UNL     1      39.066 -37.901  17.173  1.00  0.00     0.172 C
HETATM    8  C16 UNL     1      38.804 -38.522  15.829  1.00  0.00     0.182 C
HETATM    9  C18 UNL     1      39.303 -37.713  14.657  1.00  0.00     0.185 C
HETATM   10  C20 UNL     1      39.853 -36.425  15.235  1.00  0.00     0.206 C
HETATM   11  N1  UNL     1      39.193 -34.354  16.257  1.00  0.00    -0.274 N
HETATM   12  C21 UNL     1      40.307 -33.772  16.926  1.00  0.00     0.248 C
HETATM   13  O9  UNL     1      40.459 -32.495  16.886  1.00  0.00    -0.268 OA
ENDROOT
BRANCH  10  14
HETATM   14  O8  UNL     1      40.335 -35.607  14.245  1.00  0.00    -0.388 OA
ATOM     15  H8  UNL     1      39.952 -35.854  13.411  1.00  0.00     0.210 HD
ENDBRANCH  10  14
BRANCH   2  16
HETATM   16  C6  UNL     1      36.300 -34.181  14.012  1.00  0.00     0.201 C
BRANCH  16  17
HETATM   17  O2  UNL     1      36.088 -34.630  12.736  1.00  0.00    -0.398 OA
ATOM     18  H2  UNL     1      35.328 -35.183  12.598  1.00  0.00     0.209 HD
ENDBRANCH  16  17
ENDBRANCH   2  16
BRANCH   7  19
HETATM   19  O4  UNL     1      38.315 -38.687  18.124  1.00  0.00    -0.312 OA
BRANCH  19  20
HETATM   20  C11 UNL     1      38.945 -39.305  19.193  1.00  0.00     0.267 C
HETATM   21  O5  UNL     1      39.510 -40.397  18.935  1.00  0.00    -0.264 OA
BRANCH  20  22
HETATM   22  C12 UNL     1      38.922 -38.676  20.541  1.00  0.00     0.037 C
HETATM   23  C13 UNL     1      37.706 -37.807  20.760  1.00  0.00     0.025 C
HETATM   24  C14 UNL     1      39.151 -39.665  21.654  1.00  0.00     0.025 C
HETATM   25  C15 UNL     1      40.116 -37.711  20.579  1.00  0.00     0.025 C
ENDBRANCH  20  22
ENDBRANCH  19  20
ENDBRANCH   7  19
BRANCH   9  26
HETATM   26  O7  UNL     1      38.287 -37.417  13.781  1.00  0.00    -0.385 OA
HETATM   27  C19 UNL     1      38.383 -38.013  12.541  1.00  0.00     0.202 C
ENDBRANCH   9  26
BRANCH   1  28
HETATM   28  C2  UNL     1      37.336 -32.761  16.482  1.00  0.00    -0.035 C
HETATM   29  C1  UNL     1      36.242 -33.317  17.006  1.00  0.00     0.019 C
HETATM   30  C3  UNL     1      37.567 -31.348  16.891  1.00  0.00     0.048 C
ENDBRANCH   1  28
BRANCH   1  31
HETATM   31  O1  UNL     1      38.921 -32.500  14.831  1.00  0.00    -0.364 OA
ATOM     32  H1  UNL     1      38.828 -32.722  13.912  1.00  0.00     0.213 HD
ENDBRANCH   1  31
BRANCH  12  33
HETATM   33  C22 UNL     1      41.296 -34.494  17.654  1.00  0.00     0.074 C
HETATM   34  C23 UNL     1      41.448 -34.616  18.930  1.00  0.00     0.005 C
BRANCH  34  35
HETATM   35  C24 UNL     1      40.652 -34.050  20.001  1.00  0.00     0.000 C
HETATM   36  C25 UNL     1      41.141 -33.034  20.750  1.00  0.00    -0.000 C
BRANCH  36  37
HETATM   37  C26 UNL     1      40.403 -32.447  21.810  1.00  0.00    -0.004 C
HETATM   38  C27 UNL     1      40.868 -31.889  22.884  1.00  0.00    -0.023 C
BRANCH  38  39
HETATM   39  C28 UNL     1      42.322 -31.788  23.162  1.00  0.00     0.004 C
HETATM   40  C29 UNL     1      42.776 -30.325  23.106  1.00  0.00     0.014 C
BRANCH  39  41
HETATM   41  C30 UNL     1      42.646 -32.269  24.562  1.00  0.00     0.003 C
HETATM   42  C31 UNL     1      42.247 -33.718  24.744  1.00  0.00     0.006 C
ENDBRANCH  39  41
ENDBRANCH  38  39
ENDBRANCH  36  37
ENDBRANCH  34  35
ENDBRANCH  12  33
BRANCH   8  43
HETATM   43  O6  UNL     1      39.399 -39.780  15.738  1.00  0.00    -0.385 OA
HETATM   44  C17 UNL     1      38.549 -40.716  15.201  1.00  0.00     0.202 C
ENDBRANCH   8  43
TORSDOF 15
ENDMDL