MODEL 2
REMARK VINA RESULT: -8.758489556      0.913      1.482
REMARK  12 active torsions:
REMARK  status: ('A' for Active; 'I' for Inactive)
REMARK    1  A    between atoms: C2_2  and  N1_3
REMARK    2  A    between atoms: N1_3  and  C3_4
REMARK    3  A    between atoms: N1_3  and  C5_10
REMARK    4  A    between atoms: C3_4  and  C4_5
REMARK    5  A    between atoms: C4_5  and  N2_6
REMARK    6  A    between atoms: C5_10  and  C6_11
REMARK    7  A    between atoms: C6_11  and  O1_12
REMARK    8  A    between atoms: O1_12  and  C7_13
REMARK    9  A    between atoms: C7_13  and  C8_14
REMARK   10  A    between atoms: C12_18  and  O2_19
REMARK   11  A    between atoms: C22_30  and  C23_31
REMARK   12  A    between atoms: C25_36  and  O6_37
ROOT
HETATM    1  C8  UNL     1      47.086 -27.598  13.253  1.00  0.00     0.068 C
HETATM    2  C9  UNL     1      48.394 -28.405  13.319  1.00  0.00     0.032 C
HETATM    3  C10 UNL     1      48.299 -28.977  14.706  1.00  0.00    -0.029 C
HETATM    4  C11 UNL     1      47.679 -27.865  15.504  1.00  0.00     0.043 C
HETATM    5  C12 UNL     1      47.208 -26.811  14.521  1.00  0.00     0.137 C
HETATM    6  C13 UNL     1      47.343 -30.146  14.654  1.00  0.00     0.001 C
HETATM    7  C14 UNL     1      47.838 -31.167  13.632  1.00  0.00     0.006 C
HETATM    8  C15 UNL     1      49.345 -31.335  13.692  1.00  0.00     0.006 C
HETATM    9  C16 UNL     1      49.784 -30.881  15.046  1.00  0.00    -0.001 C
HETATM   10  C17 UNL     1      49.616 -29.410  15.287  1.00  0.00    -0.001 C
HETATM   11  C18 UNL     1      49.493 -29.235  16.807  1.00  0.00     0.006 C
HETATM   12  C19 UNL     1      50.215 -30.373  17.541  1.00  0.00     0.006 C
HETATM   13  C20 UNL     1      51.466 -30.714  16.761  1.00  0.00    -0.005 C
HETATM   14  C21 UNL     1      52.447 -31.423  17.614  1.00  0.00     0.021 C
HETATM   15  C22 UNL     1      53.876 -31.366  17.163  1.00  0.00     0.071 C
HETATM   16  C26 UNL     1      54.162 -31.748  15.795  1.00  0.00    -0.019 C
HETATM   17  C27 UNL     1      53.481 -31.595  14.679  1.00  0.00    -0.029 C
HETATM   18  C28 UNL     1      52.178 -30.967  14.472  1.00  0.00     0.036 C
HETATM   19  C29 UNL     1      51.141 -31.404  15.467  1.00  0.00    -0.033 C
HETATM   20  C30 UNL     1      51.038 -32.886  15.538  1.00  0.00     0.016 C
HETATM   21  C31 UNL     1      45.973 -29.715  14.231  1.00  0.00     0.084 C
HETATM   22  C32 UNL     1      45.946 -28.556  13.337  1.00  0.00     0.140 C
HETATM   23  O7  UNL     1      44.929 -28.405  12.651  1.00  0.00    -0.297 OA
ENDROOT
BRANCH   1  24
HETATM   24  C7  UNL     1      47.022 -26.780  11.999  1.00  0.00     0.187 C
BRANCH  24  25
HETATM   25  O1  UNL     1      46.691 -25.481  12.166  1.00  0.00    -0.388 OA
BRANCH  25  26
HETATM   26  C6  UNL     1      46.781 -24.667  11.069  1.00  0.00     0.198 C
BRANCH  26  27
HETATM   27  C5  UNL     1      46.852 -23.203  11.401  1.00  0.00     0.298 C
BRANCH  27  28
HETATM   28  N1  UNL     1      45.604 -22.652  11.854  1.00  0.00     0.091 N
BRANCH  28  29
HETATM   29  C2  UNL     1      45.390 -21.292  11.410  1.00  0.00     0.268 C
HETATM   30  C1  UNL     1      46.316 -21.030  10.246  1.00  0.00     0.037 C
ENDBRANCH  28  29
BRANCH  28  31
HETATM   31  C3  UNL     1      45.641 -22.564  13.321  1.00  0.00     0.299 C
BRANCH  31  32
HETATM   32  C4  UNL     1      44.346 -22.907  13.981  1.00  0.00     0.259 C
BRANCH  32  33
HETATM   33  N2  UNL     1      44.169 -24.359  13.751  1.00  0.00    -0.078 N
ATOM     34  H23 UNL     1      44.898 -24.778  13.173  1.00  0.00     0.274 HD
ATOM     35  H22 UNL     1      44.333 -24.931  14.579  1.00  0.00     0.274 HD
ATOM     36  H21 UNL     1      43.230 -24.453  13.362  1.00  0.00     0.274 HD
ENDBRANCH  32  33
ENDBRANCH  31  32
ENDBRANCH  28  31
ENDBRANCH  27  28
ENDBRANCH  26  27
ENDBRANCH  25  26
ENDBRANCH  24  25
ENDBRANCH   1  24
BRANCH   5  37
HETATM   37  O2  UNL     1      46.024 -26.219  14.918  1.00  0.00    -0.394 OA
ATOM     38  H2  UNL     1      45.841 -25.400  14.472  1.00  0.00     0.210 HD
ENDBRANCH   5  37
BRANCH  15  39
HETATM   39  C23 UNL     1      54.664 -32.256  18.055  1.00  0.00     0.125 A
HETATM   40  O3  UNL     1      54.294 -32.618  19.252  1.00  0.00    -0.254 OA
HETATM   41  C24 UNL     1      55.169 -33.401  19.815  1.00  0.00     0.418 A
HETATM   42  O4  UNL     1      55.025 -33.876  20.972  1.00  0.00    -0.229 OA
HETATM   43  O5  UNL     1      56.132 -33.545  18.944  1.00  0.00    -0.229 OA
HETATM   44  C25 UNL     1      55.880 -32.865  17.840  1.00  0.00     0.219 A
BRANCH  44  45
HETATM   45  O6  UNL     1      56.642 -32.764  16.705  1.00  0.00    -0.339 OA
ATOM     46  H6  UNL     1      56.594 -33.335  15.948  1.00  0.00     0.220 HD
ENDBRANCH  44  45
ENDBRANCH  15  39
TORSDOF 12
ENDMDL