MODEL 2
REMARK VINA RESULT: -6.149394755      3.654      5.211
REMARK  14 active torsions:
REMARK  status: ('A' for Active; 'I' for Inactive)
REMARK    1  A    between atoms: N1_1  and  C1_5
REMARK    2  A    between atoms: C4_8  and  O1_9
REMARK    3  A    between atoms: O1_9  and  C5_10
REMARK    4  A    between atoms: C6_11  and  O2_12
REMARK    5  A    between atoms: C7_14  and  N2_15
REMARK    6  A    between atoms: C9_20  and  O3_21
REMARK    7  A    between atoms: C10_23  and  O4_24
REMARK    8  A    between atoms: O4_24  and  C11_25
REMARK    9  A    between atoms: C11_25  and  C12_27
REMARK   10  A    between atoms: C12_27  and  N3_28
REMARK       I    between atoms: N3_28  and  C13_30
REMARK   11  A    between atoms: C13_30  and  O7_32
REMARK   12  A    between atoms: O7_32  and  C14_33
REMARK   13  A    between atoms: C14_33  and  C15_34
REMARK   14  A    between atoms: C19_39  and  O8_40
ROOT
HETATM    1  C5  UNL     1     -25.017  27.639  34.733  1.00  0.00     0.184 C
HETATM    2  C6  UNL     1     -25.007  28.049  36.208  1.00  0.00     0.180 C
HETATM    3  C7  UNL     1     -24.893  29.555  36.255  1.00  0.00     0.217 C
HETATM    4  C8  UNL     1     -26.129  30.210  35.661  1.00  0.00     0.070 C
HETATM    5  C9  UNL     1     -26.965  29.238  34.893  1.00  0.00     0.152 C
HETATM    6  C10 UNL     1     -26.141  28.292  34.024  1.00  0.00     0.192 C
ENDROOT
BRANCH   6   7
HETATM    7  O4  UNL     1     -27.031  27.389  33.396  1.00  0.00    -0.309 OA
BRANCH   7   8
HETATM    8  C11 UNL     1     -27.615  27.713  32.190  1.00  0.00     0.277 C
HETATM    9  O5  UNL     1     -26.883  28.119  31.223  1.00  0.00    -0.263 OA
BRANCH   8  10
HETATM   10  C12 UNL     1     -29.075  27.635  31.903  1.00  0.00     0.235 C
BRANCH  10  11
HETATM   11  N3  UNL     1     -29.744  26.765  32.849  1.00  0.00    -0.328 N
HETATM   12  C13 UNL     1     -30.422  27.386  33.927  1.00  0.00     0.360 C
HETATM   13  O6  UNL     1     -30.453  28.643  34.071  1.00  0.00    -0.239 OA
ATOM     14  H3  UNL     1     -29.728  25.751  32.743  1.00  0.00     0.165 HD
BRANCH  12  15
HETATM   15  O7  UNL     1     -31.087  26.651  34.879  1.00  0.00    -0.303 OA
BRANCH  15  16
HETATM   16  C14 UNL     1     -31.802  27.227  35.951  1.00  0.00     0.195 C
BRANCH  16  17
HETATM   17  C15 UNL     1     -32.086  26.244  37.038  1.00  0.00     0.071 C
HETATM   18  C16 UNL     1     -31.060  26.310  38.156  1.00  0.00     0.018 C
HETATM   19  C17 UNL     1     -31.094  24.984  38.861  1.00  0.00     0.011 C
HETATM   20  C18 UNL     1     -30.717  23.945  37.815  1.00  0.00     0.074 C
HETATM   21  S1  UNL     1     -31.772  24.524  36.437  1.00  0.00    -0.162 SA
ENDBRANCH  16  17
ENDBRANCH  15  16
ENDBRANCH  12  15
ENDBRANCH  10  11
ENDBRANCH   8  10
ENDBRANCH   7   8
ENDBRANCH   6   7
BRANCH   1  22
HETATM   22  O1  UNL     1     -23.809  28.076  34.192  1.00  0.00    -0.373 OA
BRANCH  22  23
HETATM   23  C4  UNL     1     -23.151  27.102  33.477  1.00  0.00     0.153 C
HETATM   24  C3  UNL     1     -21.815  26.798  34.084  1.00  0.00     0.036 C
HETATM   25  C2  UNL     1     -21.025  26.259  32.908  1.00  0.00     0.038 C
HETATM   26  C1  UNL     1     -21.503  27.038  31.715  1.00  0.00     0.214 C
HETATM   27  C19 UNL     1     -22.803  27.693  32.124  1.00  0.00     0.177 C
BRANCH  26  28
HETATM   28  N1  UNL     1     -20.559  28.104  31.420  1.00  0.00    -0.072 N
ATOM     29  H13 UNL     1     -21.018  28.928  31.031  1.00  0.00     0.274 HD
ATOM     30  H12 UNL     1     -20.184  28.532  32.267  1.00  0.00     0.274 HD
ATOM     31  H11 UNL     1     -19.824  27.749  30.809  1.00  0.00     0.274 HD
ENDBRANCH  26  28
BRANCH  27  32
HETATM   32  O8  UNL     1     -23.818  27.389  31.203  1.00  0.00    -0.391 OA
ATOM     33  H8  UNL     1     -24.338  26.657  31.511  1.00  0.00     0.210 HD
ENDBRANCH  27  32
ENDBRANCH  22  23
ENDBRANCH   1  22
BRANCH   5  34
HETATM   34  O3  UNL     1     -27.851  28.608  35.725  1.00  0.00    -0.393 OA
ATOM     35  H3  UNL     1     -28.744  28.835  35.491  1.00  0.00     0.210 HD
ENDBRANCH   5  34
BRANCH   2  36
HETATM   36  O2  UNL     1     -23.870  27.514  36.825  1.00  0.00    -0.391 OA
ATOM     37  H2  UNL     1     -24.114  26.730  37.302  1.00  0.00     0.210 HD
ENDBRANCH   2  36
BRANCH   3  38
HETATM   38  N2  UNL     1     -24.636  30.003  37.593  1.00  0.00    -0.072 N
ATOM     39  H23 UNL     1     -23.955  29.409  38.066  1.00  0.00     0.274 HD
ATOM     40  H22 UNL     1     -24.111  30.877  37.605  1.00  0.00     0.274 HD
ATOM     41  H21 UNL     1     -25.506  30.076  38.121  1.00  0.00     0.274 HD
ENDBRANCH   3  38
TORSDOF 14
ENDMDL