MODEL 1
REMARK VINA RESULT: -7.267694624      0.000      0.000
REMARK  11 active torsions:
REMARK  status: ('A' for Active; 'I' for Inactive)
REMARK    1  A    between atoms: C5_5  and  O1_6
REMARK    2  A    between atoms: O1_6  and  C6_7
REMARK    3  A    between atoms: C6_7  and  C7_8
REMARK    4  A    between atoms: C7_8  and  C8_9
REMARK    5  A    between atoms: C8_9  and  N1_10
REMARK    6  A    between atoms: N1_10  and  C10_12
REMARK    7  A    between atoms: C11_15  and  C12_16
REMARK       I    between atoms: C12_16  and  N3_18
REMARK    8  A    between atoms: N3_18  and  C13_20
REMARK    9  A    between atoms: C16_27  and  O3_28
REMARK   10  A    between atoms: C17_30  and  O4_31
REMARK   11  A    between atoms: C18_33  and  N5_34
ROOT
HETATM    1  C10 UNL     1     -26.711  29.117  33.209  1.00  0.00     0.213 C
HETATM    2  N2  UNL     1     -27.124  29.970  32.118  1.00  0.00    -0.371 N
ATOM      3  H2  UNL     1     -26.624  30.828  31.884  1.00  0.00     0.157 HD
HETATM    4  C11 UNL     1     -28.261  29.544  31.396  1.00  0.00     0.271 C
HETATM    5  N4  UNL     1     -28.995  28.421  31.742  1.00  0.00    -0.367 N
ATOM      6  H4  UNL     1     -29.937  28.280  31.377  1.00  0.00     0.158 HD
HETATM    7  C16 UNL     1     -28.402  27.465  32.619  1.00  0.00     0.248 C
HETATM    8  C17 UNL     1     -26.926  27.690  32.825  1.00  0.00     0.208 C
ENDROOT
BRANCH   1   9
HETATM    9  N1  UNL     1     -27.315  29.589  34.384  1.00  0.00    -0.375 N
HETATM   10  C9  UNL     1     -28.231  30.662  34.207  1.00  0.00     0.150 C
BRANCH   9  11
HETATM   11  C8  UNL     1     -26.893  29.255  35.644  1.00  0.00     0.062 C
BRANCH  11  12
HETATM   12  C7  UNL     1     -25.515  29.603  36.109  1.00  0.00     0.070 C
BRANCH  12  13
HETATM   13  C6  UNL     1     -24.675  28.400  36.480  1.00  0.00     0.173 C
BRANCH  13  14
HETATM   14  O1  UNL     1     -24.443  27.555  35.386  1.00  0.00    -0.383 OA
BRANCH  14  15
HETATM   15  C5  UNL     1     -23.175  27.767  34.850  1.00  0.00     0.151 C
HETATM   16  C4  UNL     1     -23.213  28.388  33.478  1.00  0.00     0.034 C
HETATM   17  C3  UNL     1     -23.121  27.342  32.384  1.00  0.00     0.007 C
HETATM   18  C2  UNL     1     -21.742  26.711  32.403  1.00  0.00    -0.016 C
HETATM   19  C1  UNL     1     -20.851  27.443  31.437  1.00  0.00     0.010 C
HETATM   20  C19 UNL     1     -21.209  26.745  33.793  1.00  0.00     0.039 C
HETATM   21  C18 UNL     1     -22.287  26.566  34.857  1.00  0.00     0.212 C
BRANCH  21  22
HETATM   22  N5  UNL     1     -21.608  26.441  36.133  1.00  0.00    -0.073 N
ATOM     23  H53 UNL     1     -20.596  26.531  36.033  1.00  0.00     0.274 HD
ATOM     24  H52 UNL     1     -21.774  27.250  36.732  1.00  0.00     0.274 HD
ATOM     25  H51 UNL     1     -21.866  25.569  36.594  1.00  0.00     0.274 HD
ENDBRANCH  21  22
ENDBRANCH  14  15
ENDBRANCH  13  14
ENDBRANCH  12  13
ENDBRANCH  11  12
ENDBRANCH   9  11
ENDBRANCH   1   9
BRANCH   8  26
HETATM   26  O4  UNL     1     -26.427  26.732  33.646  1.00  0.00    -0.387 OA
ATOM     27  H4  UNL     1     -26.600  25.825  33.425  1.00  0.00     0.210 HD
ENDBRANCH   8  26
BRANCH   4  28
HETATM   28  C12 UNL     1     -27.897  29.483  29.956  1.00  0.00     0.260 C
HETATM   29  O2  UNL     1     -28.153  30.443  29.165  1.00  0.00    -0.269 OA
HETATM   30  N3  UNL     1     -27.247  28.347  29.412  1.00  0.00    -0.352 N
ATOM     31  H3  UNL     1     -27.037  27.578  30.050  1.00  0.00     0.163 HD
BRANCH  30  32
HETATM   32  C13 UNL     1     -26.859  28.188  28.030  1.00  0.00     0.104 C
HETATM   33  C14 UNL     1     -25.349  27.981  28.054  1.00  0.00     0.112 C
HETATM   34  S1  UNL     1     -24.903  27.653  26.297  1.00  0.00    -0.096 SA
HETATM   35  S2  UNL     1     -26.789  26.694  25.823  1.00  0.00    -0.096 SA
HETATM   36  C15 UNL     1     -27.505  26.955  27.495  1.00  0.00     0.112 C
ENDBRANCH  30  32
ENDBRANCH   4  28
BRANCH   7  37
HETATM   37  O3  UNL     1     -29.093  27.413  33.829  1.00  0.00    -0.374 OA
ATOM     38  H3  UNL     1     -29.216  26.512  34.107  1.00  0.00     0.212 HD
ENDBRANCH   7  37
TORSDOF 11
ENDMDL