MODEL 1
REMARK VINA RESULT: -6.876241071      0.000      0.000
REMARK  12 active torsions:
REMARK  status: ('A' for Active; 'I' for Inactive)
REMARK    1  A    between atoms: C3_3  and  O1_4
REMARK    2  A    between atoms: C5_7  and  N1_8
REMARK       I    between atoms: N1_8  and  C6_10
REMARK    3  A    between atoms: C6_10  and  C7_12
REMARK    4  A    between atoms: C7_12  and  C8_13
REMARK    5  A    between atoms: C8_13  and  N2_14
REMARK    6  A    between atoms: C9_18  and  O3_19
REMARK    7  A    between atoms: C10_21  and  C11_22
REMARK    8  A    between atoms: C12_24  and  C13_25
REMARK    9  A    between atoms: C13_25  and  S1_26
REMARK   10  A    between atoms: S1_26  and  C14_27
REMARK   11  A    between atoms: C20_33  and  O5_34
REMARK   12  A    between atoms: C21_36  and  O6_37
ROOT
HETATM    1  C1  UNL     1     -29.468  30.988  29.094  1.00  0.00     0.017 C
HETATM    2  C2  UNL     1     -29.370  31.331  30.246  1.00  0.00    -0.049 C
HETATM    3  C3  UNL     1     -29.273  31.766  31.661  1.00  0.00     0.231 C
HETATM    4  C4  UNL     1     -30.632  32.312  32.047  1.00  0.00     0.111 C
HETATM    5  C5  UNL     1     -31.400  31.145  32.668  1.00  0.00     0.121 C
HETATM    6  C9  UNL     1     -30.747  30.833  33.992  1.00  0.00     0.172 C
HETATM    7  C10 UNL     1     -29.271  30.700  33.722  1.00  0.00     0.188 C
HETATM    8  O7  UNL     1     -28.930  30.652  32.389  1.00  0.00    -0.334 OA
ENDROOT
BRANCH   3   9
HETATM    9  O1  UNL     1     -28.294  32.753  31.686  1.00  0.00    -0.355 OA
ATOM     10  H1  UNL     1     -28.351  33.195  30.846  1.00  0.00     0.214 HD
ENDBRANCH   3   9
BRANCH   5  11
HETATM   11  N1  UNL     1     -32.797  31.375  32.734  1.00  0.00    -0.354 N
HETATM   12  C6  UNL     1     -33.789  30.361  32.770  1.00  0.00     0.219 C
HETATM   13  O2  UNL     1     -33.494  29.127  32.744  1.00  0.00    -0.274 OA
ATOM     14  H1  UNL     1     -33.114  32.344  32.758  1.00  0.00     0.163 HD
BRANCH  12  15
HETATM   15  C7  UNL     1     -35.234  30.684  32.840  1.00  0.00     0.130 C
BRANCH  15  16
HETATM   16  C8  UNL     1     -35.610  31.262  34.169  1.00  0.00     0.238 C
BRANCH  16  17
HETATM   17  N2  UNL     1     -34.831  30.666  35.237  1.00  0.00    -0.079 N
ATOM     18  H23 UNL     1     -34.142  30.006  34.876  1.00  0.00     0.274 HD
ATOM     19  H22 UNL     1     -34.194  31.342  35.659  1.00  0.00     0.274 HD
ATOM     20  H21 UNL     1     -35.436  30.233  35.936  1.00  0.00     0.274 HD
ENDBRANCH  16  17
ENDBRANCH  15  16
ENDBRANCH  12  15
ENDBRANCH   5  11
BRANCH   7  21
HETATM   21  C11 UNL     1     -28.688  29.474  34.400  1.00  0.00     0.185 C
HETATM   22  O4  UNL     1     -27.584  29.836  35.123  1.00  0.00    -0.372 OA
HETATM   23  C12 UNL     1     -26.674  28.780  35.099  1.00  0.00     0.163 C
HETATM   24  C20 UNL     1     -26.816  28.204  33.700  1.00  0.00     0.179 C
HETATM   25  C21 UNL     1     -28.284  28.395  33.460  1.00  0.00     0.181 C
BRANCH  23  26
HETATM   26  C13 UNL     1     -25.288  29.348  35.226  1.00  0.00     0.114 C
BRANCH  26  27
HETATM   27  S1  UNL     1     -24.078  28.152  35.820  1.00  0.00    -0.127 SA
BRANCH  27  28
HETATM   28  C14 UNL     1     -23.054  27.528  34.526  1.00  0.00     0.000 A
HETATM   29  C15 UNL     1     -21.985  26.686  34.811  1.00  0.00     0.018 A
HETATM   30  C16 UNL     1     -21.169  26.185  33.819  1.00  0.00     0.001 A
HETATM   31  C17 UNL     1     -21.394  26.507  32.496  1.00  0.00     0.000 A
HETATM   32  C18 UNL     1     -22.454  27.341  32.209  1.00  0.00     0.001 A
HETATM   33  C19 UNL     1     -23.272  27.847  33.197  1.00  0.00     0.018 A
ENDBRANCH  27  28
ENDBRANCH  26  27
ENDBRANCH  23  26
BRANCH  24  34
HETATM   34  O5  UNL     1     -26.460  26.863  33.736  1.00  0.00    -0.390 OA
ATOM     35  H5  UNL     1     -26.814  26.477  34.529  1.00  0.00     0.210 HD
ENDBRANCH  24  34
BRANCH  25  36
HETATM   36  O6  UNL     1     -28.899  27.170  33.752  1.00  0.00    -0.390 OA
ATOM     37  H6  UNL     1     -28.540  26.452  33.244  1.00  0.00     0.210 HD
ENDBRANCH  25  36
ENDBRANCH   7  21
BRANCH   6  38
HETATM   38  O3  UNL     1     -31.336  29.706  34.511  1.00  0.00    -0.391 OA
ATOM     39  H3  UNL     1     -31.079  28.961  33.981  1.00  0.00     0.210 HD
ENDBRANCH   6  38
TORSDOF 12
ENDMDL