MODEL 1
REMARK VINA RESULT: -6.669919721      0.000      0.000
REMARK  13 active torsions:
REMARK  status: ('A' for Active; 'I' for Inactive)
REMARK    1  A    between atoms: O1_2  and  C2_3
REMARK    2  A    between atoms: C3_4  and  C4_5
REMARK    3  A    between atoms: C4_5  and  N1_6
REMARK    4  A    between atoms: N1_6  and  N2_8
REMARK    5  A    between atoms: C5_13  and  O2_14
REMARK    6  A    between atoms: C6_16  and  O3_17
REMARK    7  A    between atoms: C7_19  and  O4_20
REMARK    8  A    between atoms: C8_22  and  O5_23
REMARK    9  A    between atoms: O5_23  and  C9_24
REMARK   10  A    between atoms: C10_25  and  C11_26
REMARK   11  A    between atoms: C11_26  and  O6_27
REMARK   12  A    between atoms: C14_31  and  O7_32
REMARK   13  A    between atoms: C16_35  and  O8_36
ROOT
HETATM    1  C2  UNL     1     -17.551  37.494  27.059  1.00  0.00     0.160 C
HETATM    2  C3  UNL     1     -16.167  37.193  27.465  1.00  0.00     0.068 C
HETATM    3  C5  UNL     1     -15.783  35.740  27.377  1.00  0.00     0.157 C
HETATM    4  C6  UNL     1     -17.041  34.941  27.681  1.00  0.00     0.178 C
HETATM    5  C7  UNL     1     -17.945  35.086  26.498  1.00  0.00     0.180 C
HETATM    6  C8  UNL     1     -18.175  36.495  26.099  1.00  0.00     0.182 C
ENDROOT
BRANCH   6   7
HETATM    7  O5  UNL     1     -17.614  36.751  24.873  1.00  0.00    -0.374 OA
BRANCH   7   8
HETATM    8  C9  UNL     1     -17.933  35.854  23.857  1.00  0.00     0.135 C
HETATM    9  C10 UNL     1     -16.885  35.926  22.807  1.00  0.00     0.039 C
HETATM   10  C12 UNL     1     -17.570  36.152  21.507  1.00  0.00     0.017 C
HETATM   11  C13 UNL     1     -18.864  36.815  21.847  1.00  0.00     0.024 C
HETATM   12  C14 UNL     1     -19.974  36.422  20.891  1.00  0.00     0.131 C
HETATM   13  C20 UNL     1     -19.228  36.261  23.185  1.00  0.00     0.051 C
HETATM   14  C15 UNL     1     -20.982  35.737  21.753  1.00  0.00     0.073 C
HETATM   15  C16 UNL     1     -21.748  34.751  20.940  1.00  0.00     0.129 C
HETATM   16  C19 UNL     1     -20.126  35.105  22.833  1.00  0.00     0.137 C
HETATM   17  C17 UNL     1     -20.923  33.562  20.550  1.00  0.00     0.058 C
HETATM   18  C18 UNL     1     -20.107  33.080  21.712  1.00  0.00     0.170 C
HETATM   19  O9  UNL     1     -19.378  34.085  22.319  1.00  0.00    -0.385 OA
BRANCH   9  20
HETATM   20  C11 UNL     1     -15.981  34.699  22.742  1.00  0.00     0.171 C
BRANCH  20  21
HETATM   21  O6  UNL     1     -16.123  33.984  23.916  1.00  0.00    -0.400 OA
ATOM     22  H6  UNL     1     -16.066  33.057  23.715  1.00  0.00     0.209 HD
ENDBRANCH  20  21
ENDBRANCH   9  20
BRANCH  12  23
HETATM   23  O7  UNL     1     -20.513  37.529  20.230  1.00  0.00    -0.395 OA
ATOM     24  H7  UNL     1     -20.012  37.762  19.458  1.00  0.00     0.210 HD
ENDBRANCH  12  23
BRANCH  15  25
HETATM   25  O8  UNL     1     -22.137  35.407  19.753  1.00  0.00    -0.395 OA
ATOM     26  H8  UNL     1     -22.583  34.765  19.213  1.00  0.00     0.210 HD
ENDBRANCH  15  25
ENDBRANCH   7   8
ENDBRANCH   6   7
BRANCH   1  27
HETATM   27  O1  UNL     1     -18.326  37.618  28.210  1.00  0.00    -0.388 OA
HETATM   28  C1  UNL     1     -18.532  38.941  28.563  1.00  0.00     0.202 C
ENDBRANCH   1  27
BRANCH   5  29
HETATM   29  O4  UNL     1     -19.148  34.456  26.812  1.00  0.00    -0.390 OA
ATOM     30  H4  UNL     1     -19.688  34.469  26.031  1.00  0.00     0.210 HD
ENDBRANCH   5  29
BRANCH   2  31
HETATM   31  C4  UNL     1     -15.207  37.967  26.584  1.00  0.00     0.150 C
BRANCH  31  32
HETATM   32  N1  UNL     1     -15.892  38.951  25.776  1.00  0.00    -0.322 N
ATOM     33  H1  UNL     1     -16.445  39.672  26.240  1.00  0.00     0.181 HD
BRANCH  32  34
HETATM   34  N2  UNL     1     -15.831  38.946  24.547  1.00  0.00    -0.254 N
HETATM   35  N3  UNL     1     -15.992  39.303  23.379  1.00  0.00    -0.331 N
ATOM     36  H32 UNL     1     -16.521  40.151  23.583  1.00  0.00     0.178 HD
ATOM     37  H31 UNL     1     -15.941  39.299  22.361  1.00  0.00     0.178 HD
ATOM     38  H2  UNL     1     -15.299  38.088  24.399  1.00  0.00     0.207 HD
ENDBRANCH  32  34
ENDBRANCH  31  32
ENDBRANCH   2  31
BRANCH   4  39
HETATM   39  O3  UNL     1     -16.724  33.605  27.903  1.00  0.00    -0.390 OA
ATOM     40  H3  UNL     1     -17.116  33.302  28.714  1.00  0.00     0.210 HD
ENDBRANCH   4  39
BRANCH   3  41
HETATM   41  O2  UNL     1     -15.207  35.402  26.178  1.00  0.00    -0.392 OA
ATOM     42  H2  UNL     1     -14.496  34.777  26.265  1.00  0.00     0.210 HD
ENDBRANCH   3  41
TORSDOF 13
ENDMDL