MODEL 2
REMARK VINA RESULT: -6.761733254      1.863      3.655
REMARK  13 active torsions:
REMARK  status: ('A' for Active; 'I' for Inactive)
REMARK    1  A    between atoms: C2_2  and  C3_3
REMARK    2  A    between atoms: C3_3  and  N1_4
REMARK    3  A    between atoms: N1_4  and  C4_5
REMARK    4  A    between atoms: N1_4  and  C17_27
REMARK    5  A    between atoms: C4_5  and  C5_6
REMARK    6  A    between atoms: C7_8  and  C8_9
REMARK    7  A    between atoms: C13_17  and  C14_18
REMARK    8  A    between atoms: C14_18  and  O3_19
REMARK    9  A    between atoms: C15_21  and  O4_22
REMARK   10  A    between atoms: C16_24  and  O5_25
REMARK   11  A    between atoms: C19_30  and  O7_31
REMARK   12  A    between atoms: C20_33  and  O8_34
REMARK   13  A    between atoms: C21_36  and  O9_37
ROOT
HETATM    1  C8  UNL     1     -29.063  27.657  31.661  1.00  0.00     0.008 C
HETATM    2  C9  UNL     1     -29.623  26.523  31.973  1.00  0.00     0.015 C
HETATM    3  C10 UNL     1     -29.558  25.406  30.963  1.00  0.00     0.060 C
HETATM    4  C11 UNL     1     -30.295  26.201  33.186  1.00  0.00     0.094 C
HETATM    5  N2  UNL     1     -30.838  25.912  34.181  1.00  0.00    -0.192 NA
ENDROOT
BRANCH   1   6
HETATM    6  C7  UNL     1     -28.976  28.894  32.432  1.00  0.00     0.059 C
HETATM    7  C6  UNL     1     -28.096  28.658  33.666  1.00  0.00     0.058 C
HETATM    8  C5  UNL     1     -26.750  28.408  32.926  1.00  0.00     0.164 C
HETATM    9  O1  UNL     1     -26.912  28.987  31.674  1.00  0.00    -0.350 OA
HETATM   10  C12 UNL     1     -28.001  29.836  31.726  1.00  0.00     0.276 C
HETATM   11  O2  UNL     1     -27.768  30.960  32.521  1.00  0.00    -0.350 OA
HETATM   12  C13 UNL     1     -28.926  31.626  32.835  1.00  0.00     0.179 C
HETATM   13  C15 UNL     1     -30.183  31.007  32.307  1.00  0.00     0.179 C
HETATM   14  C16 UNL     1     -30.258  29.554  32.784  1.00  0.00     0.166 C
BRANCH   8  15
HETATM   15  C4  UNL     1     -25.650  29.119  33.598  1.00  0.00     0.092 C
BRANCH  15  16
HETATM   16  N1  UNL     1     -24.731  28.448  34.429  1.00  0.00    -0.363 N
BRANCH  16  17
HETATM   17  C3  UNL     1     -25.438  27.871  35.542  1.00  0.00     0.124 C
BRANCH  17  18
HETATM   18  C2  UNL     1     -25.920  28.850  36.573  1.00  0.00     0.015 C
HETATM   19  C1  UNL     1     -24.691  29.534  37.135  1.00  0.00     0.006 C
ENDBRANCH  17  18
ENDBRANCH  16  17
BRANCH  16  20
HETATM   20  C17 UNL     1     -23.708  27.663  33.866  1.00  0.00     0.254 C
HETATM   21  O6  UNL     1     -23.528  28.022  32.541  1.00  0.00    -0.361 OA
HETATM   22  C18 UNL     1     -22.325  27.774  31.972  1.00  0.00     0.205 C
HETATM   23  C19 UNL     1     -21.594  26.554  32.408  1.00  0.00     0.173 C
HETATM   24  C20 UNL     1     -21.625  26.468  33.919  1.00  0.00     0.182 C
HETATM   25  C21 UNL     1     -22.350  27.716  34.453  1.00  0.00     0.198 C
BRANCH  23  26
HETATM   26  O7  UNL     1     -20.240  26.719  32.060  1.00  0.00    -0.391 OA
ATOM     27  H7  UNL     1     -19.835  27.261  32.727  1.00  0.00     0.210 HD
ENDBRANCH  23  26
BRANCH  24  28
HETATM   28  O8  UNL     1     -22.463  25.378  34.225  1.00  0.00    -0.390 OA
ATOM     29  H8  UNL     1     -21.923  24.601  34.132  1.00  0.00     0.210 HD
ENDBRANCH  24  28
BRANCH  25  30
HETATM   30  O9  UNL     1     -22.205  27.674  35.797  1.00  0.00    -0.388 OA
ATOM     31  H9  UNL     1     -22.032  28.478  36.273  1.00  0.00     0.210 HD
ENDBRANCH  25  30
ENDBRANCH  16  20
ENDBRANCH  15  16
ENDBRANCH   8  15
BRANCH  12  32
HETATM   32  C14 UNL     1     -28.874  33.063  32.295  1.00  0.00     0.198 C
BRANCH  32  33
HETATM   33  O3  UNL     1     -27.567  33.554  32.361  1.00  0.00    -0.398 OA
ATOM     34  H3  UNL     1     -27.066  33.250  31.614  1.00  0.00     0.209 HD
ENDBRANCH  32  33
ENDBRANCH  12  32
BRANCH  13  35
HETATM   35  O4  UNL     1     -31.251  31.652  32.980  1.00  0.00    -0.390 OA
ATOM     36  H4  UNL     1     -31.351  31.199  33.809  1.00  0.00     0.210 HD
ENDBRANCH  13  35
BRANCH  14  37
HETATM   37  O5  UNL     1     -30.370  29.523  34.181  1.00  0.00    -0.392 OA
ATOM     38  H5  UNL     1     -30.390  30.424  34.481  1.00  0.00     0.210 HD
ENDBRANCH  14  37
ENDBRANCH   1   6
TORSDOF 13
ENDMDL