MODEL 4
REMARK VINA RESULT: -7.334986388      1.659      2.133
REMARK  9 active torsions:
REMARK  status: ('A' for Active; 'I' for Inactive)
REMARK       I    between atoms: C2_2  and  N1_4
REMARK    1  A    between atoms: N1_4  and  C3_6
REMARK    2  A    between atoms: C5_8  and  C6_9
REMARK       I    between atoms: C6_9  and  N2_11
REMARK    3  A    between atoms: N2_11  and  C7_12
REMARK    4  A    between atoms: C9_14  and  S1_15
REMARK    5  A    between atoms: S1_15  and  C10_16
REMARK    6  A    between atoms: C11_17  and  C12_18
REMARK    7  A    between atoms: C12_18  and  O3_19
REMARK    8  A    between atoms: C15_25  and  O4_26
REMARK    9  A    between atoms: C16_28  and  O5_29
ROOT
HETATM    1  C7  UNL     1     -26.719  30.012  34.063  1.00  0.00     0.309 C
HETATM    2  C8  UNL     1     -28.176  29.467  34.245  1.00  0.00     0.111 C
HETATM    3  C9  UNL     1     -29.058  30.405  33.447  1.00  0.00     0.191 C
HETATM    4  O6  UNL     1     -28.831  30.089  32.114  1.00  0.00    -0.351 OA
HETATM    5  C17 UNL     1     -27.574  29.584  31.950  1.00  0.00     0.343 C
HETATM    6  O7  UNL     1     -26.568  30.122  32.715  1.00  0.00    -0.331 OA
ENDROOT
BRANCH   3   7
HETATM    7  S1  UNL     1     -30.699  30.623  33.930  1.00  0.00    -0.127 SA
BRANCH   7   8
HETATM    8  C10 UNL     1     -31.901  29.382  33.902  1.00  0.00     0.105 C
HETATM    9  C11 UNL     1     -31.689  28.127  33.164  1.00  0.00     0.117 C
HETATM   10  N3  UNL     1     -32.459  27.109  33.836  1.00  0.00    -0.407 N
HETATM   11  C13 UNL     1     -33.743  27.433  34.287  1.00  0.00     0.104 C
ATOM     12  H3  UNL     1     -32.076  26.175  33.980  1.00  0.00     0.154 HD
HETATM   13  C14 UNL     1     -33.866  26.925  35.740  1.00  0.00     0.034 C
HETATM   14  C15 UNL     1     -34.238  28.794  34.192  1.00  0.00     0.170 C
HETATM   15  C16 UNL     1     -33.327  29.840  33.607  1.00  0.00     0.164 C
BRANCH   9  16
HETATM   16  C12 UNL     1     -32.110  28.104  31.727  1.00  0.00     0.190 C
BRANCH  16  17
HETATM   17  O3  UNL     1     -30.969  28.451  30.952  1.00  0.00    -0.399 OA
ATOM     18  H3  UNL     1     -30.565  29.202  31.370  1.00  0.00     0.209 HD
ENDBRANCH  16  17
ENDBRANCH   9  16
BRANCH  14  19
HETATM   19  O4  UNL     1     -35.440  28.895  33.453  1.00  0.00    -0.391 OA
ATOM     20  H4  UNL     1     -35.295  28.998  32.519  1.00  0.00     0.210 HD
ENDBRANCH  14  19
BRANCH  15  21
HETATM   21  O5  UNL     1     -33.483  31.063  34.229  1.00  0.00    -0.392 OA
ATOM     22  H5  UNL     1     -32.609  31.382  34.422  1.00  0.00     0.210 HD
ENDBRANCH  15  21
ENDBRANCH   7   8
ENDBRANCH   3   7
BRANCH   1  23
HETATM   23  N2  UNL     1     -25.749  29.408  34.828  1.00  0.00    -0.380 NA
HETATM   24  C6  UNL     1     -24.785  28.809  35.590  1.00  0.00     0.318 C
HETATM   25  O2  UNL     1     -24.404  29.139  36.772  1.00  0.00    -0.254 OA
BRANCH  24  26
HETATM   26  C5  UNL     1     -24.008  27.592  35.072  1.00  0.00     0.230 C
HETATM   27  C4  UNL     1     -24.268  27.481  33.577  1.00  0.00     0.070 C
HETATM   28  C3  UNL     1     -22.895  27.727  32.981  1.00  0.00     0.116 C
HETATM   29  C18 UNL     1     -22.026  27.233  34.142  1.00  0.00     0.141 C
HETATM   30  O8  UNL     1     -22.657  27.789  35.229  1.00  0.00    -0.368 OA
HETATM   31  C19 UNL     1     -22.055  25.743  34.128  1.00  0.00     0.041 C
BRANCH  28  32
HETATM   32  N1  UNL     1     -22.641  27.095  31.740  1.00  0.00    -0.354 N
HETATM   33  C2  UNL     1     -21.421  27.220  31.047  1.00  0.00     0.214 C
HETATM   34  C1  UNL     1     -21.016  26.628  29.783  1.00  0.00     0.117 C
HETATM   35  O1  UNL     1     -20.545  27.966  31.630  1.00  0.00    -0.274 OA
ATOM     36  H1  UNL     1     -23.377  26.522  31.327  1.00  0.00     0.162 HD
ENDBRANCH  28  32
ENDBRANCH  24  26
ENDBRANCH   1  23
TORSDOF 9
ENDMDL