MODEL 1
REMARK VINA RESULT: -6.555369038      0.000      0.000
REMARK  12 active torsions:
REMARK  status: ('A' for Active; 'I' for Inactive)
REMARK    1  A    between atoms: O1_1  and  C1_3
REMARK    2  A    between atoms: C1_3  and  C2_4
REMARK    3  A    between atoms: C3_6  and  O3_7
REMARK    4  A    between atoms: O3_7  and  C4_8
REMARK    5  A    between atoms: C6_10  and  O4_11
REMARK    6  A    between atoms: C7_13  and  O5_14
REMARK    7  A    between atoms: O5_14  and  C8_15
REMARK    8  A    between atoms: C14_21  and  O6_22
REMARK    9  A    between atoms: C15_24  and  O7_25
REMARK   10  A    between atoms: C16_27  and  N1_28
REMARK   11  A    between atoms: C21_33  and  O8_34
REMARK   12  A    between atoms: C22_36  and  O9_37
ROOT
HETATM    1  C4  UNL     1     -20.739  36.102  25.653  1.00  0.00     0.158 C
HETATM    2  C5  UNL     1     -21.389  36.736  24.456  1.00  0.00     0.069 C
HETATM    3  C6  UNL     1     -22.900  36.680  24.495  1.00  0.00     0.152 C
HETATM    4  C7  UNL     1     -23.436  35.261  24.398  1.00  0.00     0.182 C
HETATM    5  C14 UNL     1     -22.242  34.371  24.781  1.00  0.00     0.180 C
HETATM    6  C15 UNL     1     -21.624  34.939  26.041  1.00  0.00     0.178 C
ENDROOT
BRANCH   1   7
HETATM    7  O3  UNL     1     -19.466  35.719  25.311  1.00  0.00    -0.351 OA
BRANCH   7   8
HETATM    8  C3  UNL     1     -18.443  36.201  26.098  1.00  0.00     0.297 C
HETATM    9  O2  UNL     1     -18.317  35.188  27.085  1.00  0.00    -0.349 OA
HETATM   10  C2  UNL     1     -17.209  35.237  27.858  1.00  0.00     0.179 C
HETATM   11  C22 UNL     1     -15.907  35.100  27.099  1.00  0.00     0.180 C
HETATM   12  C21 UNL     1     -16.327  35.143  25.620  1.00  0.00     0.187 C
HETATM   13  C16 UNL     1     -17.133  36.441  25.509  1.00  0.00     0.308 C
BRANCH  10  14
HETATM   14  C1  UNL     1     -17.181  36.327  28.904  1.00  0.00     0.198 C
BRANCH  14  15
HETATM   15  O1  UNL     1     -16.391  35.939  30.005  1.00  0.00    -0.398 OA
ATOM     16  H1  UNL     1     -16.127  36.698  30.513  1.00  0.00     0.209 HD
ENDBRANCH  14  15
ENDBRANCH  10  14
BRANCH  11  17
HETATM   17  O9  UNL     1     -15.294  33.863  27.271  1.00  0.00    -0.390 OA
ATOM     18  H9  UNL     1     -14.554  33.723  26.691  1.00  0.00     0.210 HD
ENDBRANCH  11  17
BRANCH  12  19
HETATM   19  O8  UNL     1     -17.173  34.062  25.333  1.00  0.00    -0.391 OA
ATOM     20  H8  UNL     1     -16.919  33.690  24.497  1.00  0.00     0.210 HD
ENDBRANCH  12  19
BRANCH  13  21
HETATM   21  N1  UNL     1     -16.990  36.945  24.192  1.00  0.00     0.100 N
HETATM   22  C17 UNL     1     -17.475  38.255  23.938  1.00  0.00     0.273 C
HETATM   23  C18 UNL     1     -16.466  39.055  23.176  1.00  0.00     0.032 C
HETATM   24  C19 UNL     1     -15.208  38.289  23.316  1.00  0.00     0.032 C
HETATM   25  C20 UNL     1     -15.545  36.970  23.922  1.00  0.00     0.273 C
ENDBRANCH  13  21
ENDBRANCH   7   8
ENDBRANCH   1   7
BRANCH   6  26
HETATM   26  O7  UNL     1     -20.991  33.957  26.739  1.00  0.00    -0.390 OA
ATOM     27  H7  UNL     1     -21.034  33.098  26.336  1.00  0.00     0.210 HD
ENDBRANCH   6  26
BRANCH   3  28
HETATM   28  O4  UNL     1     -23.406  37.360  25.581  1.00  0.00    -0.393 OA
ATOM     29  H4  UNL     1     -23.050  38.238  25.642  1.00  0.00     0.210 HD
ENDBRANCH   3  28
BRANCH   5  30
HETATM   30  O6  UNL     1     -22.638  33.076  25.050  1.00  0.00    -0.390 OA
ATOM     31  H6  UNL     1     -21.919  32.552  25.384  1.00  0.00     0.210 HD
ENDBRANCH   5  30
BRANCH   4  32
HETATM   32  O5  UNL     1     -24.390  35.068  25.338  1.00  0.00    -0.375 OA
BRANCH  32  33
HETATM   33  C8  UNL     1     -25.636  34.709  24.918  1.00  0.00     0.122 C
HETATM   34  C9  UNL     1     -26.188  33.493  25.634  1.00  0.00     0.032 C
HETATM   35  C10 UNL     1     -26.061  32.242  24.792  1.00  0.00     0.002 C
HETATM   36  C11 UNL     1     -26.822  32.379  23.504  1.00  0.00     0.000 C
HETATM   37  C12 UNL     1     -27.094  33.819  23.178  1.00  0.00     0.002 C
HETATM   38  C13 UNL     1     -25.803  34.593  23.432  1.00  0.00     0.032 C
ENDBRANCH  32  33
ENDBRANCH   4  32
TORSDOF 12
ENDMDL