MODEL 5
REMARK VINA RESULT: -5.276840446      2.805      7.426
REMARK  11 active torsions:
REMARK  status: ('A' for Active; 'I' for Inactive)
REMARK    1  A    between atoms: S1_2  and  C2_3
REMARK       I    between atoms: C2_3  and  N1_5
REMARK    2  A    between atoms: N1_5  and  C3_6
REMARK    3  A    between atoms: C4_7  and  O2_8
REMARK    4  A    between atoms: C5_10  and  N2_11
REMARK       I    between atoms: N2_11  and  C6_13
REMARK    5  A    between atoms: C8_16  and  O4_17
REMARK    6  A    between atoms: C9_19  and  S2_20
REMARK    7  A    between atoms: S2_20  and  C10_21
REMARK    8  A    between atoms: C12_23  and  N3_24
REMARK    9  A    between atoms: C15_27  and  O5_28
REMARK   10  A    between atoms: C16_30  and  C17_31
REMARK   11  A    between atoms: C17_31  and  O6_32
ROOT
HETATM    1  C3  UNL     1     -18.957  36.836  24.846  1.00  0.00     0.214 C
HETATM    2  C4  UNL     1     -17.694  36.832  25.667  1.00  0.00     0.180 C
HETATM    3  C5  UNL     1     -17.999  35.926  26.825  1.00  0.00     0.146 C
HETATM    4  C8  UNL     1     -19.499  35.793  26.896  1.00  0.00     0.160 C
HETATM    5  C9  UNL     1     -20.043  36.824  25.982  1.00  0.00     0.119 C
ENDROOT
BRANCH   5   6
HETATM    6  S2  UNL     1     -21.548  36.325  25.114  1.00  0.00    -0.127 SA
BRANCH   6   7
HETATM    7  C10 UNL     1     -22.626  37.742  24.734  1.00  0.00     0.185 C
HETATM    8  C11 UNL     1     -23.068  37.719  23.305  1.00  0.00     0.070 C
HETATM    9  C12 UNL     1     -24.516  37.988  23.056  1.00  0.00     0.112 C
HETATM   10  C15 UNL     1     -25.317  38.414  24.234  1.00  0.00     0.171 C
HETATM   11  C16 UNL     1     -24.551  38.707  25.471  1.00  0.00     0.177 C
HETATM   12  O7  UNL     1     -23.608  37.738  25.677  1.00  0.00    -0.365 OA
BRANCH   9  13
HETATM   13  N3  UNL     1     -25.191  36.914  22.384  1.00  0.00    -0.414 N
HETATM   14  C13 UNL     1     -26.127  37.215  21.387  1.00  0.00     0.143 C
HETATM   15  C14 UNL     1     -24.597  35.640  22.421  1.00  0.00     0.143 C
ENDBRANCH   9  13
BRANCH  10  16
HETATM   16  O5  UNL     1     -26.289  37.439  24.553  1.00  0.00    -0.391 OA
ATOM     17  H5  UNL     1     -26.527  36.939  23.782  1.00  0.00     0.210 HD
ENDBRANCH  10  16
BRANCH  11  18
HETATM   18  C17 UNL     1     -24.041  40.124  25.525  1.00  0.00     0.198 C
BRANCH  18  19
HETATM   19  O6  UNL     1     -23.771  40.499  26.826  1.00  0.00    -0.398 OA
ATOM     20  H6  UNL     1     -23.465  41.397  26.862  1.00  0.00     0.209 HD
ENDBRANCH  18  19
ENDBRANCH  11  18
ENDBRANCH   6   7
ENDBRANCH   5   6
BRANCH   1  21
HETATM   21  N1  UNL     1     -19.106  37.809  23.938  1.00  0.00    -0.396 NA
HETATM   22  C2  UNL     1     -19.260  38.816  22.999  1.00  0.00     0.349 C
HETATM   23  O1  UNL     1     -19.606  39.989  23.187  1.00  0.00    -0.244 OA
BRANCH  22  24
HETATM   24  S1  UNL     1     -18.888  38.286  21.288  1.00  0.00    -0.059 SA
HETATM   25  C1  UNL     1     -20.055  37.027  20.793  1.00  0.00     0.101 C
ENDBRANCH  22  24
ENDBRANCH   1  21
BRANCH   4  26
HETATM   26  O4  UNL     1     -19.866  34.506  26.512  1.00  0.00    -0.392 OA
ATOM     27  H4  UNL     1     -19.130  34.083  26.085  1.00  0.00     0.210 HD
ENDBRANCH   4  26
BRANCH   2  28
HETATM   28  O2  UNL     1     -16.586  36.361  24.945  1.00  0.00    -0.390 OA
ATOM     29  H2  UNL     1     -15.771  36.468  25.420  1.00  0.00     0.210 HD
ENDBRANCH   2  28
BRANCH   3  30
HETATM   30  N2  UNL     1     -17.381  34.623  26.568  1.00  0.00    -0.352 N
HETATM   31  C6  UNL     1     -16.447  34.071  27.449  1.00  0.00     0.214 C
HETATM   32  C7  UNL     1     -15.817  32.774  27.215  1.00  0.00     0.117 C
HETATM   33  O3  UNL     1     -16.132  34.719  28.492  1.00  0.00    -0.274 OA
ATOM     34  H2  UNL     1     -17.639  34.106  25.727  1.00  0.00     0.163 HD
ENDBRANCH   3  30
TORSDOF 11
ENDMDL