MODEL 5
REMARK VINA RESULT: -5.567170505      3.500      6.710
REMARK  12 active torsions:
REMARK  status: ('A' for Active; 'I' for Inactive)
REMARK    1  A    between atoms: C2_2  and  O1_3
REMARK    2  A    between atoms: O1_3  and  C3_4
REMARK    3  A    between atoms: C4_5  and  N1_6
REMARK    4  A    between atoms: C6_11  and  N2_12
REMARK    5  A    between atoms: C7_16  and  O2_17
REMARK    6  A    between atoms: O2_17  and  C8_18
REMARK    7  A    between atoms: C14_24  and  O3_25
REMARK    8  A    between atoms: C16_27  and  N3_28
REMARK    9  A    between atoms: C19_31  and  O4_32
REMARK   10  A    between atoms: C20_34  and  O5_35
REMARK   11  A    between atoms: C21_37  and  N4_38
REMARK   12  A    between atoms: C22_42  and  O6_43
ROOT
HETATM    1  C8  UNL     1     -19.943  38.262  25.456  1.00  0.00     0.158 C
HETATM    2  C9  UNL     1     -18.777  39.137  24.988  1.00  0.00     0.053 C
HETATM    3  C10 UNL     1     -18.360  40.104  26.056  1.00  0.00     0.036 C
HETATM    4  C11 UNL     1     -18.755  39.669  27.415  1.00  0.00    -0.030 C
HETATM    5  C12 UNL     1     -18.869  38.475  27.947  1.00  0.00    -0.021 C
HETATM    6  C13 UNL     1     -18.615  37.165  27.283  1.00  0.00     0.064 C
HETATM    7  C14 UNL     1     -19.500  36.994  26.078  1.00  0.00     0.159 C
HETATM    8  C16 UNL     1     -17.176  36.863  27.115  1.00  0.00     0.119 C
HETATM    9  C19 UNL     1     -16.642  36.701  25.734  1.00  0.00     0.172 C
HETATM   10  C20 UNL     1     -16.480  38.050  25.042  1.00  0.00     0.179 C
HETATM   11  C21 UNL     1     -17.694  38.405  24.295  1.00  0.00     0.221 C
ENDROOT
BRANCH   1  12
HETATM   12  O2  UNL     1     -20.837  38.027  24.456  1.00  0.00    -0.373 OA
BRANCH  12  13
HETATM   13  C7  UNL     1     -21.921  38.889  24.364  1.00  0.00     0.183 C
HETATM   14  C6  UNL     1     -22.576  38.503  23.038  1.00  0.00     0.217 C
HETATM   15  C5  UNL     1     -23.994  38.926  22.910  1.00  0.00     0.071 C
HETATM   16  C4  UNL     1     -24.319  39.956  23.938  1.00  0.00     0.217 C
HETATM   17  C3  UNL     1     -24.194  39.436  25.349  1.00  0.00     0.183 C
HETATM   18  C22 UNL     1     -22.894  38.624  25.448  1.00  0.00     0.180 C
BRANCH  14  19
HETATM   19  N2  UNL     1     -22.519  37.056  22.936  1.00  0.00    -0.072 N
ATOM     20  H23 UNL     1     -21.742  36.656  23.463  1.00  0.00     0.274 HD
ATOM     21  H22 UNL     1     -23.278  36.597  23.439  1.00  0.00     0.274 HD
ATOM     22  H21 UNL     1     -22.495  36.803  21.948  1.00  0.00     0.274 HD
ENDBRANCH  14  19
BRANCH  16  23
HETATM   23  N1  UNL     1     -25.611  40.508  23.659  1.00  0.00    -0.072 N
ATOM     24  H13 UNL     1     -26.299  39.770  23.515  1.00  0.00     0.274 HD
ATOM     25  H12 UNL     1     -26.008  40.946  24.491  1.00  0.00     0.274 HD
ATOM     26  H11 UNL     1     -25.605  41.158  22.873  1.00  0.00     0.274 HD
ENDBRANCH  16  23
BRANCH  17  27
HETATM   27  O1  UNL     1     -25.188  38.621  25.751  1.00  0.00    -0.381 OA
BRANCH  27  28
HETATM   28  C2  UNL     1     -26.068  39.016  26.688  1.00  0.00     0.164 C
HETATM   29  C1  UNL     1     -25.726  40.211  27.498  1.00  0.00     0.033 C
ENDBRANCH  27  28
ENDBRANCH  17  27
BRANCH  18  30
HETATM   30  O6  UNL     1     -23.184  37.244  25.547  1.00  0.00    -0.390 OA
ATOM     31  H6  UNL     1     -23.812  36.991  24.881  1.00  0.00     0.210 HD
ENDBRANCH  18  30
ENDBRANCH  12  13
ENDBRANCH   1  12
BRANCH   7  32
HETATM   32  O3  UNL     1     -20.641  36.295  26.462  1.00  0.00    -0.387 OA
HETATM   33  C15 UNL     1     -20.472  34.913  26.421  1.00  0.00     0.202 C
ENDBRANCH   7  32
BRANCH  11  34
HETATM   34  N4  UNL     1     -17.254  39.153  23.097  1.00  0.00    -0.072 N
ATOM     35  H43 UNL     1     -17.296  38.579  22.255  1.00  0.00     0.274 HD
ATOM     36  H42 UNL     1     -17.929  39.868  22.826  1.00  0.00     0.274 HD
ATOM     37  H41 UNL     1     -16.324  39.544  23.245  1.00  0.00     0.274 HD
ENDBRANCH  11  34
BRANCH  10  38
HETATM   38  O5  UNL     1     -15.413  37.906  24.120  1.00  0.00    -0.391 OA
ATOM     39  H5  UNL     1     -15.768  38.106  23.262  1.00  0.00     0.210 HD
ENDBRANCH  10  38
BRANCH   8  40
HETATM   40  N3  UNL     1     -16.676  35.767  27.884  1.00  0.00    -0.413 N
HETATM   41  C17 UNL     1     -16.413  35.942  29.241  1.00  0.00     0.143 C
HETATM   42  C18 UNL     1     -16.899  34.468  27.377  1.00  0.00     0.143 C
ENDBRANCH   8  40
BRANCH   9  43
HETATM   43  O4  UNL     1     -15.298  36.257  25.908  1.00  0.00    -0.391 OA
ATOM     44  H4  UNL     1     -15.332  35.316  25.785  1.00  0.00     0.210 HD
ENDBRANCH   9  43
TORSDOF 12
ENDMDL