MODEL 3
REMARK VINA RESULT: -7.078953348      4.178      6.237
REMARK  9 active torsions:
REMARK  status: ('A' for Active; 'I' for Inactive)
REMARK       I    between atoms: C2_2  and  N1_4
REMARK    1  A    between atoms: N1_4  and  C3_6
REMARK    2  A    between atoms: C3_6  and  C4_7
REMARK    3  A    between atoms: C4_7  and  O2_8
REMARK    4  A    between atoms: O2_8  and  C5_9
REMARK    5  A    between atoms: C5_9  and  N2_11
REMARK    6  A    between atoms: N2_11  and  N3_13
REMARK    7  A    between atoms: C9_24  and  C10_25
REMARK    8  A    between atoms: C10_25  and  O6_26
REMARK    9  A    between atoms: C11_28  and  O7_29
ROOT
HETATM    1  C4  UNL     1       5.656  -2.280 -25.025  1.00  0.00     0.336 C
HETATM    2  O3  UNL     1       6.411  -3.418 -24.929  1.00  0.00    -0.168 OA
HETATM    3  O4  UNL     1       6.093  -4.219 -23.935  1.00  0.00    -0.217 OA
HETATM    4  C6  UNL     1       6.231  -3.493 -22.785  1.00  0.00     0.170 C
HETATM    5  C7  UNL     1       7.577  -2.866 -22.606  1.00  0.00     0.057 C
HETATM    6  C8  UNL     1       5.155  -2.396 -22.848  1.00  0.00     0.306 C
HETATM    7  O5  UNL     1       5.277  -1.886 -21.568  1.00  0.00    -0.348 OA
HETATM    8  C9  UNL     1       5.420  -2.939 -20.695  1.00  0.00     0.180 C
HETATM    9  C11 UNL     1       5.829  -4.165 -21.523  1.00  0.00     0.191 C
HETATM   10  O8  UNL     1       5.534  -1.547 -23.847  1.00  0.00    -0.295 OA
ENDROOT
BRANCH   1  11
HETATM   11  C3  UNL     1       4.263  -2.701 -25.519  1.00  0.00     0.228 C
BRANCH  11  12
HETATM   12  N1  UNL     1       4.308  -2.624 -26.988  1.00  0.00    -0.354 N
HETATM   13  C2  UNL     1       3.565  -1.628 -27.671  1.00  0.00     0.213 C
HETATM   14  C1  UNL     1       3.579  -1.511 -29.142  1.00  0.00     0.117 C
HETATM   15  O1  UNL     1       2.861  -0.802 -27.027  1.00  0.00    -0.274 OA
ATOM     16  H1  UNL     1       4.875  -3.288 -27.516  1.00  0.00     0.162 HD
ENDBRANCH  11  12
ENDBRANCH   1  11
BRANCH   1  17
HETATM   17  O2  UNL     1       6.181  -1.500 -26.079  1.00  0.00    -0.259 OA
BRANCH  17  18
HETATM   18  C5  UNL     1       6.507  -0.190 -26.020  1.00  0.00     0.234 C
HETATM   19  S1  UNL     1       8.045   0.255 -25.759  1.00  0.00    -0.031 SA
BRANCH  18  20
HETATM   20  N2  UNL     1       5.531   0.808 -26.182  1.00  0.00    -0.256 N
ATOM     21  H2  UNL     1       5.601   1.430 -26.987  1.00  0.00     0.191 HD
BRANCH  20  22
HETATM   22  N3  UNL     1       4.457   0.987 -25.282  1.00  0.00    -0.247 N
HETATM   23  N4  UNL     1       4.768   1.144 -24.049  1.00  0.00    -0.331 N
ATOM     24  H42 UNL     1       5.742   1.136 -23.749  1.00  0.00     0.178 HD
ATOM     25  H41 UNL     1       3.992   1.274 -23.399  1.00  0.00     0.178 HD
ATOM     26  H3  UNL     1       3.487   0.992 -25.597  1.00  0.00     0.207 HD
ENDBRANCH  20  22
ENDBRANCH  18  20
ENDBRANCH  17  18
ENDBRANCH   1  17
BRANCH   9  27
HETATM   27  O7  UNL     1       4.719  -4.995 -21.723  1.00  0.00    -0.390 OA
ATOM     28  H7  UNL     1       4.432  -5.386 -20.906  1.00  0.00     0.210 HD
ENDBRANCH   9  27
BRANCH   8  29
HETATM   29  C10 UNL     1       4.178  -3.231 -19.891  1.00  0.00     0.198 C
BRANCH  29  30
HETATM   30  O6  UNL     1       3.878  -2.131 -19.126  1.00  0.00    -0.398 OA
ATOM     31  H6  UNL     1       4.514  -1.449 -19.308  1.00  0.00     0.209 HD
ENDBRANCH  29  30
ENDBRANCH   8  29
TORSDOF 9
ENDMDL