MODEL 3
REMARK VINA RESULT: -7.178608741      2.584      4.000
REMARK  9 active torsions:
REMARK  status: ('A' for Active; 'I' for Inactive)
REMARK    1  A    between atoms: C2_2  and  C3_3
REMARK    2  A    between atoms: C3_3  and  O1_4
REMARK    3  A    between atoms: C4_9  and  N2_10
REMARK    4  A    between atoms: C6_16  and  C7_17
REMARK       I    between atoms: C7_17  and  N5_19
REMARK    5  A    between atoms: N5_19  and  C8_21
REMARK    6  A    between atoms: C9_24  and  N7_25
REMARK    7  A    between atoms: N7_25  and  C10_27
REMARK    8  A    between atoms: C10_27  and  C11_28
REMARK    9  A    between atoms: C11_28  and  O4_29
ROOT
HETATM    1  N2  UNL     1       7.203   1.917 -29.641  1.00  0.00    -0.124 N
ATOM      2  H2  UNL     1       8.124   2.212 -29.318  1.00  0.00     0.197 HD
HETATM    3  C5  UNL     1       6.585   2.547 -30.722  1.00  0.00     0.196 C
HETATM    4  N3  UNL     1       6.058   3.078 -31.618  1.00  0.00    -0.171 NA
ENDROOT
BRANCH   1   5
HETATM    5  C4  UNL     1       6.512   0.853 -29.003  1.00  0.00     0.707 C
HETATM    6  N1  UNL     1       7.124  -0.429 -29.018  1.00  0.00    -0.095 N
HETATM    7  O2  UNL     1       6.736  -1.315 -28.080  1.00  0.00    -0.251 OA
ATOM      8  H1  UNL     1       7.830  -0.669 -29.712  1.00  0.00     0.213 HD
HETATM    9  C2  UNL     1       5.332  -1.431 -28.072  1.00  0.00     0.136 C
HETATM   10  C1  UNL     1       4.988  -2.536 -27.117  1.00  0.00     0.054 C
HETATM   11  C6  UNL     1       4.671  -0.127 -27.764  1.00  0.00     0.230 C
HETATM   12  N4  UNL     1       5.382   0.986 -28.423  1.00  0.00    -0.207 N
ATOM     13  H4  UNL     1       4.947   1.909 -28.415  1.00  0.00     0.178 HD
BRANCH   9  14
HETATM   14  C3  UNL     1       4.929  -1.945 -29.463  1.00  0.00     0.207 C
BRANCH  14  15
HETATM   15  O1  UNL     1       4.025  -1.083 -30.062  1.00  0.00    -0.398 OA
ATOM     16  H1  UNL     1       3.623  -0.512 -29.418  1.00  0.00     0.209 HD
ENDBRANCH  14  15
ENDBRANCH   9  14
BRANCH  11  17
HETATM   17  C7  UNL     1       4.488   0.158 -26.331  1.00  0.00     0.250 C
HETATM   18  O3  UNL     1       3.291   0.122 -25.868  1.00  0.00    -0.271 OA
HETATM   19  N5  UNL     1       5.565   0.463 -25.458  1.00  0.00    -0.304 N
ATOM     20  H5  UNL     1       6.102   1.322 -25.576  1.00  0.00     0.171 HD
BRANCH  19  21
HETATM   21  C8  UNL     1       5.855  -0.379 -24.497  1.00  0.00     0.183 A
HETATM   22  N6  UNL     1       5.023  -1.130 -23.780  1.00  0.00    -0.168 N
HETATM   23  C9  UNL     1       5.534  -1.906 -22.863  1.00  0.00     0.686 A
ATOM     24  H6  UNL     1       4.017  -1.101 -23.941  1.00  0.00     0.186 HD
HETATM   25  N8  UNL     1       6.859  -1.901 -22.698  1.00  0.00    -0.157 N
HETATM   26  S1  UNL     1       7.378  -0.790 -23.849  1.00  0.00     0.039 SA
ATOM     27  H8  UNL     1       7.418  -2.439 -22.036  1.00  0.00     0.193 HD
BRANCH  23  28
HETATM   28  N7  UNL     1       4.771  -2.688 -22.105  1.00  0.00    -0.223 N
ATOM     29  H7  UNL     1       3.882  -3.015 -22.482  1.00  0.00     0.177 HD
BRANCH  28  30
HETATM   30  C10 UNL     1       5.142  -3.086 -20.796  1.00  0.00     0.164 C
BRANCH  30  31
HETATM   31  C11 UNL     1       3.903  -3.081 -19.926  1.00  0.00     0.184 C
BRANCH  31  32
HETATM   32  O4  UNL     1       3.945  -1.956 -19.132  1.00  0.00    -0.399 OA
ATOM     33  H4  UNL     1       4.793  -1.931 -18.704  1.00  0.00     0.209 HD
ENDBRANCH  31  32
ENDBRANCH  30  31
ENDBRANCH  28  30
ENDBRANCH  23  28
ENDBRANCH  19  21
ENDBRANCH  11  17
ENDBRANCH   1   5
TORSDOF 9
ENDMDL