MODEL 5
REMARK VINA RESULT: -7.159743657      2.981      5.216
REMARK  8 active torsions:
REMARK  status: ('A' for Active; 'I' for Inactive)
REMARK    1  A    between atoms: C6_10  and  N3_11
REMARK    2  A    between atoms: C10_22  and  N7_23
REMARK    3  A    between atoms: C11_26  and  N8_27
REMARK    4  A    between atoms: C12_29  and  C13_30
REMARK    5  A    between atoms: C13_30  and  O1_31
REMARK    6  A    between atoms: N9_33  and  C14_34
REMARK    7  A    between atoms: C14_34  and  C15_35
REMARK    8  A    between atoms: C15_35  and  O2_36
ROOT
HETATM    1  C1  UNL     1       8.934  -3.831 -20.921  1.00  0.00     0.159 C
HETATM    2  N1  UNL     1       7.921  -3.690 -21.915  1.00  0.00    -0.321 N
HETATM    3  C2  UNL     1       8.224  -3.905 -23.192  1.00  0.00     0.132 A
HETATM    4  N2  UNL     1       9.401  -4.285 -23.440  1.00  0.00    -0.383 N
ATOM      5  H21 UNL     1       9.633  -4.449 -24.420  1.00  0.00     0.157 HD
ATOM      6  H22 UNL     1      10.082  -4.385 -22.688  1.00  0.00     0.157 HD
HETATM    7  C3  UNL     1       7.307  -3.771 -24.203  1.00  0.00     0.108 A
HETATM    8  C4  UNL     1       5.970  -3.383 -23.821  1.00  0.00     0.084 A
HETATM    9  C5  UNL     1       5.674  -3.197 -22.515  1.00  0.00     0.081 A
HETATM   10  C6  UNL     1       4.401  -3.040 -22.082  1.00  0.00     0.116 A
HETATM   11  N4  UNL     1       4.110  -2.971 -20.770  1.00  0.00    -0.338 N
ATOM     12  H4  UNL     1       3.143  -2.838 -20.472  1.00  0.00     0.168 HD
HETATM   13  C7  UNL     1       5.095  -3.076 -19.835  1.00  0.00     0.183 A
HETATM   14  N5  UNL     1       6.353  -3.264 -20.252  1.00  0.00    -0.338 N
ATOM     15  H5  UNL     1       7.090  -3.352 -19.553  1.00  0.00     0.168 HD
HETATM   16  C8  UNL     1       6.682  -3.342 -21.527  1.00  0.00     0.126 A
HETATM   17  N6  UNL     1       5.089  -3.128 -24.766  1.00  0.00    -0.332 N
HETATM   18  C9  UNL     1       3.976  -2.208 -24.592  1.00  0.00     0.158 C
HETATM   19  C10 UNL     1       5.476  -3.304 -26.089  1.00  0.00     0.146 A
HETATM   20  C11 UNL     1       6.735  -3.706 -26.449  1.00  0.00     0.152 A
HETATM   21  N9  UNL     1       7.671  -3.934 -25.447  1.00  0.00    -0.323 N
ENDROOT
BRANCH  20  22
HETATM   22  N8  UNL     1       7.041  -3.873 -27.631  1.00  0.00    -0.351 N
HETATM   23  C12 UNL     1       6.956  -4.321 -28.886  1.00  0.00     0.088 C
ATOM     24  H8  UNL     1       7.899  -3.324 -27.684  1.00  0.00     0.166 HD
BRANCH  23  25
HETATM   25  C13 UNL     1       7.543  -5.717 -29.162  1.00  0.00     0.208 C
BRANCH  25  26
HETATM   26  O1  UNL     1       8.920  -5.704 -29.032  1.00  0.00    -0.396 OA
ATOM     27  H1  UNL     1       9.255  -6.585 -28.904  1.00  0.00     0.209 HD
ENDBRANCH  25  26
ENDBRANCH  23  25
ENDBRANCH  20  22
BRANCH  19  28
HETATM   28  N7  UNL     1       4.554  -3.062 -26.926  1.00  0.00    -0.382 N
ATOM     29  H72 UNL     1       3.971  -3.788 -27.342  1.00  0.00     0.157 HD
ATOM     30  H71 UNL     1       4.448  -2.071 -27.143  1.00  0.00     0.157 HD
ENDBRANCH  19  28
BRANCH  21  31
HETATM   31  C14 UNL     1       8.994  -4.241 -25.913  1.00  0.00     0.157 C
BRANCH  31  32
HETATM   32  C15 UNL     1       9.731  -3.158 -26.607  1.00  0.00     0.184 C
BRANCH  32  33
HETATM   33  O2  UNL     1      10.169  -3.210 -27.868  1.00  0.00    -0.399 OA
ATOM     34  H2  UNL     1       9.674  -3.546 -28.606  1.00  0.00     0.209 HD
ENDBRANCH  32  33
ENDBRANCH  31  32
ENDBRANCH  21  31
BRANCH  10  35
HETATM   35  N3  UNL     1       3.372  -3.407 -22.767  1.00  0.00    -0.385 N
ATOM     36  H32 UNL     1       3.429  -3.066 -23.726  1.00  0.00     0.157 HD
ATOM     37  H31 UNL     1       2.478  -3.655 -22.343  1.00  0.00     0.157 HD
ENDBRANCH  10  35
TORSDOF 8
ENDMDL