MODEL 1
REMARK VINA RESULT: -7.775192865      0.000      0.000
REMARK  8 active torsions:
REMARK  status: ('A' for Active; 'I' for Inactive)
REMARK    1  A    between atoms: O1_2  and  C2_3
REMARK    2  A    between atoms: C2_3  and  C3_5
REMARK    3  A    between atoms: C3_5  and  N1_7
REMARK    4  A    between atoms: N3_14  and  C8_15
REMARK    5  A    between atoms: C8_15  and  C9_16
REMARK    6  A    between atoms: N4_18  and  C11_19
REMARK    7  A    between atoms: C13_23  and  N6_24
REMARK    8  A    between atoms: C14_29  and  N8_30
ROOT
HETATM    1  C9  UNL     1       7.592  -3.512 -24.427  1.00  0.00     0.059 A
HETATM    2  C10 UNL     1       6.522  -4.098 -23.784  1.00  0.00     0.146 A
HETATM    3  N4  UNL     1       5.822  -3.154 -23.119  1.00  0.00    -0.246 N
HETATM    4  N9  UNL     1       6.450  -2.020 -23.350  1.00  0.00    -0.236 N
ATOM      5  H9  UNL     1       6.159  -1.114 -22.981  1.00  0.00     0.209 HD
HETATM    6  N10 UNL     1       7.518  -2.208 -24.133  1.00  0.00    -0.287 N
ATOM      7  H10 UNL     1       8.164  -1.485 -24.451  1.00  0.00     0.188 HD
ENDROOT
BRANCH   1   8
HETATM    8  C8  UNL     1       8.570  -4.219 -25.244  1.00  0.00     0.174 C
BRANCH   8   9
HETATM    9  N3  UNL     1       8.074  -4.789 -26.448  1.00  0.00    -0.209 NA
HETATM   10  C7  UNL     1       9.031  -5.309 -27.350  1.00  0.00     0.134 C
HETATM   11  C6  UNL     1       8.294  -6.072 -28.448  1.00  0.00     0.154 C
HETATM   12  N2  UNL     1       7.439  -5.124 -29.176  1.00  0.00    -0.224 N
HETATM   13  C5  UNL     1       6.925  -3.991 -28.489  1.00  0.00     0.685 C
ATOM     14  H2  UNL     1       7.218  -5.276 -30.160  1.00  0.00     0.177 HD
HETATM   15  N1  UNL     1       6.208  -3.120 -29.109  1.00  0.00    -0.212 N
HETATM   16  N11 UNL     1       7.243  -3.878 -27.108  1.00  0.00    -0.152 N
ATOM     17  H1  UNL     1       6.028  -3.277 -30.101  1.00  0.00     0.178 HD
ATOM     18  H11 UNL     1       6.849  -3.101 -26.578  1.00  0.00     0.199 HD
BRANCH  15  19
HETATM   19  C3  UNL     1       5.647  -1.951 -28.513  1.00  0.00     0.195 C
HETATM   20  C4  UNL     1       6.612  -0.794 -28.803  1.00  0.00     0.043 C
BRANCH  19  21
HETATM   21  C2  UNL     1       4.366  -1.596 -29.204  1.00  0.00     0.281 C
HETATM   22  O2  UNL     1       4.348  -1.234 -30.403  1.00  0.00    -0.263 OA
BRANCH  21  23
HETATM   23  O1  UNL     1       3.176  -1.665 -28.520  1.00  0.00    -0.325 OA
HETATM   24  C1  UNL     1       2.945  -0.982 -27.289  1.00  0.00     0.213 C
ENDBRANCH  21  23
ENDBRANCH  19  21
ENDBRANCH  15  19
ENDBRANCH   8   9
ENDBRANCH   1   8
BRANCH   3  25
HETATM   25  C11 UNL     1       4.651  -3.293 -22.321  1.00  0.00     0.117 A
HETATM   26  C12 UNL     1       4.687  -3.311 -20.941  1.00  0.00     0.141 A
HETATM   27  N5  UNL     1       3.567  -3.444 -20.208  1.00  0.00    -0.200 N
HETATM   28  C13 UNL     1       2.356  -3.565 -20.782  1.00  0.00     0.677 A
ATOM     29  H5  UNL     1       3.637  -3.453 -19.190  1.00  0.00     0.183 HD
HETATM   30  N7  UNL     1       2.306  -3.549 -22.125  1.00  0.00    -0.175 N
HETATM   31  C14 UNL     1       3.402  -3.419 -22.893  1.00  0.00     0.145 A
ATOM     32  H7  UNL     1       1.398  -3.640 -22.581  1.00  0.00     0.186 HD
BRANCH  28  33
HETATM   33  N6  UNL     1       1.287  -3.692 -20.053  1.00  0.00    -0.234 N
ATOM     34  H62 UNL     1       0.384  -3.321 -20.349  1.00  0.00     0.174 HD
ATOM     35  H61 UNL     1       1.323  -4.174 -19.155  1.00  0.00     0.174 HD
ENDBRANCH  28  33
BRANCH  31  36
HETATM   36  N8  UNL     1       3.337  -3.405 -24.189  1.00  0.00    -0.383 N
ATOM     37  H82 UNL     1       2.961  -4.191 -24.720  1.00  0.00     0.157 HD
ATOM     38  H81 UNL     1       3.679  -2.570 -24.665  1.00  0.00     0.157 HD
ENDBRANCH  31  36
ENDBRANCH   3  25
TORSDOF 8
ENDMDL