MODEL 5
REMARK VINA RESULT: -7.156832093      2.576      2.879
REMARK  7 active torsions:
REMARK  status: ('A' for Active; 'I' for Inactive)
REMARK    1  A    between atoms: C1_2  and  C2_3
REMARK       I    between atoms: C1_2  and  N6_23
REMARK    2  A    between atoms: N1_4  and  N2_6
REMARK    3  A    between atoms: N2_6  and  C3_8
REMARK    4  A    between atoms: N6_23  and  C9_25
REMARK    5  A    between atoms: C11_28  and  C12_29
REMARK    6  A    between atoms: C12_29  and  O3_30
REMARK    7  A    between atoms: C14_33  and  O4_34
ROOT
HETATM    1  C2  UNL     1       6.212  -3.379 -29.958  1.00  0.00     0.181 C
HETATM    2  N1  UNL     1       6.845  -4.444 -30.225  1.00  0.00    -0.305 N
ATOM      3  H1  UNL     1       7.519  -4.423 -30.990  1.00  0.00     0.186 HD
ENDROOT
BRANCH   2   4
HETATM    4  N2  UNL     1       6.673  -5.636 -29.538  1.00  0.00    -0.280 N
ATOM      5  H2  UNL     1       6.105  -6.385 -29.932  1.00  0.00     0.189 HD
BRANCH   4   6
HETATM    6  C3  UNL     1       7.299  -5.793 -28.282  1.00  0.00     0.156 C
HETATM    7  N3  UNL     1       6.674  -6.135 -27.209  1.00  0.00    -0.340 N
HETATM    8  C4  UNL     1       7.382  -6.273 -25.970  1.00  0.00     0.317 C
ATOM      9  H3  UNL     1       5.669  -6.309 -27.240  1.00  0.00     0.163 HD
HETATM   10  N4  UNL     1       8.244  -7.431 -26.046  1.00  0.00    -0.051 N
HETATM   11  C7  UNL     1       8.088  -5.030 -25.556  1.00  0.00     0.245 C
HETATM   12  C5  UNL     1       9.263  -7.430 -25.017  1.00  0.00     0.262 C
ATOM     13  H42 UNL     1       7.702  -8.295 -26.024  1.00  0.00     0.279 HD
ATOM     14  H41 UNL     1       8.658  -7.521 -26.974  1.00  0.00     0.279 HD
HETATM   15  C6  UNL     1       8.845  -6.552 -23.858  1.00  0.00     0.260 C
HETATM   16  N5  UNL     1       8.651  -5.170 -24.235  1.00  0.00    -0.065 N
ATOM     17  H52 UNL     1       8.089  -4.676 -23.542  1.00  0.00     0.277 HD
ATOM     18  H51 UNL     1       9.520  -4.642 -24.150  1.00  0.00     0.277 HD
HETATM   19  C8  UNL     1       9.206  -4.630 -26.484  1.00  0.00     0.119 C
HETATM   20  S1  UNL     1       9.075  -5.514 -28.079  1.00  0.00    -0.091 SA
ENDBRANCH   4   6
ENDBRANCH   2   4
BRANCH   1  21
HETATM   21  C1  UNL     1       6.452  -2.178 -30.726  1.00  0.00     0.260 C
HETATM   22  O1  UNL     1       5.681  -1.907 -31.697  1.00  0.00    -0.267 OA
HETATM   23  N6  UNL     1       7.540  -1.333 -30.380  1.00  0.00    -0.328 N
ATOM     24  H6  UNL     1       8.147  -1.571 -29.596  1.00  0.00     0.165 HD
BRANCH  23  25
HETATM   25  C9  UNL     1       7.778  -0.138 -31.146  1.00  0.00     0.252 C
HETATM   26  O2  UNL     1       8.545  -0.402 -32.291  1.00  0.00    -0.364 OA
HETATM   27  C10 UNL     1       8.934   0.820 -32.830  1.00  0.00     0.177 C
HETATM   28  C11 UNL     1      10.123   1.289 -32.020  1.00  0.00     0.036 C
HETATM   29  C13 UNL     1       9.932   0.880 -30.566  1.00  0.00     0.045 C
HETATM   30  C14 UNL     1       8.469   0.875 -30.253  1.00  0.00     0.167 C
BRANCH  28  31
HETATM   31  C12 UNL     1      11.372   0.651 -32.595  1.00  0.00     0.170 C
BRANCH  31  32
HETATM   32  O3  UNL     1      11.088  -0.674 -32.976  1.00  0.00    -0.400 OA
ATOM     33  H3  UNL     1      11.810  -1.016 -33.490  1.00  0.00     0.209 HD
ENDBRANCH  31  32
ENDBRANCH  28  31
BRANCH  30  34
HETATM   34  O4  UNL     1       7.927   2.148 -30.424  1.00  0.00    -0.391 OA
ATOM     35  H4  UNL     1       6.998   2.101 -30.616  1.00  0.00     0.210 HD
ENDBRANCH  30  34
ENDBRANCH  23  25
ENDBRANCH   1  21
TORSDOF 7
ENDMDL