MODEL 3
REMARK VINA RESULT: -7.982764573      2.348      4.271
REMARK  9 active torsions:
REMARK  status: ('A' for Active; 'I' for Inactive)
REMARK    1  A    between atoms: N1_1  and  N2_4
REMARK       I    between atoms: N2_4  and  C1_6
REMARK    2  A    between atoms: C1_6  and  C2_8
REMARK    3  A    between atoms: C2_8  and  N3_9
REMARK    4  A    between atoms: N3_9  and  N4_11
REMARK       I    between atoms: N4_11  and  C3_13
REMARK    5  A    between atoms: C3_13  and  C4_15
REMARK    6  A    between atoms: C6_17  and  N5_18
REMARK    7  A    between atoms: C11_29  and  O7_30
REMARK    8  A    between atoms: C11_29  and  N7_32
REMARK    9  A    between atoms: N7_32  and  N8_34
ROOT
HETATM    1  N3  UNL     1       6.143  -3.512 -28.679  1.00  0.00    -0.289 N
ATOM      2  H3  UNL     1       6.727  -4.092 -29.282  1.00  0.00     0.187 HD
ENDROOT
BRANCH   1   3
HETATM    3  C2  UNL     1       5.553  -2.555 -29.265  1.00  0.00     0.170 C
HETATM    4  C11 UNL     1       4.274  -2.077 -28.836  1.00  0.00     0.189 C
BRANCH   3   5
HETATM    5  C1  UNL     1       6.278  -1.994 -30.425  1.00  0.00     0.291 C
HETATM    6  N2  UNL     1       7.502  -1.316 -30.192  1.00  0.00    -0.271 N
ATOM      7  H2  UNL     1       7.845  -1.242 -29.234  1.00  0.00     0.189 HD
HETATM    8  O1  UNL     1       5.867  -2.086 -31.585  1.00  0.00    -0.264 OA
BRANCH   6   9
HETATM    9  N1  UNL     1       8.253  -0.751 -31.210  1.00  0.00    -0.342 N
ATOM     10  H12 UNL     1       7.897  -0.836 -32.162  1.00  0.00     0.176 HD
ATOM     11  H11 UNL     1       9.132  -0.261 -31.042  1.00  0.00     0.176 HD
ENDBRANCH   6   9
ENDBRANCH   3   5
BRANCH   4  12
HETATM   12  O7  UNL     1       3.739  -2.700 -27.821  1.00  0.00    -0.343 OA
ATOM     13  H7  UNL     1       2.808  -2.560 -27.689  1.00  0.00     0.219 HD
ENDBRANCH   4  12
BRANCH   4  14
HETATM   14  N7  UNL     1       3.501  -1.011 -29.366  1.00  0.00    -0.285 N
ATOM     15  H7  UNL     1       3.317  -0.934 -30.366  1.00  0.00     0.188 HD
BRANCH  14  16
HETATM   16  N8  UNL     1       2.994  -0.059 -28.445  1.00  0.00    -0.343 N
ATOM     17  H82 UNL     1       3.602   0.349 -27.735  1.00  0.00     0.176 HD
ATOM     18  H81 UNL     1       2.009   0.192 -28.529  1.00  0.00     0.176 HD
ENDBRANCH  14  16
ENDBRANCH   4  14
ENDBRANCH   1   3
BRANCH   1  19
HETATM   19  N4  UNL     1       6.118  -3.881 -27.377  1.00  0.00    -0.265 N
HETATM   20  C3  UNL     1       7.327  -4.282 -26.723  1.00  0.00     0.273 C
HETATM   21  O2  UNL     1       8.398  -4.270 -27.388  1.00  0.00    -0.266 OA
ATOM     22  H4  UNL     1       5.237  -3.875 -26.862  1.00  0.00     0.190 HD
BRANCH  20  23
HETATM   23  C4  UNL     1       7.310  -4.677 -25.317  1.00  0.00     0.072 A
HETATM   24  C5  UNL     1       8.292  -5.526 -24.875  1.00  0.00     0.056 A
HETATM   25  C6  UNL     1       8.335  -5.861 -23.540  1.00  0.00     0.106 A
HETATM   26  C7  UNL     1       7.402  -5.352 -22.662  1.00  0.00     0.068 A
HETATM   27  C8  UNL     1       6.413  -4.499 -23.103  1.00  0.00     0.074 A
HETATM   28  N6  UNL     1       5.375  -3.846 -22.534  1.00  0.00    -0.300 N
HETATM   29  C10 UNL     1       6.379  -4.167 -24.449  1.00  0.00     0.123 A
HETATM   30  C9  UNL     1       4.723  -3.136 -23.481  1.00  0.00     0.370 A
ATOM     31  H6  UNL     1       5.123  -3.884 -21.546  1.00  0.00     0.171 HD
HETATM   32  O5  UNL     1       3.721  -2.434 -23.231  1.00  0.00    -0.238 OA
HETATM   33  O6  UNL     1       5.336  -3.337 -24.619  1.00  0.00    -0.258 OA
BRANCH  25  34
HETATM   34  N5  UNL     1       9.375  -6.738 -23.051  1.00  0.00    -0.116 N
HETATM   35  O3  UNL     1      10.087  -6.422 -22.095  1.00  0.00    -0.532 OA
HETATM   36  O4  UNL     1       9.582  -7.952 -23.655  1.00  0.00    -0.532 OA
ENDBRANCH  25  34
ENDBRANCH  20  23
ENDBRANCH   1  19
TORSDOF 9
ENDMDL