MODEL 4
REMARK VINA RESULT: -7.375152319      3.769      7.080
REMARK  4 active torsions:
REMARK  status: ('A' for Active; 'I' for Inactive)
REMARK    1  A    between atoms: N4_19  and  C9_20
REMARK    2  A    between atoms: C9_20  and  C10_21
REMARK    3  A    between atoms: C10_21  and  N5_22
REMARK    4  A    between atoms: N5_22  and  C11_24
ROOT
HETATM    1  O1  UNL     1       5.962  -3.439 -22.866  1.00  0.00    -0.263 OA
HETATM    2  C1  UNL     1       6.202  -2.960 -23.999  1.00  0.00     0.286 C
HETATM    3  C2  UNL     1       6.124  -1.488 -24.122  1.00  0.00     0.343 C
HETATM    4  N1  UNL     1       4.792  -0.980 -24.031  1.00  0.00    -0.065 N
ATOM      5  H11 UNL     1       4.457  -0.915 -23.070  1.00  0.00     0.277 HD
ATOM      6  H12 UNL     1       4.093  -1.640 -24.374  1.00  0.00     0.277 HD
HETATM    7  C3  UNL     1       4.754   0.292 -24.728  1.00  0.00     0.260 C
HETATM    8  C4  UNL     1       3.663   0.297 -25.798  1.00  0.00     0.259 C
HETATM    9  N2  UNL     1       4.211   0.280 -27.128  1.00  0.00    -0.072 N
ATOM     10  H21 UNL     1       5.207   0.059 -27.118  1.00  0.00     0.277 HD
ATOM     11  H22 UNL     1       4.261   1.219 -27.523  1.00  0.00     0.277 HD
HETATM   12  C5  UNL     1       3.473  -0.626 -28.001  1.00  0.00     0.259 C
HETATM   13  C6  UNL     1       4.137  -0.712 -29.338  1.00  0.00     0.259 C
HETATM   14  N3  UNL     1       5.576  -0.754 -29.274  1.00  0.00    -0.072 N
ATOM     15  H31 UNL     1       5.944  -0.137 -28.550  1.00  0.00     0.277 HD
ATOM     16  H32 UNL     1       6.007  -0.308 -30.083  1.00  0.00     0.277 HD
HETATM   17  C7  UNL     1       6.027  -2.118 -29.103  1.00  0.00     0.262 C
HETATM   18  C8  UNL     1       7.236  -2.170 -28.208  1.00  0.00     0.302 C
HETATM   19  N4  UNL     1       7.159  -3.370 -27.402  1.00  0.00     0.115 N
HETATM   20  C14 UNL     1       6.119  -3.350 -26.436  1.00  0.00     0.450 C
HETATM   21  O3  UNL     1       6.530  -3.684 -25.128  1.00  0.00    -0.290 OA
ENDROOT
BRANCH  19  22
HETATM   22  C9  UNL     1       7.137  -4.497 -28.284  1.00  0.00     0.294 C
BRANCH  22  23
HETATM   23  C10 UNL     1       8.343  -5.398 -28.110  1.00  0.00     0.150 C
BRANCH  23  24
HETATM   24  N5  UNL     1       8.904  -5.115 -26.804  1.00  0.00    -0.381 N
ATOM     25  H5  UNL     1       9.230  -4.174 -26.586  1.00  0.00     0.160 HD
BRANCH  24  26
HETATM   26  C11 UNL     1       9.005  -6.160 -25.808  1.00  0.00     0.090 A
HETATM   27  C12 UNL     1       8.927  -6.029 -24.448  1.00  0.00     0.128 A
HETATM   28  N6  UNL     1       9.045  -7.108 -23.725  1.00  0.00    -0.325 N
HETATM   29  C13 UNL     1       9.234  -8.273 -24.347  1.00  0.00     0.289 A
ATOM     30  H6  UNL     1       8.993  -7.062 -22.708  1.00  0.00     0.169 HD
HETATM   31  O2  UNL     1       9.370  -9.430 -23.801  1.00  0.00    -0.260 OA
HETATM   32  S1  UNL     1       9.246  -7.835 -25.995  1.00  0.00    -0.010 SA
ENDBRANCH  24  26
ENDBRANCH  23  24
ENDBRANCH  22  23
ENDBRANCH  19  22
TORSDOF 4
ENDMDL