MODEL 4
REMARK VINA RESULT: -8.675002919      1.644      6.739
REMARK  6 active torsions:
REMARK  status: ('A' for Active; 'I' for Inactive)
REMARK    1  A    between atoms: O1_2  and  C2_3
REMARK    2  A    between atoms: C5_6  and  N1_7
REMARK    3  A    between atoms: N1_7  and  N2_9
REMARK    4  A    between atoms: C6_11  and  C7_13
REMARK    5  A    between atoms: N9_23  and  N10_25
REMARK    6  A    between atoms: C12_33  and  O3_34
ROOT
HETATM    1  C2  UNL     1       8.173  -5.827 -26.087  1.00  0.00     0.102 A
HETATM    2  C3  UNL     1       7.202  -4.897 -26.457  1.00  0.00     0.057 A
HETATM    3  C4  UNL     1       6.519  -4.198 -25.486  1.00  0.00     0.046 A
HETATM    4  C5  UNL     1       5.551  -3.269 -25.828  1.00  0.00     0.136 A
HETATM    5  N8  UNL     1       4.931  -2.628 -24.777  1.00  0.00    -0.305 N
ATOM      6  H8  UNL     1       4.209  -1.931 -24.957  1.00  0.00     0.171 HD
HETATM    7  C8  UNL     1       5.276  -2.919 -23.532  1.00  0.00     0.245 A
HETATM    8  N9  UNL     1       4.663  -2.289 -22.549  1.00  0.00    -0.263 N
ATOM      9  H9  UNL     1       3.942  -1.596 -22.752  1.00  0.00     0.190 HD
HETATM   10  O2  UNL     1       6.193  -3.801 -23.235  1.00  0.00    -0.277 OA
HETATM   11  C10 UNL     1       6.837  -4.460 -24.161  1.00  0.00     0.096 A
HETATM   12  C11 UNL     1       7.816  -5.399 -23.810  1.00  0.00     0.077 A
HETATM   13  C12 UNL     1       8.497  -6.097 -24.778  1.00  0.00     0.101 A
ENDROOT
BRANCH   4  14
HETATM   14  N1  UNL     1       5.191  -2.961 -26.980  1.00  0.00    -0.283 N
ATOM     15  H1  UNL     1       6.028  -2.929 -27.563  1.00  0.00     0.188 HD
BRANCH  14  16
HETATM   16  N2  UNL     1       4.159  -2.658 -27.750  1.00  0.00    -0.283 N
HETATM   17  C6  UNL     1       4.243  -1.843 -28.753  1.00  0.00     0.177 C
HETATM   18  N3  UNL     1       3.044  -1.620 -29.483  1.00  0.00    -0.077 NA
ATOM     19  H2  UNL     1       3.256  -3.086 -27.544  1.00  0.00     0.188 HD
BRANCH  17  20
HETATM   20  C7  UNL     1       5.451  -1.174 -29.150  1.00  0.00     0.174 A
HETATM   21  N4  UNL     1       6.421  -1.648 -29.935  1.00  0.00    -0.268 N
HETATM   22  N5  UNL     1       7.376  -0.713 -30.061  1.00  0.00    -0.007 NA
ATOM     23  H4  UNL     1       6.434  -2.570 -30.369  1.00  0.00     0.185 HD
HETATM   24  N6  UNL     1       7.004   0.342 -29.357  1.00  0.00    -0.007 NA
HETATM   25  N7  UNL     1       5.824   0.059 -28.798  1.00  0.00    -0.268 N
ATOM     26  H7  UNL     1       5.290   0.687 -28.197  1.00  0.00     0.185 HD
ENDBRANCH  17  20
ENDBRANCH  14  16
ENDBRANCH   4  14
BRANCH   1  27
HETATM   27  O1  UNL     1       8.860  -6.531 -27.067  1.00  0.00    -0.353 OA
HETATM   28  C1  UNL     1       8.780  -6.087 -28.404  1.00  0.00     0.210 C
ENDBRANCH   1  27
BRANCH   8  29
HETATM   29  N10 UNL     1       5.008  -2.577 -21.230  1.00  0.00    -0.273 N
HETATM   30  C9  UNL     1       4.144  -3.168 -20.488  1.00  0.00     0.215 C
HETATM   31  N11 UNL     1       4.472  -3.471 -19.150  1.00  0.00    -0.065 NA
HETATM   32  N12 UNL     1       2.868  -3.525 -20.978  1.00  0.00    -0.065 NA
ATOM     33  H10 UNL     1       5.926  -2.325 -20.864  1.00  0.00     0.189 HD
ENDBRANCH   8  29
BRANCH  13  34
HETATM   34  O3  UNL     1       9.479  -7.039 -24.438  1.00  0.00    -0.358 OA
ATOM     35  H3  UNL     1       9.462  -7.504 -23.610  1.00  0.00     0.217 HD
ENDBRANCH  13  34
TORSDOF 6
ENDMDL