MODEL 5
REMARK VINA RESULT: -6.873183583      2.268      3.787
REMARK  10 active torsions:
REMARK  status: ('A' for Active; 'I' for Inactive)
REMARK    1  A    between atoms: O1_2  and  C2_3
REMARK    2  A    between atoms: C7_9  and  O2_10
REMARK    3  A    between atoms: C10_15  and  C11_16
REMARK    4  A    between atoms: C11_16  and  N2_17
REMARK    5  A    between atoms: C11_16  and  N3_21
REMARK    6  A    between atoms: N3_21  and  O4_22
REMARK    7  A    between atoms: N3_21  and  O5_24
REMARK    8  A    between atoms: O5_24  and  N4_25
REMARK    9  A    between atoms: C12_28  and  C13_29
REMARK   10  A    between atoms: N5_30  and  O6_32
ROOT
HETATM    1  C2  UNL     1       8.771  -6.361 -26.101  1.00  0.00     0.126 A
HETATM    2  C3  UNL     1       8.908  -6.459 -27.467  1.00  0.00     0.084 A
HETATM    3  N1  UNL     1       9.790  -7.448 -27.994  1.00  0.00    -0.099 NA
HETATM    4  C4  UNL     1       8.195  -5.604 -28.289  1.00  0.00     0.060 A
HETATM    5  C5  UNL     1       7.355  -4.662 -27.774  1.00  0.00     0.053 A
HETATM    6  C6  UNL     1       7.233  -4.582 -26.402  1.00  0.00     0.077 A
HETATM    7  C7  UNL     1       7.931  -5.420 -25.559  1.00  0.00     0.117 A
HETATM    8  C8  UNL     1       6.439  -3.708 -25.688  1.00  0.00     0.188 C
HETATM    9  O3  UNL     1       6.192  -3.970 -24.508  1.00  0.00    -0.287 OA
HETATM   10  C9  UNL     1       5.877  -2.526 -26.193  1.00  0.00     0.068 C
HETATM   11  C10 UNL     1       5.594  -2.168 -27.486  1.00  0.00     0.023 C
HETATM   12  C12 UNL     1       6.257  -2.699 -28.603  1.00  0.00     0.062 C
HETATM   13  N6  UNL     1       6.756  -3.939 -28.772  1.00  0.00    -0.349 N
HETATM   14  C14 UNL     1       6.648  -4.578 -30.039  1.00  0.00     0.156 C
ENDROOT
BRANCH  11  15
HETATM   15  C11 UNL     1       4.562  -1.186 -27.698  1.00  0.00     0.350 C
BRANCH  15  16
HETATM   16  N2  UNL     1       3.242  -1.585 -27.246  1.00  0.00    -0.054 N
ATOM     17  H23 UNL     1       3.284  -1.922 -26.284  1.00  0.00     0.276 HD
ATOM     18  H22 UNL     1       2.648  -0.766 -27.120  1.00  0.00     0.276 HD
ATOM     19  H21 UNL     1       2.778  -2.271 -27.842  1.00  0.00     0.276 HD
ENDBRANCH  15  16
BRANCH  15  20
HETATM   20  N3  UNL     1       4.777   0.119 -27.105  1.00  0.00    -0.010 NA
BRANCH  20  21
HETATM   21  O4  UNL     1       5.267   1.035 -27.949  1.00  0.00    -0.285 OA
ATOM     22  H4  UNL     1       5.617   1.810 -27.526  1.00  0.00     0.239 HD
ENDBRANCH  20  21
BRANCH  20  23
HETATM   23  O5  UNL     1       3.716   0.599 -26.434  1.00  0.00    -0.162 OA
BRANCH  23  24
HETATM   24  N4  UNL     1       4.043   1.199 -25.279  1.00  0.00    -0.289 N
ATOM     25  H42 UNL     1       4.524   0.708 -24.526  1.00  0.00     0.186 HD
ATOM     26  H41 UNL     1       3.764   2.179 -25.239  1.00  0.00     0.186 HD
ENDBRANCH  23  24
ENDBRANCH  20  23
ENDBRANCH  15  20
ENDBRANCH  11  15
BRANCH  12  27
HETATM   27  C13 UNL     1       6.389  -1.804 -29.691  1.00  0.00     0.144 C
HETATM   28  N5  UNL     1       7.452  -1.154 -29.949  1.00  0.00    -0.278 N
ATOM     29  H5  UNL     1       8.244  -1.300 -29.322  1.00  0.00     0.193 HD
BRANCH  28  30
HETATM   30  O6  UNL     1       7.635  -0.285 -30.975  1.00  0.00    -0.290 OA
ATOM     31  H6  UNL     1       8.459  -0.086 -31.404  1.00  0.00     0.244 HD
ENDBRANCH  28  30
ENDBRANCH  12  27
BRANCH   7  32
HETATM   32  O2  UNL     1       7.757  -5.281 -24.192  1.00  0.00    -0.357 OA
ATOM     33  H2  UNL     1       7.061  -4.755 -23.819  1.00  0.00     0.217 HD
ENDBRANCH   7  32
BRANCH   1  34
HETATM   34  O1  UNL     1       9.474  -7.207 -25.236  1.00  0.00    -0.351 OA
HETATM   35  C1  UNL     1       8.862  -8.427 -24.792  1.00  0.00     0.210 C
ENDBRANCH   1  34
TORSDOF 10
ENDMDL