MODEL 5
REMARK VINA RESULT: -8.038842728      3.014      5.655
REMARK  8 active torsions:
REMARK  status: ('A' for Active; 'I' for Inactive)
REMARK       I    between atoms: C1_4  and  N2_5
REMARK       I    between atoms: C1_4  and  N5_21
REMARK    1  A    between atoms: N2_5  and  N3_7
REMARK       I    between atoms: N3_7  and  C2_9
REMARK    2  A    between atoms: C2_9  and  C3_11
REMARK    3  A    between atoms: C3_11  and  N4_12
REMARK    4  A    between atoms: C4_13  and  O2_14
REMARK    5  A    between atoms: C7_18  and  O3_19
REMARK    6  A    between atoms: N5_21  and  S1_23
REMARK    7  A    between atoms: S1_23  and  C8_26
REMARK    8  A    between atoms: N6_28  and  O6_29
ROOT
HETATM    1  N1  UNL     1       3.854  -2.079 -24.059  1.00  0.00    -0.233 N
ATOM      2  H11 UNL     1       3.469  -1.372 -24.685  1.00  0.00     0.174 HD
ATOM      3  H12 UNL     1       3.784  -2.079 -23.041  1.00  0.00     0.174 HD
HETATM    4  C1  UNL     1       4.503  -3.103 -24.581  1.00  0.00     0.700 C
HETATM    5  N2  UNL     1       5.032  -4.072 -23.724  1.00  0.00    -0.129 N
ATOM      6  H2  UNL     1       4.465  -4.324 -22.915  1.00  0.00     0.205 HD
HETATM    7  N5  UNL     1       4.602  -3.103 -26.005  1.00  0.00    -0.110 N
ATOM      8  H5  UNL     1       4.976  -3.913 -26.499  1.00  0.00     0.197 HD
ENDROOT
BRANCH   5   9
HETATM    9  N3  UNL     1       6.246  -4.728 -23.860  1.00  0.00    -0.254 N
HETATM   10  C2  UNL     1       7.409  -3.993 -24.153  1.00  0.00     0.254 C
HETATM   11  O1  UNL     1       7.342  -2.729 -24.299  1.00  0.00    -0.270 OA
ATOM     12  H3  UNL     1       6.296  -5.741 -23.748  1.00  0.00     0.190 HD
BRANCH  10  13
HETATM   13  C3  UNL     1       8.721  -4.625 -24.302  1.00  0.00     0.237 C
BRANCH  13  14
HETATM   14  N4  UNL     1       8.754  -5.846 -25.048  1.00  0.00    -0.300 N
HETATM   15  C4  UNL     1       8.973  -5.976 -26.358  1.00  0.00     0.144 A
HETATM   16  C5  UNL     1       8.951  -7.322 -26.641  1.00  0.00     0.060 A
HETATM   17  C6  UNL     1       8.711  -8.018 -25.469  1.00  0.00     0.060 A
HETATM   18  C7  UNL     1       8.593  -7.069 -24.487  1.00  0.00     0.144 A
BRANCH  15  19
HETATM   19  O2  UNL     1       9.180  -4.949 -27.259  1.00  0.00    -0.346 OA
ATOM     20  H2  UNL     1       8.699  -4.803 -28.065  1.00  0.00     0.219 HD
ENDBRANCH  15  19
BRANCH  18  21
HETATM   21  O3  UNL     1       8.345  -7.298 -23.118  1.00  0.00    -0.346 OA
ATOM     22  H3  UNL     1       8.074  -8.131 -22.750  1.00  0.00     0.219 HD
ENDBRANCH  18  21
ENDBRANCH  13  14
ENDBRANCH  10  13
ENDBRANCH   5   9
BRANCH   7  23
HETATM   23  S1  UNL     1       4.070  -1.691 -26.886  1.00  0.00     0.295 S
HETATM   24  O4  UNL     1       2.601  -1.546 -26.753  1.00  0.00    -0.198 OA
HETATM   25  O5  UNL     1       4.725  -0.465 -26.297  1.00  0.00    -0.198 OA
BRANCH  23  26
HETATM   26  C8  UNL     1       4.601  -1.760 -28.559  1.00  0.00     0.192 A
HETATM   27  C9  UNL     1       5.706  -2.450 -28.997  1.00  0.00     0.198 A
HETATM   28  N6  UNL     1       5.782  -2.228 -30.327  1.00  0.00    -0.111 N
HETATM   29  O7  UNL     1       4.798  -1.459 -30.676  1.00  0.00    -0.128 OA
HETATM   30  N7  UNL     1       4.058  -1.151 -29.626  1.00  0.00    -0.225 N
ATOM     31  H7  UNL     1       3.227  -0.560 -29.626  1.00  0.00     0.198 HD
BRANCH  28  32
HETATM   32  O6  UNL     1       6.768  -2.751 -31.155  1.00  0.00    -0.262 OA
ATOM     33  H6  UNL     1       6.917  -2.476 -32.052  1.00  0.00     0.247 HD
ENDBRANCH  28  32
ENDBRANCH  23  26
ENDBRANCH   7  23
TORSDOF 8
ENDMDL