MODEL 3
REMARK VINA RESULT: -8.130342020      2.357      2.866
REMARK  10 active torsions:
REMARK  status: ('A' for Active; 'I' for Inactive)
REMARK    1  A    between atoms: S1_2  and  N1_4
REMARK    2  A    between atoms: S1_2  and  C14_25
REMARK       I    between atoms: N1_4  and  C2_6
REMARK    3  A    between atoms: C2_6  and  O3_8
REMARK    4  A    between atoms: O3_8  and  C3_9
REMARK    5  A    between atoms: C3_9  and  C4_10
REMARK    6  A    between atoms: C3_9  and  C12_21
REMARK    7  A    between atoms: C4_10  and  C5_11
REMARK    8  A    between atoms: C5_11  and  C6_13
REMARK    9  A    between atoms: C11_18  and  O5_19
REMARK   10  A    between atoms: C12_21  and  O7_23
ROOT
HETATM    1  O3  UNL     1     -19.121  10.116 -11.174  1.00  0.00    -0.287 OA
ENDROOT
BRANCH   1   2
HETATM    2  C2  UNL     1     -17.890   9.485 -11.425  1.00  0.00     0.372 C
HETATM    3  N1  UNL     1     -17.012   9.161 -10.367  1.00  0.00    -0.259 N
ATOM      4  H1  UNL     1     -17.302   9.399  -9.418  1.00  0.00     0.181 HD
HETATM    5  O2  UNL     1     -17.633   9.239 -12.615  1.00  0.00    -0.238 OA
BRANCH   3   6
HETATM    6  S1  UNL     1     -15.511   8.404 -10.562  1.00  0.00     0.058 S
HETATM    7  C1  UNL     1     -15.592   7.103 -11.492  1.00  0.00     0.142 C
HETATM    8  O1  UNL     1     -14.632   9.299 -11.465  1.00  0.00    -0.245 OA
BRANCH   6   9
HETATM    9  C14 UNL     1     -14.660   8.061  -9.097  1.00  0.00     0.061 A
HETATM   10  C15 UNL     1     -13.276   8.229  -9.054  1.00  0.00     0.049 A
HETATM   11  C16 UNL     1     -12.518   7.949  -7.948  1.00  0.00     0.057 A
HETATM   12 CL1  UNL     1     -10.779   8.186  -7.969  1.00  0.00    -0.083 Cl
HETATM   13  C17 UNL     1     -13.181   7.473  -6.819  1.00  0.00     0.057 A
HETATM   14 CL2  UNL     1     -12.194   7.112  -5.390  1.00  0.00    -0.082 Cl
HETATM   15  C18 UNL     1     -14.545   7.294  -6.821  1.00  0.00     0.051 A
HETATM   16  C19 UNL     1     -15.274   7.593  -7.966  1.00  0.00     0.055 A
HETATM   17 CL3  UNL     1     -17.019   7.391  -7.897  1.00  0.00    -0.083 Cl
ENDBRANCH   6   9
ENDBRANCH   3   6
ENDBRANCH   1   2
BRANCH   1  18
HETATM   18  C3  UNL     1     -20.354   9.421 -11.404  1.00  0.00     0.240 C
BRANCH  18  19
HETATM   19  C4  UNL     1     -20.345   8.120 -10.670  1.00  0.00     0.127 C
BRANCH  19  20
HETATM   20  C5  UNL     1     -21.013   7.065 -11.440  1.00  0.00     0.165 C
HETATM   21  O4  UNL     1     -20.835   7.039 -12.687  1.00  0.00    -0.292 OA
BRANCH  20  22
HETATM   22  C6  UNL     1     -21.871   6.033 -10.897  1.00  0.00     0.043 A
HETATM   23  C7  UNL     1     -21.398   4.727 -10.734  1.00  0.00     0.018 A
HETATM   24  C8  UNL     1     -22.187   3.720 -10.219  1.00  0.00     0.001 A
HETATM   25  C9  UNL     1     -23.475   3.991  -9.850  1.00  0.00     0.003 A
HETATM   26  C10 UNL     1     -23.974   5.270  -9.997  1.00  0.00     0.037 A
HETATM   27  C11 UNL     1     -23.162   6.287 -10.523  1.00  0.00     0.079 A
BRANCH  27  28
HETATM   28  O5  UNL     1     -23.691   7.550 -10.656  1.00  0.00    -0.360 OA
ATOM     29  H5  UNL     1     -24.597   7.718 -10.429  1.00  0.00     0.217 HD
ENDBRANCH  27  28
ENDBRANCH  20  22
ENDBRANCH  19  20
ENDBRANCH  18  19
BRANCH  18  30
HETATM   30  C12 UNL     1     -21.494  10.282 -10.877  1.00  0.00     0.288 C
HETATM   31  O6  UNL     1     -22.483  10.432 -11.584  1.00  0.00    -0.262 OA
BRANCH  30  32
HETATM   32  O7  UNL     1     -21.331  10.834  -9.633  1.00  0.00    -0.324 OA
HETATM   33  C13 UNL     1     -22.158  10.488  -8.526  1.00  0.00     0.213 C
ENDBRANCH  30  32
ENDBRANCH  18  30
ENDBRANCH   1  18
TORSDOF 10
ENDMDL