MODEL 1
REMARK VINA RESULT: -9.698107872      0.000      0.000
REMARK  8 active torsions:
REMARK  status: ('A' for Active; 'I' for Inactive)
REMARK    1  A    between atoms: C2_3  and  C3_4
REMARK    2  A    between atoms: C6_7  and  C7_8
REMARK    3  A    between atoms: C17_21  and  C18_22
REMARK       I    between atoms: C18_22  and  N2_24
REMARK    4  A    between atoms: N2_24  and  C19_25
REMARK    5  A    between atoms: C19_25  and  C20_26
REMARK    6  A    between atoms: C20_26  and  N3_27
REMARK       I    between atoms: N3_27  and  C21_29
REMARK    7  A    between atoms: C21_29  and  O5_31
REMARK    8  A    between atoms: O5_31  and  C22_32
ROOT
HETATM    1  N1  UNL     1     -22.186  10.733 -11.228  1.00  0.00    -0.197 NA
HETATM    2  C1  UNL     1     -21.567  10.020 -10.556  1.00  0.00     0.059 C
HETATM    3  C2  UNL     1     -20.756   9.123  -9.685  1.00  0.00     0.134 C
ENDROOT
BRANCH   3   4
HETATM    4  C3  UNL     1     -19.426   9.016 -10.329  1.00  0.00     0.065 C
HETATM    5  C4  UNL     1     -19.626   9.116 -11.845  1.00  0.00     0.012 C
HETATM    6  C5  UNL     1     -20.012   7.699 -12.212  1.00  0.00     0.015 C
HETATM    7  C6  UNL     1     -19.251   6.796 -11.218  1.00  0.00     0.084 C
HETATM    8  C13 UNL     1     -18.728   7.692 -10.237  1.00  0.00     0.212 C
HETATM    9  O1  UNL     1     -18.516   7.266  -8.953  1.00  0.00    -0.196 OA
HETATM   10  O6  UNL     1     -17.394   8.021 -10.624  1.00  0.00    -0.312 OA
HETATM   11  O2  UNL     1     -17.358   6.653  -8.988  1.00  0.00    -0.197 OA
HETATM   12  C14 UNL     1     -16.577   7.648  -9.560  1.00  0.00     0.200 C
HETATM   13  C15 UNL     1     -15.273   7.175 -10.107  1.00  0.00     0.072 C
HETATM   14  C24 UNL     1     -16.392   8.747  -8.568  1.00  0.00     0.072 C
HETATM   15  C16 UNL     1     -14.126   7.124  -9.187  1.00  0.00     0.020 C
HETATM   16  C17 UNL     1     -14.185   7.902  -7.931  1.00  0.00     0.093 C
HETATM   17  C23 UNL     1     -15.544   8.223  -7.437  1.00  0.00     0.020 C
BRANCH   7  18
HETATM   18  C7  UNL     1     -20.154   5.704 -10.931  1.00  0.00    -0.049 A
HETATM   19  C8  UNL     1     -19.858   4.450 -10.524  1.00  0.00     0.011 A
HETATM   20  C9  UNL     1     -20.840   3.528 -10.261  1.00  0.00     0.043 A
HETATM   21  C10 UNL     1     -22.182   3.825 -10.396  1.00  0.00     0.116 A
HETATM   22  F1  UNL     1     -23.183   2.965 -10.150  1.00  0.00    -0.206 F
HETATM   23  C11 UNL     1     -22.491   5.089 -10.806  1.00  0.00     0.043 A
HETATM   24  C12 UNL     1     -21.519   6.005 -11.068  1.00  0.00     0.011 A
ENDBRANCH   7  18
BRANCH  16  25
HETATM   25  C18 UNL     1     -13.388   9.209  -8.065  1.00  0.00     0.295 C
HETATM   26  O3  UNL     1     -13.572  10.046  -7.150  1.00  0.00    -0.257 OA
HETATM   27  N2  UNL     1     -12.592   9.301  -9.135  1.00  0.00    -0.386 NA
BRANCH  27  28
HETATM   28  C19 UNL     1     -11.777   9.397 -10.231  1.00  0.00     0.178 C
BRANCH  28  29
HETATM   29  C20 UNL     1     -12.268  10.237 -11.403  1.00  0.00     0.184 C
BRANCH  29  30
HETATM   30  N3  UNL     1     -13.730  10.129 -11.426  1.00  0.00    -0.331 N
HETATM   31  C21 UNL     1     -14.557  11.214 -11.062  1.00  0.00     0.365 C
HETATM   32  O4  UNL     1     -14.025  12.304 -10.710  1.00  0.00    -0.238 OA
ATOM     33  H3  UNL     1     -14.160   9.249 -11.711  1.00  0.00     0.165 HD
BRANCH  31  34
HETATM   34  O5  UNL     1     -15.916  11.096 -11.089  1.00  0.00    -0.240 OA
BRANCH  34  35
HETATM   35  C22 UNL     1     -16.641  11.336 -12.266  1.00  0.00     0.508 C
HETATM   36  F2  UNL     1     -16.778  10.152 -12.997  1.00  0.00    -0.184 F
HETATM   37  F3  UNL     1     -17.885  11.867 -12.011  1.00  0.00    -0.184 F
ENDBRANCH  34  35
ENDBRANCH  31  34
ENDBRANCH  29  30
ENDBRANCH  28  29
ENDBRANCH  27  28
ENDBRANCH  16  25
ENDBRANCH   3   4
TORSDOF 8
ENDMDL