MODEL 4
REMARK VINA RESULT: -9.232195794      3.224      7.888
REMARK  9 active torsions:
REMARK  status: ('A' for Active; 'I' for Inactive)
REMARK    1  A    between atoms: C5_6  and  C6_7
REMARK    2  A    between atoms: C6_7  and  N2_8
REMARK    3  A    between atoms: C6_7  and  C7_12
REMARK    4  A    between atoms: C7_12  and  O2_14
REMARK    5  A    between atoms: O2_14  and  C8_15
REMARK    6  A    between atoms: C8_15  and  C9_16
REMARK    7  A    between atoms: C8_15  and  C19_31
REMARK    8  A    between atoms: C9_16  and  C10_17
REMARK    9  A    between atoms: C12_20  and  C13_21
ROOT
HETATM    1  N1  UNL     1     -26.061   3.261  -5.884  1.00  0.00    -0.190 NA
HETATM    2  C1  UNL     1     -25.995   3.235  -7.037  1.00  0.00     0.117 C
HETATM    3  C2  UNL     1     -25.905   3.230  -8.490  1.00  0.00     0.114 A
HETATM    4  C3  UNL     1     -26.784   2.582  -9.305  1.00  0.00     0.043 A
HETATM    5  C4  UNL     1     -26.361   2.819 -10.598  1.00  0.00     0.030 A
HETATM    6  C5  UNL     1     -25.243   3.599 -10.560  1.00  0.00     0.050 A
HETATM    7  N4  UNL     1     -24.980   3.840  -9.246  1.00  0.00    -0.349 N
ATOM      8  H4  UNL     1     -24.203   4.396  -8.892  1.00  0.00     0.166 HD
ENDROOT
BRANCH   6   9
HETATM    9  C6  UNL     1     -24.467   4.093 -11.726  1.00  0.00     0.332 C
BRANCH   9  10
HETATM   10  N2  UNL     1     -25.277   4.840 -12.634  1.00  0.00    -0.060 N
ATOM     11  H23 UNL     1     -25.236   4.445 -13.575  1.00  0.00     0.275 HD
ATOM     12  H22 UNL     1     -26.269   4.702 -12.443  1.00  0.00     0.275 HD
ATOM     13  H21 UNL     1     -25.036   5.831 -12.638  1.00  0.00     0.275 HD
ENDBRANCH   9  10
BRANCH   9  14
HETATM   14  C7  UNL     1     -23.221   4.739 -11.314  1.00  0.00     0.300 C
HETATM   15  O1  UNL     1     -22.414   4.134 -10.547  1.00  0.00    -0.262 OA
BRANCH  14  16
HETATM   16  O2  UNL     1     -22.780   6.021 -11.681  1.00  0.00    -0.280 OA
BRANCH  16  17
HETATM   17  C8  UNL     1     -21.562   6.545 -11.304  1.00  0.00     0.071 C
BRANCH  17  18
HETATM   18  C9  UNL     1     -20.689   5.595 -10.534  1.00  0.00     0.100 C
BRANCH  18  19
HETATM   19  C10 UNL     1     -19.252   5.636 -10.816  1.00  0.00     0.154 C
HETATM   20  C11 UNL     1     -18.548   4.322 -10.762  1.00  0.00     0.203 C
HETATM   21  O3  UNL     1     -17.176   4.691 -10.568  1.00  0.00    -0.357 OA
HETATM   22  C12 UNL     1     -17.242   6.000 -10.206  1.00  0.00     0.283 C
HETATM   23  O4  UNL     1     -18.519   6.300  -9.793  1.00  0.00    -0.352 OA
BRANCH  22  24
HETATM   24  C13 UNL     1     -16.202   6.343  -9.156  1.00  0.00     0.104 C
HETATM   25  C14 UNL     1     -15.837   5.188  -8.357  1.00  0.00     0.074 C
HETATM   26  N3  UNL     1     -15.525   4.279  -7.721  1.00  0.00    -0.196 NA
HETATM   27  C15 UNL     1     -14.980   7.024  -9.733  1.00  0.00     0.036 C
HETATM   28  C16 UNL     1     -14.428   7.836  -8.553  1.00  0.00     0.081 C
HETATM   29  C17 UNL     1     -15.582   8.043  -7.618  1.00  0.00     0.245 C
HETATM   30  F1  UNL     1     -15.408   7.425  -6.393  1.00  0.00    -0.206 F
HETATM   31  F2  UNL     1     -15.837   9.390  -7.419  1.00  0.00    -0.206 F
HETATM   32  C18 UNL     1     -16.774   7.449  -8.300  1.00  0.00     0.108 C
ENDBRANCH  22  24
ENDBRANCH  18  19
ENDBRANCH  17  18
BRANCH  17  33
HETATM   33  C19 UNL     1     -21.539   7.937 -10.920  1.00  0.00     0.015 A
HETATM   34  C20 UNL     1     -22.501   8.470 -10.046  1.00  0.00     0.015 A
HETATM   35  C21 UNL     1     -22.447   9.762  -9.585  1.00  0.00     0.001 A
HETATM   36  C22 UNL     1     -21.447  10.621  -9.948  1.00  0.00     0.002 A
HETATM   37  C23 UNL     1     -20.492  10.147 -10.796  1.00  0.00     0.025 A
HETATM   38  C24 UNL     1     -20.549   8.859 -11.254  1.00  0.00     0.046 A
HETATM   39 CL1  UNL     1     -19.259   8.424 -12.377  1.00  0.00    -0.083 Cl
ENDBRANCH  17  33
ENDBRANCH  16  17
ENDBRANCH  14  16
ENDBRANCH   9  14
ENDBRANCH   6   9
TORSDOF 9
ENDMDL