MODEL 2
REMARK VINA RESULT: -8.740623955      5.101     11.246
REMARK  8 active torsions:
REMARK  status: ('A' for Active; 'I' for Inactive)
REMARK    1  A    between atoms: C4_6  and  N2_7
REMARK    2  A    between atoms: N2_7  and  C5_9
REMARK    3  A    between atoms: N4_13  and  C7_14
REMARK    4  A    between atoms: C7_14  and  C8_15
REMARK    5  A    between atoms: C8_15  and  S1_16
REMARK    6  A    between atoms: S1_16  and  C9_17
REMARK    7  A    between atoms: C9_17  and  C10_18
REMARK    8  A    between atoms: C13_24  and  C14_25
ROOT
HETATM    1  C1  UNL     1     -27.626   0.598  -2.326  1.00  0.00     0.019 C
HETATM    2  C2  UNL     1     -27.321   1.359  -3.225  1.00  0.00    -0.056 C
HETATM    3  C3  UNL     1     -26.939   2.243  -4.293  1.00  0.00     0.126 A
HETATM    4  N1  UNL     1     -26.402   1.708  -5.384  1.00  0.00    -0.332 N
ATOM      5  H1  UNL     1     -26.269   0.700  -5.450  1.00  0.00     0.168 HD
HETATM    6  C4  UNL     1     -26.035   2.507  -6.400  1.00  0.00     0.122 A
HETATM    7  C20 UNL     1     -26.213   3.857  -6.308  1.00  0.00     0.137 A
HETATM    8  N7  UNL     1     -26.763   4.378  -5.186  1.00  0.00    -0.351 N
ATOM      9  H7  UNL     1     -26.897   5.386  -5.117  1.00  0.00     0.166 HD
HETATM   10  C21 UNL     1     -27.136   3.597  -4.160  1.00  0.00     0.139 A
HETATM   11 CL3  UNL     1     -27.838   4.307  -2.735  1.00  0.00    -0.061 Cl
ENDROOT
BRANCH   6  12
HETATM   12  N2  UNL     1     -25.515   1.947  -7.448  1.00  0.00    -0.339 N
ATOM     13  H2  UNL     1     -25.010   1.067  -7.343  1.00  0.00     0.167 HD
BRANCH  12  14
HETATM   14  C5  UNL     1     -25.635   2.534  -8.744  1.00  0.00     0.068 A
HETATM   15  C6  UNL     1     -26.745   2.486  -9.545  1.00  0.00     0.138 A
HETATM   16  N3  UNL     1     -26.420   3.159 -10.668  1.00  0.00    -0.308 N
HETATM   17  N4  UNL     1     -25.186   3.605 -10.588  1.00  0.00    -0.301 N
ATOM     18  H3  UNL     1     -27.041   3.301 -11.465  1.00  0.00     0.186 HD
HETATM   19  C19 UNL     1     -24.663   3.249  -9.430  1.00  0.00     0.141 A
BRANCH  17  20
HETATM   20  C7  UNL     1     -24.531   4.380 -11.661  1.00  0.00     0.158 C
BRANCH  20  21
HETATM   21  C8  UNL     1     -23.133   4.636 -11.175  1.00  0.00     0.095 C
BRANCH  21  22
HETATM   22  S1  UNL     1     -22.676   6.298 -10.806  1.00  0.00    -0.167 SA
BRANCH  22  23
HETATM   23  C9  UNL     1     -21.218   6.946 -11.580  1.00  0.00     0.080 C
BRANCH  23  24
HETATM   24  C10 UNL     1     -21.163   8.411 -11.597  1.00  0.00     0.032 C
HETATM   25  C11 UNL     1     -21.867   9.089 -10.419  1.00  0.00     0.238 C
HETATM   26  N5  UNL     1     -21.640  10.478 -10.769  1.00  0.00    -0.074 N
HETATM   27  C12 UNL     1     -20.267  10.542 -11.207  1.00  0.00     0.243 C
ATOM     28  H52 UNL     1     -22.306  10.845 -11.449  1.00  0.00     0.277 HD
ATOM     29  H51 UNL     1     -21.863  11.131 -10.019  1.00  0.00     0.277 HD
HETATM   30  C13 UNL     1     -19.868   9.105 -11.609  1.00  0.00     0.069 C
BRANCH  30  31
HETATM   31  C14 UNL     1     -18.854   8.691 -10.641  1.00  0.00     0.037 A
HETATM   32  N6  UNL     1     -19.076   8.185  -9.429  1.00  0.00    -0.366 N
HETATM   33  C15 UNL     1     -18.136   7.825  -8.556  1.00  0.00     0.112 A
ATOM     34  H6  UNL     1     -20.048   8.064  -9.144  1.00  0.00     0.165 HD
HETATM   35  C16 UNL     1     -16.793   7.960  -8.868  1.00  0.00     0.051 A
HETATM   36 CL1  UNL     1     -15.520   7.498  -7.751  1.00  0.00    -0.083 Cl
HETATM   37  C17 UNL     1     -16.501   8.482 -10.121  1.00  0.00     0.051 A
HETATM   38  C18 UNL     1     -17.511   8.840 -10.991  1.00  0.00     0.058 A
HETATM   39 CL2  UNL     1     -17.114   9.495 -12.562  1.00  0.00    -0.082 Cl
ENDBRANCH  30  31
ENDBRANCH  23  24
ENDBRANCH  22  23
ENDBRANCH  21  22
ENDBRANCH  20  21
ENDBRANCH  17  20
ENDBRANCH  12  14
ENDBRANCH   6  12
TORSDOF 8
ENDMDL