MODEL 1
REMARK VINA RESULT: -8.892492850      0.000      0.000
REMARK  8 active torsions:
REMARK  status: ('A' for Active; 'I' for Inactive)
REMARK    1  A    between atoms: O1_2  and  C2_3
REMARK    2  A    between atoms: C2_3  and  C3_5
REMARK    3  A    between atoms: C3_5  and  C4_6
REMARK    4  A    between atoms: C4_6  and  C5_7
REMARK    5  A    between atoms: C5_7  and  N1_8
REMARK    6  A    between atoms: C8_12  and  C9_13
REMARK    7  A    between atoms: N2_15  and  N3_17
REMARK    8  A    between atoms: N3_17  and  C10_19
ROOT
HETATM    1  C9  UNL     1     -18.403   8.284 -10.866  1.00  0.00     0.119 C
HETATM    2 CL1  UNL     1     -17.774   9.697 -11.665  1.00  0.00    -0.063 Cl
HETATM    3  N2  UNL     1     -19.125   7.479 -11.533  1.00  0.00    -0.289 N
ATOM      4  H2  UNL     1     -19.303   7.707 -12.512  1.00  0.00     0.188 HD
ENDROOT
BRANCH   3   5
HETATM    5  N3  UNL     1     -19.703   6.290 -11.022  1.00  0.00    -0.298 N
ATOM      6  H3  UNL     1     -19.160   5.447 -10.840  1.00  0.00     0.187 HD
BRANCH   5   7
HETATM    7  C10 UNL     1     -21.098   6.372 -10.785  1.00  0.00     0.069 A
HETATM    8  C11 UNL     1     -21.778   7.572 -10.844  1.00  0.00     0.106 A
HETATM    9  C12 UNL     1     -23.141   7.689 -10.630  1.00  0.00     0.248 A
HETATM   10  O4  UNL     1     -23.778   8.766 -10.677  1.00  0.00    -0.268 OA
HETATM   11  N4  UNL     1     -23.774   6.536 -10.355  1.00  0.00    -0.320 N
HETATM   12  C13 UNL     1     -23.178   5.353 -10.286  1.00  0.00     0.089 A
ATOM     13  H4  UNL     1     -24.780   6.573 -10.189  1.00  0.00     0.169 HD
HETATM   14  C14 UNL     1     -23.890   4.188 -10.015  1.00  0.00     0.144 A
HETATM   15  C18 UNL     1     -21.800   5.222 -10.500  1.00  0.00     0.061 A
HETATM   16  F1  UNL     1     -25.238   4.334  -9.803  1.00  0.00    -0.204 F
HETATM   17  C15 UNL     1     -23.319   2.937  -9.949  1.00  0.00     0.048 A
HETATM   18  C16 UNL     1     -21.978   2.821 -10.158  1.00  0.00     0.046 A
HETATM   19  C17 UNL     1     -21.228   3.968 -10.432  1.00  0.00     0.131 A
HETATM   20  F2  UNL     1     -19.894   3.841 -10.627  1.00  0.00    -0.205 F
ENDBRANCH   5   7
ENDBRANCH   3   5
BRANCH   1  21
HETATM   21  C8  UNL     1     -18.092   8.056  -9.470  1.00  0.00     0.068 C
HETATM   22  C7  UNL     1     -16.957   7.570  -9.046  1.00  0.00     0.079 C
HETATM   23  C6  UNL     1     -16.439   7.268  -7.725  1.00  0.00     0.266 C
HETATM   24  S1  UNL     1     -15.569   7.005 -10.096  1.00  0.00    -0.055 SA
HETATM   25  N1  UNL     1     -15.485   6.224  -7.686  1.00  0.00    -0.298 N
HETATM   26  O3  UNL     1     -16.845   7.930  -6.691  1.00  0.00    -0.266 OA
HETATM   27  C19 UNL     1     -15.179   5.636  -8.939  1.00  0.00     0.148 C
HETATM   28  S2  UNL     1     -14.642   4.163  -9.316  1.00  0.00    -0.052 SA
BRANCH  25  29
HETATM   29  C5  UNL     1     -14.846   5.764  -6.436  1.00  0.00     0.134 C
BRANCH  29  30
HETATM   30  C4  UNL     1     -13.850   6.739  -5.896  1.00  0.00     0.030 C
BRANCH  30  31
HETATM   31  C3  UNL     1     -12.805   7.025  -6.980  1.00  0.00     0.113 C
BRANCH  31  32
HETATM   32  C2  UNL     1     -12.617   8.483  -7.172  1.00  0.00     0.258 C
HETATM   33  O2  UNL     1     -11.460   8.909  -7.484  1.00  0.00    -0.265 OA
BRANCH  32  34
HETATM   34  O1  UNL     1     -13.652   9.414  -7.030  1.00  0.00    -0.326 OA
HETATM   35  C1  UNL     1     -14.067  10.108  -8.213  1.00  0.00     0.213 C
ENDBRANCH  32  34
ENDBRANCH  31  32
ENDBRANCH  30  31
ENDBRANCH  29  30
ENDBRANCH  25  29
ENDBRANCH   1  21
TORSDOF 8
ENDMDL