MODEL 5
REMARK VINA RESULT: -8.390643839      2.443      4.440
REMARK  8 active torsions:
REMARK  status: ('A' for Active; 'I' for Inactive)
REMARK    1  A    between atoms: C2_2  and  O1_3
REMARK    2  A    between atoms: O1_3  and  C3_4
REMARK    3  A    between atoms: C3_4  and  C4_5
REMARK    4  A    between atoms: C4_5  and  C5_6
REMARK    5  A    between atoms: C5_6  and  C6_7
REMARK    6  A    between atoms: C7_8  and  C8_9
REMARK    7  A    between atoms: N3_17  and  C9_18
REMARK    8  A    between atoms: C18_29  and  C19_30
ROOT
HETATM    1  C5  UNL     1     -18.093   7.773 -10.199  1.00  0.00     0.028 C
HETATM    2  C15 UNL     1     -17.695   7.769  -8.706  1.00  0.00     0.021 C
HETATM    3  C16 UNL     1     -16.409   8.394  -8.396  1.00  0.00     0.018 C
HETATM    4  C17 UNL     1     -15.193   7.595  -8.713  1.00  0.00     0.116 C
HETATM    5  N4  UNL     1     -15.622   6.246  -8.852  1.00  0.00    -0.193 NA
HETATM    6  N5  UNL     1     -14.647   5.353  -8.500  1.00  0.00    -0.134 NA
HETATM    7  C18 UNL     1     -15.130   4.002  -8.307  1.00  0.00     0.197 C
HETATM    8  N6  UNL     1     -16.309   3.752  -9.158  1.00  0.00    -0.336 N
ATOM      9  H6  UNL     1     -16.930   2.972  -8.943  1.00  0.00     0.164 HD
HETATM   10  C22 UNL     1     -16.591   4.584 -10.273  1.00  0.00     0.265 C
HETATM   11  O2  UNL     1     -17.141   4.102 -11.276  1.00  0.00    -0.266 OA
HETATM   12  C23 UNL     1     -16.187   5.997 -10.129  1.00  0.00     0.092 C
HETATM   13  C24 UNL     1     -16.973   7.024 -10.824  1.00  0.00     0.020 C
ENDROOT
BRANCH   1  14
HETATM   14  C4  UNL     1     -19.290   6.807 -10.120  1.00  0.00     0.046 C
BRANCH  14  15
HETATM   15  C3  UNL     1     -19.778   6.353 -11.440  1.00  0.00     0.169 C
BRANCH  15  16
HETATM   16  O1  UNL     1     -20.953   5.624 -11.215  1.00  0.00    -0.391 OA
BRANCH  16  17
HETATM   17  C2  UNL     1     -20.604   4.456 -10.517  1.00  0.00     0.163 C
HETATM   18  C1  UNL     1     -21.895   3.770 -10.143  1.00  0.00     0.033 C
ENDBRANCH  16  17
ENDBRANCH  15  16
ENDBRANCH  14  15
ENDBRANCH   1  14
BRANCH   1  19
HETATM   19  C6  UNL     1     -18.439   9.059 -10.764  1.00  0.00     0.076 A
HETATM   20  C7  UNL     1     -19.653   9.747 -10.673  1.00  0.00     0.159 A
HETATM   21  N1  UNL     1     -19.524  10.875 -11.471  1.00  0.00    -0.280 N
HETATM   22  N2  UNL     1     -18.354  10.898 -12.006  1.00  0.00    -0.239 N
ATOM     23  H1  UNL     1     -20.248  11.580 -11.612  1.00  0.00     0.188 HD
HETATM   24  N3  UNL     1     -17.655   9.792 -11.592  1.00  0.00    -0.274 N
ATOM     25  H2  UNL     1     -18.003  11.620 -12.635  1.00  0.00     0.208 HD
BRANCH  20  26
HETATM   26  C8  UNL     1     -20.848   9.534  -9.935  1.00  0.00     0.436 C
HETATM   27  F1  UNL     1     -20.787   9.354  -8.566  1.00  0.00    -0.165 F
HETATM   28  F2  UNL     1     -21.886   8.825 -10.502  1.00  0.00    -0.165 F
HETATM   29  F3  UNL     1     -21.547  10.797  -9.893  1.00  0.00    -0.165 F
ENDBRANCH  20  26
BRANCH  24  30
HETATM   30  C9  UNL     1     -16.364   9.699 -12.137  1.00  0.00     0.109 C
HETATM   31  C10 UNL     1     -15.434  10.511 -11.188  1.00  0.00     0.027 C
HETATM   32  C11 UNL     1     -13.999  10.323 -11.572  1.00  0.00     0.002 C
HETATM   33  C12 UNL     1     -13.799  11.021 -12.905  1.00  0.00     0.000 C
HETATM   34  C13 UNL     1     -14.799  10.416 -13.864  1.00  0.00     0.002 C
HETATM   35  C14 UNL     1     -16.231  10.604 -13.418  1.00  0.00     0.027 C
ENDBRANCH  24  30
ENDBRANCH   1  19
BRANCH   7  36
HETATM   36  C19 UNL     1     -15.412   3.790  -6.854  1.00  0.00     0.017 C
HETATM   37  C20 UNL     1     -14.402   4.560  -6.059  1.00  0.00     0.013 C
HETATM   38  C21 UNL     1     -15.468   2.332  -6.460  1.00  0.00     0.013 C
ENDBRANCH   7  36
TORSDOF 8
ENDMDL