MODEL 3
REMARK VINA RESULT: -9.031754256      1.397      2.762
REMARK  11 active torsions:
REMARK  status: ('A' for Active; 'I' for Inactive)
REMARK    1  A    between atoms: C2_2  and  O1_3
REMARK    2  A    between atoms: O1_3  and  C3_4
REMARK    3  A    between atoms: C3_4  and  C4_6
REMARK    4  A    between atoms: C7_13  and  C8_14
REMARK       I    between atoms: C8_14  and  N3_16
REMARK    5  A    between atoms: C9_18  and  O4_19
REMARK    6  A    between atoms: C9_18  and  C10_21
REMARK    7  A    between atoms: C10_21  and  O5_22
REMARK    8  A    between atoms: C10_21  and  C20_36
REMARK    9  A    between atoms: O5_22  and  C11_23
REMARK       I    between atoms: C11_23  and  N4_25
REMARK   10  A    between atoms: N4_25  and  C12_27
REMARK   11  A    between atoms: C12_27  and  C15_30
ROOT
HETATM    1  C8  UNL     1     -18.339   7.666 -10.353  1.00  0.00     0.262 C
HETATM    2  O3  UNL     1     -18.647   7.057  -9.311  1.00  0.00    -0.267 OA
HETATM    3  N3  UNL     1     -19.213   8.531 -11.089  1.00  0.00    -0.304 N
ATOM      4  H3  UNL     1     -18.799   8.927 -11.934  1.00  0.00     0.171 HD
HETATM    5  C9  UNL     1     -20.501   8.919 -10.860  1.00  0.00     0.158 C
ENDROOT
BRANCH   5   6
HETATM    6  O4  UNL     1     -20.982   9.603 -11.956  1.00  0.00    -0.347 OA
ATOM      7  H4  UNL     1     -21.896   9.823 -11.820  1.00  0.00     0.219 HD
ENDBRANCH   5   6
BRANCH   5   8
HETATM    8  C10 UNL     1     -21.517   8.846  -9.852  1.00  0.00     0.315 C
BRANCH   8   9
HETATM    9  O5  UNL     1     -22.713   8.173 -10.328  1.00  0.00    -0.281 OA
BRANCH   9  10
HETATM   10  C11 UNL     1     -22.713   6.874 -10.809  1.00  0.00     0.362 C
HETATM   11  O6  UNL     1     -21.775   6.544 -11.549  1.00  0.00    -0.238 OA
HETATM   12  N4  UNL     1     -23.786   5.983 -10.425  1.00  0.00    -0.324 N
ATOM     13  H4  UNL     1     -24.522   6.311  -9.799  1.00  0.00     0.165 HD
BRANCH  12  14
HETATM   14  C12 UNL     1     -23.817   4.613 -10.931  1.00  0.00     0.061 C
HETATM   15  C13 UNL     1     -22.558   3.868 -10.657  1.00  0.00     0.044 C
HETATM   16  C14 UNL     1     -24.218   4.527 -12.375  1.00  0.00     0.044 C
BRANCH  14  17
HETATM   17  C15 UNL     1     -24.904   3.888 -10.138  1.00  0.00     0.010 A
HETATM   18  C16 UNL     1     -25.048   3.757  -8.792  1.00  0.00     0.024 A
HETATM   19  C17 UNL     1     -26.115   3.062  -8.352  1.00  0.00    -0.054 A
HETATM   20  C18 UNL     1     -26.419   2.825  -6.885  1.00  0.00     0.048 C
HETATM   21  C19 UNL     1     -26.964   2.547  -9.297  1.00  0.00     0.056 A
HETATM   22  S1  UNL     1     -26.246   3.046 -10.753  1.00  0.00    -0.103 SA
ENDBRANCH  14  17
ENDBRANCH  12  14
ENDBRANCH   9  10
ENDBRANCH   8   9
BRANCH   8  23
HETATM   23  C20 UNL     1     -22.018  10.276  -9.474  1.00  0.00     0.421 C
HETATM   24  F1  UNL     1     -21.061  11.214  -9.769  1.00  0.00    -0.168 F
HETATM   25  F2  UNL     1     -23.187  10.580 -10.059  1.00  0.00    -0.168 F
HETATM   26  F3  UNL     1     -22.195  10.305  -8.086  1.00  0.00    -0.168 F
ENDBRANCH   8  23
ENDBRANCH   5   8
BRANCH   1  27
HETATM   27  C7  UNL     1     -16.947   7.429 -10.813  1.00  0.00     0.090 A
HETATM   28  C4  UNL     1     -15.990   8.393 -10.951  1.00  0.00     0.141 A
HETATM   29  N1  UNL     1     -14.897   7.755 -11.468  1.00  0.00    -0.294 N
HETATM   30  N2  UNL     1     -15.179   6.474 -11.628  1.00  0.00    -0.304 N
ATOM     31  H1  UNL     1     -14.006   8.197 -11.694  1.00  0.00     0.187 HD
HETATM   32  C5  UNL     1     -16.451   6.201 -11.237  1.00  0.00     0.040 A
ATOM     33  H2  UNL     1     -14.528   5.781 -11.997  1.00  0.00     0.186 HD
HETATM   34  C6  UNL     1     -17.148   4.890 -11.269  1.00  0.00     0.071 C
BRANCH  28  35
HETATM   35  C3  UNL     1     -15.977   9.816 -10.648  1.00  0.00     0.312 C
HETATM   36  O2  UNL     1     -16.715  10.628 -11.292  1.00  0.00    -0.258 OA
BRANCH  35  37
HETATM   37  O1  UNL     1     -15.179  10.354  -9.664  1.00  0.00    -0.317 OA
BRANCH  37  38
HETATM   38  C2  UNL     1     -14.966   9.782  -8.405  1.00  0.00     0.175 C
HETATM   39  C1  UNL     1     -13.589  10.083  -7.836  1.00  0.00     0.034 C
ENDBRANCH  37  38
ENDBRANCH  35  37
ENDBRANCH  28  35
ENDBRANCH   1  27
TORSDOF 11
ENDMDL