MODEL 5
REMARK VINA RESULT: -8.527747460      6.175     11.089
REMARK  9 active torsions:
REMARK  status: ('A' for Active; 'I' for Inactive)
REMARK    1  A    between atoms: C2_2  and  C3_3
REMARK    2  A    between atoms: C3_3  and  N1_4
REMARK    3  A    between atoms: C6_7  and  N2_8
REMARK    4  A    between atoms: N2_8  and  C7_9
REMARK    5  A    between atoms: N3_11  and  C8_12
REMARK    6  A    between atoms: C8_12  and  C9_13
REMARK    7  A    between atoms: C13_18  and  N5_19
REMARK    8  A    between atoms: C15_21  and  C16_22
REMARK    9  A    between atoms: C22_31  and  C23_32
ROOT
HETATM    1  C9  UNL     1     -20.551  10.514 -11.387  1.00  0.00     0.155 C
HETATM    2  C10 UNL     1     -21.222  10.599 -10.111  1.00  0.00     0.061 C
HETATM    3  N4  UNL     1     -21.752  10.683  -9.080  1.00  0.00    -0.197 NA
ENDROOT
BRANCH   1   4
HETATM    4  C8  UNL     1     -19.394   9.521 -11.374  1.00  0.00     0.056 C
HETATM    5  C11 UNL     1     -19.450   8.568 -12.506  1.00  0.00     0.035 C
HETATM    6  C12 UNL     1     -20.468   7.494 -12.263  1.00  0.00     0.028 C
HETATM    7  C13 UNL     1     -20.001   6.721 -11.050  1.00  0.00     0.084 C
HETATM    8  C19 UNL     1     -20.057   7.627  -9.857  1.00  0.00     0.028 C
HETATM    9  C20 UNL     1     -19.284   8.898 -10.023  1.00  0.00     0.035 C
BRANCH   4  10
HETATM   10  N3  UNL     1     -18.183  10.347 -11.557  1.00  0.00    -0.314 N
HETATM   11  S1  UNL     1     -16.619  10.015 -11.079  1.00  0.00     0.022 SA
HETATM   12  C7  UNL     1     -15.815  11.453 -11.649  1.00  0.00     0.174 A
HETATM   13  C22 UNL     1     -16.908  12.131 -12.209  1.00  0.00     0.094 A
HETATM   14  C21 UNL     1     -18.088  11.538 -12.143  1.00  0.00     0.120 A
BRANCH  12  15
HETATM   15  N2  UNL     1     -14.643  11.793 -11.581  1.00  0.00    -0.431 NA
BRANCH  15  16
HETATM   16  C6  UNL     1     -13.389  12.156 -11.515  1.00  0.00     0.194 C
HETATM   17  C5  UNL     1     -12.820  12.466 -10.116  1.00  0.00     0.071 C
HETATM   18  C4  UNL     1     -11.521  13.148 -10.504  1.00  0.00     0.276 C
HETATM   19  N1  UNL     1     -11.774  13.875 -11.703  1.00  0.00     0.095 N
HETATM   20  C24 UNL     1     -12.957  13.390 -12.328  1.00  0.00     0.312 C
BRANCH  19  21
HETATM   21  C3  UNL     1     -11.894  15.280 -11.422  1.00  0.00     0.299 C
BRANCH  21  22
HETATM   22  C2  UNL     1     -13.210  15.737 -11.935  1.00  0.00    -0.007 C
HETATM   23  C1  UNL     1     -13.844  16.800 -11.456  1.00  0.00     0.008 C
ENDBRANCH  21  22
ENDBRANCH  19  21
ENDBRANCH  15  16
ENDBRANCH  12  15
BRANCH  13  24
HETATM   24  C23 UNL     1     -16.688  13.465 -12.839  1.00  0.00     0.270 C
HETATM   25  N6  UNL     1     -16.129  13.587 -14.139  1.00  0.00    -0.057 NA
HETATM   26  O1  UNL     1     -16.986  14.513 -12.250  1.00  0.00    -0.271 OA
ENDBRANCH  13  24
ENDBRANCH   4  10
BRANCH   7  27
HETATM   27  N5  UNL     1     -20.825   5.569 -10.796  1.00  0.00    -0.385 N
HETATM   28  C14 UNL     1     -22.237   5.555 -10.924  1.00  0.00     0.097 C
HETATM   29  C15 UNL     1     -22.702   4.333 -10.717  1.00  0.00     0.042 C
HETATM   30  C17 UNL     1     -21.593   3.382 -10.420  1.00  0.00     0.064 C
HETATM   31  C18 UNL     1     -20.364   4.255 -10.374  1.00  0.00     0.127 C
BRANCH  29  32
HETATM   32  C16 UNL     1     -24.122   3.912 -10.763  1.00  0.00     0.415 C
HETATM   33  F1  UNL     1     -24.487   3.907 -12.107  1.00  0.00    -0.166 F
HETATM   34  F2  UNL     1     -24.225   2.609 -10.305  1.00  0.00    -0.166 F
HETATM   35  F3  UNL     1     -24.940   4.710 -10.019  1.00  0.00    -0.166 F
ENDBRANCH  29  32
ENDBRANCH   7  27
ENDBRANCH   1   4
TORSDOF 9
ENDMDL