MODEL 5
REMARK VINA RESULT: -7.938792181      1.433      1.825
REMARK  8 active torsions:
REMARK  status: ('A' for Active; 'I' for Inactive)
REMARK    1  A    between atoms: O1_2  and  N1_3
REMARK    2  A    between atoms: N2_12  and  C8_13
REMARK    3  A    between atoms: C8_13  and  C9_14
REMARK    4  A    between atoms: C8_13  and  C14_20
REMARK    5  A    between atoms: C9_14  and  C10_15
REMARK    6  A    between atoms: N5_25  and  C15_26
REMARK    7  A    between atoms: C15_26  and  C16_27
REMARK    8  A    between atoms: C22_35  and  N6_36
ROOT
HETATM    1  C14 UNL     1     -16.704   6.599  -8.718  1.00  0.00     0.095 A
HETATM    2  N3  UNL     1     -17.291   7.716  -8.276  1.00  0.00    -0.284 N
ATOM      3  H3  UNL     1     -17.071   8.185  -7.398  1.00  0.00     0.188 HD
HETATM    4  N4  UNL     1     -18.194   8.120  -9.142  1.00  0.00    -0.234 N
ATOM      5  H4  UNL     1     -18.772   8.952  -9.025  1.00  0.00     0.209 HD
HETATM    6  N5  UNL     1     -18.258   7.295 -10.206  1.00  0.00    -0.234 N
HETATM    7  C22 UNL     1     -17.339   6.352  -9.952  1.00  0.00     0.148 A
ENDROOT
BRANCH   1   8
HETATM    8  C8  UNL     1     -15.547   5.839  -8.151  1.00  0.00     0.141 C
BRANCH   8   9
HETATM    9  N2  UNL     1     -14.486   6.868  -8.099  1.00  0.00    -0.355 N
HETATM   10  C2  UNL     1     -13.686   7.290  -9.213  1.00  0.00     0.107 C
HETATM   11  N1  UNL     1     -13.996   7.204 -10.459  1.00  0.00    -0.255 N
HETATM   12  C3  UNL     1     -12.442   7.834  -8.593  1.00  0.00     0.092 C
ATOM     13  H1  UNL     1     -14.890   6.807 -10.749  1.00  0.00     0.195 HD
HETATM   14  C4  UNL     1     -11.538   6.751  -8.053  1.00  0.00     0.021 C
HETATM   15  C5  UNL     1     -13.029   8.570  -7.411  1.00  0.00     0.126 C
HETATM   16  C6  UNL     1     -13.706   9.855  -7.906  1.00  0.00     0.054 C
HETATM   17  F1  UNL     1     -12.118   8.851  -6.431  1.00  0.00    -0.241 F
HETATM   18  C7  UNL     1     -14.089   7.586  -6.927  1.00  0.00     0.169 C
BRANCH  11  19
HETATM   19  O1  UNL     1     -13.085   7.663 -11.397  1.00  0.00    -0.284 OA
HETATM   20  C1  UNL     1     -13.257   8.898 -12.080  1.00  0.00     0.237 C
ENDBRANCH  11  19
ENDBRANCH   8   9
BRANCH   8  21
HETATM   21  C9  UNL     1     -15.877   5.423  -6.740  1.00  0.00     0.038 C
BRANCH  21  22
HETATM   22  C10 UNL     1     -15.491   4.032  -6.484  1.00  0.00     0.014 C
HETATM   23  C11 UNL     1     -14.009   3.933  -6.003  1.00  0.00     0.033 C
HETATM   24  C12 UNL     1     -14.005   2.433  -5.730  1.00  0.00     0.168 C
HETATM   25  O2  UNL     1     -15.280   2.056  -5.345  1.00  0.00    -0.391 OA
HETATM   26  C13 UNL     1     -16.096   3.222  -5.410  1.00  0.00     0.172 C
ENDBRANCH  21  22
ENDBRANCH   8  21
ENDBRANCH   1   8
BRANCH   7  27
HETATM   27  N6  UNL     1     -16.975   5.345 -10.654  1.00  0.00    -0.382 N
ATOM     28  H62 UNL     1     -16.153   4.747 -10.567  1.00  0.00     0.157 HD
ATOM     29  H61 UNL     1     -17.568   5.030 -11.421  1.00  0.00     0.157 HD
ENDBRANCH   7  27
BRANCH   6  30
HETATM   30  C15 UNL     1     -19.195   7.424 -11.300  1.00  0.00     0.134 C
BRANCH  30  31
HETATM   31  C16 UNL     1     -20.571   7.763 -11.007  1.00  0.00     0.025 A
HETATM   32  C17 UNL     1     -21.116   9.003 -10.911  1.00  0.00     0.047 A
HETATM   33 CL1  UNL     1     -20.214  10.492 -11.062  1.00  0.00    -0.083 Cl
HETATM   34  C18 UNL     1     -22.485   9.198 -10.631  1.00  0.00     0.025 A
HETATM   35  C19 UNL     1     -23.338   8.140 -10.440  1.00  0.00     0.003 A
HETATM   36  C20 UNL     1     -22.782   6.875 -10.535  1.00  0.00     0.025 A
HETATM   37  C21 UNL     1     -21.461   6.681 -10.806  1.00  0.00     0.047 A
HETATM   38 CL2  UNL     1     -20.883   5.009 -10.849  1.00  0.00    -0.083 Cl
ENDBRANCH  30  31
ENDBRANCH   6  30
TORSDOF 8
ENDMDL