MODEL 4
REMARK VINA RESULT: -7.743875125      1.721      2.091
REMARK  10 active torsions:
REMARK  status: ('A' for Active; 'I' for Inactive)
REMARK    1  A    between atoms: C2_2  and  O1_3
REMARK    2  A    between atoms: O1_3  and  C3_4
REMARK    3  A    between atoms: C4_5  and  C5_6
REMARK    4  A    between atoms: C9_11  and  S1_12
REMARK    5  A    between atoms: S1_12  and  N2_15
REMARK    6  A    between atoms: N2_15  and  C10_17
REMARK    7  A    between atoms: C16_29  and  C17_30
REMARK    8  A    between atoms: C17_30  and  C18_31
REMARK    9  A    between atoms: C18_31  and  C19_32
REMARK   10  A    between atoms: C19_32  and  O4_33
ROOT
HETATM    1  C5  UNL     1     -19.505   7.368 -11.023  1.00  0.00     0.040 A
HETATM    2  C6  UNL     1     -19.440   6.004 -11.037  1.00  0.00     0.060 A
HETATM    3  C7  UNL     1     -18.192   5.312 -11.175  1.00  0.00     0.100 C
HETATM    4  N1  UNL     1     -17.185   4.773 -11.287  1.00  0.00    -0.191 NA
HETATM    5  C8  UNL     1     -20.595   5.230 -10.935  1.00  0.00     0.052 A
HETATM    6  C9  UNL     1     -21.810   5.839 -10.821  1.00  0.00     0.123 A
HETATM    7  C13 UNL     1     -21.901   7.214 -10.806  1.00  0.00     0.179 A
HETATM    8  F1  UNL     1     -23.098   7.824 -10.693  1.00  0.00    -0.201 F
HETATM    9  C14 UNL     1     -20.734   7.966 -10.907  1.00  0.00     0.169 A
HETATM   10  F2  UNL     1     -20.860   9.319 -10.889  1.00  0.00    -0.202 F
ENDROOT
BRANCH   1  11
HETATM   11  C4  UNL     1     -18.275   8.217 -11.109  1.00  0.00     0.020 A
HETATM   12  C3  UNL     1     -17.442   8.480 -10.066  1.00  0.00     0.097 A
HETATM   13  C16 UNL     1     -16.349   9.264 -10.335  1.00  0.00     0.039 A
HETATM   14  S3  UNL     1     -16.504   9.609 -11.997  1.00  0.00    -0.098 SA
HETATM   15  C15 UNL     1     -17.936   8.764 -12.322  1.00  0.00     0.065 A
BRANCH  12  16
HETATM   16  O1  UNL     1     -17.658   7.991  -8.748  1.00  0.00    -0.349 OA
BRANCH  16  17
HETATM   17  C2  UNL     1     -16.970   6.963  -8.146  1.00  0.00     0.171 C
HETATM   18  C1  UNL     1     -16.292   7.252  -6.847  1.00  0.00     0.034 C
ENDBRANCH  16  17
ENDBRANCH  12  16
BRANCH  13  19
HETATM   19  C17 UNL     1     -15.299   9.748  -9.399  1.00  0.00     0.023 C
BRANCH  19  20
HETATM   20  C18 UNL     1     -14.169   9.100  -9.343  1.00  0.00     0.039 C
BRANCH  20  21
HETATM   21  C19 UNL     1     -13.295   9.329  -8.162  1.00  0.00     0.328 C
HETATM   22  F3  UNL     1     -13.038   8.099  -7.556  1.00  0.00    -0.215 F
BRANCH  21  23
HETATM   23  O4  UNL     1     -13.938  10.160  -7.225  1.00  0.00    -0.364 OA
ATOM     24  H4  UNL     1     -13.310  10.736  -6.805  1.00  0.00     0.213 HD
ENDBRANCH  21  23
ENDBRANCH  20  21
ENDBRANCH  19  20
ENDBRANCH  13  19
ENDBRANCH   1  11
BRANCH   6  25
HETATM   25  S1  UNL     1     -23.310   4.927 -10.688  1.00  0.00     0.267 S
HETATM   26  O2  UNL     1     -23.339   3.958 -11.838  1.00  0.00    -0.200 OA
HETATM   27  O3  UNL     1     -24.474   5.843 -10.822  1.00  0.00    -0.200 OA
BRANCH  25  28
HETATM   28  N2  UNL     1     -23.328   4.010  -9.238  1.00  0.00    -0.260 N
ATOM     29  H2  UNL     1     -22.446   3.669  -8.856  1.00  0.00     0.181 HD
BRANCH  28  30
HETATM   30  C10 UNL     1     -24.432   3.737  -8.615  1.00  0.00     0.158 A
HETATM   31  N3  UNL     1     -24.811   3.986  -7.361  1.00  0.00    -0.345 N
HETATM   32  C11 UNL     1     -25.992   3.600  -6.977  1.00  0.00     0.097 A
ATOM     33  H3  UNL     1     -24.186   4.468  -6.715  1.00  0.00     0.167 HD
HETATM   34  C12 UNL     1     -26.789   2.957  -7.888  1.00  0.00     0.070 A
HETATM   35  S2  UNL     1     -25.784   2.938  -9.270  1.00  0.00    -0.064 SA
ENDBRANCH  28  30
ENDBRANCH  25  28
ENDBRANCH   6  25
TORSDOF 10
ENDMDL