MODEL 3
REMARK VINA RESULT: -7.497632345      2.387      4.311
REMARK  8 active torsions:
REMARK  status: ('A' for Active; 'I' for Inactive)
REMARK    1  A    between atoms: C4_4  and  C5_5
REMARK    2  A    between atoms: C5_5  and  C6_6
REMARK    3  A    between atoms: C6_6  and  C7_7
REMARK    4  A    between atoms: C11_12  and  C12_13
REMARK       I    between atoms: C12_13  and  N1_15
REMARK    5  A    between atoms: N1_15  and  C13_17
REMARK    6  A    between atoms: C13_17  and  C14_18
REMARK    7  A    between atoms: C13_17  and  C18_22
REMARK    8  A    between atoms: C14_18  and  C15_19
ROOT
HETATM    1  C7  UNL     1       4.597  89.875 101.651  1.00  0.00    -0.018 C
HETATM    2  C8  UNL     1       3.820  88.729 102.212  1.00  0.00     0.017 C
HETATM    3  C9  UNL     1       4.968  89.573 100.185  1.00  0.00     0.067 C
HETATM    4 BR1  UNL     1       6.812  89.094  99.936  1.00  0.00    -0.090 Br
HETATM    5  C10 UNL     1       4.697  91.032  99.895  1.00  0.00     0.031 C
HETATM    6  C11 UNL     1       3.762  91.009 101.097  1.00  0.00     0.088 C
ENDROOT
BRANCH   6   7
HETATM    7  C12 UNL     1       2.400  90.705 100.668  1.00  0.00     0.223 C
HETATM    8  O1  UNL     1       2.072  89.860  99.779  1.00  0.00    -0.273 OA
HETATM    9  N1  UNL     1       1.321  91.392 101.270  1.00  0.00    -0.346 N
ATOM     10  H1  UNL     1       1.534  92.083 101.989  1.00  0.00     0.163 HD
BRANCH   9  11
HETATM   11  C13 UNL     1      -0.069  91.175 100.926  1.00  0.00     0.185 C
BRANCH  11  12
HETATM   12  C14 UNL     1      -0.860  90.511 101.998  1.00  0.00     0.040 C
BRANCH  12  13
HETATM   13  C15 UNL     1      -0.160  90.178 103.258  1.00  0.00    -0.020 C
HETATM   14  C16 UNL     1      -0.917  90.383 104.529  1.00  0.00     0.009 C
HETATM   15  C17 UNL     1       0.171  88.677 103.201  1.00  0.00     0.009 C
ENDBRANCH  12  13
ENDBRANCH  11  12
BRANCH  11  16
HETATM   16  C18 UNL     1      -0.690  92.401 100.436  1.00  0.00     0.196 C
HETATM   17  O2  UNL     1      -0.205  93.550 100.704  1.00  0.00    -0.646 OA
HETATM   18  O3  UNL     1      -1.834  92.418  99.655  1.00  0.00    -0.646 OA
ENDBRANCH  11  16
ENDBRANCH   9  11
ENDBRANCH   6   7
BRANCH   1  19
HETATM   19  C6  UNL     1       5.831  90.288 102.361  1.00  0.00     0.015 C
BRANCH  19  20
HETATM   20  C5  UNL     1       6.263  89.565 103.563  1.00  0.00     0.028 C
BRANCH  20  21
HETATM   21  C4  UNL     1       7.220  88.458 103.405  1.00  0.00    -0.025 C
HETATM   22  C2  UNL     1       7.347  87.496 104.317  1.00  0.00    -0.091 C
HETATM   23  C1  UNL     1       8.332  86.416 104.087  1.00  0.00     0.042 C
HETATM   24  C3  UNL     1       6.530  87.479 105.557  1.00  0.00     0.042 C
ENDBRANCH  20  21
ENDBRANCH  19  20
ENDBRANCH   1  19
TORSDOF 8
ENDMDL