MODEL 5
REMARK VINA RESULT: -7.261067067      1.094      1.496
REMARK  10 active torsions:
REMARK  status: ('A' for Active; 'I' for Inactive)
REMARK    1  A    between atoms: C2_2  and  C3_3
REMARK    2  A    between atoms: C4_4  and  C5_5
REMARK    3  A    between atoms: C8_8  and  C9_9
REMARK    4  A    between atoms: C9_9  and  C10_10
REMARK    5  A    between atoms: C10_10  and  C12_12
REMARK    6  A    between atoms: C12_12  and  C14_14
REMARK       I    between atoms: C14_14  and  N1_16
REMARK    7  A    between atoms: N1_16  and  C15_18
REMARK    8  A    between atoms: C15_18  and  C16_19
REMARK    9  A    between atoms: C15_18  and  C20_23
REMARK   10  A    between atoms: C16_19  and  C17_20
ROOT
HETATM    1  C10 UNL     1       3.155  88.501  97.817  1.00  0.00    -0.002 C
HETATM    2  C11 UNL     1       3.744  88.006  96.529  1.00  0.00     0.011 C
ENDROOT
BRANCH   1   3
HETATM    3  C9  UNL     1       4.100  89.523  98.407  1.00  0.00     0.045 C
BRANCH   3   4
HETATM    4  C8  UNL     1       4.576  89.169  99.771  1.00  0.00    -0.036 A
HETATM    5  C7  UNL     1       3.705  88.779 100.771  1.00  0.00     0.010 A
HETATM    6  C6  UNL     1       4.152  88.448 102.032  1.00  0.00     0.021 A
HETATM    7  C5  UNL     1       5.489  88.485 102.369  1.00  0.00     0.019 A
HETATM    8  C22 UNL     1       6.357  88.874 101.371  1.00  0.00     0.045 A
HETATM    9  C21 UNL     1       5.911  89.205 100.108  1.00  0.00     0.041 A
HETATM   10 CL1  UNL     1       7.041  89.693  98.867  1.00  0.00    -0.084 Cl
BRANCH   7  11
HETATM   11  C4  UNL     1       5.953  88.135 103.690  1.00  0.00    -0.067 C
HETATM   12  C3  UNL     1       6.356  87.844 104.789  1.00  0.00    -0.101 C
BRANCH  12  13
HETATM   13  C2  UNL     1       6.862  87.498 106.117  1.00  0.00     0.090 C
HETATM   14  C1  UNL     1       7.933  86.453 105.944  1.00  0.00     0.018 C
ENDBRANCH  12  13
ENDBRANCH   7  11
ENDBRANCH   3   4
ENDBRANCH   1   3
BRANCH   1  15
HETATM   15  C12 UNL     1       1.867  89.226  97.536  1.00  0.00     0.078 C
HETATM   16  C13 UNL     1       1.358  88.943  96.133  1.00  0.00     0.020 C
BRANCH  15  17
HETATM   17  C14 UNL     1       0.799  88.947  98.509  1.00  0.00     0.222 C
HETATM   18  O1  UNL     1       0.357  87.763  98.543  1.00  0.00    -0.273 OA
HETATM   19  N1  UNL     1       0.268  89.900  99.375  1.00  0.00    -0.346 N
ATOM     20  H1  UNL     1       0.611  90.860  99.354  1.00  0.00     0.163 HD
BRANCH  19  21
HETATM   21  C15 UNL     1      -0.786  89.512 100.312  1.00  0.00     0.185 C
BRANCH  21  22
HETATM   22  C16 UNL     1      -0.259  89.720 101.701  1.00  0.00     0.040 C
BRANCH  22  23
HETATM   23  C17 UNL     1      -0.703  91.004 102.331  1.00  0.00    -0.020 C
HETATM   24  C18 UNL     1      -0.956  90.851 103.820  1.00  0.00     0.009 C
HETATM   25  C19 UNL     1       0.397  92.040 102.085  1.00  0.00     0.009 C
ENDBRANCH  22  23
ENDBRANCH  21  22
BRANCH  21  26
HETATM   26  C20 UNL     1      -1.978  90.288  99.972  1.00  0.00     0.196 C
HETATM   27  O2  UNL     1      -3.126  89.853 100.281  1.00  0.00    -0.646 OA
HETATM   28  O3  UNL     1      -1.979  91.513  99.315  1.00  0.00    -0.646 OA
ENDBRANCH  21  26
ENDBRANCH  19  21
ENDBRANCH  15  17
ENDBRANCH   1  15
TORSDOF 10
ENDMDL