MODEL 3
REMARK VINA RESULT: -7.441513484     10.220     12.670
REMARK  8 active torsions:
REMARK  status: ('A' for Active; 'I' for Inactive)
REMARK    1  A    between atoms: C2_2  and  C3_3
REMARK    2  A    between atoms: C3_3  and  C4_4
REMARK    3  A    between atoms: C3_3  and  C10_15
REMARK    4  A    between atoms: C4_4  and  N1_5
REMARK    5  A    between atoms: N1_5  and  C5_8
REMARK    6  A    between atoms: C5_8  and  C6_9
REMARK    7  A    between atoms: C6_9  and  S1_10
REMARK    8  A    between atoms: S1_10  and  C7_12
ROOT
HETATM    1  C3  UNL     1       5.228  89.836 102.127  1.00  0.00     0.044 C
ENDROOT
BRANCH   1   2
HETATM    2  C2  UNL     1       5.665  88.970 103.260  1.00  0.00     0.006 C
HETATM    3  C1  UNL     1       6.911  89.552 103.894  1.00  0.00     0.006 C
ENDBRANCH   1   2
BRANCH   1   4
HETATM    4  C4  UNL     1       6.166  90.019 101.007  1.00  0.00     0.241 C
BRANCH   4   5
HETATM    5  N1  UNL     1       5.909  91.045 100.077  1.00  0.00    -0.074 N
ATOM      6  H12 UNL     1       4.964  91.417 100.174  1.00  0.00     0.277 HD
ATOM      7  H11 UNL     1       6.430  91.895 100.295  1.00  0.00     0.277 HD
BRANCH   5   8
HETATM    8  C5  UNL     1       6.169  90.586  98.738  1.00  0.00     0.244 C
BRANCH   8   9
HETATM    9  C6  UNL     1       6.049  89.116  98.553  1.00  0.00     0.136 C
BRANCH   9  10
HETATM   10  S1  UNL     1       6.180  88.521  96.918  1.00  0.00     0.020 S
HETATM   11  O1  UNL     1       6.824  89.615  95.825  1.00  0.00    -0.258 OA
BRANCH  10  12
HETATM   12  C7  UNL     1       4.511  88.173  96.352  1.00  0.00     0.071 C
HETATM   13  C8  UNL     1       4.405  86.841  95.688  1.00  0.00     0.023 C
HETATM   14  C9  UNL     1       3.541  88.337  97.487  1.00  0.00     0.023 C
ENDBRANCH  10  12
ENDBRANCH   9  10
ENDBRANCH   8   9
ENDBRANCH   5   8
ENDBRANCH   4   5
ENDBRANCH   1   4
BRANCH   1  15
HETATM   15  C10 UNL     1       3.880  89.385 101.700  1.00  0.00    -0.051 A
HETATM   16  C11 UNL     1       3.602  88.068 101.388  1.00  0.00     0.010 A
HETATM   17  C12 UNL     1       2.343  87.634 100.988  1.00  0.00     0.031 A
HETATM   18  C13 UNL     1       1.315  88.568 100.900  1.00  0.00     0.045 A
HETATM   19  N2  UNL     1       0.014  88.474 100.554  1.00  0.00    -0.345 N
HETATM   20  C16 UNL     1       1.548  89.893 101.204  1.00  0.00     0.012 A
HETATM   21  C14 UNL     1      -0.587  89.666 100.622  1.00  0.00     0.122 A
ATOM     22  H2  UNL     1      -0.449  87.608 100.277  1.00  0.00     0.167 HD
HETATM   23 CL1  UNL     1      -2.271  90.073 100.271  1.00  0.00    -0.063 Cl
HETATM   24  C15 UNL     1       0.352  90.581 101.029  1.00  0.00     0.062 A
HETATM   25 BR1  UNL     1       0.132  92.471 101.323  1.00  0.00    -0.047 Br
HETATM   26  C17 UNL     1       2.808  90.264 101.591  1.00  0.00     0.022 A
ENDBRANCH   1  15
TORSDOF 8
ENDMDL