MODEL 4
REMARK VINA RESULT: -8.103672571      2.023      3.467
REMARK  10 active torsions:
REMARK  status: ('A' for Active; 'I' for Inactive)
REMARK    1  A    between atoms: C2_2  and  N1_3
REMARK    2  A    between atoms: N1_3  and  C4_5
REMARK    3  A    between atoms: N1_3  and  C18_22
REMARK    4  A    between atoms: C4_5  and  C5_6
REMARK    5  A    between atoms: C8_9  and  C9_10
REMARK    6  A    between atoms: C9_10  and  C10_11
REMARK    7  A    between atoms: C10_11  and  C11_12
REMARK    8  A    between atoms: C11_12  and  C12_13
REMARK    9  A    between atoms: C14_15  and  O1_16
REMARK   10  A    between atoms: C18_22  and  C19_23
ROOT
HETATM    1  C5  UNL     1       2.124  90.508 100.775  1.00  0.00    -0.052 C
HETATM    2  C6  UNL     1       3.080  91.366 101.058  1.00  0.00     0.005 C
HETATM    3  C7  UNL     1       4.461  91.050 100.870  1.00  0.00     0.005 C
HETATM    4  C8  UNL     1       4.862  89.891 100.394  1.00  0.00    -0.058 C
HETATM    5  C16 UNL     1       3.862  88.936  99.875  1.00  0.00     0.115 C
HETATM    6 CL1  UNL     1       3.892  89.206  98.071  1.00  0.00    -0.120 Cl
HETATM    7  C17 UNL     1       2.470  89.168 100.297  1.00  0.00     0.060 C
ENDROOT
BRANCH   1   8
HETATM    8  C4  UNL     1       0.734  90.899 100.982  1.00  0.00     0.271 C
BRANCH   8   9
HETATM    9  N1  UNL     1      -0.114  90.009 101.738  1.00  0.00    -0.062 N
HETATM   10  C3  UNL     1       0.617  89.228 102.713  1.00  0.00     0.273 C
BRANCH   9  11
HETATM   11  C2  UNL     1      -1.003  90.857 102.510  1.00  0.00     0.233 C
HETATM   12  C1  UNL     1      -0.956  90.704 103.980  1.00  0.00     0.035 C
ENDBRANCH   9  11
BRANCH   9  13
HETATM   13  C18 UNL     1      -0.815  89.168 100.789  1.00  0.00     0.297 C
BRANCH  13  14
HETATM   14  C19 UNL     1      -1.843  89.849  99.991  1.00  0.00     0.075 A
HETATM   15  N2  UNL     1      -3.069  90.318 100.276  1.00  0.00    -0.352 N
HETATM   16  C20 UNL     1      -3.645  90.861  99.201  1.00  0.00     0.182 A
ATOM     17  H2  UNL     1      -3.504  90.265 101.197  1.00  0.00     0.166 HD
HETATM   18  N3  UNL     1      -2.778  90.745  98.196  1.00  0.00    -0.341 N
HETATM   19  C21 UNL     1      -1.691  90.141  98.650  1.00  0.00     0.128 A
ATOM     20  H3  UNL     1      -2.926  91.066  97.240  1.00  0.00     0.167 HD
HETATM   21 CL2  UNL     1      -0.282  89.773  97.685  1.00  0.00    -0.062 Cl
ENDBRANCH  13  14
ENDBRANCH   9  13
ENDBRANCH   8   9
ENDBRANCH   1   8
BRANCH   4  22
HETATM   22  C9  UNL     1       6.332  89.612 100.229  1.00  0.00     0.062 C
BRANCH  22  23
HETATM   23  C10 UNL     1       6.892  88.882 101.361  1.00  0.00    -0.026 C
BRANCH  23  24
HETATM   24  C11 UNL     1       7.381  89.465 102.422  1.00  0.00    -0.026 C
BRANCH  24  25
HETATM   25  C12 UNL     1       6.660  89.580 103.690  1.00  0.00     0.012 C
HETATM   26  C13 UNL     1       5.411  88.694 103.686  1.00  0.00     0.040 C
HETATM   27  C14 UNL     1       6.149  87.737 104.590  1.00  0.00     0.119 C
HETATM   28  C15 UNL     1       7.141  88.845 104.888  1.00  0.00     0.040 C
BRANCH  27  29
HETATM   29  O1  UNL     1       6.645  86.606 103.989  1.00  0.00    -0.396 OA
ATOM     30  H1  UNL     1       7.168  86.037 104.542  1.00  0.00     0.210 HD
ENDBRANCH  27  29
ENDBRANCH  24  25
ENDBRANCH  23  24
ENDBRANCH  22  23
ENDBRANCH   4  22
TORSDOF 10
ENDMDL