MODEL 5
REMARK VINA RESULT: -6.712962759      3.105      6.924
REMARK  9 active torsions:
REMARK  status: ('A' for Active; 'I' for Inactive)
REMARK    1  A    between atoms: C2_2  and  C3_3
REMARK    2  A    between atoms: C3_3  and  C4_4
REMARK    3  A    between atoms: C4_4  and  C5_5
REMARK    4  A    between atoms: C5_5  and  C6_6
REMARK    5  A    between atoms: C6_6  and  S1_7
REMARK    6  A    between atoms: S1_7  and  C7_9
REMARK    7  A    between atoms: S1_7  and  N1_11
REMARK    8  A    between atoms: N1_11  and  C8_13
REMARK       I    between atoms: N3_19  and  C12_21
REMARK    9  A    between atoms: C12_21  and  C13_23
ROOT
HETATM    1  C8  UNL     1       3.644  88.525  97.651  1.00  0.00     0.044 A
HETATM    2  C9  UNL     1       2.687  88.731  96.685  1.00  0.00     0.047 A
HETATM    3  C10 UNL     1       1.398  89.136  97.002  1.00  0.00     0.092 A
HETATM    4  N2  UNL     1       1.057  89.338  98.300  1.00  0.00    -0.352 N
ATOM      5  H2  UNL     1       0.111  89.636  98.540  1.00  0.00     0.166 HD
HETATM    6  C11 UNL     1       1.966  89.146  99.267  1.00  0.00     0.109 A
HETATM    7  N3  UNL     1       1.633  89.342 100.506  1.00  0.00    -0.308 N
ATOM      8  H3  UNL     1       2.319  89.198 101.246  1.00  0.00     0.170 HD
HETATM    9  C12 UNL     1       0.300  89.762 100.838  1.00  0.00     0.269 C
HETATM   10  O2  UNL     1      -0.488  88.882 101.215  1.00  0.00    -0.266 OA
HETATM   11  C17 UNL     1       3.265  88.740  98.956  1.00  0.00     0.078 A
ENDROOT
BRANCH   1  12
HETATM   12  N1  UNL     1       4.962  88.110  97.371  1.00  0.00    -0.313 N
ATOM     13  H1  UNL     1       5.082  87.126  97.134  1.00  0.00     0.176 HD
BRANCH  12  14
HETATM   14  S1  UNL     1       6.369  89.048  97.380  1.00  0.00     0.057 S
HETATM   15  O1  UNL     1       7.606  88.239  97.757  1.00  0.00    -0.244 OA
BRANCH  14  16
HETATM   16  C6  UNL     1       6.265  90.386  98.566  1.00  0.00     0.122 C
BRANCH  16  17
HETATM   17  C5  UNL     1       6.470  89.790  99.944  1.00  0.00     0.014 C
BRANCH  17  18
HETATM   18  C4  UNL     1       5.701  90.604 100.969  1.00  0.00     0.001 C
BRANCH  18  19
HETATM   19  C3  UNL     1       5.739  89.781 102.259  1.00  0.00    -0.000 C
BRANCH  19  20
HETATM   20  C2  UNL     1       6.771  90.321 103.223  1.00  0.00    -0.005 C
HETATM   21  C1  UNL     1       7.012  89.257 104.263  1.00  0.00     0.005 C
ENDBRANCH  19  20
ENDBRANCH  18  19
ENDBRANCH  17  18
ENDBRANCH  16  17
ENDBRANCH  14  16
BRANCH  14  22
HETATM   22  C7  UNL     1       6.818  89.595  95.961  1.00  0.00     0.171 C
HETATM   23 CL1  UNL     1       6.196  88.816  94.563  1.00  0.00    -0.086 Cl
ENDBRANCH  14  22
ENDBRANCH  12  14
ENDBRANCH   1  12
BRANCH   9  24
HETATM   24  C13 UNL     1      -0.110  91.138 100.740  1.00  0.00     0.103 C
HETATM   25 CL2  UNL     1       0.780  92.366 101.634  1.00  0.00    -0.078 Cl
HETATM   26  C14 UNL     1      -1.119  91.523 100.013  1.00  0.00    -0.060 C
HETATM   27  C15 UNL     1      -1.505  92.978  99.945  1.00  0.00     0.045 C
HETATM   28  C16 UNL     1      -1.916  90.569  99.237  1.00  0.00     0.045 C
ENDBRANCH   9  24
TORSDOF 9
ENDMDL