MODEL 2
REMARK VINA RESULT: -6.801493689      1.483      2.084
REMARK  9 active torsions:
REMARK  status: ('A' for Active; 'I' for Inactive)
REMARK    1  A    between atoms: C2_2  and  C3_3
REMARK    2  A    between atoms: C4_4  and  C5_5
REMARK    3  A    between atoms: C5_5  and  C6_6
REMARK    4  A    between atoms: C6_6  and  C7_7
REMARK    5  A    between atoms: C7_7  and  C9_9
REMARK    6  A    between atoms: C9_9  and  N1_10
REMARK    7  A    between atoms: C9_9  and  C17_23
REMARK    8  A    between atoms: N1_10  and  C10_12
REMARK    9  A    between atoms: C13_18  and  C14_19
ROOT
HETATM    1  N1  UNL     1       4.356  88.146 101.595  1.00  0.00    -0.375 N
ATOM      2  H1  UNL     1       4.871  87.662 100.860  1.00  0.00     0.160 HD
ENDROOT
BRANCH   1   3
HETATM    3  C9  UNL     1       5.125  88.849 102.584  1.00  0.00     0.187 C
BRANCH   3   4
HETATM    4  C7  UNL     1       5.989  89.921 102.017  1.00  0.00     0.015 C
HETATM    5  C8  UNL     1       6.653  90.627 103.209  1.00  0.00     0.012 C
BRANCH   4   6
HETATM    6  C6  UNL     1       5.317  90.973 101.221  1.00  0.00     0.010 C
BRANCH   6   7
HETATM    7  C5  UNL     1       5.903  91.292  99.890  1.00  0.00     0.027 C
BRANCH   7   8
HETATM    8  C4  UNL     1       5.965  90.025  99.064  1.00  0.00    -0.031 C
HETATM    9  C3  UNL     1       7.059  89.667  98.433  1.00  0.00    -0.031 C
BRANCH   9  10
HETATM   10  C2  UNL     1       7.173  88.435  97.611  1.00  0.00     0.022 C
HETATM   11  C1  UNL     1       5.868  88.104  96.956  1.00  0.00     0.009 C
ENDBRANCH   9  10
ENDBRANCH   7   8
ENDBRANCH   6   7
ENDBRANCH   4   6
ENDBRANCH   3   4
BRANCH   3  12
HETATM   12  C17 UNL     1       5.789  87.962 103.565  1.00  0.00     0.197 C
HETATM   13  O1  UNL     1       5.311  87.795 104.715  1.00  0.00    -0.646 OA
HETATM   14  O2  UNL     1       6.973  87.258 103.295  1.00  0.00    -0.646 OA
ENDBRANCH   3  12
ENDBRANCH   1   3
BRANCH   1  15
HETATM   15  C10 UNL     1       3.077  88.075 101.559  1.00  0.00     0.033 A
HETATM   16  C11 UNL     1       2.414  86.891 101.253  1.00  0.00     0.071 A
HETATM   17  C12 UNL     1       1.037  86.818 101.213  1.00  0.00     0.105 A
HETATM   18 CL1  UNL     1       0.214  85.333 100.830  1.00  0.00    -0.064 Cl
HETATM   19  N2  UNL     1       0.281  87.908 101.475  1.00  0.00    -0.349 N
HETATM   20  C13 UNL     1       0.893  89.067 101.774  1.00  0.00     0.026 A
ATOM     21  H2  UNL     1      -0.736  87.852 101.446  1.00  0.00     0.166 HD
HETATM   22  C16 UNL     1       2.271  89.159 101.818  1.00  0.00     0.055 A
BRANCH  20  23
HETATM   23  C14 UNL     1       0.059  90.280 102.066  1.00  0.00     0.103 C
HETATM   24  C15 UNL     1      -1.263  90.214 101.321  1.00  0.00     0.028 C
HETATM   25 BR1  UNL     1       1.055  91.842 101.518  1.00  0.00    -0.085 Br
ENDBRANCH  20  23
ENDBRANCH   1  15
TORSDOF 9
ENDMDL