MODEL 5
REMARK VINA RESULT: -6.256014389      1.446      2.010
REMARK  9 active torsions:
REMARK  status: ('A' for Active; 'I' for Inactive)
REMARK    1  A    between atoms: C6_7  and  C7_8
REMARK    2  A    between atoms: C7_8  and  C8_9
REMARK    3  A    between atoms: C8_9  and  N1_10
REMARK    4  A    between atoms: N1_10  and  C9_13
REMARK    5  A    between atoms: C9_13  and  C10_14
REMARK    6  A    between atoms: C10_14  and  O1_15
REMARK    7  A    between atoms: C10_14  and  C11_17
REMARK    8  A    between atoms: C11_17  and  O2_18
REMARK    9  A    between atoms: O2_18  and  C12_19
ROOT
HETATM    1  C8  UNL     1       1.124  89.266  98.698  1.00  0.00     0.237 C
ENDROOT
BRANCH   1   2
HETATM    2  C7  UNL     1       1.921  88.023  98.939  1.00  0.00     0.067 C
BRANCH   2   3
HETATM    3  C6  UNL     1       3.211  88.377  99.596  1.00  0.00    -0.042 A
HETATM    4  C4  UNL     1       3.316  88.340 100.961  1.00  0.00    -0.033 A
HETATM    5  C3  UNL     1       4.555  88.692 101.497  1.00  0.00     0.047 A
HETATM    6  C5  UNL     1       2.199  87.953 101.850  1.00  0.00     0.050 C
HETATM    7  C2  UNL     1       5.631  89.060 100.729  1.00  0.00    -0.022 A
HETATM    8 CL1  UNL     1       4.698  88.646 103.245  1.00  0.00    -0.083 Cl
HETATM    9  C1  UNL     1       6.948  89.433 101.354  1.00  0.00     0.051 C
HETATM   10  C17 UNL     1       5.489  89.086  99.351  1.00  0.00     0.025 A
HETATM   11  C15 UNL     1       4.283  88.747  98.783  1.00  0.00    -0.037 A
HETATM   12 BR1  UNL     1       6.956  89.593  98.230  1.00  0.00    -0.050 Br
HETATM   13  C16 UNL     1       4.155  88.784  97.307  1.00  0.00     0.050 C
ENDBRANCH   2   3
ENDBRANCH   1   2
BRANCH   1  14
HETATM   14  N1  UNL     1       0.479  89.230  97.430  1.00  0.00    -0.072 N
ATOM     15  H12 UNL     1       0.480  90.149  96.989  1.00  0.00     0.277 HD
ATOM     16  H11 UNL     1       1.039  88.721  96.745  1.00  0.00     0.277 HD
BRANCH  14  17
HETATM   17  C9  UNL     1      -0.848  88.696  97.516  1.00  0.00     0.265 C
BRANCH  17  18
HETATM   18  C10 UNL     1      -1.905  89.695  97.114  1.00  0.00     0.167 C
BRANCH  18  19
HETATM   19  O1  UNL     1      -1.429  90.792  96.436  1.00  0.00    -0.392 OA
ATOM     20  H1  UNL     1      -2.060  91.206  95.859  1.00  0.00     0.210 HD
ENDBRANCH  18  19
BRANCH  18  21
HETATM   21  C11 UNL     1      -2.718  90.083  98.315  1.00  0.00     0.201 C
BRANCH  21  22
HETATM   22  O2  UNL     1      -2.161  89.526  99.450  1.00  0.00    -0.384 OA
BRANCH  22  23
HETATM   23  C12 UNL     1      -2.310  90.368 100.558  1.00  0.00     0.113 C
HETATM   24  C13 UNL     1      -1.130  90.176 101.451  1.00  0.00     0.039 C
HETATM   25  C14 UNL     1      -2.537  91.801 100.155  1.00  0.00     0.039 C
ENDBRANCH  22  23
ENDBRANCH  21  22
ENDBRANCH  18  21
ENDBRANCH  17  18
ENDBRANCH  14  17
ENDBRANCH   1  14
TORSDOF 9
ENDMDL