MODEL 3
REMARK VINA RESULT: -7.352401943      5.837     11.250
REMARK  10 active torsions:
REMARK  status: ('A' for Active; 'I' for Inactive)
REMARK    1  A    between atoms: C2_2  and  C3_3
REMARK    2  A    between atoms: C3_3  and  C4_4
REMARK    3  A    between atoms: C4_4  and  C5_5
REMARK    4  A    between atoms: C5_5  and  C6_6
REMARK    5  A    between atoms: C6_6  and  C7_7
REMARK    6  A    between atoms: C7_7  and  N1_9
REMARK    7  A    between atoms: N1_9  and  C9_11
REMARK    8  A    between atoms: C11_15  and  C12_16
REMARK    9  A    between atoms: C12_16  and  C13_17
REMARK   10  A    between atoms: C17_23  and  C18_24
ROOT
HETATM    1  C9  UNL     1       8.487  86.292 105.294  1.00  0.00     0.681 A
HETATM    2  N2  UNL     1       9.550  85.531 104.985  1.00  0.00    -0.201 N
ATOM      3  H2  UNL     1       9.924  85.574 104.037  1.00  0.00     0.183 HD
HETATM    4  C10 UNL     1      10.140  84.716 105.875  1.00  0.00     0.119 A
HETATM    5  C11 UNL     1       9.652  84.633 107.194  1.00  0.00     0.031 A
HETATM    6  C22 UNL     1       8.577  85.423 107.453  1.00  0.00     0.267 A
HETATM    7  O1  UNL     1       8.025  85.458 108.599  1.00  0.00    -0.267 OA
HETATM    8  N3  UNL     1       8.003  86.232 106.538  1.00  0.00    -0.156 N
ATOM      9  H3  UNL     1       7.197  86.801 106.797  1.00  0.00     0.187 HD
ENDROOT
BRANCH   5  10
HETATM   10  C12 UNL     1      10.235  83.717 108.159  1.00  0.00     0.086 C
BRANCH  10  11
HETATM   11  C13 UNL     1      11.179  82.697 107.662  1.00  0.00    -0.025 A
HETATM   12  C14 UNL     1      10.790  81.731 106.758  1.00  0.00     0.044 A
HETATM   13 CL1  UNL     1       9.165  81.657 106.122  1.00  0.00    -0.084 Cl
HETATM   14  C15 UNL     1      11.679  80.759 106.313  1.00  0.00     0.067 A
HETATM   15  C16 UNL     1      12.969  80.750 106.776  1.00  0.00     0.124 A
HETATM   16  F1  UNL     1      13.853  79.833 106.371  1.00  0.00    -0.205 F
HETATM   17  C17 UNL     1      13.416  81.702 107.693  1.00  0.00    -0.013 A
HETATM   18  C20 UNL     1      12.511  82.647 108.115  1.00  0.00    -0.044 A
HETATM   19  C21 UNL     1      12.939  83.582 109.176  1.00  0.00     0.049 C
BRANCH  17  20
HETATM   20  C18 UNL     1      14.794  81.692 108.168  1.00  0.00     0.038 C
HETATM   21  C19 UNL     1      15.144  80.572 109.096  1.00  0.00     0.010 C
ENDBRANCH  17  20
ENDBRANCH  10  11
ENDBRANCH   5  10
BRANCH   1  22
HETATM   22  N1  UNL     1       7.912  87.068 104.476  1.00  0.00    -0.222 N
ATOM     23  H1  UNL     1       7.909  86.744 103.508  1.00  0.00     0.178 HD
BRANCH  22  24
HETATM   24  C7  UNL     1       7.273  88.315 104.690  1.00  0.00     0.095 C
HETATM   25  C8  UNL     1       7.761  89.370 103.693  1.00  0.00     0.032 C
BRANCH  24  26
HETATM   26  C6  UNL     1       5.782  88.115 104.392  1.00  0.00     0.025 C
BRANCH  26  27
HETATM   27  C5  UNL     1       5.400  89.098 103.310  1.00  0.00     0.002 C
BRANCH  27  28
HETATM   28  C4  UNL     1       4.334  88.574 102.396  1.00  0.00     0.000 C
BRANCH  28  29
HETATM   29  C3  UNL     1       4.251  89.413 101.152  1.00  0.00    -0.000 C
BRANCH  29  30
HETATM   30  C2  UNL     1       5.060  90.684 101.377  1.00  0.00    -0.005 C
HETATM   31  C1  UNL     1       5.726  91.029 100.080  1.00  0.00     0.005 C
ENDBRANCH  29  30
ENDBRANCH  28  29
ENDBRANCH  27  28
ENDBRANCH  26  27
ENDBRANCH  24  26
ENDBRANCH  22  24
ENDBRANCH   1  22
TORSDOF 10
ENDMDL