MODEL 2
REMARK VINA RESULT: -7.103114746      2.076      2.811
REMARK  11 active torsions:
REMARK  status: ('A' for Active; 'I' for Inactive)
REMARK    1  A    between atoms: C7_8  and  C8_9
REMARK    2  A    between atoms: C8_9  and  C9_10
REMARK    3  A    between atoms: C9_10  and  C10_11
REMARK    4  A    between atoms: C10_11  and  O1_12
REMARK    5  A    between atoms: C12_15  and  N1_16
REMARK    6  A    between atoms: N1_16  and  C13_18
REMARK    7  A    between atoms: C13_18  and  C14_19
REMARK    8  A    between atoms: C14_19  and  C15_20
REMARK    9  A    between atoms: C15_20  and  C16_21
REMARK   10  A    between atoms: C16_21  and  C17_22
REMARK   11  A    between atoms: C17_22  and  C18_23
ROOT
HETATM    1  C1  UNL     1       2.097  88.562  97.954  1.00  0.00     0.050 C
HETATM    2  C2  UNL     1       3.463  88.758  98.518  1.00  0.00    -0.033 A
HETATM    3  C3  UNL     1       4.544  89.028  97.710  1.00  0.00     0.033 A
HETATM    4  C4  UNL     1       5.797  89.205  98.264  1.00  0.00     0.035 A
HETATM    5 CL1  UNL     1       7.182  89.550  97.239  1.00  0.00    -0.084 Cl
HETATM    6  C5  UNL     1       6.007  89.120  99.624  1.00  0.00     0.038 A
HETATM    7  C6  UNL     1       4.927  88.850 100.440  1.00  0.00    -0.001 A
HETATM    8  C7  UNL     1       5.122  88.765 101.809  1.00  0.00    -0.042 A
HETATM    9  C11 UNL     1       4.012  88.498 102.579  1.00  0.00     0.056 A
HETATM   10  C12 UNL     1       2.733  88.318 102.019  1.00  0.00     0.101 A
HETATM   11  N2  UNL     1       2.604  88.411 100.691  1.00  0.00    -0.342 N
ATOM     12  H2  UNL     1       1.682  88.281 100.273  1.00  0.00     0.167 HD
HETATM   13  C19 UNL     1       3.667  88.672  99.879  1.00  0.00     0.050 A
ENDROOT
BRANCH  10  14
HETATM   14  N1  UNL     1       1.729  88.073 102.746  1.00  0.00    -0.376 N
ATOM     15  H1  UNL     1       1.917  87.741 103.691  1.00  0.00     0.161 HD
BRANCH  14  16
HETATM   16  C13 UNL     1       0.355  88.215 102.378  1.00  0.00     0.121 C
BRANCH  16  17
HETATM   17  C14 UNL     1      -0.151  89.547 102.888  1.00  0.00     0.020 C
BRANCH  17  18
HETATM   18  C15 UNL     1      -0.230  90.596 101.829  1.00  0.00     0.002 C
BRANCH  18  19
HETATM   19  C16 UNL     1      -0.921  90.114 100.594  1.00  0.00     0.001 C
BRANCH  19  20
HETATM   20  C17 UNL     1      -2.406  90.400 100.611  1.00  0.00     0.011 C
BRANCH  20  21
HETATM   21  C18 UNL     1      -2.898  90.490  99.178  1.00  0.00     0.085 C
HETATM   22 BR1  UNL     1      -1.510  89.988  97.934  1.00  0.00    -0.097 Br
ENDBRANCH  20  21
ENDBRANCH  19  20
ENDBRANCH  18  19
ENDBRANCH  17  18
ENDBRANCH  16  17
ENDBRANCH  14  16
ENDBRANCH  10  14
BRANCH   8  23
HETATM   23  C8  UNL     1       6.465  88.937 102.433  1.00  0.00     0.042 C
BRANCH  23  24
HETATM   24  C9  UNL     1       6.377  89.207 103.913  1.00  0.00     0.030 C
BRANCH  24  25
HETATM   25  C10 UNL     1       6.896  88.058 104.712  1.00  0.00     0.164 C
BRANCH  25  26
HETATM   26  O1  UNL     1       5.879  87.399 105.420  1.00  0.00    -0.401 OA
ATOM     27  H1  UNL     1       5.443  87.970 106.042  1.00  0.00     0.209 HD
ENDBRANCH  25  26
ENDBRANCH  24  25
ENDBRANCH  23  24
ENDBRANCH   8  23
TORSDOF 11
ENDMDL