MODEL 3
REMARK VINA RESULT: -9.752196497      7.310      8.691
REMARK  8 active torsions:
REMARK  status: ('A' for Active; 'I' for Inactive)
REMARK    1  A    between atoms: C3_3  and  C4_4
REMARK    2  A    between atoms: N2_10  and  C5_11
REMARK    3  A    between atoms: N3_14  and  C8_15
REMARK    4  A    between atoms: C8_15  and  C9_16
REMARK    5  A    between atoms: C9_16  and  N4_17
REMARK    6  A    between atoms: C10_18  and  O1_19
REMARK    7  A    between atoms: C13_23  and  O2_24
REMARK    8  A    between atoms: N5_34  and  O3_35
ROOT
HETATM    1  C5  UNL     1       2.611 -23.198  15.618  1.00  0.00     0.137 C
HETATM    2  C6  UNL     1       2.835 -21.743  15.860  1.00  0.00     0.060 C
HETATM    3  C7  UNL     1       1.540 -21.189  16.468  1.00  0.00     0.275 C
HETATM    4  N3  UNL     1       1.213 -22.035  17.591  1.00  0.00     0.094 N
HETATM    5  C18 UNL     1       0.617 -23.256  17.038  1.00  0.00     0.224 C
HETATM    6  C19 UNL     1       0.798 -24.340  18.052  1.00  0.00     0.043 C
HETATM    7  C20 UNL     1       1.146 -23.585  15.680  1.00  0.00     0.041 C
HETATM    8  C21 UNL     1       1.086 -25.089  15.407  1.00  0.00     0.014 C
ENDROOT
BRANCH   4   9
HETATM    9  C8  UNL     1       0.216 -21.475  18.478  1.00  0.00     0.293 C
BRANCH   9  10
HETATM   10  C9  UNL     1       0.636 -20.133  18.960  1.00  0.00     0.163 C
BRANCH  10  11
HETATM   11  N4  UNL     1      -0.483 -19.248  19.140  1.00  0.00    -0.306 N
HETATM   12  C10 UNL     1      -0.991 -18.447  18.191  1.00  0.00     0.151 A
HETATM   13  C11 UNL     1      -2.050 -17.730  18.681  1.00  0.00     0.007 A
HETATM   14  C12 UNL     1      -2.192 -18.122  20.009  1.00  0.00     0.007 A
HETATM   15  C17 UNL     1      -2.982 -16.713  18.123  1.00  0.00     0.070 C
HETATM   16  C13 UNL     1      -1.213 -19.052  20.248  1.00  0.00     0.151 A
HETATM   17  C14 UNL     1      -3.281 -17.513  20.833  1.00  0.00     0.070 C
HETATM   18  C15 UNL     1      -4.461 -17.220  19.981  1.00  0.00    -0.026 C
HETATM   19  C16 UNL     1      -4.329 -16.849  18.725  1.00  0.00    -0.026 C
BRANCH  12  20
HETATM   20  O1  UNL     1      -0.541 -18.320  16.866  1.00  0.00    -0.345 OA
ATOM     21  H1  UNL     1      -0.319 -19.025  16.269  1.00  0.00     0.219 HD
ENDBRANCH  12  20
BRANCH  16  22
HETATM   22  O2  UNL     1      -1.046 -19.678  21.500  1.00  0.00    -0.345 OA
ATOM     23  H2  UNL     1      -0.913 -19.254  22.340  1.00  0.00     0.219 HD
ENDBRANCH  16  22
ENDBRANCH  10  11
ENDBRANCH   9  10
ENDBRANCH   4   9
BRANCH   1  24
HETATM   24  N2  UNL     1       3.219 -23.680  14.391  1.00  0.00    -0.202 N
HETATM   25  N1  UNL     1       2.913 -23.265  13.155  1.00  0.00    -0.276 N
HETATM   26  C3  UNL     1       3.654 -23.908  12.266  1.00  0.00     0.160 A
ATOM     27  H1  UNL     1       2.213 -22.557  12.932  1.00  0.00     0.189 HD
HETATM   28  C2  UNL     1       4.462 -24.768  12.966  1.00  0.00     0.089 A
HETATM   29  C1  UNL     1       5.442 -25.671  12.325  1.00  0.00     0.075 C
HETATM   30  N5  UNL     1       4.165 -24.598  14.272  1.00  0.00    -0.149 N
BRANCH  26  31
HETATM   31  C4  UNL     1       3.598 -23.714  10.779  1.00  0.00     0.436 C
HETATM   32  F1  UNL     1       4.757 -23.210  10.270  1.00  0.00    -0.165 F
HETATM   33  F2  UNL     1       3.200 -24.880  10.174  1.00  0.00    -0.165 F
HETATM   34  F3  UNL     1       2.573 -22.780  10.562  1.00  0.00    -0.165 F
ENDBRANCH  26  31
BRANCH  30  35
HETATM   35  O3  UNL     1       4.789 -25.303  15.272  1.00  0.00    -0.267 OA
ATOM     36  H3  UNL     1       4.852 -24.981  16.164  1.00  0.00     0.247 HD
ENDBRANCH  30  35
ENDBRANCH   1  24
TORSDOF 8
ENDMDL