MODEL 1
REMARK VINA RESULT: -8.723666323      0.000      0.000
REMARK  6 active torsions:
REMARK  status: ('A' for Active; 'I' for Inactive)
REMARK    1  A    between atoms: C9_9  and  N1_10
REMARK    2  A    between atoms: N1_10  and  C10_12
REMARK    3  A    between atoms: C11_13  and  N2_14
REMARK    4  A    between atoms: C14_17  and  C15_18
REMARK    5  A    between atoms: C15_18  and  O1_19
REMARK    6  A    between atoms: C15_18  and  C16_21
ROOT
HETATM    1  C10 UNL     1      -1.437 -19.501  20.766  1.00  0.00     0.144 A
HETATM    2  C11 UNL     1      -0.680 -20.680  20.546  1.00  0.00     0.144 A
HETATM    3  C18 UNL     1      -0.669 -21.708  21.497  1.00  0.00     0.281 A
HETATM    4  O2  UNL     1       0.005 -22.770  21.317  1.00  0.00    -0.265 OA
HETATM    5  N3  UNL     1      -1.383 -21.569  22.615  1.00  0.00    -0.269 N
HETATM    6  C19 UNL     1      -1.349 -22.666  23.590  1.00  0.00     0.164 C
HETATM    7  C20 UNL     1      -2.090 -20.465  22.808  1.00  0.00     0.332 A
HETATM    8  O3  UNL     1      -2.758 -20.359  23.872  1.00  0.00    -0.246 OA
HETATM    9  N4  UNL     1      -2.128 -19.439  21.913  1.00  0.00    -0.287 N
HETATM   10  C21 UNL     1      -2.926 -18.286  22.332  1.00  0.00     0.163 C
ENDROOT
BRANCH   2  11
HETATM   11  N2  UNL     1      -0.044 -20.985  19.324  1.00  0.00    -0.373 N
HETATM   12  C12 UNL     1       1.232 -20.633  18.775  1.00  0.00     0.123 C
HETATM   13  C13 UNL     1       1.875 -21.976  18.387  1.00  0.00     0.029 C
HETATM   14  C14 UNL     1       0.700 -22.756  17.914  1.00  0.00     0.043 C
HETATM   15  C17 UNL     1      -0.508 -21.931  18.307  1.00  0.00     0.130 C
BRANCH  14  16
HETATM   16  C15 UNL     1       0.768 -22.954  16.406  1.00  0.00     0.231 C
BRANCH  16  17
HETATM   17  O1  UNL     1       1.500 -21.849  15.915  1.00  0.00    -0.386 OA
ATOM     18  H1  UNL     1       0.859 -21.289  15.493  1.00  0.00     0.210 HD
ENDBRANCH  16  17
BRANCH  16  19
HETATM   19  C16 UNL     1       1.578 -24.187  16.112  1.00  0.00     0.413 C
HETATM   20  F1  UNL     1       2.879 -23.876  15.884  1.00  0.00    -0.168 F
HETATM   21  F2  UNL     1       1.402 -25.083  17.146  1.00  0.00    -0.168 F
HETATM   22  F3  UNL     1       1.024 -24.773  14.969  1.00  0.00    -0.168 F
ENDBRANCH  16  19
ENDBRANCH  14  16
ENDBRANCH   2  11
BRANCH   1  23
HETATM   23  N1  UNL     1      -1.290 -18.443  19.880  1.00  0.00    -0.347 N
ATOM     24  H1  UNL     1      -0.501 -17.867  20.173  1.00  0.00     0.167 HD
BRANCH  23  25
HETATM   25  C9  UNL     1      -1.854 -17.896  18.723  1.00  0.00    -0.008 C
HETATM   26  C2  UNL     1      -2.792 -16.724  18.859  1.00  0.00     0.028 C
HETATM   27  C1  UNL     1      -4.257 -17.104  18.935  1.00  0.00     0.016 C
HETATM   28  C3  UNL     1      -2.661 -15.724  17.749  1.00  0.00     0.019 C
HETATM   29  C4  UNL     1      -2.532 -16.301  16.391  1.00  0.00    -0.047 C
HETATM   30  C5  UNL     1      -1.409 -15.546  15.671  1.00  0.00     0.015 C
HETATM   31  C6  UNL     1      -3.780 -16.072  15.532  1.00  0.00     0.015 C
HETATM   32  C7  UNL     1      -2.198 -17.760  16.327  1.00  0.00     0.014 C
HETATM   33  C8  UNL     1      -1.124 -17.979  17.417  1.00  0.00     0.053 C
ENDBRANCH  23  25
ENDBRANCH   1  23
TORSDOF 6
ENDMDL