MODEL 3
REMARK VINA RESULT: -7.371383358      2.743      9.158
REMARK  6 active torsions:
REMARK  status: ('A' for Active; 'I' for Inactive)
REMARK    1  A    between atoms: C4_9  and  C5_10
REMARK    2  A    between atoms: C9_14  and  N3_15
REMARK    3  A    between atoms: N4_18  and  C12_19
REMARK    4  A    between atoms: C12_19  and  C14_21
REMARK    5  A    between atoms: C14_21  and  N5_24
REMARK    6  A    between atoms: C19_31  and  C20_32
ROOT
HETATM    1  N3  UNL     1       2.775 -21.909  10.991  1.00  0.00    -0.363 N
HETATM    2  C10 UNL     1       1.527 -21.430  11.514  1.00  0.00     0.143 C
HETATM    3  C11 UNL     1       1.453 -21.495  13.009  1.00  0.00     0.138 C
HETATM    4  N4  UNL     1       2.093 -22.563  13.672  1.00  0.00    -0.391 N
HETATM    5  C19 UNL     1       2.827 -23.462  12.936  1.00  0.00     0.206 C
HETATM    6  C21 UNL     1       3.589 -22.747  11.803  1.00  0.00     0.158 C
ENDROOT
BRANCH   1   7
HETATM    7  C9  UNL     1       3.083 -21.604   9.626  1.00  0.00     0.115 A
HETATM    8  C4  UNL     1       3.733 -20.490   9.249  1.00  0.00     0.037 A
HETATM    9  C3  UNL     1       3.988 -20.390   7.848  1.00  0.00     0.111 A
HETATM   10  N1  UNL     1       3.613 -21.316   6.979  1.00  0.00    -0.332 N
HETATM   11  N2  UNL     1       4.653 -19.364   7.404  1.00  0.00    -0.385 N
HETATM   12  C2  UNL     1       2.965 -22.398   7.443  1.00  0.00     0.080 A
ATOM     13  H1  UNL     1       3.811 -21.211   5.984  1.00  0.00     0.168 HD
HETATM   14  C1  UNL     1       2.537 -23.441   6.470  1.00  0.00     0.089 C
HETATM   15  N8  UNL     1       2.695 -22.563   8.718  1.00  0.00    -0.332 N
ATOM     16  H8  UNL     1       2.201 -23.397   9.034  1.00  0.00     0.168 HD
ATOM     17  H22 UNL     1       4.836 -19.293   6.403  1.00  0.00     0.157 HD
ATOM     18  H21 UNL     1       4.942 -18.651   8.073  1.00  0.00     0.157 HD
BRANCH   8  19
HETATM   19  C5  UNL     1       4.213 -19.347  10.019  1.00  0.00    -0.017 C
HETATM   20  C6  UNL     1       5.442 -18.710   9.315  1.00  0.00     0.019 C
HETATM   21  C7  UNL     1       4.424 -19.378  11.472  1.00  0.00     0.019 C
HETATM   22  C8  UNL     1       3.102 -18.260   9.864  1.00  0.00     0.019 C
ENDBRANCH   8  19
ENDBRANCH   1   7
BRANCH   5  23
HETATM   23  C20 UNL     1       2.261 -24.713  12.379  1.00  0.00     0.408 C
HETATM   24  F1  UNL     1       2.848 -24.973  11.118  1.00  0.00    -0.169 F
HETATM   25  F2  UNL     1       2.602 -25.869  13.079  1.00  0.00    -0.169 F
HETATM   26  F3  UNL     1       0.932 -24.785  12.155  1.00  0.00    -0.169 F
ENDBRANCH   5  23
BRANCH   4  27
HETATM   27  C12 UNL     1       1.668 -22.777  14.995  1.00  0.00     0.105 C
HETATM   28  C13 UNL     1       1.224 -24.174  15.348  1.00  0.00     0.034 C
BRANCH  27  29
HETATM   29  C14 UNL     1       2.492 -22.335  16.148  1.00  0.00     0.067 C
HETATM   30  C15 UNL     1       3.486 -23.214  16.774  1.00  0.00     0.042 C
HETATM   31  C16 UNL     1       3.270 -21.071  15.709  1.00  0.00     0.042 C
BRANCH  29  32
HETATM   32  N5  UNL     1       1.651 -21.864  17.267  1.00  0.00    -0.276 N
HETATM   33  C17 UNL     1       1.618 -22.302  18.534  1.00  0.00     0.202 A
HETATM   34  N6  UNL     1       0.727 -21.628  19.256  1.00  0.00    -0.346 N
HETATM   35  C18 UNL     1       0.176 -20.734  18.423  1.00  0.00     0.198 A
ATOM     36  H6  UNL     1       0.507 -21.765  20.243  1.00  0.00     0.167 HD
HETATM   37  N7  UNL     1       0.754 -20.894  17.214  1.00  0.00    -0.292 N
ATOM     38  H7  UNL     1       0.532 -20.348  16.382  1.00  0.00     0.188 HD
ENDBRANCH  29  32
ENDBRANCH  27  29
ENDBRANCH   4  27
TORSDOF 6
ENDMDL