MODEL 5
REMARK VINA RESULT: -9.531312516      4.249      8.194
REMARK  5 active torsions:
REMARK  status: ('A' for Active; 'I' for Inactive)
REMARK    1  A    between atoms: C7_8  and  N2_9
REMARK    2  A    between atoms: C9_11  and  C10_12
REMARK    3  A    between atoms: C12_16  and  C13_17
REMARK    4  A    between atoms: C18_29  and  N6_30
REMARK    5  A    between atoms: N6_30  and  C19_32
ROOT
HETATM    1  N1  UNL     1      -3.464 -17.510  21.269  1.00  0.00    -0.197 NA
HETATM    2  C1  UNL     1      -3.317 -17.433  20.120  1.00  0.00     0.066 C
HETATM    3  C2  UNL     1      -3.131 -17.346  18.665  1.00  0.00     0.117 C
HETATM    4  C3  UNL     1      -3.773 -16.065  18.189  1.00  0.00     0.021 C
HETATM    5  C4  UNL     1      -3.558 -15.856  16.723  1.00  0.00     0.001 C
HETATM    6  C5  UNL     1      -2.115 -15.910  16.318  1.00  0.00     0.002 C
HETATM    7  C6  UNL     1      -1.478 -17.148  16.875  1.00  0.00     0.028 C
HETATM    8  C7  UNL     1      -1.669 -17.293  18.364  1.00  0.00     0.125 C
ENDROOT
BRANCH   8   9
HETATM    9  N2  UNL     1      -1.024 -18.556  18.743  1.00  0.00    -0.295 N
HETATM   10  C8  UNL     1      -0.373 -19.411  17.901  1.00  0.00     0.128 A
HETATM   11  C9  UNL     1       0.103 -20.489  18.616  1.00  0.00     0.054 A
HETATM   12  C18 UNL     1      -0.281 -20.259  19.909  1.00  0.00     0.130 A
HETATM   13  N7  UNL     1      -0.958 -19.084  19.947  1.00  0.00    -0.283 N
ATOM     14  H7  UNL     1      -1.358 -18.668  20.789  1.00  0.00     0.189 HD
BRANCH  11  15
HETATM   15  C10 UNL     1       0.849 -21.628  18.110  1.00  0.00     0.067 A
HETATM   16  C11 UNL     1       1.496 -22.643  18.770  1.00  0.00     0.160 A
HETATM   17  N3  UNL     1       2.049 -23.470  17.849  1.00  0.00    -0.176 N
HETATM   18  F1  UNL     1       2.755 -24.569  18.195  1.00  0.00    -0.093 F
HETATM   19  C12 UNL     1       1.770 -23.005  16.620  1.00  0.00     0.120 A
HETATM   20  N5  UNL     1       1.047 -21.893  16.780  1.00  0.00    -0.342 N
ATOM     21  H5  UNL     1       0.691 -21.320  16.015  1.00  0.00     0.167 HD
BRANCH  19  22
HETATM   22  C13 UNL     1       2.194 -23.620  15.327  1.00  0.00     0.087 C
HETATM   23  C14 UNL     1       1.506 -24.983  15.211  1.00  0.00     0.245 C
HETATM   24  N4  UNL     1       2.036 -25.721  14.085  1.00  0.00    -0.069 N
HETATM   25  C15 UNL     1       2.723 -24.861  13.145  1.00  0.00     0.310 C
ATOM     26  H42 UNL     1       2.637 -26.485  14.393  1.00  0.00     0.277 HD
ATOM     27  H41 UNL     1       1.307 -26.264  13.623  1.00  0.00     0.277 HD
HETATM   28  C16 UNL     1       1.965 -23.577  12.885  1.00  0.00     0.268 C
HETATM   29  F2  UNL     1       0.796 -23.871  12.232  1.00  0.00    -0.204 F
HETATM   30  F3  UNL     1       2.735 -22.801  12.051  1.00  0.00    -0.204 F
HETATM   31  C17 UNL     1       1.718 -22.795  14.159  1.00  0.00     0.094 C
ENDBRANCH  19  22
ENDBRANCH  11  15
BRANCH  12  32
HETATM   32  N6  UNL     1      -0.051 -21.010  20.929  1.00  0.00    -0.370 N
ATOM     33  H6  UNL     1       0.911 -21.259  21.162  1.00  0.00     0.161 HD
BRANCH  32  34
HETATM   34  C19 UNL     1      -1.136 -21.507  21.752  1.00  0.00     0.083 C
HETATM   35  C20 UNL     1      -1.460 -20.585  22.905  1.00  0.00     0.025 C
HETATM   36  C21 UNL     1      -1.364 -21.763  23.853  1.00  0.00     0.004 C
HETATM   37  C22 UNL     1      -0.693 -22.552  22.756  1.00  0.00     0.025 C
ENDBRANCH  32  34
ENDBRANCH  12  32
ENDBRANCH   8   9
TORSDOF 5
ENDMDL