MODEL 3
REMARK VINA RESULT: -8.308890632      1.011      1.392
REMARK  9 active torsions:
REMARK  status: ('A' for Active; 'I' for Inactive)
REMARK    1  A    between atoms: C2_2  and  O1_5
REMARK    2  A    between atoms: O1_5  and  C5_6
REMARK       I    between atoms: C5_6  and  N1_8
REMARK    3  A    between atoms: N1_8  and  C6_10
REMARK    4  A    between atoms: C7_13  and  C8_14
REMARK    5  A    between atoms: C9_18  and  C10_19
REMARK    6  A    between atoms: C10_19  and  O4_21
REMARK    7  A    between atoms: O4_21  and  C11_22
REMARK    8  A    between atoms: C11_22  and  C12_23
REMARK       I    between atoms: C12_23  and  N3_25
REMARK    9  A    between atoms: N3_25  and  C13_27
ROOT
HETATM    1  C6  UNL     1      -0.945 -19.056  19.682  1.00  0.00     0.154 A
HETATM    2  N2  UNL     1      -2.004 -18.637  20.372  1.00  0.00    -0.331 N
ATOM      3  H2  UNL     1      -2.187 -18.994  21.310  1.00  0.00     0.168 HD
HETATM    4  C7  UNL     1      -2.809 -17.757  19.825  1.00  0.00     0.142 A
HETATM    5  C9  UNL     1      -2.514 -17.315  18.571  1.00  0.00     0.115 A
HETATM    6  S1  UNL     1      -1.068 -18.200  18.222  1.00  0.00    -0.045 SA
ENDROOT
BRANCH   5   7
HETATM    7  C10 UNL     1      -3.162 -16.350  17.670  1.00  0.00     0.303 C
HETATM    8  O3  UNL     1      -3.263 -15.159  17.913  1.00  0.00    -0.259 OA
BRANCH   7   9
HETATM    9  O4  UNL     1      -3.691 -16.811  16.477  1.00  0.00    -0.308 OA
BRANCH   9  10
HETATM   10  C11 UNL     1      -4.034 -16.056  15.364  1.00  0.00     0.281 C
BRANCH  10  11
HETATM   11  C12 UNL     1      -3.120 -16.107  14.231  1.00  0.00     0.242 C
HETATM   12  O5  UNL     1      -1.938 -16.482  14.384  1.00  0.00    -0.271 OA
HETATM   13  N3  UNL     1      -3.553 -15.737  12.937  1.00  0.00    -0.353 N
ATOM     14  H3  UNL     1      -4.517 -15.431  12.807  1.00  0.00     0.163 HD
BRANCH  13  15
HETATM   15  C13 UNL     1      -2.660 -15.777  11.778  1.00  0.00     0.108 C
HETATM   16  C14 UNL     1      -3.471 -16.150  10.569  1.00  0.00     0.029 C
HETATM   17  C15 UNL     1      -4.384 -15.039  10.118  1.00  0.00     0.028 C
HETATM   18  C16 UNL     1      -3.806 -13.672  10.331  1.00  0.00     0.167 C
HETATM   19  O6  UNL     1      -3.262 -13.522  11.605  1.00  0.00    -0.389 OA
HETATM   20  C17 UNL     1      -2.120 -14.348  11.637  1.00  0.00     0.192 C
ENDBRANCH  13  15
ENDBRANCH  10  11
ENDBRANCH   9  10
ENDBRANCH   7   9
ENDBRANCH   5   7
BRANCH   4  21
HETATM   21  C8  UNL     1      -4.045 -17.245  20.559  1.00  0.00     0.434 C
HETATM   22  F1  UNL     1      -5.117 -17.118  19.703  1.00  0.00    -0.165 F
HETATM   23  F2  UNL     1      -4.458 -18.131  21.536  1.00  0.00    -0.165 F
HETATM   24  F3  UNL     1      -3.751 -16.074  21.244  1.00  0.00    -0.165 F
ENDBRANCH   4  21
BRANCH   1  25
HETATM   25  N1  UNL     1      -0.024 -19.922  20.037  1.00  0.00    -0.282 N
HETATM   26  C5  UNL     1      -0.191 -21.304  19.870  1.00  0.00     0.367 C
HETATM   27  O2  UNL     1      -0.299 -22.024  20.899  1.00  0.00    -0.238 OA
ATOM     28  H1  UNL     1       0.843 -19.577  20.447  1.00  0.00     0.173 HD
BRANCH  26  29
HETATM   29  O1  UNL     1      -0.247 -21.940  18.640  1.00  0.00    -0.294 OA
BRANCH  29  30
HETATM   30  C2  UNL     1       0.859 -22.356  17.900  1.00  0.00     0.061 C
HETATM   31  C1  UNL     1       1.894 -23.069  18.745  1.00  0.00     0.046 C
HETATM   32  C3  UNL     1       1.575 -21.203  17.211  1.00  0.00     0.046 C
HETATM   33  C4  UNL     1       0.386 -23.289  16.806  1.00  0.00     0.046 C
ENDBRANCH  29  30
ENDBRANCH  26  29
ENDBRANCH   1  25
TORSDOF 9
ENDMDL