MODEL 3
REMARK VINA RESULT: -7.204585536      1.297      1.455
REMARK  4 active torsions:
REMARK  status: ('A' for Active; 'I' for Inactive)
REMARK    1  A    between atoms: C2_2  and  N1_3
REMARK    2  A    between atoms: C5_6  and  N2_7
REMARK       I    between atoms: N2_7  and  C6_9
REMARK       I    between atoms: C6_9  and  N3_11
REMARK    3  A    between atoms: N3_11  and  C7_13
REMARK       I    between atoms: N4_15  and  C9_16
REMARK    4  A    between atoms: C11_19  and  C12_20
ROOT
HETATM    1  N2  UNL     1       2.861 -22.443  12.016  1.00  0.00    -0.327 N
ATOM      2  H2  UNL     1       3.858 -22.521  11.817  1.00  0.00     0.165 HD
HETATM    3  C6  UNL     1       2.358 -22.634  13.357  1.00  0.00     0.322 C
HETATM    4  O1  UNL     1       1.111 -22.535  13.576  1.00  0.00    -0.247 OA
HETATM    5  N3  UNL     1       3.213 -22.926  14.421  1.00  0.00    -0.294 N
ATOM      6  H3  UNL     1       4.211 -22.986  14.221  1.00  0.00     0.172 HD
ENDROOT
BRANCH   1   7
HETATM    7  C5  UNL     1       1.934 -22.144  10.979  1.00  0.00     0.211 C
HETATM    8  C3  UNL     1       2.276 -22.812   9.649  1.00  0.00     0.254 C
HETATM    9  N1  UNL     1       3.616 -22.602   9.304  1.00  0.00     0.128 N
HETATM   10  C4  UNL     1       1.766 -24.212   9.687  1.00  0.00     0.045 C
HETATM   11  C17 UNL     1       4.145 -21.301   9.445  1.00  0.00     0.391 C
HETATM   12  N6  UNL     1       3.269 -20.312  10.041  1.00  0.00    -0.311 N
HETATM   13  S1  UNL     1       4.428 -20.459   7.831  1.00  0.00    -0.107 SA
HETATM   14  C13 UNL     1       2.061 -20.678  10.691  1.00  0.00     0.247 C
HETATM   15  C14 UNL     1       3.842 -19.006   9.848  1.00  0.00     0.143 C
HETATM   16  O3  UNL     1       1.134 -19.924  11.031  1.00  0.00    -0.271 OA
HETATM   17  C15 UNL     1       3.796 -18.815   8.344  1.00  0.00     0.065 C
HETATM   18  C16 UNL     1       4.717 -17.721   7.884  1.00  0.00     0.023 C
BRANCH   9  19
HETATM   19  C2  UNL     1       3.970 -23.075   7.987  1.00  0.00     0.272 C
HETATM   20  C1  UNL     1       4.887 -24.242   7.925  1.00  0.00     0.037 C
ENDBRANCH   9  19
ENDBRANCH   1   7
BRANCH   5  21
HETATM   21  C7  UNL     1       2.799 -23.143  15.748  1.00  0.00     0.127 A
HETATM   22  C8  UNL     1       3.369 -23.849  16.762  1.00  0.00     0.150 A
HETATM   23  N4  UNL     1       2.626 -23.797  17.906  1.00  0.00    -0.271 N
HETATM   24  C9  UNL     1       2.986 -24.429  19.120  1.00  0.00     0.225 C
HETATM   25  C11 UNL     1       1.568 -23.040  17.586  1.00  0.00     0.201 A
HETATM   26  C10 UNL     1       4.245 -25.218  19.240  1.00  0.00     0.118 C
HETATM   27  O2  UNL     1       2.276 -24.357  20.138  1.00  0.00    -0.273 OA
HETATM   28  N5  UNL     1       1.647 -22.639  16.311  1.00  0.00    -0.323 N
ATOM     29  H5  UNL     1       0.963 -22.053  15.832  1.00  0.00     0.169 HD
BRANCH  25  30
HETATM   30  C12 UNL     1       0.441 -22.669  18.477  1.00  0.00     0.449 C
HETATM   31  F1  UNL     1      -0.219 -23.787  18.947  1.00  0.00    -0.163 F
HETATM   32  F2  UNL     1      -0.478 -21.886  17.775  1.00  0.00    -0.163 F
HETATM   33  F3  UNL     1       0.875 -21.914  19.545  1.00  0.00    -0.163 F
ENDBRANCH  25  30
ENDBRANCH   5  21
TORSDOF 4
ENDMDL