MODEL 2
REMARK VINA RESULT: -7.981891638      5.792      7.113
REMARK  6 active torsions:
REMARK  status: ('A' for Active; 'I' for Inactive)
REMARK    1  A    between atoms: N1_6  and  C6_7
REMARK    2  A    between atoms: C7_10  and  N3_11
REMARK    3  A    between atoms: C13_22  and  O2_23
REMARK    4  A    between atoms: O2_23  and  C14_24
REMARK    5  A    between atoms: C14_24  and  C15_25
REMARK    6  A    between atoms: C15_25  and  C16_27
ROOT
HETATM    1  C6  UNL     1       1.648 -22.283  16.114  1.00  0.00     0.684 A
HETATM    2  N2  UNL     1       2.526 -21.260  15.954  1.00  0.00    -0.174 N
ATOM      3  H2  UNL     1       2.937 -20.831  16.784  1.00  0.00     0.186 HD
HETATM    4  C7  UNL     1       2.876 -20.791  14.741  1.00  0.00     0.152 A
HETATM    5  C8  UNL     1       2.328 -21.365  13.627  1.00  0.00     0.167 A
HETATM    6  C9  UNL     1       1.437 -22.402  13.808  1.00  0.00     0.196 A
HETATM    7  N4  UNL     1       1.103 -22.854  15.029  1.00  0.00    -0.167 N
ATOM      8  H4  UNL     1       0.441 -23.623  15.130  1.00  0.00     0.186 HD
HETATM    9  O1  UNL     1       0.893 -22.968  12.665  1.00  0.00    -0.318 OA
HETATM   10  C10 UNL     1       1.399 -22.801  11.372  1.00  0.00     0.112 C
HETATM   11  C11 UNL     1       0.321 -22.268  10.429  1.00  0.00     0.051 C
HETATM   12  C12 UNL     1       1.777 -24.195  10.859  1.00  0.00     0.051 C
HETATM   13  C13 UNL     1       2.603 -21.914  11.293  1.00  0.00     0.301 C
HETATM   14  O4  UNL     1       2.638 -20.937  12.324  1.00  0.00    -0.309 OA
ENDROOT
BRANCH  13  15
HETATM   15  O2  UNL     1       2.552 -21.222  10.084  1.00  0.00    -0.350 OA
BRANCH  15  16
HETATM   16  C14 UNL     1       3.797 -20.855   9.638  1.00  0.00     0.254 C
BRANCH  16  17
HETATM   17  C15 UNL     1       3.751 -19.556   8.939  1.00  0.00     0.204 C
HETATM   18  O3  UNL     1       3.681 -19.548   7.723  1.00  0.00    -0.291 OA
BRANCH  17  19
HETATM   19  C16 UNL     1       3.786 -18.248   9.642  1.00  0.00     0.250 C
HETATM   20 CL1  UNL     1       4.630 -18.375  11.199  1.00  0.00    -0.075 Cl
HETATM   21 CL2  UNL     1       4.657 -17.037   8.667  1.00  0.00    -0.075 Cl
HETATM   22 CL3  UNL     1       2.121 -17.695   9.964  1.00  0.00    -0.075 Cl
ENDBRANCH  17  19
ENDBRANCH  16  17
ENDBRANCH  15  16
ENDBRANCH  13  15
BRANCH   4  23
HETATM   23  N3  UNL     1       3.711 -19.819  14.588  1.00  0.00    -0.383 N
ATOM     24  H32 UNL     1       4.196 -19.727  13.696  1.00  0.00     0.157 HD
ATOM     25  H31 UNL     1       3.903 -19.141  15.325  1.00  0.00     0.157 HD
ENDBRANCH   4  23
BRANCH   1  26
HETATM   26  N1  UNL     1       1.319 -22.732  17.411  1.00  0.00    -0.217 N
HETATM   27  C5  UNL     1       1.485 -21.863  18.539  1.00  0.00     0.141 C
HETATM   28  C4  UNL     1       0.229 -21.855  19.349  1.00  0.00     0.021 C
HETATM   29  C3  UNL     1      -0.498 -23.154  19.420  1.00  0.00     0.007 C
HETATM   30  C2  UNL     1       0.277 -24.343  18.941  1.00  0.00     0.000 C
HETATM   31  C1  UNL     1       1.295 -24.830  19.917  1.00  0.00     0.011 C
HETATM   32  C17 UNL     1       0.819 -24.070  17.565  1.00  0.00     0.145 C
ENDBRANCH   1  26
TORSDOF 6
ENDMDL