MODEL 2
REMARK VINA RESULT: -10.530558873      2.058      2.580
REMARK  5 active torsions:
REMARK  status: ('A' for Active; 'I' for Inactive)
REMARK    1  A    between atoms: C2_2  and  N2_6
REMARK    2  A    between atoms: N3_9  and  C7_10
REMARK    3  A    between atoms: N4_13  and  C10_14
REMARK    4  A    between atoms: C10_14  and  C11_15
REMARK    5  A    between atoms: C16_28  and  C17_29
ROOT
HETATM    1  C1  UNL     1      -0.525 -14.248  11.467  1.00  0.00     0.054 C
HETATM    2  C2  UNL     1      -1.937 -14.750  11.324  1.00  0.00     0.110 C
HETATM    3  C3  UNL     1      -2.658 -13.588  10.555  1.00  0.00     0.054 C
HETATM    4  C4  UNL     1      -2.011 -15.914  10.474  1.00  0.00     0.090 C
HETATM    5  N1  UNL     1      -2.096 -16.858   9.784  1.00  0.00    -0.195 NA
ENDROOT
BRANCH   2   6
HETATM    6  N2  UNL     1      -2.557 -14.925  12.577  1.00  0.00    -0.389 N
HETATM    7  C5  UNL     1      -3.682 -15.764  12.708  1.00  0.00     0.149 C
HETATM    8  C6  UNL     1      -3.947 -15.956  14.211  1.00  0.00     0.292 C
HETATM    9  N3  UNL     1      -2.795 -16.563  14.797  1.00  0.00     0.101 N
HETATM   10  C19 UNL     1      -1.509 -15.974  14.413  1.00  0.00     0.292 C
HETATM   11  C20 UNL     1      -1.789 -14.655  13.738  1.00  0.00     0.149 C
BRANCH   9  12
HETATM   12  C7  UNL     1      -2.790 -16.512  16.231  1.00  0.00     0.262 C
HETATM   13  C8  UNL     1      -4.211 -16.690  16.794  1.00  0.00     0.061 C
HETATM   14  C9  UNL     1      -3.783 -16.789  18.277  1.00  0.00     0.125 C
HETATM   15  N4  UNL     1      -2.560 -17.474  18.254  1.00  0.00    -0.386 N
HETATM   16  C18 UNL     1      -2.061 -17.609  16.956  1.00  0.00     0.094 C
BRANCH  15  17
HETATM   17  C10 UNL     1      -1.623 -17.169  19.275  1.00  0.00     0.169 C
BRANCH  17  18
HETATM   18  C11 UNL     1      -1.477 -18.404  20.130  1.00  0.00     0.018 A
HETATM   19  S1  UNL     1      -0.374 -19.662  19.916  1.00  0.00    -0.073 SA
HETATM   20  C12 UNL     1      -0.860 -20.697  21.143  1.00  0.00     0.090 A
HETATM   21  N5  UNL     1      -0.365 -21.885  21.584  1.00  0.00    -0.346 N
HETATM   22  C15 UNL     1      -1.920 -20.035  21.735  1.00  0.00     0.058 A
HETATM   23  C13 UNL     1      -0.875 -22.528  22.661  1.00  0.00     0.182 A
ATOM     24  H5  UNL     1       0.418 -22.307  21.085  1.00  0.00     0.167 HD
HETATM   25  N6  UNL     1      -1.896 -21.889  23.243  1.00  0.00    -0.338 N
HETATM   26  C14 UNL     1      -2.419 -20.737  22.862  1.00  0.00     0.113 A
ATOM     27  H6  UNL     1      -2.311 -22.334  24.062  1.00  0.00     0.168 HD
HETATM   28  N7  UNL     1      -3.352 -20.242  23.613  1.00  0.00    -0.385 N
ATOM     29  H72 UNL     1      -3.711 -20.747  24.423  1.00  0.00     0.157 HD
ATOM     30  H71 UNL     1      -3.756 -19.353  23.318  1.00  0.00     0.157 HD
HETATM   31  C16 UNL     1      -2.264 -18.827  21.216  1.00  0.00     0.079 A
BRANCH  31  32
HETATM   32  C17 UNL     1      -3.315 -17.846  21.666  1.00  0.00     0.419 C
HETATM   33  F1  UNL     1      -4.551 -18.235  21.100  1.00  0.00    -0.166 F
HETATM   34  F2  UNL     1      -3.596 -18.068  23.038  1.00  0.00    -0.166 F
HETATM   35  F3  UNL     1      -3.080 -16.539  21.631  1.00  0.00    -0.166 F
ENDBRANCH  31  32
ENDBRANCH  17  18
ENDBRANCH  15  17
ENDBRANCH   9  12
ENDBRANCH   2   6
TORSDOF 5
ENDMDL