MODEL 2
REMARK VINA RESULT: -8.878982225      1.946      2.698
REMARK  7 active torsions:
REMARK  status: ('A' for Active; 'I' for Inactive)
REMARK    1  A    between atoms: C2_2  and  C3_3
REMARK    2  A    between atoms: C5_5  and  C6_6
REMARK    3  A    between atoms: C6_6  and  O1_7
REMARK    4  A    between atoms: C6_6  and  N1_9
REMARK    5  A    between atoms: C8_16  and  C9_17
REMARK    6  A    between atoms: N4_26  and  C13_27
REMARK    7  A    between atoms: C13_27  and  C14_28
ROOT
HETATM    1  C3  UNL     1      -2.394 -13.367  10.016  1.00  0.00     0.023 C
HETATM    2  C4  UNL     1      -1.322 -13.862  10.939  1.00  0.00     0.048 C
HETATM    3  C5  UNL     1      -2.058 -14.342  12.126  1.00  0.00     0.197 C
HETATM    4  O2  UNL     1      -3.361 -13.797  12.080  1.00  0.00    -0.366 OA
HETATM    5  C10 UNL     1      -3.650 -13.426  10.815  1.00  0.00     0.069 C
HETATM    6  C11 UNL     1      -4.436 -12.132  10.854  1.00  0.00     0.069 C
HETATM    7  C12 UNL     1      -5.742 -12.208  10.065  1.00  0.00     0.276 C
HETATM    8  N4  UNL     1      -6.556 -13.209  10.731  1.00  0.00     0.094 N
HETATM    9  C16 UNL     1      -5.898 -14.512  10.792  1.00  0.00     0.276 C
HETATM   10  C17 UNL     1      -4.553 -14.448  10.135  1.00  0.00     0.069 C
ENDROOT
BRANCH   3  11
HETATM   11  C6  UNL     1      -2.074 -15.772  12.358  1.00  0.00     0.147 C
BRANCH  11  12
HETATM   12  O1  UNL     1      -1.205 -16.441  11.637  1.00  0.00    -0.347 OA
ATOM     13  H1  UNL     1      -0.362 -16.560  12.058  1.00  0.00     0.219 HD
ENDBRANCH  11  12
BRANCH  11  14
HETATM   14  N1  UNL     1      -2.854 -16.521  13.200  1.00  0.00    -0.318 N
HETATM   15  C7  UNL     1      -2.806 -16.450  14.496  1.00  0.00     0.167 A
HETATM   16  N2  UNL     1      -2.058 -15.717  15.329  1.00  0.00    -0.279 N
HETATM   17  S1  UNL     1      -3.859 -17.254  15.626  1.00  0.00    -0.029 SA
HETATM   18  N3  UNL     1      -2.286 -15.794  16.579  1.00  0.00    -0.288 N
ATOM     19  H2  UNL     1      -1.321 -15.110  14.971  1.00  0.00     0.189 HD
HETATM   20  C8  UNL     1      -3.229 -16.567  17.058  1.00  0.00     0.177 A
ATOM     21  H3  UNL     1      -1.720 -15.240  17.223  1.00  0.00     0.187 HD
ATOM     22  H1  UNL     1      -3.515 -17.176  12.782  1.00  0.00     0.169 HD
BRANCH  20  23
HETATM   23  C9  UNL     1      -3.640 -16.806  18.486  1.00  0.00     0.440 C
HETATM   24  F1  UNL     1      -4.958 -17.246  18.490  1.00  0.00    -0.164 F
HETATM   25  F2  UNL     1      -2.817 -17.710  19.108  1.00  0.00    -0.164 F
HETATM   26  F3  UNL     1      -3.617 -15.617  19.168  1.00  0.00    -0.164 F
ENDBRANCH  20  23
ENDBRANCH  11  14
ENDBRANCH   3  11
BRANCH   1  27
HETATM   27  C2  UNL     1      -2.056 -12.008   9.507  1.00  0.00     0.003 C
HETATM   28  C1  UNL     1      -2.574 -11.857   8.098  1.00  0.00     0.005 C
ENDBRANCH   1  27
BRANCH   8  29
HETATM   29  C13 UNL     1      -7.882 -13.309  10.143  1.00  0.00     0.332 C
BRANCH  29  30
HETATM   30  C14 UNL     1      -8.692 -12.253  10.782  1.00  0.00     0.072 A
HETATM   31  C15 UNL     1      -9.486 -12.365  11.921  1.00  0.00     0.137 A
HETATM   32  N5  UNL     1     -10.037 -11.176  12.194  1.00  0.00    -0.296 N
HETATM   33  N6  UNL     1      -9.613 -10.353  11.274  1.00  0.00    -0.243 N
ATOM     34  H5  UNL     1     -10.665 -10.956  12.968  1.00  0.00     0.187 HD
HETATM   35  N7  UNL     1      -8.813 -10.968  10.423  1.00  0.00    -0.287 N
ATOM     36  H6  UNL     1      -9.867  -9.367  11.220  1.00  0.00     0.208 HD
ATOM     37  H7  UNL     1      -8.359 -10.533   9.619  1.00  0.00     0.188 HD
ENDBRANCH  29  30
ENDBRANCH   8  29
TORSDOF 7
ENDMDL