MODEL 4
REMARK VINA RESULT: -4.254133511      2.477      4.081
REMARK  9 active torsions:
REMARK  status: ('A' for Active; 'I' for Inactive)
REMARK    1  A    between atoms: C2_2  and  C4_4
REMARK    2  A    between atoms: C5_6  and  C6_7
REMARK    3  A    between atoms: C15_19  and  O2_20
REMARK    4  A    between atoms: C16_22  and  O3_23
REMARK    5  A    between atoms: C16_22  and  C17_25
REMARK    6  A    between atoms: C17_25  and  O4_26
REMARK    7  A    between atoms: C18_28  and  O5_29
REMARK    8  A    between atoms: C20_31  and  C21_32
REMARK    9  A    between atoms: C21_32  and  O7_34
ROOT
HETATM    1  C4  UNL     1       4.041 -21.134  11.490  1.00  0.00     0.172 C
HETATM    2  O1  UNL     1       3.687 -20.806  12.798  1.00  0.00    -0.366 OA
HETATM    3  C5  UNL     1       2.943 -21.527  13.574  1.00  0.00     0.230 C
HETATM    4  C7  UNL     1       1.562 -21.483  12.958  1.00  0.00     0.051 C
HETATM    5  C8  UNL     1       1.720 -22.112  11.594  1.00  0.00    -0.019 C
HETATM    6  C9  UNL     1       1.572 -23.527  11.978  1.00  0.00     0.016 C
HETATM    7  C10 UNL     1       0.439 -21.854  10.840  1.00  0.00     0.011 C
HETATM    8  C11 UNL     1       0.493 -22.841   9.715  1.00  0.00     0.013 C
HETATM    9  C12 UNL     1       1.695 -22.799   8.859  1.00  0.00    -0.006 C
HETATM   10  C13 UNL     1       1.193 -22.217   7.548  1.00  0.00     0.018 C
HETATM   11  C14 UNL     1       1.964 -24.264   8.416  1.00  0.00     0.047 C
HETATM   12  C15 UNL     1       3.405 -24.525   8.557  1.00  0.00     0.158 C
HETATM   13  C16 UNL     1       3.960 -23.422   9.473  1.00  0.00     0.138 C
HETATM   14  C18 UNL     1       3.015 -22.285   9.402  1.00  0.00     0.123 C
HETATM   15  C20 UNL     1       2.821 -21.543  10.757  1.00  0.00     0.120 C
ENDROOT
BRANCH  13  16
HETATM   16  O3  UNL     1       4.125 -24.041  10.699  1.00  0.00    -0.382 OA
ATOM     17  H3  UNL     1       3.913 -23.368  11.334  1.00  0.00     0.211 HD
ENDBRANCH  13  16
BRANCH  13  18
HETATM   18  C17 UNL     1       5.389 -23.324   9.042  1.00  0.00     0.207 C
BRANCH  18  19
HETATM   19  O4  UNL     1       5.552 -24.179   7.888  1.00  0.00    -0.398 OA
ATOM     20  H4  UNL     1       5.943 -24.991   8.189  1.00  0.00     0.209 HD
ENDBRANCH  18  19
ENDBRANCH  13  18
BRANCH  12  21
HETATM   21  O2  UNL     1       3.711 -25.793   9.048  1.00  0.00    -0.392 OA
ATOM     22  H2  UNL     1       4.189 -26.343   8.438  1.00  0.00     0.210 HD
ENDBRANCH  12  21
BRANCH  14  23
HETATM   23  O5  UNL     1       3.564 -21.341   8.604  1.00  0.00    -0.379 OA
HETATM   24  C19 UNL     1       3.805 -21.269   7.334  1.00  0.00     0.202 C
ENDBRANCH  14  23
BRANCH  15  25
HETATM   25  C21 UNL     1       2.324 -20.161  10.419  1.00  0.00     0.274 C
HETATM   26  O6  UNL     1       1.368 -19.611  11.038  1.00  0.00    -0.264 OA
BRANCH  25  27
HETATM   27  O7  UNL     1       2.752 -19.287   9.472  1.00  0.00    -0.326 OA
HETATM   28  C22 UNL     1       2.587 -17.896   9.524  1.00  0.00     0.213 C
ENDBRANCH  25  27
ENDBRANCH  15  25
BRANCH   1  29
HETATM   29  C2  UNL     1       4.815 -19.912  11.154  1.00  0.00    -0.063 C
HETATM   30  C1  UNL     1       4.846 -18.840  11.997  1.00  0.00     0.016 C
HETATM   31  C3  UNL     1       5.629 -19.565  10.002  1.00  0.00     0.045 C
ENDBRANCH   1  29
BRANCH   3  32
HETATM   32  C6  UNL     1       2.916 -20.987  14.999  1.00  0.00     0.413 C
HETATM   33  F1  UNL     1       3.722 -19.850  14.978  1.00  0.00    -0.168 F
HETATM   34  F2  UNL     1       1.633 -20.565  15.252  1.00  0.00    -0.168 F
HETATM   35  F3  UNL     1       3.391 -21.915  15.873  1.00  0.00    -0.168 F
ENDBRANCH   3  32
TORSDOF 9
ENDMDL