MODEL 4
REMARK VINA RESULT: -6.413501961      2.286      3.288
REMARK  5 active torsions:
REMARK  status: ('A' for Active; 'I' for Inactive)
REMARK    1  A    between atoms: C4_6  and  C5_7
REMARK    2  A    between atoms: C6_8  and  C7_9
REMARK    3  A    between atoms: C15_18  and  O1_19
REMARK    4  A    between atoms: C15_18  and  C16_21
REMARK    5  A    between atoms: C16_21  and  O2_22
ROOT
HETATM    1  C5  UNL     1      10.885  24.255 -10.290  1.00  0.00     0.045 C
HETATM    2  C6  UNL     1      11.014  22.747 -10.094  1.00  0.00    -0.063 C
HETATM    3  C8  UNL     1      11.921  21.953 -10.675  1.00  0.00    -0.022 C
HETATM    4  C9  UNL     1      13.018  22.139 -11.606  1.00  0.00     0.035 C
HETATM    5  C10 UNL     1      13.834  23.381 -11.621  1.00  0.00     0.026 C
HETATM    6  C11 UNL     1      13.679  24.033 -12.994  1.00  0.00     0.008 C
HETATM    7  C12 UNL     1      13.088  25.362 -13.133  1.00  0.00     0.001 C
HETATM    8  C13 UNL     1      12.019  25.781 -12.103  1.00  0.00     0.008 C
HETATM    9  C14 UNL     1      11.924  24.615 -11.233  1.00  0.00     0.033 C
HETATM   10  C15 UNL     1      13.274  24.411 -10.660  1.00  0.00     0.087 C
ENDROOT
BRANCH   1  11
HETATM   11  C4  UNL     1       9.468  24.600 -10.613  1.00  0.00     0.089 C
HETATM   12  N1  UNL     1       9.220  25.982 -10.325  1.00  0.00    -0.393 N
HETATM   13  C3  UNL     1       7.937  26.486 -10.654  1.00  0.00     0.085 C
ATOM     14  H1  UNL     1       9.933  26.576  -9.902  1.00  0.00     0.159 HD
HETATM   15  C2  UNL     1       7.164  25.771 -11.447  1.00  0.00    -0.069 C
HETATM   16  C1  UNL     1       5.792  26.286 -11.812  1.00  0.00     0.044 C
HETATM   17  C18 UNL     1       7.536  24.459 -12.036  1.00  0.00     0.037 C
HETATM   18  C17 UNL     1       9.070  24.335 -12.035  1.00  0.00     0.030 C
ENDBRANCH   1  11
BRANCH   2  19
HETATM   19  C7  UNL     1      10.033  22.123  -9.172  1.00  0.00     0.149 C
HETATM   20 CL1  UNL     1       9.288  20.733  -9.994  1.00  0.00    -0.126 Cl
ENDBRANCH   2  19
BRANCH  10  21
HETATM   21  O1  UNL     1      14.167  25.512 -10.900  1.00  0.00    -0.387 OA
ATOM     22  H1  UNL     1      13.674  25.999 -11.551  1.00  0.00     0.210 HD
ENDBRANCH  10  21
BRANCH  10  23
HETATM   23  C16 UNL     1      13.526  24.194  -9.253  1.00  0.00     0.202 C
BRANCH  23  24
HETATM   24  O2  UNL     1      14.877  24.436  -8.935  1.00  0.00    -0.398 OA
ATOM     25  H2  UNL     1      14.967  24.768  -8.049  1.00  0.00     0.209 HD
ENDBRANCH  23  24
ENDBRANCH  10  23
TORSDOF 5
ENDMDL