MODEL 3
REMARK VINA RESULT: -7.073241880      1.356      1.661
REMARK  5 active torsions:
REMARK  status: ('A' for Active; 'I' for Inactive)
REMARK    1  A    between atoms: C2_2  and  C3_3
REMARK    2  A    between atoms: C2_2  and  C8_8
REMARK    3  A    between atoms: C2_2  and  C11_22
REMARK    4  A    between atoms: C3_3  and  C4_4
REMARK    5  A    between atoms: C9_11  and  N2_12
REMARK       I    between atoms: N2_12  and  C10_14
ROOT
HETATM    1  C8  UNL     1      13.308  24.255 -10.985  1.00  0.00     0.171 A
HETATM    2  N1  UNL     1      14.558  23.908 -10.588  1.00  0.00    -0.169 N
ATOM      3  H1  UNL     1      15.182  23.282 -11.096  1.00  0.00     0.186 HD
HETATM    4  C9  UNL     1      14.849  24.513  -9.425  1.00  0.00     0.706 A
HETATM    5  N5  UNL     1      13.763  25.232  -9.116  1.00  0.00    -0.089 N
ATOM      6  H5  UNL     1      13.655  25.816  -8.287  1.00  0.00     0.213 HD
HETATM    7  O1  UNL     1      12.873  25.067 -10.043  1.00  0.00    -0.208 OA
ENDROOT
BRANCH   1   8
HETATM    8  C2  UNL     1      12.584  23.815 -12.219  1.00  0.00     0.031 C
HETATM    9  C1  UNL     1      13.694  23.854 -13.289  1.00  0.00     0.025 C
BRANCH   8  10
HETATM   10  C3  UNL     1      11.563  24.843 -12.473  1.00  0.00     0.022 C
BRANCH  10  11
HETATM   11  C4  UNL     1      11.821  25.950 -13.401  1.00  0.00    -0.013 C
HETATM   12  C5  UNL     1      10.461  26.564 -13.808  1.00  0.00     0.005 C
HETATM   13  C6  UNL     1      10.715  27.598 -12.701  1.00  0.00     0.001 C
HETATM   14  C7  UNL     1      12.176  27.302 -12.905  1.00  0.00     0.005 C
ENDBRANCH  10  11
ENDBRANCH   8  10
BRANCH   8  15
HETATM   15  C11 UNL     1      12.203  22.420 -12.018  1.00  0.00     0.036 C
HETATM   16  C12 UNL     1      11.437  21.758 -13.140  1.00  0.00     0.009 C
HETATM   17  C13 UNL     1      11.826  20.271 -13.135  1.00  0.00     0.001 C
HETATM   18  C14 UNL     1      11.725  19.704 -11.741  1.00  0.00     0.003 C
HETATM   19  C15 UNL     1      10.981  20.637 -10.846  1.00  0.00     0.037 C
HETATM   20  C16 UNL     1      11.636  21.998 -10.718  1.00  0.00     0.175 C
HETATM   21  F1  UNL     1      10.715  22.808 -10.134  1.00  0.00    -0.249 F
ENDBRANCH   8  15
ENDBRANCH   1   8
BRANCH   4  22
HETATM   22  N2  UNL     1      15.936  24.430  -8.751  1.00  0.00    -0.162 N
HETATM   23  C10 UNL     1      16.980  25.370  -8.810  1.00  0.00     0.200 C
HETATM   24  N3  UNL     1      16.866  26.636  -8.598  1.00  0.00    -0.373 N
HETATM   25  N4  UNL     1      18.291  24.886  -9.138  1.00  0.00    -0.063 NA
ATOM     26  H32 UNL     1      15.934  26.981  -8.365  1.00  0.00     0.158 HD
ATOM     27  H31 UNL     1      17.623  27.318  -8.641  1.00  0.00     0.158 HD
ATOM     28  H2  UNL     1      16.052  23.628  -8.132  1.00  0.00     0.187 HD
ENDBRANCH   4  22
TORSDOF 5
ENDMDL