MODEL 5
REMARK VINA RESULT: -6.513162908      2.239      5.464
REMARK  4 active torsions:
REMARK  status: ('A' for Active; 'I' for Inactive)
REMARK    1  A    between atoms: C2_2  and  N1_3
REMARK       I    between atoms: N1_3  and  C3_5
REMARK       I    between atoms: C3_5  and  N2_7
REMARK    2  A    between atoms: N2_7  and  C4_9
REMARK    3  A    between atoms: C5_10  and  C6_11
REMARK       I    between atoms: C6_11  and  N3_13
REMARK    4  A    between atoms: N3_13  and  C7_15
ROOT
HETATM    1  C4  UNL     1      11.603  23.026 -11.145  1.00  0.00     0.069 A
HETATM    2  C5  UNL     1      10.798  24.014 -11.642  1.00  0.00     0.100 A
HETATM    3  S1  UNL     1       9.940  23.232 -12.889  1.00  0.00    -0.086 SA
HETATM    4  C11 UNL     1      10.611  21.677 -12.760  1.00  0.00    -0.005 A
HETATM    5  C12 UNL     1      11.499  21.807 -11.735  1.00  0.00     0.017 A
HETATM    6  C13 UNL     1      12.141  20.435 -11.564  1.00  0.00     0.206 C
HETATM    7  F1  UNL     1      13.454  20.540 -11.233  1.00  0.00    -0.244 F
HETATM    8  C14 UNL     1      11.990  19.820 -12.915  1.00  0.00     0.047 C
HETATM    9  C15 UNL     1      10.607  20.271 -13.314  1.00  0.00     0.050 C
ENDROOT
BRANCH   1  10
HETATM   10  N2  UNL     1      12.523  23.292 -10.034  1.00  0.00    -0.307 N
HETATM   11  C3  UNL     1      13.689  24.072 -10.233  1.00  0.00     0.320 C
HETATM   12  N1  UNL     1      14.614  24.370  -9.224  1.00  0.00    -0.343 N
HETATM   13  O1  UNL     1      13.896  24.519 -11.391  1.00  0.00    -0.247 OA
ATOM     14  H1  UNL     1      14.452  24.010  -8.283  1.00  0.00     0.164 HD
ATOM     15  H2  UNL     1      12.322  22.912  -9.109  1.00  0.00     0.170 HD
BRANCH  12  16
HETATM   16  C2  UNL     1      15.792  25.172  -9.474  1.00  0.00     0.120 C
HETATM   17  C1  UNL     1      16.997  24.654  -8.711  1.00  0.00     0.026 C
ENDBRANCH  12  16
ENDBRANCH   1  10
BRANCH   2  18
HETATM   18  C6  UNL     1      10.698  25.418 -11.205  1.00  0.00     0.261 C
HETATM   19  O2  UNL     1      10.007  25.654 -10.191  1.00  0.00    -0.267 OA
HETATM   20  N3  UNL     1      11.358  26.449 -11.906  1.00  0.00    -0.348 N
ATOM     21  H3  UNL     1      11.912  26.208 -12.729  1.00  0.00     0.163 HD
BRANCH  20  22
HETATM   22  C7  UNL     1      11.279  27.820 -11.507  1.00  0.00     0.022 C
HETATM   23  C8  UNL     1      11.926  28.709 -12.570  1.00  0.00     0.037 C
HETATM   24  C9  UNL     1       9.877  28.300 -11.283  1.00  0.00     0.037 C
HETATM   25  C10 UNL     1      12.053  28.074 -10.229  1.00  0.00     0.037 C
ENDBRANCH  20  22
ENDBRANCH   2  18
TORSDOF 4
ENDMDL