MODEL 5
REMARK VINA RESULT: -5.699507593      2.934      4.848
REMARK  5 active torsions:
REMARK  status: ('A' for Active; 'I' for Inactive)
REMARK    1  A    between atoms: C1_2  and  N1_3
REMARK    2  A    between atoms: C1_2  and  N3_13
REMARK    3  A    between atoms: N1_3  and  N2_5
REMARK    4  A    between atoms: N2_5  and  C2_7
REMARK    5  A    between atoms: N3_13  and  C6_15
ROOT
HETATM    1  S1  UNL     1      10.042  27.472 -10.910  1.00  0.00    -0.040 SA
HETATM    2  C1  UNL     1      11.641  27.734 -11.023  1.00  0.00     0.186 C
ENDROOT
BRANCH   2   3
HETATM    3  N1  UNL     1      12.416  27.778  -9.846  1.00  0.00    -0.274 N
ATOM      4  H1  UNL     1      12.804  28.668  -9.536  1.00  0.00     0.189 HD
BRANCH   3   5
HETATM    5  N2  UNL     1      12.665  26.605  -9.082  1.00  0.00    -0.278 N
ATOM      6  H2  UNL     1      12.653  26.648  -8.062  1.00  0.00     0.189 HD
BRANCH   5   7
HETATM    7  C2  UNL     1      12.930  25.374  -9.739  1.00  0.00     0.163 A
HETATM    8  C3  UNL     1      14.128  25.005 -10.330  1.00  0.00     0.061 A
HETATM    9  C4  UNL     1      13.962  23.740 -10.850  1.00  0.00     0.049 A
HETATM   10  C5  UNL     1      12.664  23.386 -10.556  1.00  0.00     0.124 A
HETATM   11 BR1  UNL     1      11.812  21.733 -11.013  1.00  0.00    -0.023 Br
HETATM   12  O1  UNL     1      12.103  24.385  -9.901  1.00  0.00    -0.285 OA
ENDBRANCH   5   7
ENDBRANCH   3   5
ENDBRANCH   2   3
BRANCH   2  13
HETATM   13  N3  UNL     1      12.231  27.914 -12.278  1.00  0.00    -0.361 N
ATOM     14  H3  UNL     1      12.987  28.593 -12.359  1.00  0.00     0.162 HD
BRANCH  13  15
HETATM   15  C6  UNL     1      11.832  27.194 -13.467  1.00  0.00     0.083 C
HETATM   16  C7  UNL     1      11.957  28.054 -14.683  1.00  0.00     0.025 C
HETATM   17  C8  UNL     1      13.050  27.615 -15.600  1.00  0.00     0.002 C
HETATM   18  C9  UNL     1      14.255  27.291 -14.749  1.00  0.00     0.000 C
HETATM   19  C10 UNL     1      13.967  25.993 -14.038  1.00  0.00     0.002 C
HETATM   20  C11 UNL     1      12.541  25.873 -13.585  1.00  0.00     0.025 C
ENDBRANCH  13  15
ENDBRANCH   2  13
TORSDOF 5
ENDMDL