MODEL 4
REMARK VINA RESULT: -6.708423306      2.945      6.348
REMARK  5 active torsions:
REMARK  status: ('A' for Active; 'I' for Inactive)
REMARK    1  A    between atoms: O1_2  and  C2_3
REMARK    2  A    between atoms: C5_6  and  N1_7
REMARK    3  A    between atoms: N1_7  and  C6_9
REMARK    4  A    between atoms: C6_9  and  N2_11
REMARK    5  A    between atoms: N2_11  and  C7_13
ROOT
HETATM    1  C6  UNL     1       9.957  21.114 -10.371  1.00  0.00     0.172 C
HETATM    2  S1  UNL     1       8.573  21.820  -9.813  1.00  0.00    -0.041 SA
ENDROOT
BRANCH   1   3
HETATM    3  N1  UNL     1      11.171  21.778 -10.161  1.00  0.00    -0.362 N
ATOM      4  H1  UNL     1      11.774  21.447  -9.408  1.00  0.00     0.162 HD
BRANCH   3   5
HETATM    5  C5  UNL     1      11.625  22.916 -10.957  1.00  0.00     0.084 C
HETATM    6  C4  UNL     1      11.427  24.141 -10.133  1.00  0.00     0.028 C
HETATM    7  C3  UNL     1      12.634  24.896  -9.734  1.00  0.00     0.034 C
HETATM    8  C2  UNL     1      13.942  24.184  -9.896  1.00  0.00     0.120 C
HETATM    9  C15 UNL     1      13.980  23.746 -11.368  1.00  0.00     0.034 C
HETATM   10  C14 UNL     1      12.977  22.624 -11.457  1.00  0.00     0.028 C
BRANCH   8  11
HETATM   11  O1  UNL     1      14.972  25.093  -9.712  1.00  0.00    -0.391 OA
HETATM   12  C1  UNL     1      16.016  24.539  -8.973  1.00  0.00     0.202 C
ENDBRANCH   8  11
ENDBRANCH   3   5
ENDBRANCH   1   3
BRANCH   1  13
HETATM   13  N2  UNL     1       9.796  19.873 -11.030  1.00  0.00    -0.330 N
ATOM     14  H2  UNL     1       9.377  19.102 -10.510  1.00  0.00     0.168 HD
BRANCH  13  15
HETATM   15  C7  UNL     1      10.187  19.643 -12.372  1.00  0.00     0.080 A
HETATM   16  C8  UNL     1      11.477  19.279 -12.721  1.00  0.00     0.075 A
HETATM   17  N3  UNL     1      12.446  19.132 -11.690  1.00  0.00    -0.100 NA
HETATM   18  C9  UNL     1      11.851  19.058 -14.031  1.00  0.00     0.035 A
HETATM   19  C10 UNL     1      10.929  19.194 -15.052  1.00  0.00    -0.059 A
HETATM   20  C11 UNL     1      11.319  18.956 -16.479  1.00  0.00     0.048 C
HETATM   21  C12 UNL     1       9.643  19.558 -14.694  1.00  0.00     0.033 A
HETATM   22  C13 UNL     1       9.259  19.782 -13.390  1.00  0.00     0.063 A
HETATM   23 CL1  UNL     1       7.594  20.243 -13.016  1.00  0.00    -0.082 Cl
ENDBRANCH  13  15
ENDBRANCH   1  13
TORSDOF 5
ENDMDL