MODEL 4
REMARK VINA RESULT: -7.210214602      4.649      6.519
REMARK  5 active torsions:
REMARK  status: ('A' for Active; 'I' for Inactive)
REMARK    1  A    between atoms: C2_2  and  O1_3
REMARK    2  A    between atoms: C2_2  and  C3_5
REMARK    3  A    between atoms: N1_6  and  C4_8
REMARK    4  A    between atoms: C7_13  and  C8_14
REMARK    5  A    between atoms: C8_14  and  O2_15
ROOT
HETATM    1  C4  UNL     1      12.012  26.938 -10.816  1.00  0.00     0.035 A
HETATM    2  C5  UNL     1      11.502  28.171 -10.463  1.00  0.00     0.046 A
HETATM    3  C6  UNL     1      11.320  29.180 -11.371  1.00  0.00     0.090 A
HETATM    4  N2  UNL     1      11.643  29.003 -12.670  1.00  0.00    -0.367 N
ATOM      5  H2  UNL     1      11.503  29.767 -13.332  1.00  0.00     0.165 HD
HETATM    6  C7  UNL     1      12.150  27.828 -13.105  1.00  0.00     0.046 A
HETATM    7  C18 UNL     1      12.326  26.830 -12.194  1.00  0.00     0.057 A
ENDROOT
BRANCH   6   8
HETATM    8  C8  UNL     1      12.502  27.617 -14.543  1.00  0.00     0.100 C
HETATM    9  C9  UNL     1      13.973  27.476 -14.746  1.00  0.00     0.044 C
HETATM   10  C10 UNL     1      14.731  28.749 -14.907  1.00  0.00     0.003 C
HETATM   11  C11 UNL     1      15.761  28.586 -15.973  1.00  0.00     0.000 C
HETATM   12  C12 UNL     1      15.420  29.361 -17.253  1.00  0.00     0.000 C
HETATM   13  C13 UNL     1      14.925  28.451 -18.319  1.00  0.00     0.000 C
HETATM   14  C14 UNL     1      13.513  28.469 -18.676  1.00  0.00     0.000 C
HETATM   15  C15 UNL     1      12.513  29.110 -17.797  1.00  0.00     0.000 C
HETATM   16  C16 UNL     1      11.843  28.105 -16.858  1.00  0.00     0.003 C
HETATM   17  C17 UNL     1      11.828  28.622 -15.421  1.00  0.00     0.044 C
BRANCH   8  18
HETATM   18  O2  UNL     1      11.927  26.366 -14.901  1.00  0.00    -0.384 OA
ATOM     19  H2  UNL     1      10.993  26.462 -14.763  1.00  0.00     0.211 HD
ENDBRANCH   8  18
ENDBRANCH   6   8
BRANCH   1  20
HETATM   20  N1  UNL     1      12.198  25.970 -10.083  1.00  0.00    -0.367 N
HETATM   21  C3  UNL     1      13.032  25.031  -9.615  1.00  0.00     0.092 C
ATOM     22  H1  UNL     1      11.308  25.806  -9.613  1.00  0.00     0.165 HD
BRANCH  21  23
HETATM   23  C2  UNL     1      14.526  25.116  -9.889  1.00  0.00     0.152 C
HETATM   24  C1  UNL     1      15.233  24.128  -8.922  1.00  0.00     0.045 C
BRANCH  23  25
HETATM   25  O1  UNL     1      15.068  26.351  -9.568  1.00  0.00    -0.391 OA
ATOM     26  H1  UNL     1      14.346  26.958  -9.679  1.00  0.00     0.210 HD
ENDBRANCH  23  25
ENDBRANCH  21  23
ENDBRANCH   1  20
TORSDOF 5
ENDMDL