MODEL 3
REMARK VINA RESULT: -6.218855804      5.610      8.104
REMARK  3 active torsions:
REMARK  status: ('A' for Active; 'I' for Inactive)
REMARK    1  A    between atoms: C1_4  and  C2_6
REMARK    2  A    between atoms: N3_8  and  C4_9
REMARK    3  A    between atoms: C4_9  and  C5_10
ROOT
HETATM    1  C2  UNL     1       6.550  19.365 -11.727  1.00  0.00     0.033 A
HETATM    2  C3  UNL     1       5.602  19.853 -10.844  1.00  0.00     0.107 A
HETATM    3  N3  UNL     1       6.174  20.689  -9.967  1.00  0.00    -0.348 N
HETATM    4  C9  UNL     1       7.504  20.736 -10.293  1.00  0.00     0.088 A
HETATM    5  S1  UNL     1       9.017  21.407  -9.893  1.00  0.00    -0.064 SA
HETATM    6  C10 UNL     1       9.976  20.667 -11.092  1.00  0.00     0.054 A
HETATM    7 BR1  UNL     1      11.870  20.843 -11.420  1.00  0.00    -0.043 Br
HETATM    8  C11 UNL     1       9.074  19.906 -11.780  1.00  0.00     0.042 A
HETATM    9  C12 UNL     1       7.785  19.940 -11.366  1.00  0.00     0.015 A
ENDROOT
BRANCH   3  10
HETATM   10  C4  UNL     1       5.519  21.407  -8.913  1.00  0.00     0.162 C
BRANCH  10  11
HETATM   11  C5  UNL     1       4.052  21.225  -8.861  1.00  0.00     0.204 C
HETATM   12  C6  UNL     1       3.301  22.522  -8.991  1.00  0.00     0.036 C
HETATM   13  C7  UNL     1       3.304  22.975  -7.522  1.00  0.00     0.029 C
HETATM   14  C8  UNL     1       2.978  21.668  -6.834  1.00  0.00     0.233 C
HETATM   15  N4  UNL     1       3.644  20.657  -7.588  1.00  0.00    -0.069 N
ATOM     16  H42 UNL     1       3.080  19.814  -7.698  1.00  0.00     0.277 HD
ATOM     17  H41 UNL     1       4.423  20.237  -7.079  1.00  0.00     0.277 HD
ENDBRANCH  10  11
ENDBRANCH   3  10
BRANCH   1  18
HETATM   18  C1  UNL     1       6.270  18.432 -12.810  1.00  0.00     0.122 C
HETATM   19  N1  UNL     1       6.016  18.924 -13.971  1.00  0.00    -0.387 N
ATOM     20  H12 UNL     1       5.819  18.271 -14.729  1.00  0.00     0.157 HD
ATOM     21  H11 UNL     1       6.016  19.935 -14.106  1.00  0.00     0.157 HD
HETATM   22  N2  UNL     1       6.269  17.041 -12.625  1.00  0.00    -0.082 NA
ENDBRANCH   1  18
TORSDOF 3
ENDMDL