MODEL 1
REMARK VINA RESULT: -7.341792971      0.000      0.000
REMARK  3 active torsions:
REMARK  status: ('A' for Active; 'I' for Inactive)
REMARK    1  A    between atoms: C5_8  and  N2_9
REMARK    2  A    between atoms: N2_9  and  C6_11
REMARK    3  A    between atoms: C15_22  and  C16_23
ROOT
HETATM    1  N2  UNL     1      10.592  24.744 -11.694  1.00  0.00    -0.372 N
ATOM      2  H2  UNL     1      10.322  23.919 -12.229  1.00  0.00     0.161 HD
ENDROOT
BRANCH   1   3
HETATM    3  C5  UNL     1      11.334  24.584 -10.507  1.00  0.00     0.215 C
HETATM    4  N1  UNL     1      10.709  23.807  -9.456  1.00  0.00    -0.333 N
HETATM    5  C4  UNL     1      10.376  22.416  -9.375  1.00  0.00     0.243 C
ATOM      6  H1  UNL     1      10.461  24.346  -8.627  1.00  0.00     0.165 HD
HETATM    7  C3  UNL     1      10.881  21.358 -10.258  1.00  0.00     0.080 C
HETATM    8  O1  UNL     1       9.588  22.044  -8.482  1.00  0.00    -0.269 OA
HETATM    9  C2  UNL     1      11.985  21.460 -11.014  1.00  0.00    -0.056 C
HETATM   10  C1  UNL     1      12.368  20.319 -11.849  1.00  0.00     0.048 C
HETATM   11  C17 UNL     1      12.894  22.613 -11.114  1.00  0.00     0.014 C
HETATM   12  C15 UNL     1      12.598  23.877 -10.901  1.00  0.00    -0.024 C
BRANCH  12  13
HETATM   13  C16 UNL     1      13.792  24.778 -11.100  1.00  0.00     0.152 C
HETATM   14 CL1  UNL     1      14.816  24.838  -9.686  1.00  0.00    -0.126 Cl
ENDBRANCH  12  13
ENDBRANCH   1   3
BRANCH   1  15
HETATM   15  C6  UNL     1      10.213  26.021 -12.160  1.00  0.00    -0.011 C
HETATM   16  C7  UNL     1      11.349  26.886 -12.630  1.00  0.00     0.082 C
HETATM   17  C8  UNL     1      11.324  28.271 -12.055  1.00  0.00     0.024 C
HETATM   18  C9  UNL     1      11.924  28.355 -10.675  1.00  0.00     0.038 C
HETATM   19  C10 UNL     1      12.265  29.115 -12.939  1.00  0.00     0.038 C
HETATM   20  N3  UNL     1      10.038  28.864 -12.173  1.00  0.00    -0.405 N
HETATM   21  C11 UNL     1       8.945  28.133 -11.664  1.00  0.00     0.024 C
ATOM     22  H3  UNL     1       9.911  29.779 -12.607  1.00  0.00     0.154 HD
HETATM   23  C12 UNL     1       8.470  28.847 -10.391  1.00  0.00     0.038 C
HETATM   24  C13 UNL     1       7.786  28.254 -12.645  1.00  0.00     0.038 C
HETATM   25  C14 UNL     1       9.197  26.701 -11.308  1.00  0.00     0.082 C
ENDBRANCH   1  15
TORSDOF 3
ENDMDL