MODEL 5
REMARK VINA RESULT: -5.957963088      2.520      3.595
REMARK  7 active torsions:
REMARK  status: ('A' for Active; 'I' for Inactive)
REMARK    1  A    between atoms: C3_3  and  C14_25
REMARK    2  A    between atoms: N1_4  and  C4_6
REMARK    3  A    between atoms: C7_9  and  N2_10
REMARK    4  A    between atoms: N2_10  and  C8_12
REMARK    5  A    between atoms: C8_12  and  N3_14
REMARK    6  A    between atoms: N3_14  and  N4_16
REMARK    7  A    between atoms: C9_19  and  C10_20
ROOT
HETATM    1  C1  UNL     1       9.077  20.781 -11.196  1.00  0.00     0.019 C
HETATM    2  C2  UNL     1       9.685  20.507 -12.206  1.00  0.00    -0.064 C
HETATM    3  C3  UNL     1      10.398  20.201 -13.416  1.00  0.00     0.067 C
HETATM    4  N1  UNL     1      11.209  21.018 -13.999  1.00  0.00    -0.351 N
ATOM      5  H1  UNL     1      11.682  20.733 -14.857  1.00  0.00     0.166 HD
ENDROOT
BRANCH   3   6
HETATM    6  C14 UNL     1      10.202  18.870 -14.048  1.00  0.00     0.044 A
HETATM    7  C15 UNL     1      11.460  17.999 -14.067  1.00  0.00     0.012 A
HETATM    8  C16 UNL     1      10.918  18.567 -15.326  1.00  0.00     0.012 A
ENDBRANCH   3   6
BRANCH   4   9
HETATM    9  C4  UNL     1      11.453  22.315 -13.457  1.00  0.00     0.056 A
HETATM   10  C5  UNL     1      10.765  23.370 -13.996  1.00  0.00     0.033 A
HETATM   11  C6  UNL     1      11.011  24.628 -13.460  1.00  0.00     0.033 A
HETATM   12  C7  UNL     1      11.910  24.838 -12.424  1.00  0.00     0.055 A
HETATM   13  C9  UNL     1      12.602  23.735 -11.891  1.00  0.00     0.068 A
HETATM   14  C13 UNL     1      12.350  22.498 -12.429  1.00  0.00     0.081 A
HETATM   15 CL1  UNL     1      13.222  21.129 -11.754  1.00  0.00    -0.080 Cl
BRANCH  12  16
HETATM   16  N2  UNL     1      12.138  26.099 -11.879  1.00  0.00    -0.331 N
ATOM     17  H2  UNL     1      13.007  26.499 -12.233  1.00  0.00     0.168 HD
BRANCH  16  18
HETATM   18  C8  UNL     1      11.527  26.952 -11.004  1.00  0.00     0.190 C
HETATM   19  S1  UNL     1       9.836  26.948 -11.047  1.00  0.00    -0.039 SA
BRANCH  18  20
HETATM   20  N3  UNL     1      12.044  27.845 -10.061  1.00  0.00    -0.283 N
ATOM     21  H3  UNL     1      11.775  28.829 -10.088  1.00  0.00     0.188 HD
BRANCH  20  22
HETATM   22  N4  UNL     1      12.959  27.370  -9.048  1.00  0.00    -0.343 N
ATOM     23  H42 UNL     1      12.648  26.647  -8.399  1.00  0.00     0.176 HD
ATOM     24  H41 UNL     1      13.900  27.759  -8.993  1.00  0.00     0.176 HD
ENDBRANCH  20  22
ENDBRANCH  18  20
ENDBRANCH  16  18
ENDBRANCH  12  16
BRANCH  13  25
HETATM   25  C10 UNL     1      13.532  23.950 -10.825  1.00  0.00    -0.063 C
HETATM   26  C11 UNL     1      14.338  24.143  -9.929  1.00  0.00    -0.105 C
HETATM   27  C12 UNL     1      15.314  24.391  -8.870  1.00  0.00     0.112 C
ENDBRANCH  13  25
ENDBRANCH   4   9
TORSDOF 7
ENDMDL