MODEL 2
REMARK VINA RESULT: -5.134433726      1.778      2.200
REMARK  9 active torsions:
REMARK  status: ('A' for Active; 'I' for Inactive)
REMARK    1  A    between atoms: C2_2  and  C3_3
REMARK    2  A    between atoms: C3_3  and  C4_4
REMARK    3  A    between atoms: C4_4  and  N1_6
REMARK    4  A    between atoms: N1_6  and  S1_8
REMARK    5  A    between atoms: S1_8  and  N2_10
REMARK    6  A    between atoms: S1_8  and  N4_17
REMARK    7  A    between atoms: N2_10  and  C6_12
REMARK       I    between atoms: N4_17  and  C8_19
REMARK    8  A    between atoms: C8_19  and  O3_21
REMARK    9  A    between atoms: O3_21  and  C9_22
ROOT
HETATM    1  S1  UNL     1      46.950 -78.939 -37.053  1.00  0.00     0.204 S
HETATM    2  O1  UNL     1      46.074 -78.262 -35.999  1.00  0.00    -0.205 OA
ENDROOT
BRANCH   1   3
HETATM    3  N1  UNL     1      45.981 -79.506 -38.265  1.00  0.00    -0.315 N
ATOM      4  H1  UNL     1      44.997 -79.667 -38.053  1.00  0.00     0.172 HD
BRANCH   3   5
HETATM    5  C4  UNL     1      46.420 -79.781 -39.560  1.00  0.00     0.089 C
HETATM    6  C5  UNL     1      47.773 -80.431 -39.666  1.00  0.00     0.033 C
BRANCH   5   7
HETATM    7  C3  UNL     1      46.392 -78.544 -40.421  1.00  0.00     0.025 C
BRANCH   7   8
HETATM    8  C2  UNL     1      45.778 -78.759 -41.769  1.00  0.00    -0.002 C
HETATM    9  C1  UNL     1      45.521 -77.385 -42.389  1.00  0.00     0.005 C
ENDBRANCH   7   8
ENDBRANCH   5   7
ENDBRANCH   3   5
ENDBRANCH   1   3
BRANCH   1  10
HETATM   10  N2  UNL     1      47.543 -80.191 -36.250  1.00  0.00    -0.274 N
ATOM     11  H2  UNL     1      48.507 -80.217 -35.917  1.00  0.00     0.180 HD
BRANCH  10  12
HETATM   12  C6  UNL     1      46.640 -81.260 -36.033  1.00  0.00     0.080 C
HETATM   13  C7  UNL     1      46.947 -82.538 -36.756  1.00  0.00     0.089 C
HETATM   14  N3  UNL     1      45.611 -81.162 -35.268  1.00  0.00    -0.389 N
ATOM     15  H32 UNL     1      45.402 -80.293 -34.776  1.00  0.00     0.157 HD
ATOM     16  H31 UNL     1      44.961 -81.932 -35.112  1.00  0.00     0.157 HD
ENDBRANCH  10  12
ENDBRANCH   1  10
BRANCH   1  17
HETATM   17  N4  UNL     1      48.189 -77.840 -37.432  1.00  0.00    -0.230 N
HETATM   18  C8  UNL     1      49.279 -77.609 -36.549  1.00  0.00     0.375 C
HETATM   19  O2  UNL     1      49.342 -78.234 -35.428  1.00  0.00    -0.237 OA
ATOM     20  H4  UNL     1      48.151 -77.333 -38.316  1.00  0.00     0.184 HD
BRANCH  18  21
HETATM   21  O3  UNL     1      50.319 -76.748 -36.781  1.00  0.00    -0.293 OA
BRANCH  21  22
HETATM   22  C9  UNL     1      51.628 -77.198 -37.164  1.00  0.00     0.061 C
HETATM   23  C10 UNL     1      52.127 -76.125 -38.141  1.00  0.00     0.046 C
HETATM   24  C11 UNL     1      52.569 -77.247 -35.974  1.00  0.00     0.046 C
HETATM   25  C12 UNL     1      51.591 -78.505 -37.876  1.00  0.00     0.046 C
ENDBRANCH  21  22
ENDBRANCH  18  21
ENDBRANCH   1  17
TORSDOF 9
ENDMDL