MODEL 1
REMARK VINA RESULT: -5.235624666      0.000      0.000
REMARK  8 active torsions:
REMARK  status: ('A' for Active; 'I' for Inactive)
REMARK    1  A    between atoms: C2_2  and  O1_3
REMARK    2  A    between atoms: C2_2  and  C3_5
REMARK    3  A    between atoms: C3_5  and  C4_6
REMARK    4  A    between atoms: C4_6  and  C6_8
REMARK    5  A    between atoms: C6_8  and  C8_10
REMARK    6  A    between atoms: C8_10  and  C9_12
REMARK    7  A    between atoms: C13_16  and  O3_18
REMARK    8  A    between atoms: C16_21  and  O4_23
ROOT
HETATM    1  C9  UNL     1      49.737 -78.467 -36.687  1.00  0.00     0.048 C
HETATM    2  C10 UNL     1      50.352 -79.197 -37.834  1.00  0.00     0.026 C
HETATM    3  C11 UNL     1      49.756 -76.982 -36.951  1.00  0.00     0.023 C
HETATM    4  C12 UNL     1      51.103 -76.381 -37.039  1.00  0.00     0.038 C
HETATM    5  C13 UNL     1      52.090 -76.839 -36.018  1.00  0.00     0.057 C
HETATM    6  C14 UNL     1      53.474 -76.770 -36.652  1.00  0.00     0.045 C
HETATM    7  C15 UNL     1      51.905 -78.189 -35.476  1.00  0.00     0.076 C
HETATM    8  C16 UNL     1      50.541 -78.763 -35.436  1.00  0.00     0.071 C
HETATM    9  C17 UNL     1      50.715 -80.282 -35.298  1.00  0.00     0.047 C
ENDROOT
BRANCH   1  10
HETATM   10  C8  UNL     1      48.307 -78.811 -36.456  1.00  0.00     0.142 C
HETATM   11  O2  UNL     1      47.651 -78.071 -35.700  1.00  0.00    -0.297 OA
BRANCH  10  12
HETATM   12  C6  UNL     1      47.577 -79.935 -37.026  1.00  0.00     0.056 C
HETATM   13  C7  UNL     1      47.164 -80.985 -36.032  1.00  0.00     0.018 C
BRANCH  12  14
HETATM   14  C4  UNL     1      46.346 -79.545 -37.803  1.00  0.00    -0.005 C
HETATM   15  C5  UNL     1      45.076 -79.885 -37.104  1.00  0.00     0.011 C
BRANCH  14  16
HETATM   16  C3  UNL     1      46.313 -79.966 -39.217  1.00  0.00     0.036 C
BRANCH  16  17
HETATM   17  C2  UNL     1      46.820 -78.862 -40.112  1.00  0.00     0.114 C
HETATM   18  C1  UNL     1      45.978 -78.821 -41.397  1.00  0.00     0.039 C
BRANCH  17  19
HETATM   19  O1  UNL     1      46.757 -77.607 -39.528  1.00  0.00    -0.396 OA
ATOM     20  H1  UNL     1      46.037 -77.615 -38.907  1.00  0.00     0.210 HD
ENDBRANCH  17  19
ENDBRANCH  16  17
ENDBRANCH  14  16
ENDBRANCH  12  14
ENDBRANCH  10  12
ENDBRANCH   1  10
BRANCH   8  21
HETATM   21  O4  UNL     1      49.890 -78.331 -34.294  1.00  0.00    -0.389 OA
ATOM     22  H4  UNL     1      50.286 -77.544 -33.939  1.00  0.00     0.210 HD
ENDBRANCH   8  21
BRANCH   5  23
HETATM   23  O3  UNL     1      52.132 -75.906 -34.954  1.00  0.00    -0.390 OA
ATOM     24  H3  UNL     1      52.997 -75.914 -34.561  1.00  0.00     0.210 HD
ENDBRANCH   5  23
TORSDOF 8
ENDMDL