MODEL 4
REMARK VINA RESULT: -5.524144448      2.281      3.731
REMARK  5 active torsions:
REMARK  status: ('A' for Active; 'I' for Inactive)
REMARK    1  A    between atoms: C2_2  and  C3_3
REMARK    2  A    between atoms: C3_3  and  N1_4
REMARK    3  A    between atoms: C3_3  and  C11_19
REMARK    4  A    between atoms: N1_4  and  C4_6
REMARK    5  A    between atoms: C9_14  and  N3_15
ROOT
HETATM    1  C4  UNL     1      46.658 -81.175 -37.182  1.00  0.00     0.108 C
HETATM    2  C5  UNL     1      47.343 -80.701 -35.883  1.00  0.00     0.257 C
HETATM    3  N2  UNL     1      48.132 -79.518 -36.116  1.00  0.00    -0.069 N
ATOM      4  H21 UNL     1      48.937 -79.736 -36.703  1.00  0.00     0.277 HD
ATOM      5  H22 UNL     1      48.612 -79.237 -35.261  1.00  0.00     0.277 HD
HETATM    6  C6  UNL     1      47.396 -78.415 -36.663  1.00  0.00     0.188 C
HETATM    7  C7  UNL     1      45.968 -78.871 -36.994  1.00  0.00     0.042 C
HETATM    8  C8  UNL     1      46.315 -79.979 -38.012  1.00  0.00     0.041 C
HETATM    9  C9  UNL     1      47.396 -79.358 -38.810  1.00  0.00     0.164 C
HETATM   10  C10 UNL     1      47.930 -78.157 -38.057  1.00  0.00     0.065 C
ENDROOT
BRANCH   1  11
HETATM   11  N1  UNL     1      47.402 -82.224 -37.708  1.00  0.00    -0.411 N
ATOM     12  H1  UNL     1      48.340 -82.392 -37.345  1.00  0.00     0.154 HD
BRANCH  11  13
HETATM   13  C3  UNL     1      46.900 -83.068 -38.732  1.00  0.00     0.080 C
BRANCH  13  14
HETATM   14  C2  UNL     1      46.102 -84.231 -38.109  1.00  0.00     0.021 C
HETATM   15  C1  UNL     1      47.109 -84.902 -37.159  1.00  0.00     0.007 C
ENDBRANCH  13  14
BRANCH  13  16
HETATM   16  C11 UNL     1      47.936 -83.603 -39.684  1.00  0.00     0.008 C
HETATM   17  C12 UNL     1      48.975 -82.610 -39.990  1.00  0.00     0.007 C
HETATM   18  C13 UNL     1      48.991 -82.009 -41.345  1.00  0.00     0.000 C
HETATM   19  C14 UNL     1      47.978 -82.437 -42.332  1.00  0.00     0.000 C
HETATM   20  C15 UNL     1      46.759 -83.128 -41.752  1.00  0.00     0.000 C
HETATM   21  C16 UNL     1      47.303 -84.231 -40.903  1.00  0.00     0.007 C
ENDBRANCH  13  16
ENDBRANCH  11  13
ENDBRANCH   1  11
BRANCH   9  22
HETATM   22  N3  UNL     1      46.775 -78.887 -40.063  1.00  0.00    -0.150 N
HETATM   23  O1  UNL     1      46.397 -79.666 -40.958  1.00  0.00    -0.536 OA
HETATM   24  O2  UNL     1      46.591 -77.543 -40.265  1.00  0.00    -0.536 OA
ENDBRANCH   9  22
TORSDOF 5
ENDMDL