MODEL 4
REMARK VINA RESULT: -5.506677156      6.046      8.799
REMARK  6 active torsions:
REMARK  status: ('A' for Active; 'I' for Inactive)
REMARK    1  A    between atoms: C2_2  and  C3_3
REMARK    2  A    between atoms: C3_3  and  N1_4
REMARK       I    between atoms: N1_4  and  C4_6
REMARK       I    between atoms: C4_6  and  N2_8
REMARK    3  A    between atoms: N2_8  and  O2_10
REMARK    4  A    between atoms: O2_10  and  N3_11
REMARK    5  A    between atoms: C5_13  and  C7_15
REMARK    6  A    between atoms: C15_23  and  N4_24
ROOT
HETATM    1  N3  UNL     1      45.858 -79.009 -41.852  1.00  0.00    -0.250 N
ATOM      2  H3  UNL     1      45.194 -78.360 -41.430  1.00  0.00     0.196 HD
HETATM    3  C5  UNL     1      46.575 -79.758 -41.070  1.00  0.00     0.014 C
HETATM    4  C6  UNL     1      47.531 -80.691 -41.718  1.00  0.00     0.066 C
ENDROOT
BRANCH   3   5
HETATM    5  C7  UNL     1      46.396 -79.637 -39.625  1.00  0.00     0.064 C
HETATM    6  C8  UNL     1      46.734 -78.261 -39.173  1.00  0.00     0.013 C
HETATM    7  C9  UNL     1      48.000 -78.205 -38.341  1.00  0.00     0.006 C
HETATM    8  C10 UNL     1      47.875 -79.041 -37.088  1.00  0.00    -0.004 C
HETATM    9  C11 UNL     1      46.679 -78.725 -36.236  1.00  0.00     0.006 C
HETATM   10  C13 UNL     1      47.261 -80.372 -37.402  1.00  0.00    -0.011 C
HETATM   11  C12 UNL     1      45.991 -79.955 -36.740  1.00  0.00     0.012 C
HETATM   12  C14 UNL     1      47.894 -81.525 -36.631  1.00  0.00     0.018 C
HETATM   13  C15 UNL     1      47.201 -80.665 -38.870  1.00  0.00     0.201 C
BRANCH  13  14
HETATM   14  N4  UNL     1      46.734 -82.008 -39.048  1.00  0.00    -0.074 N
ATOM     15  H43 UNL     1      45.771 -82.100 -38.728  1.00  0.00     0.274 HD
ATOM     16  H42 UNL     1      46.606 -82.216 -40.039  1.00  0.00     0.274 HD
ATOM     17  H41 UNL     1      47.328 -82.712 -38.608  1.00  0.00     0.274 HD
ENDBRANCH  13  14
ENDBRANCH   3   5
BRANCH   1  18
HETATM   18  O2  UNL     1      45.953 -79.051 -43.209  1.00  0.00    -0.153 OA
BRANCH  18  19
HETATM   19  N2  UNL     1      45.906 -77.942 -44.012  1.00  0.00    -0.191 N
HETATM   20  C4  UNL     1      46.301 -78.038 -45.362  1.00  0.00     0.341 C
HETATM   21  N1  UNL     1      46.259 -76.903 -46.207  1.00  0.00    -0.341 N
HETATM   22  O1  UNL     1      46.689 -79.130 -45.820  1.00  0.00    -0.245 OA
ATOM     23  H1  UNL     1      45.941 -76.007 -45.838  1.00  0.00     0.164 HD
ATOM     24  H2  UNL     1      45.586 -77.050 -43.635  1.00  0.00     0.201 HD
BRANCH  21  25
HETATM   25  C3  UNL     1      46.667 -77.011 -47.597  1.00  0.00     0.124 C
BRANCH  25  26
HETATM   26  C2  UNL     1      46.939 -75.620 -48.108  1.00  0.00     0.015 C
HETATM   27  C1  UNL     1      47.693 -74.840 -47.068  1.00  0.00     0.006 C
ENDBRANCH  25  26
ENDBRANCH  21  25
ENDBRANCH  18  19
ENDBRANCH   1  18
TORSDOF 6
ENDMDL