MODEL 4
REMARK VINA RESULT: -5.325636680      3.686      6.018
REMARK  6 active torsions:
REMARK  status: ('A' for Active; 'I' for Inactive)
REMARK    1  A    between atoms: C2_2  and  C3_3
REMARK    2  A    between atoms: C3_3  and  S1_5
REMARK    3  A    between atoms: S1_5  and  C5_6
REMARK    4  A    between atoms: C5_6  and  C6_7
REMARK       I    between atoms: C6_7  and  N1_9
REMARK    5  A    between atoms: N1_9  and  N2_11
REMARK    6  A    between atoms: N2_11  and  C7_12
ROOT
HETATM    1  C7  UNL     1      46.745 -80.529 -36.884  1.00  0.00     0.309 C
HETATM    2  N3  UNL     1      47.750 -81.041 -37.793  1.00  0.00    -0.054 N
ATOM      3  H31 UNL     1      48.480 -81.580 -37.326  1.00  0.00     0.279 HD
ATOM      4  H32 UNL     1      48.355 -80.314 -38.177  1.00  0.00     0.279 HD
HETATM    5  C8  UNL     1      47.031 -81.805 -38.825  1.00  0.00     0.235 C
HETATM    6  C9  UNL     1      47.412 -81.168 -40.145  1.00  0.00     0.031 C
HETATM    7  C10 UNL     1      46.579 -79.899 -40.261  1.00  0.00     0.028 C
HETATM    8  C11 UNL     1      47.131 -78.785 -39.482  1.00  0.00    -0.030 C
HETATM    9  C12 UNL     1      47.158 -78.460 -38.198  1.00  0.00    -0.018 C
HETATM   10  C13 UNL     1      46.674 -79.017 -36.936  1.00  0.00     0.014 C
HETATM   11  C14 UNL     1      45.284 -78.586 -36.545  1.00  0.00     0.023 C
HETATM   12  C15 UNL     1      47.605 -78.508 -35.825  1.00  0.00     0.023 C
ENDROOT
BRANCH   1  13
HETATM   13  N2  UNL     1      47.110 -80.930 -35.535  1.00  0.00    -0.104 NA
BRANCH  13  14
HETATM   14  N1  UNL     1      46.654 -82.189 -35.190  1.00  0.00    -0.271 N
HETATM   15  C6  UNL     1      47.374 -83.390 -35.371  1.00  0.00     0.242 C
HETATM   16  O1  UNL     1      48.516 -83.384 -35.869  1.00  0.00    -0.271 OA
ATOM     17  H1  UNL     1      45.726 -82.255 -34.772  1.00  0.00     0.185 HD
BRANCH  15  18
HETATM   18  C5  UNL     1      46.726 -84.671 -34.945  1.00  0.00     0.178 C
BRANCH  18  19
HETATM   19  S1  UNL     1      46.990 -85.944 -36.232  1.00  0.00    -0.155 SA
BRANCH  19  20
HETATM   20  C3  UNL     1      45.781 -85.729 -37.571  1.00  0.00     0.043 C
HETATM   21  C4  UNL     1      44.980 -86.972 -37.833  1.00  0.00     0.021 C
BRANCH  20  22
HETATM   22  C2  UNL     1      46.522 -85.385 -38.871  1.00  0.00     0.010 C
HETATM   23  C1  UNL     1      48.022 -85.506 -38.702  1.00  0.00     0.006 C
ENDBRANCH  20  22
ENDBRANCH  19  20
ENDBRANCH  18  19
ENDBRANCH  15  18
ENDBRANCH  13  14
ENDBRANCH   1  13
TORSDOF 6
ENDMDL