MODEL 2
REMARK VINA RESULT: -5.861155061      2.520      4.594
REMARK  7 active torsions:
REMARK  status: ('A' for Active; 'I' for Inactive)
REMARK    1  A    between atoms: C2_3  and  C3_4
REMARK    2  A    between atoms: C3_4  and  N3_9
REMARK    3  A    between atoms: N2_5  and  O1_7
REMARK    4  A    between atoms: N3_9  and  C4_11
REMARK    5  A    between atoms: C4_11  and  C5_12
REMARK    6  A    between atoms: C4_11  and  C12_19
REMARK    7  A    between atoms: C5_12  and  C6_13
ROOT
HETATM    1  N1  UNL     1      50.246 -78.583 -34.076  1.00  0.00    -0.196 NA
HETATM    2  C1  UNL     1      49.808 -78.637 -35.142  1.00  0.00     0.077 C
HETATM    3  C2  UNL     1      49.237 -78.721 -36.481  1.00  0.00     0.108 C
HETATM    4  C13 UNL     1      50.242 -79.403 -37.413  1.00  0.00     0.033 C
HETATM    5  C14 UNL     1      51.112 -78.299 -37.961  1.00  0.00     0.002 C
HETATM    6  C15 UNL     1      50.655 -77.036 -37.235  1.00  0.00     0.002 C
HETATM    7  C16 UNL     1      49.152 -77.355 -37.083  1.00  0.00     0.033 C
ENDROOT
BRANCH   3   8
HETATM    8  C3  UNL     1      48.000 -79.520 -36.558  1.00  0.00     0.121 C
HETATM    9  N2  UNL     1      46.906 -79.124 -36.021  1.00  0.00    -0.255 N
ATOM     10  H2  UNL     1      46.111 -79.752 -36.133  1.00  0.00     0.195 HD
BRANCH   9  11
HETATM   11  O1  UNL     1      46.661 -77.999 -35.333  1.00  0.00    -0.288 OA
ATOM     12  H1  UNL     1      46.494 -77.122 -35.659  1.00  0.00     0.244 HD
ENDBRANCH   9  11
BRANCH   8  13
HETATM   13  N3  UNL     1      47.971 -80.768 -37.227  1.00  0.00    -0.364 N
ATOM     14  H3  UNL     1      48.813 -81.343 -37.263  1.00  0.00     0.161 HD
BRANCH  13  15
HETATM   15  C4  UNL     1      46.769 -81.231 -37.851  1.00  0.00     0.172 C
BRANCH  15  16
HETATM   16  C5  UNL     1      47.005 -81.677 -39.282  1.00  0.00     0.039 C
BRANCH  16  17
HETATM   17  C6  UNL     1      47.894 -80.744 -40.038  1.00  0.00    -0.012 C
HETATM   18  C7  UNL     1      48.184 -81.362 -41.385  1.00  0.00     0.005 C
HETATM   19  C8  UNL     1      46.984 -81.304 -42.303  1.00  0.00     0.000 C
HETATM   20  C9  UNL     1      46.397 -79.924 -42.389  1.00  0.00     0.000 C
HETATM   21  C10 UNL     1      46.060 -79.369 -41.035  1.00  0.00     0.000 C
HETATM   22  C11 UNL     1      47.317 -79.367 -40.199  1.00  0.00     0.005 C
ENDBRANCH  16  17
ENDBRANCH  15  16
BRANCH  15  23
HETATM   23  C12 UNL     1      46.270 -82.425 -37.122  1.00  0.00     0.253 C
HETATM   24  N4  UNL     1      45.830 -82.332 -35.757  1.00  0.00    -0.060 NA
HETATM   25  O2  UNL     1      46.207 -83.562 -37.652  1.00  0.00    -0.275 OA
ENDBRANCH  15  23
ENDBRANCH  13  15
ENDBRANCH   8  13
ENDBRANCH   3   8
TORSDOF 7
ENDMDL