MODEL 4
REMARK VINA RESULT: -5.361485656      2.492      4.849
REMARK  7 active torsions:
REMARK  status: ('A' for Active; 'I' for Inactive)
REMARK    1  A    between atoms: C4_5  and  C5_6
REMARK    2  A    between atoms: C5_6  and  C6_7
REMARK    3  A    between atoms: C8_10  and  C9_11
REMARK    4  A    between atoms: C9_11  and  C10_12
REMARK    5  A    between atoms: C10_12  and  C11_13
REMARK    6  A    between atoms: C11_13  and  O3_16
REMARK    7  A    between atoms: C14_18  and  O4_19
ROOT
HETATM    1  C1  UNL     1      47.070 -80.806 -40.951  1.00  0.00     0.038 C
HETATM    2  C2  UNL     1      47.812 -80.852 -39.683  1.00  0.00     0.003 C
HETATM    3  C3  UNL     1      47.536 -80.067 -38.665  1.00  0.00     0.065 C
HETATM    4  O1  UNL     1      48.278 -80.148 -37.467  1.00  0.00    -0.344 OA
HETATM    5  C4  UNL     1      47.679 -79.702 -36.228  1.00  0.00     0.179 C
HETATM    6  C14 UNL     1      47.099 -78.379 -36.586  1.00  0.00     0.243 C
HETATM    7  N1  UNL     1      46.111 -78.394 -37.606  1.00  0.00    -0.385 N
ATOM      8  H1  UNL     1      45.214 -77.925 -37.484  1.00  0.00     0.156 HD
HETATM    9  C15 UNL     1      46.427 -79.093 -38.806  1.00  0.00     0.131 C
HETATM   10  C16 UNL     1      46.722 -78.058 -39.872  1.00  0.00     0.039 C
ENDROOT
BRANCH   5  11
HETATM   11  C5  UNL     1      46.765 -80.777 -35.824  1.00  0.00     0.077 C
BRANCH  11  12
HETATM   12  C6  UNL     1      47.310 -82.121 -35.502  1.00  0.00     0.086 A
HETATM   13  C7  UNL     1      48.241 -82.302 -34.302  1.00  0.00     0.049 C
HETATM   14  O2  UNL     1      46.078 -82.945 -35.181  1.00  0.00    -0.369 OA
HETATM   15  C8  UNL     1      46.919 -83.335 -36.191  1.00  0.00     0.157 A
BRANCH  15  16
HETATM   16  C9  UNL     1      46.340 -83.452 -37.549  1.00  0.00     0.038 C
BRANCH  16  17
HETATM   17  C10 UNL     1      47.192 -84.306 -38.423  1.00  0.00     0.040 C
BRANCH  17  18
HETATM   18  C11 UNL     1      46.593 -85.634 -38.792  1.00  0.00     0.051 C
HETATM   19  C12 UNL     1      47.088 -86.630 -37.732  1.00  0.00     0.045 C
HETATM   20  C13 UNL     1      47.086 -86.145 -40.118  1.00  0.00     0.045 C
BRANCH  18  21
HETATM   21  O3  UNL     1      45.219 -85.684 -38.747  1.00  0.00    -0.391 OA
ATOM     22  H3  UNL     1      44.822 -86.325 -39.324  1.00  0.00     0.210 HD
ENDBRANCH  18  21
ENDBRANCH  17  18
ENDBRANCH  16  17
ENDBRANCH  15  16
ENDBRANCH  11  12
ENDBRANCH   5  11
BRANCH   6  23
HETATM   23  O4  UNL     1      48.186 -77.622 -37.110  1.00  0.00    -0.374 OA
ATOM     24  H4  UNL     1      47.784 -76.925 -37.617  1.00  0.00     0.212 HD
ENDBRANCH   6  23
TORSDOF 7
ENDMDL