MODEL 2
REMARK VINA RESULT: -5.216508666      2.775      4.074
REMARK  7 active torsions:
REMARK  status: ('A' for Active; 'I' for Inactive)
REMARK    1  A    between atoms: C2_2  and  O1_3
REMARK    2  A    between atoms: O1_3  and  C3_4
REMARK    3  A    between atoms: C5_10  and  C6_11
REMARK    4  A    between atoms: N3_12  and  N4_14
REMARK    5  A    between atoms: N4_14  and  C7_16
REMARK    6  A    between atoms: C7_16  and  N5_18
REMARK    7  A    between atoms: N5_18  and  C8_20
ROOT
HETATM    1  C6  UNL     1      45.907 -81.681 -36.355  1.00  0.00     0.141 C
HETATM    2  N3  UNL     1      46.494 -82.615 -36.975  1.00  0.00    -0.307 N
ATOM      3  H3  UNL     1      46.073 -83.540 -36.892  1.00  0.00     0.186 HD
ENDROOT
BRANCH   2   4
HETATM    4  N4  UNL     1      47.621 -82.536 -37.743  1.00  0.00    -0.277 N
ATOM      5  H4  UNL     1      48.539 -82.564 -37.300  1.00  0.00     0.189 HD
BRANCH   4   6
HETATM    6  C7  UNL     1      47.523 -82.416 -39.142  1.00  0.00     0.186 C
HETATM    7  S1  UNL     1      47.053 -83.665 -40.067  1.00  0.00    -0.040 SA
BRANCH   6   8
HETATM    8  N5  UNL     1      47.852 -81.186 -39.758  1.00  0.00    -0.361 N
ATOM      9  H5  UNL     1      48.834 -81.012 -39.975  1.00  0.00     0.162 HD
BRANCH   8  10
HETATM   10  C8  UNL     1      46.892 -80.156 -40.102  1.00  0.00     0.083 C
HETATM   11  C9  UNL     1      46.850 -80.090 -41.640  1.00  0.00     0.025 C
HETATM   12  C10 UNL     1      45.712 -79.210 -42.034  1.00  0.00     0.002 C
HETATM   13  C11 UNL     1      46.037 -77.798 -41.577  1.00  0.00     0.000 C
HETATM   14  C12 UNL     1      46.391 -77.738 -40.130  1.00  0.00     0.002 C
HETATM   15  C13 UNL     1      47.388 -78.781 -39.688  1.00  0.00     0.025 C
ENDBRANCH   8  10
ENDBRANCH   6   8
ENDBRANCH   4   6
ENDBRANCH   2   4
BRANCH   1  16
HETATM   16  C5  UNL     1      46.299 -80.289 -36.314  1.00  0.00     0.099 A
HETATM   17  C3  UNL     1      47.587 -79.851 -35.982  1.00  0.00     0.115 A
HETATM   18  C4  UNL     1      47.582 -78.488 -36.049  1.00  0.00     0.146 A
HETATM   19  N1  UNL     1      46.360 -78.096 -36.404  1.00  0.00    -0.309 N
HETATM   20  N2  UNL     1      45.592 -79.182 -36.563  1.00  0.00    -0.297 N
ATOM     21  H1  UNL     1      46.059 -77.129 -36.533  1.00  0.00     0.186 HD
ATOM     22  H2  UNL     1      44.610 -79.167 -36.835  1.00  0.00     0.187 HD
BRANCH  17  23
HETATM   23  O1  UNL     1      48.636 -80.687 -35.653  1.00  0.00    -0.348 OA
BRANCH  23  24
HETATM   24  C2  UNL     1      48.976 -80.934 -34.314  1.00  0.00     0.171 C
HETATM   25  C1  UNL     1      48.687 -82.390 -33.978  1.00  0.00     0.034 C
ENDBRANCH  23  24
ENDBRANCH  17  23
ENDBRANCH   1  16
TORSDOF 7
ENDMDL