MODEL 3
REMARK VINA RESULT: -9.513834370      2.084      4.720
REMARK  16 active torsions:
REMARK  status: ('A' for Active; 'I' for Inactive)
REMARK    1  A    between atoms: C2_2  and  C3_4
REMARK    2  A    between atoms: C3_4  and  C4_5
REMARK    3  A    between atoms: C3_4  and  C21_45
REMARK    4  A    between atoms: C4_5  and  O3_7
REMARK    5  A    between atoms: O3_7  and  C5_8
REMARK    6  A    between atoms: C5_8  and  C6_9
REMARK    7  A    between atoms: C6_9  and  O4_10
REMARK    8  A    between atoms: C9_16  and  O7_17
REMARK    9  A    between atoms: O7_17  and  C10_18
REMARK   10  A    between atoms: C11_20  and  C12_21
REMARK       I    between atoms: C12_21  and  N1_23
REMARK   11  A    between atoms: N1_23  and  O10_24
REMARK   12  A    between atoms: N1_23  and  N2_26
REMARK   13  A    between atoms: N2_26  and  N3_28
REMARK       I    between atoms: N3_28  and  C13_30
REMARK   14  A    between atoms: C13_30  and  C14_32
REMARK   15  A    between atoms: C18_36  and  O12_37
REMARK   16  A    between atoms: C18_36  and  C19_39
ROOT
HETATM    1  C6  UNL     1      18.414 -56.305 -51.320  1.00  0.00     0.220 C
HETATM    2  O5  UNL     1      18.003 -55.024 -51.036  1.00  0.00    -0.278 OA
HETATM    3  C7  UNL     1      17.809 -54.205 -52.125  1.00  0.00     0.273 C
HETATM    4  O6  UNL     1      17.336 -53.045 -52.041  1.00  0.00    -0.264 OA
HETATM    5  C8  UNL     1      18.243 -54.924 -53.320  1.00  0.00     0.175 C
HETATM    6  C9  UNL     1      17.078 -55.527 -54.133  1.00  0.00     0.282 C
HETATM    7  O16 UNL     1      17.059 -56.624 -53.268  1.00  0.00    -0.348 OA
HETATM    8  C20 UNL     1      18.359 -56.360 -52.849  1.00  0.00     0.208 C
ENDROOT
BRANCH   6   9
HETATM    9  O7  UNL     1      17.485 -55.914 -55.406  1.00  0.00    -0.307 OA
BRANCH   9  10
HETATM   10  C10 UNL     1      16.665 -56.933 -55.914  1.00  0.00     0.419 C
HETATM   11  O8  UNL     1      17.378 -58.084 -56.002  1.00  0.00    -0.324 OA
HETATM   12  C11 UNL     1      17.889 -58.394 -57.194  1.00  0.00     0.228 C
HETATM   13  C17 UNL     1      18.200 -57.273 -58.155  1.00  0.00     0.122 C
HETATM   14  C18 UNL     1      17.176 -56.165 -58.045  1.00  0.00     0.260 C
HETATM   15  O15 UNL     1      16.188 -56.522 -57.128  1.00  0.00    -0.291 OA
BRANCH  12  16
HETATM   16  C12 UNL     1      17.111 -59.477 -57.845  1.00  0.00     0.294 C
HETATM   17  O9  UNL     1      17.647 -60.114 -58.831  1.00  0.00    -0.266 OA
HETATM   18  N1  UNL     1      15.814 -59.891 -57.485  1.00  0.00    -0.109 N
BRANCH  18  19
HETATM   19  O10 UNL     1      15.227 -59.242 -56.419  1.00  0.00    -0.264 OA
ATOM     20  H10 UNL     1      15.680 -58.480 -56.079  1.00  0.00     0.247 HD
ENDBRANCH  18  19
BRANCH  18  21
HETATM   21  N2  UNL     1      15.101 -60.879 -58.121  1.00  0.00    -0.210 N
ATOM     22  H2  UNL     1      15.540 -61.761 -58.387  1.00  0.00     0.211 HD
BRANCH  21  23
HETATM   23  N3  UNL     1      13.780 -60.636 -58.386  1.00  0.00    -0.253 N
HETATM   24  C13 UNL     1      12.794 -61.495 -57.838  1.00  0.00     0.240 C
HETATM   25  O11 UNL     1      13.132 -62.478 -57.108  1.00  0.00    -0.271 OA
ATOM     26  H3  UNL     1      13.508 -59.845 -58.971  1.00  0.00     0.191 HD
BRANCH  24  27
HETATM   27  C14 UNL     1      11.331 -61.287 -58.089  1.00  0.00     0.071 C
HETATM   28  C15 UNL     1      10.988 -59.853 -57.743  1.00  0.00     0.019 C
HETATM   29  C16 UNL     1      10.564 -62.237 -57.178  1.00  0.00     0.019 C
ENDBRANCH  24  27
ENDBRANCH  21  23
ENDBRANCH  18  21
ENDBRANCH  12  16
BRANCH  14  30
HETATM   30  O12 UNL     1      17.765 -54.992 -57.603  1.00  0.00    -0.357 OA
ATOM     31  H12 UNL     1      18.053 -55.078 -56.702  1.00  0.00     0.213 HD
ENDBRANCH  14  30
BRANCH  14  32
HETATM   32  C19 UNL     1      16.520 -55.885 -59.340  1.00  0.00     0.239 C
HETATM   33  O13 UNL     1      16.091 -54.773 -59.672  1.00  0.00    -0.644 OA
HETATM   34  O14 UNL     1      16.381 -56.950 -60.249  1.00  0.00    -0.644 OA
ENDBRANCH  14  32
ENDBRANCH   9  10
ENDBRANCH   6   9
BRANCH   1  35
HETATM   35  C5  UNL     1      19.795 -56.708 -50.933  1.00  0.00     0.250 C
BRANCH  35  36
HETATM   36  O3  UNL     1      20.145 -57.971 -51.371  1.00  0.00    -0.315 OA
BRANCH  36  37
HETATM   37  C4  UNL     1      20.161 -59.160 -50.688  1.00  0.00     0.276 C
HETATM   38  O2  UNL     1      20.094 -59.129 -49.446  1.00  0.00    -0.264 OA
BRANCH  37  39
HETATM   39  C3  UNL     1      20.261 -60.491 -51.403  1.00  0.00     0.205 C
BRANCH  39  40
HETATM   40  C2  UNL     1      21.408 -60.512 -52.321  1.00  0.00     0.142 C
HETATM   41  C1  UNL     1      22.779 -60.625 -51.765  1.00  0.00     0.092 C
HETATM   42  O1  UNL     1      21.269 -60.439 -53.540  1.00  0.00    -0.297 OA
ENDBRANCH  39  40
BRANCH  39  43
HETATM   43  C21 UNL     1      19.018 -60.720 -52.168  1.00  0.00     0.050 A
HETATM   44  C22 UNL     1      18.395 -61.878 -52.564  1.00  0.00     0.121 A
HETATM   45  N4  UNL     1      17.269 -61.603 -53.241  1.00  0.00    -0.312 N
HETATM   46  C23 UNL     1      16.358 -62.606 -53.794  1.00  0.00     0.160 C
HETATM   47  C24 UNL     1      17.160 -60.259 -53.284  1.00  0.00     0.326 A
HETATM   48  O17 UNL     1      16.211 -59.664 -53.848  1.00  0.00    -0.246 OA
HETATM   49  N5  UNL     1      18.222 -59.727 -52.634  1.00  0.00    -0.310 N
ATOM     50  H5  UNL     1      18.396 -58.730 -52.513  1.00  0.00     0.170 HD
ENDBRANCH  39  43
ENDBRANCH  37  39
ENDBRANCH  36  37
ENDBRANCH  35  36
ENDBRANCH   1  35
BRANCH   1  51
HETATM   51  O4  UNL     1      17.449 -57.179 -50.785  1.00  0.00    -0.361 OA
ATOM     52  H4  UNL     1      16.746 -56.706 -50.358  1.00  0.00     0.213 HD
ENDBRANCH   1  51
TORSDOF 16
ENDMDL