MODEL 2
REMARK VINA RESULT: -10.424994370      3.411     13.738
REMARK  16 active torsions:
REMARK  status: ('A' for Active; 'I' for Inactive)
REMARK    1  A    between atoms: N3_7  and  C3_8
REMARK    2  A    between atoms: C4_14  and  N6_15
REMARK    3  A    between atoms: C5_18  and  C6_19
REMARK    4  A    between atoms: N7_21  and  C8_22
REMARK    5  A    between atoms: C8_22  and  C9_23
REMARK    6  A    between atoms: C9_23  and  O2_24
REMARK    7  A    between atoms: C9_23  and  N8_26
REMARK    8  A    between atoms: N8_26  and  C10_28
REMARK    9  A    between atoms: C10_28  and  C11_29
REMARK   10  A    between atoms: C14_32  and  C15_33
REMARK   11  A    between atoms: C15_33  and  O3_34
REMARK   12  A    between atoms: C15_33  and  C16_36
REMARK       I    between atoms: C16_36  and  N9_38
REMARK   13  A    between atoms: N9_38  and  C17_40
REMARK   14  A    between atoms: C17_40  and  C18_41
REMARK   15  A    between atoms: N10_43  and  S1_44
REMARK   16  A    between atoms: N11_51  and  O8_52
ROOT
HETATM    1  N8  UNL     1      18.465 -56.965 -51.308  1.00  0.00    -0.390 N
ATOM      2  H8  UNL     1      17.603 -56.883 -51.849  1.00  0.00     0.156 HD
ENDROOT
BRANCH   1   3
HETATM    3  C9  UNL     1      18.698 -56.202 -50.130  1.00  0.00     0.233 C
BRANCH   3   4
HETATM    4  C8  UNL     1      19.834 -55.215 -50.269  1.00  0.00     0.202 C
BRANCH   4   5
HETATM    5  N7  UNL     1      19.916 -54.439 -49.046  1.00  0.00    -0.283 N
HETATM    6  C7  UNL     1      20.400 -53.156 -48.906  1.00  0.00     0.145 A
HETATM    7  C6  UNL     1      20.308 -52.787 -47.601  1.00  0.00     0.097 A
HETATM    8  N15 UNL     1      19.776 -53.840 -46.965  1.00  0.00    -0.282 N
HETATM    9  N14 UNL     1      19.559 -54.784 -47.828  1.00  0.00    -0.240 N
ATOM     10  H15 UNL     1      19.574 -53.890 -45.967  1.00  0.00     0.188 HD
ATOM     11  H14 UNL     1      19.157 -55.690 -47.589  1.00  0.00     0.208 HD
BRANCH   7  12
HETATM   12  C5  UNL     1      20.690 -51.539 -46.956  1.00  0.00     0.113 A
HETATM   13  C2  UNL     1      19.933 -50.353 -47.063  1.00  0.00     0.054 A
HETATM   14  C1  UNL     1      18.657 -50.214 -47.832  1.00  0.00     0.072 C
HETATM   15  N1  UNL     1      20.583 -49.442 -46.360  1.00  0.00    -0.288 N
HETATM   16  N2  UNL     1      21.659 -49.977 -45.844  1.00  0.00    -0.234 N
ATOM     17  H1  UNL     1      20.291 -48.472 -46.239  1.00  0.00     0.188 HD
HETATM   18  N3  UNL     1      21.754 -51.279 -46.195  1.00  0.00    -0.216 N
ATOM     19  H2  UNL     1      22.332 -49.482 -45.259  1.00  0.00     0.209 HD
BRANCH  18  20
HETATM   20  C3  UNL     1      22.817 -52.135 -45.795  1.00  0.00     0.196 A
HETATM   21  N4  UNL     1      24.056 -52.263 -46.310  1.00  0.00    -0.220 N
HETATM   22  O1  UNL     1      24.726 -53.180 -45.681  1.00  0.00    -0.153 OA
ATOM     23  H4  UNL     1      24.419 -51.714 -47.089  1.00  0.00     0.198 HD
HETATM   24  N5  UNL     1      23.969 -53.671 -44.755  1.00  0.00    -0.222 N
HETATM   25  C4  UNL     1      22.771 -53.080 -44.758  1.00  0.00     0.169 A
ATOM     26  H5  UNL     1      24.249 -54.410 -44.110  1.00  0.00     0.198 HD
BRANCH  25  27
HETATM   27  N6  UNL     1      21.749 -53.294 -43.992  1.00  0.00    -0.381 N
ATOM     28  H62 UNL     1      20.937 -53.892 -44.150  1.00  0.00     0.157 HD
ATOM     29  H61 UNL     1      21.606 -52.872 -43.074  1.00  0.00     0.157 HD
ENDBRANCH  25  27
ENDBRANCH  18  20
ENDBRANCH   7  12
ENDBRANCH   4   5
ENDBRANCH   3   4
BRANCH   3  30
HETATM   30  O2  UNL     1      17.542 -55.475 -49.852  1.00  0.00    -0.375 OA
ATOM     31  H2  UNL     1      16.926 -56.065 -49.432  1.00  0.00     0.212 HD
ENDBRANCH   3  30
ENDBRANCH   1   3
BRANCH   1  32
HETATM   32  C10 UNL     1      19.529 -57.862 -51.687  1.00  0.00     0.175 C
BRANCH  32  33
HETATM   33  C11 UNL     1      18.887 -59.075 -52.305  1.00  0.00     0.043 A
HETATM   34  C12 UNL     1      19.407 -60.338 -52.023  1.00  0.00     0.030 A
HETATM   35  C13 UNL     1      18.812 -61.441 -52.596  1.00  0.00     0.032 A
HETATM   36  C14 UNL     1      17.727 -61.314 -53.434  1.00  0.00     0.063 A
HETATM   37  N12 UNL     1      17.272 -60.078 -53.669  1.00  0.00    -0.302 N
HETATM   38  N13 UNL     1      17.830 -59.002 -53.126  1.00  0.00    -0.303 N
ATOM     39  H12 UNL     1      16.469 -59.958 -54.287  1.00  0.00     0.186 HD
ATOM     40  H13 UNL     1      17.439 -58.085 -53.343  1.00  0.00     0.186 HD
BRANCH  36  41
HETATM   41  C15 UNL     1      17.092 -62.509 -54.039  1.00  0.00     0.260 C
BRANCH  41  42
HETATM   42  O3  UNL     1      16.611 -63.364 -53.040  1.00  0.00    -0.380 OA
ATOM     43  H3  UNL     1      15.944 -62.927 -52.524  1.00  0.00     0.211 HD
ENDBRANCH  41  42
BRANCH  41  44
HETATM   44  C16 UNL     1      16.008 -62.151 -54.979  1.00  0.00     0.252 C
HETATM   45  O4  UNL     1      14.844 -61.949 -54.555  1.00  0.00    -0.270 OA
HETATM   46  N9  UNL     1      16.252 -62.028 -56.370  1.00  0.00    -0.357 N
ATOM     47  H9  UNL     1      17.199 -62.191 -56.712  1.00  0.00     0.162 HD
BRANCH  46  48
HETATM   48  C17 UNL     1      15.228 -61.684 -57.326  1.00  0.00     0.146 C
BRANCH  48  49
HETATM   49  C18 UNL     1      15.341 -60.250 -57.743  1.00  0.00     0.120 C
HETATM   50  C19 UNL     1      16.163 -60.096 -59.017  1.00  0.00     0.136 C
HETATM   51  N10 UNL     1      16.823 -58.839 -58.863  1.00  0.00    -0.166 NA
HETATM   52  C20 UNL     1      16.462 -58.290 -57.600  1.00  0.00     0.102 C
HETATM   53  C21 UNL     1      17.597 -57.501 -56.969  1.00  0.00     0.053 C
HETATM   54  C22 UNL     1      15.216 -57.462 -57.580  1.00  0.00     0.053 C
HETATM   55  N11 UNL     1      16.180 -59.492 -56.802  1.00  0.00    -0.168 NA
BRANCH  51  56
HETATM   56  S1  UNL     1      16.715 -57.788 -60.195  1.00  0.00     0.187 S
HETATM   57  O5  UNL     1      16.822 -56.350 -59.811  1.00  0.00    -0.582 OA
HETATM   58  O6  UNL     1      15.430 -57.950 -60.963  1.00  0.00    -0.582 OA
HETATM   59  O7  UNL     1      17.954 -58.228 -61.276  1.00  0.00    -0.582 OA
ENDBRANCH  51  56
BRANCH  55  60
HETATM   60  O8  UNL     1      15.517 -59.202 -55.675  1.00  0.00    -0.311 OA
ATOM     61  H8  UNL     1      15.854 -59.694 -54.936  1.00  0.00     0.237 HD
ENDBRANCH  55  60
ENDBRANCH  48  49
ENDBRANCH  46  48
ENDBRANCH  41  44
ENDBRANCH  36  41
ENDBRANCH  32  33
ENDBRANCH   1  32
TORSDOF 16
ENDMDL