MODEL 5
REMARK VINA RESULT: -7.978072759      1.808      4.757
REMARK  18 active torsions:
REMARK  status: ('A' for Active; 'I' for Inactive)
REMARK    1  A    between atoms: O1_2  and  N1_3
REMARK    2  A    between atoms: N1_3  and  C2_5
REMARK    3  A    between atoms: C2_5  and  C3_7
REMARK       I    between atoms: C3_7  and  N3_9
REMARK    4  A    between atoms: N3_9  and  C4_11
REMARK    5  A    between atoms: C4_11  and  N4_12
REMARK    6  A    between atoms: C4_11  and  C12_31
REMARK    7  A    between atoms: N4_12  and  N5_14
REMARK       I    between atoms: N8_27  and  C11_28
REMARK    8  A    between atoms: C12_31  and  N9_32
REMARK    9  A    between atoms: C12_31  and  O11_51
REMARK   10  A    between atoms: N9_32  and  N10_33
REMARK   11  A    between atoms: N10_33  and  C13_34
REMARK       I    between atoms: N10_33  and  C18_41
REMARK   12  A    between atoms: C13_34  and  C14_35
REMARK   13  A    between atoms: C14_35  and  C17_38
REMARK   14  A    between atoms: C17_38  and  O7_39
REMARK   15  A    between atoms: C18_41  and  C19_43
REMARK   16  A    between atoms: C19_43  and  N11_44
REMARK   17  A    between atoms: C19_43  and  C20_48
REMARK   18  A    between atoms: O11_51  and  C21_52
ROOT
HETATM    1  C4  UNL     1      15.237 -57.748 -56.818  1.00  0.00     0.294 C
ENDROOT
BRANCH   1   2
HETATM    2  N3  UNL     1      14.236 -56.872 -57.347  1.00  0.00    -0.324 N
HETATM    3  C3  UNL     1      14.345 -55.722 -58.125  1.00  0.00     0.286 C
HETATM    4  O2  UNL     1      15.505 -55.333 -58.494  1.00  0.00    -0.265 OA
ATOM      5  H3  UNL     1      13.278 -57.135 -57.114  1.00  0.00     0.165 HD
BRANCH   3   6
HETATM    6  C2  UNL     1      13.210 -54.895 -58.565  1.00  0.00     0.204 C
HETATM    7  N2  UNL     1      12.616 -55.250 -59.850  1.00  0.00    -0.075 NA
BRANCH   6   8
HETATM    8  N1  UNL     1      12.683 -53.925 -57.990  1.00  0.00    -0.249 N
ATOM      9  H1  UNL     1      12.464 -53.176 -58.648  1.00  0.00     0.196 HD
BRANCH   8  10
HETATM   10  O1  UNL     1      12.329 -53.603 -56.759  1.00  0.00    -0.284 OA
HETATM   11  C1  UNL     1      11.201 -52.761 -56.455  1.00  0.00     0.237 C
ENDBRANCH   8  10
ENDBRANCH   6   8
ENDBRANCH   3   6
ENDBRANCH   1   2
BRANCH   1  12
HETATM   12  N4  UNL     1      16.500 -57.186 -56.470  1.00  0.00    -0.294 N
ATOM     13  H4  UNL     1      17.181 -57.126 -57.227  1.00  0.00     0.183 HD
BRANCH  12  14
HETATM   14  N5  UNL     1      16.926 -56.706 -55.231  1.00  0.00    -0.226 N
HETATM   15  C5  UNL     1      16.846 -55.484 -54.695  1.00  0.00     0.103 A
HETATM   16  C6  UNL     1      16.279 -54.216 -55.262  1.00  0.00     0.091 C
HETATM   17  N6  UNL     1      17.409 -55.547 -53.460  1.00  0.00    -0.327 N
HETATM   18  C7  UNL     1      17.839 -56.780 -53.214  1.00  0.00     0.163 A
ATOM     19  H6  UNL     1      17.490 -54.761 -52.815  1.00  0.00     0.169 HD
HETATM   20  C8  UNL     1      17.548 -57.545 -54.318  1.00  0.00     0.182 A
HETATM   21  N8  UNL     1      18.493 -57.600 -52.240  1.00  0.00    -0.240 N
HETATM   22  N7  UNL     1      17.992 -58.878 -54.071  1.00  0.00    -0.239 N
HETATM   23  C9  UNL     1      17.876 -60.227 -54.475  1.00  0.00     0.382 C
HETATM   24  C10 UNL     1      18.944 -58.745 -52.947  1.00  0.00     0.303 C
HETATM   25  O3  UNL     1      17.936 -60.558 -55.708  1.00  0.00    -0.237 OA
HETATM   26  O4  UNL     1      17.699 -61.098 -53.407  1.00  0.00    -0.223 OA
HETATM   27  S1  UNL     1      18.529 -60.308 -52.064  1.00  0.00     0.049 SA
HETATM   28  C11 UNL     1      18.638 -57.304 -50.885  1.00  0.00     0.294 C
HETATM   29  O5  UNL     1      18.176 -56.238 -50.418  1.00  0.00    -0.629 OA
HETATM   30  O6  UNL     1      19.297 -58.189 -50.044  1.00  0.00    -0.629 OA
ENDBRANCH  12  14
ENDBRANCH   1  12
BRANCH   1  31
HETATM   31  C12 UNL     1      15.472 -58.873 -57.864  1.00  0.00     0.268 C
BRANCH  31  32
HETATM   32  N9  UNL     1      14.717 -59.770 -57.894  1.00  0.00    -0.295 NA
BRANCH  32  33
HETATM   33  N10 UNL     1      13.847 -60.747 -57.901  1.00  0.00    -0.189 N
HETATM   34  C18 UNL     1      14.051 -61.928 -57.159  1.00  0.00     0.290 C
HETATM   35  O8  UNL     1      13.197 -62.834 -57.186  1.00  0.00    -0.268 OA
BRANCH  33  36
HETATM   36  C13 UNL     1      12.644 -60.657 -58.730  1.00  0.00     0.177 C
BRANCH  36  37
HETATM   37  C14 UNL     1      11.495 -59.961 -58.116  1.00  0.00    -0.007 C
HETATM   38  C15 UNL     1      11.607 -59.718 -56.627  1.00  0.00     0.019 C
HETATM   39  C16 UNL     1      10.158 -60.575 -58.403  1.00  0.00     0.019 C
BRANCH  37  40
HETATM   40  C17 UNL     1      11.457 -58.561 -58.751  1.00  0.00     0.174 C
BRANCH  40  41
HETATM   41  O7  UNL     1      12.512 -58.374 -59.628  1.00  0.00    -0.400 OA
ATOM     42  H7  UNL     1      12.671 -57.451 -59.789  1.00  0.00     0.209 HD
ENDBRANCH  40  41
ENDBRANCH  37  40
ENDBRANCH  36  37
ENDBRANCH  33  36
BRANCH  34  43
HETATM   43  C19 UNL     1      15.262 -62.143 -56.344  1.00  0.00     0.376 C
BRANCH  43  44
HETATM   44  N11 UNL     1      16.363 -62.635 -57.187  1.00  0.00    -0.056 N
ATOM     45 3H11 UNL     1      16.047 -63.337 -57.856  1.00  0.00     0.275 HD
ATOM     46 2H11 UNL     1      16.681 -61.927 -57.849  1.00  0.00     0.275 HD
ATOM     47 1H11 UNL     1      17.126 -62.981 -56.605  1.00  0.00     0.275 HD
ENDBRANCH  43  44
BRANCH  43  48
HETATM   48  C20 UNL     1      15.085 -63.218 -55.313  1.00  0.00     0.214 C
HETATM   49  O9  UNL     1      14.814 -64.417 -55.679  1.00  0.00    -0.646 OA
HETATM   50  O10 UNL     1      15.192 -63.025 -53.963  1.00  0.00    -0.646 OA
ENDBRANCH  43  48
ENDBRANCH  34  43
ENDBRANCH  32  33
ENDBRANCH  31  32
BRANCH  31  51
HETATM   51  O11 UNL     1      16.585 -58.708 -58.682  1.00  0.00    -0.248 OA
BRANCH  51  52
HETATM   52  C21 UNL     1      16.545 -58.287 -59.994  1.00  0.00     0.262 C
HETATM   53  C22 UNL     1      17.811 -58.041 -60.774  1.00  0.00     0.126 C
HETATM   54  O12 UNL     1      15.433 -58.112 -60.540  1.00  0.00    -0.265 OA
ENDBRANCH  51  52
ENDBRANCH  31  51
ENDBRANCH   1  31
TORSDOF 18
ENDMDL