MODEL 5
REMARK VINA RESULT: -9.345273916      2.494      5.027
REMARK  15 active torsions:
REMARK  status: ('A' for Active; 'I' for Inactive)
REMARK    1  A    between atoms: C2_2  and  O1_3
REMARK    2  A    between atoms: O1_3  and  N1_4
REMARK    3  A    between atoms: N1_4  and  S1_6
REMARK    4  A    between atoms: S1_6  and  C3_9
REMARK    5  A    between atoms: C3_9  and  C4_10
REMARK    6  A    between atoms: C3_9  and  C23_56
REMARK    7  A    between atoms: C4_10  and  O4_11
REMARK    8  A    between atoms: O4_11  and  C5_12
REMARK    9  A    between atoms: C5_12  and  N4_18
REMARK   10  A    between atoms: N2_13  and  N3_15
REMARK   11  A    between atoms: N4_18  and  N5_20
REMARK       I    between atoms: N5_20  and  C6_22
REMARK   12  A    between atoms: C6_22  and  C7_24
REMARK   13  A    between atoms: C7_24  and  N6_25
REMARK   14  A    between atoms: N9_33  and  C12_35
REMARK   15  A    between atoms: C14_43  and  C15_44
ROOT
HETATM    1  N6  UNL     1      15.554 -57.150 -57.381  1.00  0.00    -0.292 N
HETATM    2  C8  UNL     1      16.235 -56.342 -58.191  1.00  0.00     0.135 A
HETATM    3  C9  UNL     1      17.314 -55.500 -57.717  1.00  0.00     0.119 C
HETATM    4  N7  UNL     1      18.186 -54.847 -57.331  1.00  0.00    -0.190 NA
HETATM    5  C10 UNL     1      15.881 -56.324 -59.533  1.00  0.00     0.131 A
HETATM    6  N8  UNL     1      14.896 -57.076 -60.036  1.00  0.00    -0.345 N
ATOM      7  H8  UNL     1      14.671 -57.030 -61.030  1.00  0.00     0.167 HD
HETATM    8  C11 UNL     1      14.193 -57.909 -59.204  1.00  0.00     0.176 A
HETATM    9  N9  UNL     1      13.254 -58.614 -59.727  1.00  0.00    -0.322 N
ATOM     10  H9  UNL     1      13.104 -58.500 -60.730  1.00  0.00     0.169 HD
HETATM   11  C22 UNL     1      14.546 -57.924 -57.879  1.00  0.00     0.293 A
HETATM   12  O6  UNL     1      13.907 -58.694 -57.086  1.00  0.00    -0.264 OA
ENDROOT
BRANCH   1  13
HETATM   13  C7  UNL     1      15.842 -57.215 -55.965  1.00  0.00     0.237 C
BRANCH  13  14
HETATM   14  C6  UNL     1      16.592 -58.466 -55.634  1.00  0.00     0.254 C
HETATM   15  N5  UNL     1      16.008 -59.536 -54.947  1.00  0.00    -0.266 N
ATOM     16  H5  UNL     1      15.031 -59.414 -54.678  1.00  0.00     0.190 HD
HETATM   17  O5  UNL     1      17.789 -58.531 -55.996  1.00  0.00    -0.270 OA
BRANCH  15  18
HETATM   18  N4  UNL     1      16.585 -60.733 -54.589  1.00  0.00    -0.261 N
ATOM     19  H4  UNL     1      16.391 -61.527 -55.199  1.00  0.00     0.190 HD
BRANCH  18  20
HETATM   20  C5  UNL     1      17.410 -60.991 -53.483  1.00  0.00     0.253 C
HETATM   21  N2  UNL     1      17.473 -62.167 -52.902  1.00  0.00    -0.271 N
ATOM     22  H2  UNL     1      18.096 -62.271 -52.101  1.00  0.00     0.190 HD
BRANCH  20  23
HETATM   23  O4  UNL     1      18.222 -60.042 -52.909  1.00  0.00    -0.318 OA
BRANCH  23  24
HETATM   24  C4  UNL     1      17.881 -58.861 -52.270  1.00  0.00     0.212 C
BRANCH  24  25
HETATM   25  C3  UNL     1      18.986 -57.966 -51.857  1.00  0.00     0.256 C
BRANCH  25  26
HETATM   26  S1  UNL     1      18.411 -56.253 -51.842  1.00  0.00     0.265 S
HETATM   27  O2  UNL     1      17.757 -55.946 -53.149  1.00  0.00    -0.203 OA
HETATM   28  O3  UNL     1      17.430 -56.051 -50.726  1.00  0.00    -0.203 OA
BRANCH  26  29
HETATM   29  N1  UNL     1      19.722 -55.191 -51.601  1.00  0.00    -0.191 N
ATOM     30  H1  UNL     1      20.467 -55.383 -50.932  1.00  0.00     0.207 HD
BRANCH  29  31
HETATM   31  O1  UNL     1      19.701 -54.083 -52.356  1.00  0.00    -0.271 OA
BRANCH  31  32
HETATM   32  C2  UNL     1      19.300 -53.040 -51.488  1.00  0.00     0.197 C
HETATM   33  C1  UNL     1      20.045 -53.204 -50.194  1.00  0.00     0.036 C
ENDBRANCH  31  32
ENDBRANCH  29  31
ENDBRANCH  26  29
ENDBRANCH  25  26
BRANCH  25  34
HETATM   34  C23 UNL     1      19.566 -58.197 -50.533  1.00  0.00     0.196 C
HETATM   35  O7  UNL     1      20.481 -57.432 -50.097  1.00  0.00    -0.647 OA
HETATM   36  O8  UNL     1      19.135 -59.249 -49.724  1.00  0.00    -0.647 OA
ENDBRANCH  25  34
ENDBRANCH  24  25
ENDBRANCH  23  24
ENDBRANCH  20  23
BRANCH  21  37
HETATM   37  N3  UNL     1      16.752 -63.268 -53.304  1.00  0.00    -0.342 N
ATOM     38  H32 UNL     1      16.432 -63.901 -52.571  1.00  0.00     0.176 HD
ATOM     39  H31 UNL     1      16.524 -63.482 -54.275  1.00  0.00     0.176 HD
ENDBRANCH  21  37
ENDBRANCH  18  20
ENDBRANCH  15  18
ENDBRANCH  13  14
ENDBRANCH   1  13
BRANCH   9  40
HETATM   40  C12 UNL     1      12.406 -59.533 -59.058  1.00  0.00     0.135 A
HETATM   41  N10 UNL     1      12.843 -60.740 -58.779  1.00  0.00    -0.357 N
HETATM   42  C13 UNL     1      12.012 -61.690 -58.105  1.00  0.00     0.262 A
ATOM     43  H10 UNL     1      13.791 -61.005 -59.048  1.00  0.00     0.162 HD
HETATM   44  N11 UNL     1      10.700 -61.188 -57.764  1.00  0.00    -0.318 N
HETATM   45  N12 UNL     1      10.276 -59.903 -58.075  1.00  0.00    -0.298 N
ATOM     46  H11 UNL     1      10.055 -61.807 -57.272  1.00  0.00     0.182 HD
HETATM   47  C14 UNL     1      11.072 -59.082 -58.697  1.00  0.00     0.125 A
ATOM     48  H12 UNL     1       9.336 -59.602 -57.816  1.00  0.00     0.187 HD
BRANCH  47  49
HETATM   49  C15 UNL     1      10.595 -57.720 -59.000  1.00  0.00     0.107 A
HETATM   50  N13 UNL     1      10.261 -56.770 -58.164  1.00  0.00    -0.347 N
HETATM   51  C16 UNL     1       9.853 -55.616 -58.604  1.00  0.00     0.050 A
ATOM     52  H13 UNL     1      10.320 -56.936 -57.160  1.00  0.00     0.167 HD
HETATM   53  C17 UNL     1       9.464 -54.508 -57.823  1.00  0.00     0.031 A
HETATM   54  C21 UNL     1       9.791 -55.444 -59.965  1.00  0.00     0.033 A
HETATM   55  C18 UNL     1       9.061 -53.367 -58.427  1.00  0.00     0.002 A
HETATM   56  C19 UNL     1       8.988 -53.165 -59.801  1.00  0.00     0.002 A
HETATM   57  C20 UNL     1       9.370 -54.251 -60.567  1.00  0.00     0.021 A
HETATM   58  S2  UNL     1      10.333 -56.982 -60.520  1.00  0.00    -0.068 SA
ENDBRANCH  47  49
ENDBRANCH   9  40
TORSDOF 15
ENDMDL