MODEL 5
REMARK VINA RESULT: -8.351104900      9.051     13.565
REMARK  16 active torsions:
REMARK  status: ('A' for Active; 'I' for Inactive)
REMARK    1  A    between atoms: C2_2  and  N1_3
REMARK    2  A    between atoms: C2_2  and  N3_31
REMARK    3  A    between atoms: C3_4  and  C4_5
REMARK    4  A    between atoms: C5_8  and  S1_9
REMARK    5  A    between atoms: S1_9  and  S2_10
REMARK    6  A    between atoms: S2_10  and  C6_11
REMARK    7  A    between atoms: C8_13  and  N2_14
REMARK       I    between atoms: N2_14  and  C9_16
REMARK    8  A    between atoms: C11_19  and  O4_20
REMARK    9  A    between atoms: C12_23  and  O6_24
REMARK   10  A    between atoms: C13_26  and  O7_27
REMARK   11  A    between atoms: C15_36  and  C16_37
REMARK   12  A    between atoms: C16_37  and  C17_38
REMARK   13  A    between atoms: N6_40  and  N7_42
REMARK       I    between atoms: N7_42  and  C18_44
REMARK   14  A    between atoms: C18_44  and  C19_46
REMARK   15  A    between atoms: C19_46  and  N8_48
REMARK   16  A    between atoms: C21_52  and  N9_53
ROOT
HETATM    1  N1  UNL     1      24.021 -47.664 -48.619  1.00  0.00    -0.333 N
HETATM    2  C3  UNL     1      22.865 -48.511 -48.406  1.00  0.00     0.205 C
HETATM    3  C5  UNL     1      21.789 -48.003 -49.341  1.00  0.00     0.124 C
HETATM    4  C12 UNL     1      22.419 -47.187 -50.444  1.00  0.00     0.183 C
HETATM    5  C13 UNL     1      22.915 -45.899 -49.876  1.00  0.00     0.164 A
HETATM    6  S3  UNL     1      22.374 -45.394 -48.262  1.00  0.00    -0.096 SA
HETATM    7  C14 UNL     1      23.832 -46.209 -48.704  1.00  0.00     0.199 A
ENDROOT
BRANCH   1   8
HETATM    8  C2  UNL     1      25.305 -48.251 -48.769  1.00  0.00     0.121 C
HETATM    9  C1  UNL     1      26.041 -47.867 -49.811  1.00  0.00     0.065 C
BRANCH   8  10
HETATM   10  N3  UNL     1      25.825 -49.218 -47.897  1.00  0.00    -0.208 N
HETATM   11  N4  UNL     1      26.107 -49.013 -46.628  1.00  0.00    -0.232 N
HETATM   12  N5  UNL     1      26.536 -50.083 -46.059  1.00  0.00    -0.280 N
ATOM     13  H4  UNL     1      25.998 -48.115 -46.155  1.00  0.00     0.209 HD
HETATM   14  C15 UNL     1      26.562 -51.134 -46.987  1.00  0.00     0.126 A
ATOM     15  H5  UNL     1      26.815 -50.156 -45.080  1.00  0.00     0.188 HD
HETATM   16  C21 UNL     1      26.111 -50.550 -48.123  1.00  0.00     0.158 A
BRANCH  14  17
HETATM   17  C16 UNL     1      26.923 -52.473 -46.624  1.00  0.00     0.117 C
HETATM   18  N6  UNL     1      26.033 -53.210 -45.962  1.00  0.00    -0.293 N
ATOM     19  H6  UNL     1      26.296 -54.163 -45.710  1.00  0.00     0.187 HD
BRANCH  17  20
HETATM   20  C17 UNL     1      28.105 -53.213 -46.934  1.00  0.00     0.292 C
HETATM   21  O8  UNL     1      29.132 -52.923 -47.528  1.00  0.00    -0.300 OA
ENDBRANCH  17  20
BRANCH  18  22
HETATM   22  N7  UNL     1      24.795 -52.772 -45.602  1.00  0.00    -0.268 N
HETATM   23  C18 UNL     1      24.094 -53.243 -44.443  1.00  0.00     0.266 C
HETATM   24  O9  UNL     1      24.627 -54.100 -43.715  1.00  0.00    -0.269 OA
ATOM     25  H7  UNL     1      24.342 -52.070 -46.188  1.00  0.00     0.190 HD
BRANCH  23  26
HETATM   26  C19 UNL     1      22.763 -52.702 -44.146  1.00  0.00     0.272 C
HETATM   27  C20 UNL     1      22.019 -53.521 -43.108  1.00  0.00     0.050 C
BRANCH  26  28
HETATM   28  N8  UNL     1      21.948 -52.504 -45.316  1.00  0.00    -0.067 N
ATOM     29  H83 UNL     1      22.530 -52.406 -46.148  1.00  0.00     0.275 HD
ATOM     30  H82 UNL     1      21.449 -53.360 -45.557  1.00  0.00     0.275 HD
ATOM     31  H81 UNL     1      21.302 -51.719 -45.234  1.00  0.00     0.275 HD
ENDBRANCH  26  28
ENDBRANCH  23  26
ENDBRANCH  18  22
ENDBRANCH  14  17
BRANCH  16  32
HETATM   32  N9  UNL     1      25.946 -51.059 -49.426  1.00  0.00    -0.372 N
HETATM   33  C22 UNL     1      27.106 -51.288 -50.282  1.00  0.00     0.150 C
HETATM   34  C23 UNL     1      24.628 -51.325 -50.027  1.00  0.00     0.150 C
ENDBRANCH  16  32
ENDBRANCH   8  10
ENDBRANCH   1   8
BRANCH   2  35
HETATM   35  C4  UNL     1      22.414 -48.352 -47.002  1.00  0.00     0.198 C
HETATM   36  O1  UNL     1      23.182 -48.330 -46.007  1.00  0.00    -0.646 OA
HETATM   37  O2  UNL     1      21.060 -48.216 -46.716  1.00  0.00    -0.646 OA
ENDBRANCH   2  35
BRANCH   3  38
HETATM   38  S1  UNL     1      20.825 -49.302 -50.125  1.00  0.00    -0.085 SA
BRANCH  38  39
HETATM   39  S2  UNL     1      20.240 -50.848 -48.800  1.00  0.00    -0.065 SA
BRANCH  39  40
HETATM   40  C6  UNL     1      20.976 -52.451 -49.310  1.00  0.00     0.199 C
HETATM   41  C7  UNL     1      19.955 -53.298 -50.022  1.00  0.00     0.074 C
HETATM   42  C8  UNL     1      19.757 -54.468 -49.085  1.00  0.00     0.142 C
HETATM   43  C11 UNL     1      20.908 -54.376 -48.145  1.00  0.00     0.281 C
HETATM   44  O5  UNL     1      21.348 -53.082 -48.149  1.00  0.00    -0.343 OA
BRANCH  42  45
HETATM   45  N2  UNL     1      19.778 -55.751 -49.726  1.00  0.00    -0.352 N
HETATM   46  C9  UNL     1      18.633 -56.354 -50.269  1.00  0.00     0.214 C
HETATM   47  C10 UNL     1      18.688 -57.709 -50.932  1.00  0.00     0.117 C
HETATM   48  O3  UNL     1      17.487 -55.834 -50.251  1.00  0.00    -0.274 OA
ATOM     49  H2  UNL     1      20.666 -56.249 -49.789  1.00  0.00     0.163 HD
ENDBRANCH  42  45
BRANCH  43  50
HETATM   50  O4  UNL     1      20.449 -54.671 -46.853  1.00  0.00    -0.369 OA
ATOM     51  H4  UNL     1      20.210 -53.857 -46.427  1.00  0.00     0.212 HD
ENDBRANCH  43  50
ENDBRANCH  39  40
ENDBRANCH  38  39
ENDBRANCH   3  38
BRANCH   5  52
HETATM   52  O7  UNL     1      23.314 -44.937 -50.795  1.00  0.00    -0.373 OA
ATOM     53  H7  UNL     1      22.826 -44.907 -51.609  1.00  0.00     0.212 HD
ENDBRANCH   5  52
BRANCH   4  54
HETATM   54  O6  UNL     1      21.442 -46.969 -51.412  1.00  0.00    -0.390 OA
ATOM     55  H6  UNL     1      21.319 -47.786 -51.882  1.00  0.00     0.210 HD
ENDBRANCH   4  54
TORSDOF 16
ENDMDL