MODEL 5
REMARK VINA RESULT: -9.132589677      1.928      4.032
REMARK  18 active torsions:
REMARK  status: ('A' for Active; 'I' for Inactive)
REMARK    1  A    between atoms: O1_2  and  C2_3
REMARK    2  A    between atoms: C3_4  and  O2_5
REMARK    3  A    between atoms: C6_9  and  C7_10
REMARK    4  A    between atoms: C8_11  and  C9_12
REMARK    5  A    between atoms: C9_12  and  C10_14
REMARK    6  A    between atoms: C10_14  and  O4_15
REMARK    7  A    between atoms: C10_14  and  C11_17
REMARK    8  A    between atoms: C11_17  and  C12_19
REMARK    9  A    between atoms: C12_19  and  O6_20
REMARK   10  A    between atoms: C17_26  and  O7_27
REMARK   11  A    between atoms: C19_31  and  O9_32
REMARK   12  A    between atoms: O9_32  and  C20_33
REMARK   13  A    between atoms: C22_37  and  O12_38
REMARK   14  A    between atoms: O12_38  and  C23_39
REMARK   15  A    between atoms: C23_39  and  C24_41
REMARK   16  A    between atoms: C24_41  and  N1_43
REMARK   17  A    between atoms: C26_47  and  C27_48
REMARK   18  A    between atoms: C29_54  and  O18_55
ROOT
HETATM    1  C12 UNL     1      16.600 -58.250 -55.446  1.00  0.00     0.208 A
HETATM    2  C13 UNL     1      15.846 -57.183 -56.112  1.00  0.00     0.042 A
HETATM    3  C14 UNL     1      15.843 -55.923 -55.748  1.00  0.00     0.011 A
HETATM    4  C15 UNL     1      15.176 -54.818 -56.289  1.00  0.00     0.009 A
HETATM    5  C16 UNL     1      14.272 -54.847 -57.468  1.00  0.00     0.054 C
HETATM    6  C17 UNL     1      15.514 -53.719 -55.528  1.00  0.00     0.190 A
HETATM    7  O8  UNL     1      16.321 -54.119 -54.598  1.00  0.00    -0.284 OA
HETATM    8  C18 UNL     1      16.545 -55.419 -54.687  1.00  0.00     0.126 A
HETATM    9  C19 UNL     1      17.300 -56.265 -53.956  1.00  0.00     0.159 A
HETATM   10  C28 UNL     1      17.358 -57.666 -54.293  1.00  0.00     0.231 A
HETATM   11  O17 UNL     1      18.084 -58.433 -53.580  1.00  0.00    -0.286 OA
ENDROOT
BRANCH   1  12
HETATM   12  C11 UNL     1      17.535 -58.822 -56.453  1.00  0.00     0.209 C
HETATM   13  O5  UNL     1      18.041 -58.010 -57.213  1.00  0.00    -0.290 OA
BRANCH  12  14
HETATM   14  C10 UNL     1      17.843 -60.263 -56.541  1.00  0.00     0.265 C
BRANCH  14  15
HETATM   15  C9  UNL     1      16.756 -60.964 -57.352  1.00  0.00     0.185 C
HETATM   16  O3  UNL     1      15.891 -61.493 -56.654  1.00  0.00    -0.290 OA
BRANCH  15  17
HETATM   17  C8  UNL     1      16.789 -60.975 -58.776  1.00  0.00     0.054 C
HETATM   18  C7  UNL     1      16.456 -60.280 -59.771  1.00  0.00     0.018 C
BRANCH  18  19
HETATM   19  C6  UNL     1      15.831 -59.029 -60.081  1.00  0.00     0.000 A
HETATM   20  C5  UNL     1      16.516 -57.881 -60.329  1.00  0.00     0.017 A
HETATM   21  C4  UNL     1      15.876 -56.655 -60.595  1.00  0.00     0.040 A
HETATM   22  C3  UNL     1      14.523 -56.604 -60.609  1.00  0.00     0.101 A
HETATM   23  C2  UNL     1      13.796 -57.742 -60.364  1.00  0.00     0.135 A
HETATM   24  C29 UNL     1      14.427 -58.926 -60.106  1.00  0.00     0.112 A
BRANCH  22  25
HETATM   25  O2  UNL     1      13.867 -55.425 -60.865  1.00  0.00    -0.358 OA
ATOM     26  H2  UNL     1      13.922 -55.039 -61.731  1.00  0.00     0.217 HD
ENDBRANCH  22  25
BRANCH  23  27
HETATM   27  O1  UNL     1      12.413 -57.657 -60.385  1.00  0.00    -0.351 OA
HETATM   28  C1  UNL     1      11.765 -57.427 -59.139  1.00  0.00     0.210 C
ENDBRANCH  23  27
BRANCH  24  29
HETATM   29  O18 UNL     1      13.696 -60.092 -59.854  1.00  0.00    -0.357 OA
ATOM     30  H18 UNL     1      14.133 -60.902 -59.620  1.00  0.00     0.217 HD
ENDBRANCH  24  29
ENDBRANCH  18  19
ENDBRANCH  15  17
ENDBRANCH  14  15
BRANCH  14  31
HETATM   31  O4  UNL     1      17.888 -60.856 -55.288  1.00  0.00    -0.380 OA
ATOM     32  H4  UNL     1      17.480 -60.261 -54.669  1.00  0.00     0.211 HD
ENDBRANCH  14  31
ENDBRANCH  12  14
ENDBRANCH   1  12
BRANCH   1  33
HETATM   33  O6  UNL     1      15.743 -59.188 -54.901  1.00  0.00    -0.371 OA
ATOM     34  H6  UNL     1      14.828 -58.937 -54.952  1.00  0.00     0.212 HD
ENDBRANCH   1  33
BRANCH   9  35
HETATM   35  O9  UNL     1      17.983 -55.728 -52.910  1.00  0.00    -0.289 OA
BRANCH  35  36
HETATM   36  C20 UNL     1      19.290 -55.288 -52.803  1.00  0.00     0.428 C
HETATM   37  O10 UNL     1      19.295 -53.893 -52.570  1.00  0.00    -0.263 OA
HETATM   38  C21 UNL     1      19.029 -53.441 -51.290  1.00  0.00     0.295 C
HETATM   39  O11 UNL     1      18.352 -52.429 -51.004  1.00  0.00    -0.262 OA
HETATM   40  C22 UNL     1      19.598 -54.234 -50.176  1.00  0.00     0.271 C
HETATM   41  C26 UNL     1      19.726 -55.694 -50.534  1.00  0.00     0.267 C
HETATM   42  O16 UNL     1      19.988 -55.963 -51.837  1.00  0.00    -0.319 OA
BRANCH  40  43
HETATM   43  O12 UNL     1      20.908 -53.698 -49.932  1.00  0.00    -0.301 OA
BRANCH  43  44
HETATM   44  C23 UNL     1      21.153 -53.135 -48.711  1.00  0.00     0.290 C
HETATM   45  O13 UNL     1      22.138 -52.385 -48.558  1.00  0.00    -0.263 OA
BRANCH  44  46
HETATM   46  C24 UNL     1      20.261 -53.402 -47.548  1.00  0.00     0.278 C
HETATM   47  C25 UNL     1      21.033 -54.104 -46.452  1.00  0.00     0.050 C
BRANCH  46  48
HETATM   48  N1  UNL     1      19.734 -52.180 -46.990  1.00  0.00    -0.066 N
ATOM     49  H13 UNL     1      20.333 -51.384 -47.208  1.00  0.00     0.275 HD
ATOM     50  H12 UNL     1      18.889 -51.882 -47.478  1.00  0.00     0.275 HD
ATOM     51  H11 UNL     1      19.575 -52.263 -45.986  1.00  0.00     0.275 HD
ENDBRANCH  46  48
ENDBRANCH  44  46
ENDBRANCH  43  44
ENDBRANCH  40  43
BRANCH  41  52
HETATM   52  C27 UNL     1      18.633 -56.493 -49.925  1.00  0.00     0.206 C
HETATM   53  O14 UNL     1      18.699 -57.746 -49.944  1.00  0.00    -0.646 OA
HETATM   54  O15 UNL     1      17.530 -55.907 -49.331  1.00  0.00    -0.646 OA
ENDBRANCH  41  52
ENDBRANCH  35  36
ENDBRANCH   9  35
BRANCH   6  55
HETATM   55  O7  UNL     1      15.028 -52.435 -55.784  1.00  0.00    -0.340 OA
ATOM     56  H7  UNL     1      15.053 -51.734 -55.144  1.00  0.00     0.220 HD
ENDBRANCH   6  55
TORSDOF 18
ENDMDL