MODEL 3
REMARK VINA RESULT: -8.778845007      1.411      2.022
REMARK  19 active torsions:
REMARK  status: ('A' for Active; 'I' for Inactive)
REMARK    1  A    between atoms: N1_2  and  O1_4
REMARK    2  A    between atoms: O1_4  and  C3_5
REMARK       I    between atoms: C3_5  and  N2_7
REMARK    3  A    between atoms: N2_7  and  C4_9
REMARK    4  A    between atoms: C4_9  and  C5_10
REMARK    5  A    between atoms: C5_10  and  C6_11
REMARK    6  A    between atoms: C6_11  and  C7_12
REMARK    7  A    between atoms: C7_12  and  O3_13
REMARK    8  A    between atoms: O3_13  and  C8_14
REMARK       I    between atoms: C8_14  and  N3_16
REMARK    9  A    between atoms: C10_18  and  N4_19
REMARK   10  A    between atoms: C12_25  and  N7_26
REMARK   11  A    between atoms: C15_35  and  N10_36
REMARK   12  A    between atoms: N10_36  and  C16_38
REMARK   13  A    between atoms: C16_38  and  N11_39
REMARK   14  A    between atoms: N11_39  and  C17_41
REMARK   15  A    between atoms: C17_41  and  O5_42
REMARK   16  A    between atoms: N12_44  and  O6_46
REMARK   17  A    between atoms: C22_55  and  C23_56
REMARK   18  A    between atoms: C23_56  and  O10_57
REMARK   19  A    between atoms: C23_56  and  N13_59
ROOT
HETATM    1  C8  UNL     1      17.545 -56.077 -57.550  1.00  0.00     0.363 C
HETATM    2  O4  UNL     1      18.704 -56.563 -57.691  1.00  0.00    -0.238 OA
HETATM    3  N3  UNL     1      16.410 -56.968 -57.525  1.00  0.00    -0.311 N
HETATM    4  C9  UNL     1      15.018 -56.596 -57.360  1.00  0.00     0.158 C
HETATM    5  C10 UNL     1      14.284 -57.780 -56.814  1.00  0.00     0.154 C
HETATM    6  C15 UNL     1      15.325 -58.875 -56.776  1.00  0.00     0.140 C
HETATM    7  C22 UNL     1      16.487 -58.371 -57.634  1.00  0.00     0.188 C
ENDROOT
BRANCH   6   8
HETATM    8  N10 UNL     1      15.778 -59.026 -55.425  1.00  0.00    -0.366 N
ATOM      9  H10 UNL     1      15.465 -58.317 -54.763  1.00  0.00     0.161 HD
BRANCH   8  10
HETATM   10  C16 UNL     1      16.603 -60.037 -54.909  1.00  0.00     0.123 C
HETATM   11  C18 UNL     1      17.322 -59.819 -53.830  1.00  0.00     0.116 A
HETATM   12  C19 UNL     1      18.275 -60.607 -53.015  1.00  0.00     0.243 A
HETATM   13  C21 UNL     1      17.525 -58.698 -52.934  1.00  0.00     0.243 A
HETATM   14  O7  UNL     1      18.707 -61.800 -53.111  1.00  0.00    -0.283 OA
HETATM   15  C20 UNL     1      18.461 -59.470 -52.133  1.00  0.00     0.273 A
HETATM   16  O8  UNL     1      19.166 -59.257 -51.086  1.00  0.00    -0.280 OA
HETATM   17  O9  UNL     1      17.124 -57.513 -52.795  1.00  0.00    -0.283 OA
BRANCH  10  18
HETATM   18  N11 UNL     1      16.679 -61.305 -55.550  1.00  0.00    -0.306 N
ATOM     19  H11 UNL     1      17.399 -61.465 -56.255  1.00  0.00     0.171 HD
BRANCH  18  20
HETATM   20  C17 UNL     1      15.775 -62.355 -55.231  1.00  0.00     0.242 C
HETATM   21  N12 UNL     1      15.862 -63.040 -54.146  1.00  0.00    -0.233 N
ATOM     22  H12 UNL     1      16.619 -62.800 -53.507  1.00  0.00     0.198 HD
BRANCH  20  23
HETATM   23  O5  UNL     1      14.759 -62.649 -56.121  1.00  0.00    -0.331 OA
ATOM     24  H5  UNL     1      14.461 -61.969 -56.714  1.00  0.00     0.221 HD
ENDBRANCH  20  23
BRANCH  21  25
HETATM   25  O6  UNL     1      15.042 -64.049 -53.772  1.00  0.00    -0.287 OA
ATOM     26  H6  UNL     1      14.332 -63.990 -53.144  1.00  0.00     0.244 HD
ENDBRANCH  21  25
ENDBRANCH  18  20
ENDBRANCH  10  18
ENDBRANCH   8  10
ENDBRANCH   6   8
BRANCH   5  27
HETATM   27  N4  UNL     1      13.129 -58.136 -57.584  1.00  0.00    -0.251 N
HETATM   28  N5  UNL     1      12.563 -57.402 -58.514  1.00  0.00    -0.238 N
HETATM   29  N6  UNL     1      11.517 -58.014 -59.035  1.00  0.00    -0.279 N
ATOM     30  H5  UNL     1      12.890 -56.478 -58.797  1.00  0.00     0.208 HD
HETATM   31  C11 UNL     1      11.380 -59.200 -58.431  1.00  0.00     0.139 A
ATOM     32  H6  UNL     1      10.915 -57.647 -59.773  1.00  0.00     0.189 HD
HETATM   33  C12 UNL     1      10.480 -60.254 -58.554  1.00  0.00     0.132 A
HETATM   34  C14 UNL     1      12.418 -59.270 -57.502  1.00  0.00     0.157 A
HETATM   35  N8  UNL     1      10.578 -61.358 -57.793  1.00  0.00    -0.337 N
HETATM   36  C13 UNL     1      11.602 -61.391 -56.899  1.00  0.00     0.183 A
ATOM     37  H8  UNL     1       9.918 -62.131 -57.881  1.00  0.00     0.168 HD
HETATM   38  N9  UNL     1      12.487 -60.391 -56.756  1.00  0.00    -0.335 N
ATOM     39  H9  UNL     1      13.232 -60.481 -56.065  1.00  0.00     0.168 HD
BRANCH  33  40
HETATM   40  N7  UNL     1       9.516 -60.206 -59.411  1.00  0.00    -0.383 N
ATOM     41  H72 UNL     1       9.433 -60.981 -60.070  1.00  0.00     0.157 HD
ATOM     42  H71 UNL     1       8.865 -59.421 -59.425  1.00  0.00     0.157 HD
ENDBRANCH  33  40
ENDBRANCH   5  27
BRANCH   7  43
HETATM   43  C23 UNL     1      16.546 -59.017 -58.923  1.00  0.00     0.138 C
BRANCH  43  44
HETATM   44  O10 UNL     1      17.769 -59.093 -59.393  1.00  0.00    -0.348 OA
ATOM     45  H10 UNL     1      17.791 -59.218 -60.334  1.00  0.00     0.219 HD
ENDBRANCH  43  44
BRANCH  43  46
HETATM   46  N13 UNL     1      15.592 -59.575 -59.775  1.00  0.00    -0.372 N
HETATM   47  C24 UNL     1      14.893 -58.687 -60.754  1.00  0.00     0.150 C
HETATM   48  C25 UNL     1      15.142 -60.940 -59.863  1.00  0.00     0.150 C
ENDBRANCH  43  46
ENDBRANCH   7  43
BRANCH   1  49
HETATM   49  O3  UNL     1      17.440 -54.708 -57.426  1.00  0.00    -0.304 OA
BRANCH  49  50
HETATM   50  C7  UNL     1      17.925 -53.957 -56.360  1.00  0.00     0.180 C
BRANCH  50  51
HETATM   51  C6  UNL     1      17.100 -54.128 -55.071  1.00  0.00     0.028 C
BRANCH  51  52
HETATM   52  C5  UNL     1      17.894 -54.694 -53.978  1.00  0.00     0.022 C
BRANCH  52  53
HETATM   53  C4  UNL     1      17.839 -53.986 -52.682  1.00  0.00     0.125 C
BRANCH  53  54
HETATM   54  N2  UNL     1      18.721 -54.309 -51.623  1.00  0.00    -0.335 N
HETATM   55  C3  UNL     1      18.522 -55.081 -50.473  1.00  0.00     0.382 C
HETATM   56  O2  UNL     1      17.481 -55.673 -50.160  1.00  0.00    -0.236 OA
ATOM     57  H2  UNL     1      19.657 -53.914 -51.713  1.00  0.00     0.164 HD
BRANCH  55  58
HETATM   58  O1  UNL     1      19.546 -55.256 -49.526  1.00  0.00    -0.184 OA
BRANCH  58  59
HETATM   59  N1  UNL     1      20.123 -54.303 -48.827  1.00  0.00    -0.292 N
HETATM   60  C1  UNL     1      21.156 -53.506 -49.322  1.00  0.00     0.178 C
HETATM   61  C2  UNL     1      19.636 -53.948 -47.549  1.00  0.00     0.178 C
ENDBRANCH  58  59
ENDBRANCH  55  58
ENDBRANCH  53  54
ENDBRANCH  52  53
ENDBRANCH  51  52
ENDBRANCH  50  51
ENDBRANCH  49  50
ENDBRANCH   1  49
TORSDOF 19
ENDMDL