MODEL 2
REMARK VINA RESULT: -7.910728827      1.525      2.110
REMARK  19 active torsions:
REMARK  status: ('A' for Active; 'I' for Inactive)
REMARK    1  A    between atoms: C2_2  and  C4_4
REMARK    2  A    between atoms: C5_5  and  C6_6
REMARK    3  A    between atoms: C6_6  and  N1_7
REMARK    4  A    between atoms: N1_7  and  C8_9
REMARK    5  A    between atoms: C8_9  and  C10_11
REMARK    6  A    between atoms: C8_9  and  C13_18
REMARK    7  A    between atoms: C10_11  and  O2_13
REMARK    8  A    between atoms: O2_13  and  C11_14
REMARK    9  A    between atoms: C11_14  and  C12_15
REMARK   10  A    between atoms: C12_15  and  O3_16
REMARK   11  A    between atoms: C13_18  and  O4_19
REMARK   12  A    between atoms: C13_18  and  O5_21
REMARK   13  A    between atoms: C16_29  and  N4_30
REMARK   14  A    between atoms: C20_36  and  C21_37
REMARK   15  A    between atoms: C21_37  and  O7_38
REMARK   16  A    between atoms: C21_37  and  N6_40
REMARK   17  A    between atoms: N6_40  and  C22_42
REMARK   18  A    between atoms: C23_43  and  C24_44
REMARK   19  A    between atoms: C26_51  and  C27_52
REMARK       I    between atoms: C27_52  and  N9_54
ROOT
HETATM    1  C27 UNL     1      17.747 -59.083 -52.803  1.00  0.00     0.285 C
HETATM    2  O10 UNL     1      16.616 -58.986 -53.413  1.00  0.00    -0.265 OA
HETATM    3  N9  UNL     1      18.220 -60.394 -52.683  1.00  0.00    -0.258 N
ATOM      4  H9  UNL     1      19.107 -60.572 -52.213  1.00  0.00     0.181 HD
HETATM    5  C28 UNL     1      17.466 -61.491 -53.216  1.00  0.00     0.184 C
HETATM    6  N10 UNL     1      16.840 -62.365 -53.641  1.00  0.00    -0.172 NA
ENDROOT
BRANCH   1   7
HETATM    7  C26 UNL     1      18.396 -57.881 -52.317  1.00  0.00     0.148 A
HETATM    8  C22 UNL     1      17.961 -56.610 -52.687  1.00  0.00     0.103 A
HETATM    9  C23 UNL     1      18.768 -55.706 -52.074  1.00  0.00     0.154 A
HETATM   10  N7  UNL     1      19.683 -56.416 -51.342  1.00  0.00    -0.290 N
HETATM   11  N8  UNL     1      19.444 -57.728 -51.499  1.00  0.00    -0.289 N
ATOM     12  H7  UNL     1      20.425 -56.012 -50.771  1.00  0.00     0.187 HD
HETATM   13  C25 UNL     1      20.221 -58.793 -50.866  1.00  0.00     0.178 C
BRANCH   8  14
HETATM   14  N6  UNL     1      16.845 -56.353 -53.589  1.00  0.00    -0.332 N
ATOM     15  H6  UNL     1      15.895 -56.651 -53.368  1.00  0.00     0.168 HD
BRANCH  14  16
HETATM   16  C21 UNL     1      17.152 -55.671 -54.785  1.00  0.00     0.155 C
BRANCH  16  17
HETATM   17  C20 UNL     1      16.495 -55.659 -55.946  1.00  0.00     0.071 A
HETATM   18  C4  UNL     1      16.400 -56.778 -56.736  1.00  0.00    -0.007 A
HETATM   19  C5  UNL     1      15.226 -57.016 -57.475  1.00  0.00    -0.002 A
HETATM   20  C14 UNL     1      14.224 -56.054 -57.366  1.00  0.00     0.113 A
HETATM   21  N2  UNL     1      14.300 -54.952 -56.631  1.00  0.00    -0.258 N
HETATM   22  C15 UNL     1      13.296 -54.059 -56.617  1.00  0.00     0.346 A
HETATM   23  C19 UNL     1      15.439 -54.728 -55.902  1.00  0.00     0.146 A
HETATM   24  O6  UNL     1      12.273 -54.293 -57.287  1.00  0.00    -0.246 OA
HETATM   25  N3  UNL     1      13.394 -52.918 -55.881  1.00  0.00    -0.141 N
HETATM   26  C16 UNL     1      14.508 -52.672 -55.154  1.00  0.00     0.686 A
ATOM     27  H3  UNL     1      12.626 -52.247 -55.878  1.00  0.00     0.189 HD
HETATM   28  N5  UNL     1      15.471 -53.601 -55.210  1.00  0.00    -0.175 N
ATOM     29  H5  UNL     1      16.314 -53.423 -54.663  1.00  0.00     0.186 HD
BRANCH  18  30
HETATM   30  C2  UNL     1      17.431 -57.569 -56.882  1.00  0.00    -0.076 C
HETATM   31  C1  UNL     1      17.640 -58.967 -56.499  1.00  0.00     0.044 C
HETATM   32  C3  UNL     1      18.429 -57.273 -58.070  1.00  0.00     0.044 C
ENDBRANCH  18  30
BRANCH  19  33
HETATM   33  C6  UNL     1      14.966 -58.195 -58.303  1.00  0.00     0.314 C
BRANCH  33  34
HETATM   34  N1  UNL     1      13.621 -58.752 -58.001  1.00  0.00     0.112 N
HETATM   35  C7  UNL     1      12.737 -58.515 -59.096  1.00  0.00     0.312 C
BRANCH  34  36
HETATM   36  C8  UNL     1      13.697 -60.070 -57.525  1.00  0.00     0.290 C
HETATM   37  C9  UNL     1      14.039 -60.127 -56.026  1.00  0.00     0.066 C
BRANCH  36  38
HETATM   38  C10 UNL     1      14.647 -60.985 -58.189  1.00  0.00     0.303 C
HETATM   39  O1  UNL     1      14.591 -61.169 -59.409  1.00  0.00    -0.262 OA
BRANCH  38  40
HETATM   40  O2  UNL     1      15.573 -61.609 -57.422  1.00  0.00    -0.317 OA
BRANCH  40  41
HETATM   41  C11 UNL     1      15.796 -62.927 -57.184  1.00  0.00     0.204 C
BRANCH  41  42
HETATM   42  C12 UNL     1      14.708 -63.618 -56.442  1.00  0.00     0.191 C
BRANCH  42  43
HETATM   43  O3  UNL     1      15.107 -64.048 -55.211  1.00  0.00    -0.399 OA
ATOM     44  H3  UNL     1      14.376 -64.294 -54.656  1.00  0.00     0.209 HD
ENDBRANCH  42  43
ENDBRANCH  41  42
ENDBRANCH  40  41
ENDBRANCH  38  40
ENDBRANCH  36  38
BRANCH  36  45
HETATM   45  C13 UNL     1      12.299 -60.701 -57.591  1.00  0.00     0.302 C
BRANCH  45  46
HETATM   46  O4  UNL     1      11.862 -60.979 -56.286  1.00  0.00    -0.368 OA
ATOM     47  H4  UNL     1      11.139 -60.401 -56.074  1.00  0.00     0.212 HD
ENDBRANCH  45  46
BRANCH  45  48
HETATM   48  O5  UNL     1      12.275 -61.902 -58.257  1.00  0.00    -0.368 OA
ATOM     49  H5  UNL     1      11.610 -62.498 -57.936  1.00  0.00     0.212 HD
ENDBRANCH  45  48
ENDBRANCH  36  45
ENDBRANCH  34  36
ENDBRANCH  33  34
ENDBRANCH  19  33
BRANCH  26  50
HETATM   50  N4  UNL     1      14.631 -51.492 -54.391  1.00  0.00    -0.214 N
HETATM   51  C17 UNL     1      14.789 -50.922 -53.017  1.00  0.00     0.161 A
HETATM   52  C18 UNL     1      14.713 -50.062 -54.242  1.00  0.00     0.161 A
ENDBRANCH  26  50
ENDBRANCH  16  17
BRANCH  16  53
HETATM   53  O7  UNL     1      18.341 -54.877 -54.716  1.00  0.00    -0.345 OA
ATOM     54  H7  UNL     1      19.043 -55.110 -55.312  1.00  0.00     0.219 HD
ENDBRANCH  16  53
ENDBRANCH  14  16
ENDBRANCH   8  14
BRANCH   9  55
HETATM   55  C24 UNL     1      18.724 -54.250 -52.123  1.00  0.00     0.230 C
HETATM   56  O8  UNL     1      19.807 -53.629 -52.282  1.00  0.00    -0.643 OA
HETATM   57  O9  UNL     1      17.592 -53.520 -52.007  1.00  0.00    -0.643 OA
ENDBRANCH   9  55
ENDBRANCH   1   7
TORSDOF 19
ENDMDL