MODEL 1
REMARK VINA RESULT: -9.238447262      0.000      0.000
REMARK  15 active torsions:
REMARK  status: ('A' for Active; 'I' for Inactive)
REMARK    1  A    between atoms: C4_6  and  N1_7
REMARK    2  A    between atoms: N2_12  and  C6_14
REMARK    3  A    between atoms: C6_14  and  O3_15
REMARK    4  A    between atoms: C7_17  and  O4_18
REMARK    5  A    between atoms: C7_17  and  N3_20
REMARK    6  A    between atoms: C9_26  and  C10_27
REMARK    7  A    between atoms: C10_27  and  O6_28
REMARK    8  A    between atoms: C10_27  and  N5_30
REMARK    9  A    between atoms: N5_30  and  C11_32
REMARK   10  A    between atoms: C11_32  and  O7_33
REMARK   11  A    between atoms: C11_32  and  O10_53
REMARK   12  A    between atoms: O7_33  and  C12_34
REMARK   13  A    between atoms: N7_41  and  N8_43
REMARK   14  A    between atoms: C16_45  and  C17_47
REMARK   15  A    between atoms: O10_53  and  S1_54
ROOT
HETATM    1  C10 UNL     1      17.128 -56.557 -54.002  1.00  0.00     0.256 C
ENDROOT
BRANCH   1   2
HETATM    2  C9  UNL     1      17.645 -55.329 -54.643  1.00  0.00     0.269 C
HETATM    3  C8  UNL     1      17.317 -55.021 -56.031  1.00  0.00     0.139 C
HETATM    4  N3  UNL     1      17.070 -55.518 -57.133  1.00  0.00    -0.319 N
HETATM    5  N4  UNL     1      17.409 -53.671 -55.566  1.00  0.00    -0.250 N
ATOM      6  H3  UNL     1      16.898 -54.811 -57.847  1.00  0.00     0.169 HD
HETATM    7  O5  UNL     1      17.068 -54.113 -54.341  1.00  0.00    -0.261 OA
ATOM      8  H4  UNL     1      17.634 -52.767 -55.982  1.00  0.00     0.196 HD
BRANCH   4   9
HETATM    9  C7  UNL     1      16.972 -56.804 -57.630  1.00  0.00     0.194 C
HETATM   10  C6  UNL     1      15.934 -57.623 -57.388  1.00  0.00     0.192 C
BRANCH  10  11
HETATM   11  N2  UNL     1      15.874 -58.925 -57.913  1.00  0.00    -0.338 N
HETATM   12  C5  UNL     1      14.932 -59.467 -58.562  1.00  0.00     0.035 C
HETATM   13  C4  UNL     1      13.687 -58.708 -58.859  1.00  0.00     0.328 C
HETATM   14  C21 UNL     1      14.981 -60.867 -59.064  1.00  0.00     0.059 C
HETATM   15  C3  UNL     1      12.578 -59.530 -58.255  1.00  0.00     0.295 C
HETATM   16  O1  UNL     1      12.600 -60.872 -58.521  1.00  0.00    -0.314 OA
HETATM   17  O2  UNL     1      11.721 -58.942 -57.561  1.00  0.00    -0.262 OA
HETATM   18  C2  UNL     1      13.761 -61.659 -58.655  1.00  0.00     0.137 C
HETATM   19  C1  UNL     1      14.031 -62.385 -57.348  1.00  0.00     0.041 C
HETATM   20  C22 UNL     1      15.204 -60.971 -60.543  1.00  0.00     0.018 C
ATOM     21  H2  UNL     1      16.695 -59.508 -57.750  1.00  0.00     0.167 HD
BRANCH  13  22
HETATM   22  N1  UNL     1      13.451 -58.712 -60.307  1.00  0.00    -0.061 N
ATOM     23  H13 UNL     1      13.257 -59.640 -60.685  1.00  0.00     0.275 HD
ATOM     24  H12 UNL     1      12.566 -58.281 -60.576  1.00  0.00     0.275 HD
ATOM     25  H11 UNL     1      14.266 -58.264 -60.726  1.00  0.00     0.275 HD
ENDBRANCH  13  22
ENDBRANCH  10  11
BRANCH  10  26
HETATM   26  O3  UNL     1      14.868 -57.182 -56.590  1.00  0.00    -0.343 OA
ATOM     27  H3  UNL     1      13.989 -57.447 -56.832  1.00  0.00     0.219 HD
ENDBRANCH  10  26
BRANCH   9  28
HETATM   28  O4  UNL     1      17.982 -57.317 -58.429  1.00  0.00    -0.343 OA
ATOM     29  H4  UNL     1      18.865 -57.244 -58.086  1.00  0.00     0.219 HD
ENDBRANCH   9  28
ENDBRANCH   4   9
ENDBRANCH   1   2
BRANCH   1  30
HETATM   30  O6  UNL     1      17.122 -56.276 -52.596  1.00  0.00    -0.374 OA
ATOM     31  H6  UNL     1      16.471 -55.594 -52.481  1.00  0.00     0.212 HD
ENDBRANCH   1  30
BRANCH   1  32
HETATM   32  N5  UNL     1      17.736 -57.789 -54.157  1.00  0.00    -0.346 N
ATOM     33  H5  UNL     1      18.493 -57.873 -54.836  1.00  0.00     0.160 HD
BRANCH  32  34
HETATM   34  C11 UNL     1      17.366 -58.935 -53.426  1.00  0.00     0.387 C
BRANCH  34  35
HETATM   35  O7  UNL     1      17.796 -58.875 -52.124  1.00  0.00    -0.330 OA
BRANCH  35  36
HETATM   36  C12 UNL     1      19.169 -59.013 -51.957  1.00  0.00     0.204 C
HETATM   37  C13 UNL     1      19.556 -60.334 -51.308  1.00  0.00     0.143 C
HETATM   38  C14 UNL     1      20.961 -60.000 -50.872  1.00  0.00     0.225 C
HETATM   39  O8  UNL     1      21.979 -60.724 -50.851  1.00  0.00    -0.273 OA
HETATM   40  N6  UNL     1      20.901 -58.622 -50.466  1.00  0.00    -0.313 N
HETATM   41  C15 UNL     1      19.664 -58.067 -50.893  1.00  0.00     0.128 C
ATOM     42  H6  UNL     1      21.629 -58.124 -49.954  1.00  0.00     0.170 HD
HETATM   43  N7  UNL     1      19.039 -57.031 -50.528  1.00  0.00    -0.285 N
ATOM     44  H7  UNL     1      18.152 -56.858 -51.001  1.00  0.00     0.188 HD
BRANCH  43  45
HETATM   45  N8  UNL     1      19.396 -56.110 -49.577  1.00  0.00    -0.284 N
HETATM   46  C16 UNL     1      19.009 -54.880 -49.567  1.00  0.00     0.167 C
HETATM   47  N9  UNL     1      18.154 -54.383 -50.578  1.00  0.00    -0.078 NA
ATOM     48  H8  UNL     1      20.013 -56.419 -48.825  1.00  0.00     0.188 HD
BRANCH  46  49
HETATM   49  C17 UNL     1      19.456 -53.960 -48.503  1.00  0.00     0.142 A
HETATM   50  C18 UNL     1      20.113 -52.765 -48.652  1.00  0.00     0.062 A
HETATM   51  C19 UNL     1      20.332 -52.249 -47.392  1.00  0.00     0.117 A
HETATM   52  N10 UNL     1      19.801 -53.151 -46.547  1.00  0.00    -0.272 N
HETATM   53  O9  UNL     1      19.297 -54.138 -47.215  1.00  0.00    -0.235 OA
ATOM     54  H10 UNL     1      19.796 -53.068 -45.530  1.00  0.00     0.194 HD
ENDBRANCH  46  49
ENDBRANCH  43  45
ENDBRANCH  35  36
ENDBRANCH  34  35
BRANCH  34  55
HETATM   55  O10 UNL     1      17.807 -60.130 -54.047  1.00  0.00    -0.225 OA
BRANCH  55  56
HETATM   56  S1  UNL     1      16.639 -60.833 -54.984  1.00  0.00     0.265 S
HETATM   57  C20 UNL     1      16.157 -62.412 -54.282  1.00  0.00     0.194 C
HETATM   58  O11 UNL     1      15.411 -60.021 -55.156  1.00  0.00    -0.199 OA
HETATM   59  O12 UNL     1      17.165 -61.148 -56.378  1.00  0.00    -0.199 OA
ENDBRANCH  55  56
ENDBRANCH  34  55
ENDBRANCH  32  34
ENDBRANCH   1  32
TORSDOF 15
ENDMDL