MODEL 1
REMARK VINA RESULT: -10.353014051      0.000      0.000
REMARK  13 active torsions:
REMARK  status: ('A' for Active; 'I' for Inactive)
REMARK    1  A    between atoms: C2_2  and  N1_3
REMARK       I    between atoms: N1_3  and  C3_5
REMARK    2  A    between atoms: C3_5  and  C4_7
REMARK    3  A    between atoms: C4_7  and  C5_9
REMARK    4  A    between atoms: C5_9  and  C6_10
REMARK    5  A    between atoms: C6_10  and  C7_12
REMARK    6  A    between atoms: N5_19  and  C8_20
REMARK    7  A    between atoms: C9_22  and  N6_23
REMARK    8  A    between atoms: N6_23  and  S1_25
REMARK    9  A    between atoms: S1_25  and  C10_28
REMARK   10  A    between atoms: C13_31  and  N7_32
REMARK   11  A    between atoms: C18_43  and  N12_44
REMARK   12  A    between atoms: N12_44  and  C19_46
REMARK   13  A    between atoms: C21_50  and  O8_51
ROOT
HETATM    1  C10 UNL     1      15.090 -60.662 -56.581  1.00  0.00     0.106 A
HETATM    2  C11 UNL     1      13.882 -61.085 -57.087  1.00  0.00     0.030 A
HETATM    3  C12 UNL     1      13.040 -60.202 -57.684  1.00  0.00     0.031 A
HETATM    4  C13 UNL     1      13.353 -58.843 -57.813  1.00  0.00     0.043 A
HETATM    5  C17 UNL     1      14.570 -58.474 -57.292  1.00  0.00     0.061 A
HETATM    6  C18 UNL     1      15.470 -59.320 -56.674  1.00  0.00     0.074 A
ENDROOT
BRANCH   1   7
HETATM    7  S1  UNL     1      16.141 -61.830 -55.865  1.00  0.00     0.263 S
HETATM    8  O5  UNL     1      15.737 -63.246 -56.150  1.00  0.00    -0.200 OA
HETATM    9  O6  UNL     1      17.549 -61.569 -56.314  1.00  0.00    -0.200 OA
BRANCH   7  10
HETATM   10  N6  UNL     1      16.188 -61.669 -54.116  1.00  0.00    -0.283 N
ATOM     11  H6  UNL     1      15.406 -61.830 -53.482  1.00  0.00     0.175 HD
BRANCH  10  12
HETATM   12  C9  UNL     1      17.532 -61.267 -53.725  1.00  0.00     0.284 A
HETATM   13  C8  UNL     1      17.826 -60.775 -52.377  1.00  0.00     0.299 A
HETATM   14  O4  UNL     1      17.657 -59.882 -53.524  1.00  0.00    -0.331 OA
BRANCH  13  15
HETATM   15  N5  UNL     1      19.231 -60.820 -51.990  1.00  0.00    -0.222 N
HETATM   16  C7  UNL     1      19.842 -59.826 -51.328  1.00  0.00     0.189 A
HETATM   17  N2  UNL     1      21.121 -60.245 -51.136  1.00  0.00    -0.265 N
HETATM   18  N3  UNL     1      21.280 -61.445 -51.663  1.00  0.00    -0.226 N
ATOM     19  H2  UNL     1      21.848 -59.713 -50.658  1.00  0.00     0.190 HD
HETATM   20  N4  UNL     1      20.125 -61.794 -52.184  1.00  0.00    -0.222 N
ATOM     21  H3  UNL     1      22.137 -61.998 -51.665  1.00  0.00     0.210 HD
ATOM     22  H4  UNL     1      19.938 -62.675 -52.664  1.00  0.00     0.210 HD
BRANCH  16  23
HETATM   23  C6  UNL     1      19.283 -58.553 -50.881  1.00  0.00     0.203 C
HETATM   24  O3  UNL     1      18.928 -58.432 -49.691  1.00  0.00    -0.289 OA
BRANCH  23  25
HETATM   25  C5  UNL     1      19.122 -57.405 -51.797  1.00  0.00     0.176 C
BRANCH  25  26
HETATM   26  C4  UNL     1      18.602 -56.235 -51.044  1.00  0.00     0.223 C
HETATM   27  O2  UNL     1      17.372 -56.065 -50.977  1.00  0.00    -0.287 OA
BRANCH  26  28
HETATM   28  C3  UNL     1      19.487 -55.279 -50.383  1.00  0.00     0.287 C
HETATM   29  N1  UNL     1      19.667 -55.343 -48.978  1.00  0.00    -0.355 N
ATOM     30  H1  UNL     1      19.178 -56.055 -48.434  1.00  0.00     0.162 HD
HETATM   31  O1  UNL     1      20.100 -54.393 -51.027  1.00  0.00    -0.264 OA
BRANCH  29  32
HETATM   32  C2  UNL     1      20.532 -54.414 -48.322  1.00  0.00     0.118 C
HETATM   33  C1  UNL     1      19.865 -53.797 -47.119  1.00  0.00     0.026 C
ENDBRANCH  29  32
ENDBRANCH  26  28
ENDBRANCH  25  26
ENDBRANCH  23  25
ENDBRANCH  16  23
ENDBRANCH  13  15
ENDBRANCH  10  12
ENDBRANCH   7  10
ENDBRANCH   1   7
BRANCH   6  34
HETATM   34  N12 UNL     1      16.703 -58.878 -56.157  1.00  0.00    -0.191 N
ATOM     35  H12 UNL     1      17.370 -59.544 -55.766  1.00  0.00     0.184 HD
BRANCH  34  36
HETATM   36  C19 UNL     1      17.004 -57.483 -56.188  1.00  0.00     0.676 C
HETATM   37  N13 UNL     1      16.753 -56.699 -55.214  1.00  0.00    -0.224 N
HETATM   38  C20 UNL     1      17.034 -55.311 -55.199  1.00  0.00     0.171 C
ATOM     39  H13 UNL     1      16.318 -57.101 -54.384  1.00  0.00     0.177 HD
HETATM   40  C21 UNL     1      17.308 -54.635 -56.487  1.00  0.00     0.155 C
HETATM   41  C22 UNL     1      17.494 -55.504 -57.680  1.00  0.00     0.174 C
HETATM   42  N14 UNL     1      17.619 -56.905 -57.360  1.00  0.00    -0.220 N
HETATM   43  C23 UNL     1      18.382 -57.819 -58.217  1.00  0.00     0.168 C
BRANCH  40  44
HETATM   44  O8  UNL     1      18.471 -53.821 -56.405  1.00  0.00    -0.392 OA
ATOM     45  H8  UNL     1      18.321 -53.063 -55.854  1.00  0.00     0.210 HD
ENDBRANCH  40  44
ENDBRANCH  34  36
ENDBRANCH   6  34
BRANCH   4  46
HETATM   46  N7  UNL     1      12.502 -57.946 -58.432  1.00  0.00    -0.274 N
HETATM   47  C14 UNL     1      11.062 -57.732 -58.146  1.00  0.00     0.344 C
HETATM   48  O7  UNL     1      10.395 -58.383 -57.333  1.00  0.00    -0.245 OA
HETATM   49  N8  UNL     1      10.694 -56.690 -58.974  1.00  0.00    -0.224 N
HETATM   50  C15 UNL     1      11.884 -55.793 -58.837  1.00  0.00     0.199 C
HETATM   51  N11 UNL     1       9.825 -56.298 -59.934  1.00  0.00    -0.003 NA
HETATM   52  C16 UNL     1      12.710 -56.953 -59.528  1.00  0.00     0.227 C
HETATM   53  N9  UNL     1      11.849 -57.311 -60.599  1.00  0.00    -0.297 N
HETATM   54  N10 UNL     1      10.850 -56.436 -61.039  1.00  0.00    -0.011 NA
ATOM     55  H9  UNL     1      11.960 -58.218 -61.053  1.00  0.00     0.179 HD
ENDBRANCH   4  46
TORSDOF 13
ENDMDL