MODEL 3
REMARK VINA RESULT: -6.899832023      3.216      5.132
REMARK  7 active torsions:
REMARK  status: ('A' for Active; 'I' for Inactive)
REMARK    1  A    between atoms: O1_2  and  C2_3
REMARK    2  A    between atoms: C5_6  and  C6_7
REMARK    3  A    between atoms: C6_7  and  N1_9
REMARK    4  A    between atoms: N1_9  and  C8_11
REMARK    5  A    between atoms: C8_11  and  N2_13
REMARK    6  A    between atoms: N2_13  and  N3_15
REMARK    7  A    between atoms: C9_17  and  C10_18
ROOT
HETATM    1  C8  UNL     1      22.305  33.900  -6.955  1.00  0.00     0.187 C
HETATM    2  S1  UNL     1      23.366  35.149  -7.177  1.00  0.00    -0.040 SA
ENDROOT
BRANCH   1   3
HETATM    3  N1  UNL     1      20.977  34.093  -7.385  1.00  0.00    -0.358 N
ATOM      4  H1  UNL     1      20.208  34.079  -6.716  1.00  0.00     0.162 HD
BRANCH   3   5
HETATM    5  C6  UNL     1      20.726  34.309  -8.794  1.00  0.00     0.113 C
HETATM    6  C7  UNL     1      19.365  34.878  -9.052  1.00  0.00     0.037 C
BRANCH   5   7
HETATM    7  C5  UNL     1      20.919  33.106  -9.631  1.00  0.00    -0.036 A
HETATM    8  C4  UNL     1      20.231  31.943  -9.562  1.00  0.00     0.012 A
HETATM    9  C3  UNL     1      20.529  30.878 -10.418  1.00  0.00     0.037 A
HETATM   10  C2  UNL     1      21.524  30.965 -11.360  1.00  0.00     0.068 A
HETATM   11  C17 UNL     1      22.232  32.144 -11.442  1.00  0.00     0.037 A
HETATM   12  C16 UNL     1      21.930  33.178 -10.597  1.00  0.00     0.012 A
BRANCH  10  13
HETATM   13  O1  UNL     1      21.788  29.882 -12.194  1.00  0.00    -0.356 OA
HETATM   14  C1  UNL     1      20.838  28.923 -12.541  1.00  0.00     0.210 C
ENDBRANCH  10  13
ENDBRANCH   5   7
ENDBRANCH   3   5
ENDBRANCH   1   3
BRANCH   1  15
HETATM   15  N2  UNL     1      22.800  32.716  -6.348  1.00  0.00    -0.277 N
ATOM     16  H2  UNL     1      23.362  32.791  -5.500  1.00  0.00     0.189 HD
BRANCH  15  17
HETATM   17  N3  UNL     1      22.538  31.445  -6.881  1.00  0.00    -0.309 N
HETATM   18  C9  UNL     1      23.165  30.445  -6.390  1.00  0.00     0.120 C
ATOM     19  H3  UNL     1      21.866  31.323  -7.639  1.00  0.00     0.186 HD
BRANCH  18  20
HETATM   20  C10 UNL     1      22.910  29.107  -6.927  1.00  0.00    -0.004 A
HETATM   21  C11 UNL     1      22.406  28.096  -6.133  1.00  0.00     0.015 A
HETATM   22  C12 UNL     1      22.161  26.834  -6.622  1.00  0.00     0.018 A
HETATM   23  C13 UNL     1      22.447  26.609  -7.968  1.00  0.00     0.090 A
HETATM   24  N4  UNL     1      22.931  27.574  -8.740  1.00  0.00    -0.370 N
HETATM   25  C14 UNL     1      23.227  27.334 -10.145  1.00  0.00     0.154 C
HETATM   26  C15 UNL     1      23.164  28.803  -8.246  1.00  0.00     0.102 A
ENDBRANCH  18  20
ENDBRANCH  15  17
ENDBRANCH   1  15
TORSDOF 7
ENDMDL