MODEL 1
REMARK VINA RESULT: -8.215800491      0.000      0.000
REMARK  6 active torsions:
REMARK  status: ('A' for Active; 'I' for Inactive)
REMARK    1  A    between atoms: C3_3  and  C4_4
REMARK    2  A    between atoms: C4_4  and  C5_5
REMARK    3  A    between atoms: C5_5  and  N1_6
REMARK    4  A    between atoms: N1_6  and  C6_8
REMARK    5  A    between atoms: C14_20  and  N4_21
REMARK    6  A    between atoms: N4_21  and  C15_23
ROOT
HETATM    1  C1  UNL     1      21.125  28.500 -12.149  1.00  0.00     0.012 C
HETATM    2  C2  UNL     1      20.300  28.291 -11.306  1.00  0.00    -0.117 C
HETATM    3  C3  UNL     1      19.296  28.012 -10.279  1.00  0.00     0.094 C
ENDROOT
BRANCH   3   4
HETATM    4  C4  UNL     1      18.307  29.168 -10.311  1.00  0.00     0.032 C
BRANCH   4   5
HETATM    5  C5  UNL     1      18.606  30.020  -9.090  1.00  0.00     0.139 C
BRANCH   5   6
HETATM    6  N1  UNL     1      19.462  31.128  -9.400  1.00  0.00    -0.225 N
ATOM      7  H1  UNL     1      19.246  31.747 -10.181  1.00  0.00     0.177 HD
BRANCH   6   8
HETATM    8  C6  UNL     1      20.504  31.329  -8.676  1.00  0.00     0.694 A
HETATM    9  N2  UNL     1      20.826  32.549  -8.222  1.00  0.00    -0.175 N
HETATM   10  C7  UNL     1      21.906  32.732  -7.476  1.00  0.00     0.146 A
ATOM     11  H2  UNL     1      20.233  33.346  -8.454  1.00  0.00     0.186 HD
HETATM   12  C8  UNL     1      22.296  34.019  -6.965  1.00  0.00     0.009 A
HETATM   13  N3  UNL     1      22.670  31.647  -7.190  1.00  0.00    -0.175 N
HETATM   14  C9  UNL     1      21.593  35.175  -7.198  1.00  0.00     0.015 A
HETATM   15  C13 UNL     1      23.447  34.153  -6.181  1.00  0.00     0.015 A
HETATM   16  C10 UNL     1      22.017  36.390  -6.679  1.00  0.00     0.001 A
HETATM   17  C11 UNL     1      23.153  36.505  -5.909  1.00  0.00     0.000 A
HETATM   18  C12 UNL     1      23.869  35.354  -5.665  1.00  0.00     0.001 A
HETATM   19  C14 UNL     1      22.366  30.427  -7.633  1.00  0.00     0.698 A
ATOM     20  H3  UNL     1      23.505  31.770  -6.617  1.00  0.00     0.186 HD
HETATM   21  N5  UNL     1      21.267  30.240  -8.391  1.00  0.00    -0.022 N
ATOM     22  H5  UNL     1      21.017  29.315  -8.738  1.00  0.00     0.203 HD
BRANCH  19  23
HETATM   23  N4  UNL     1      23.117  29.446  -7.334  1.00  0.00    -0.191 N
ATOM     24  H4  UNL     1      23.809  29.556  -6.593  1.00  0.00     0.184 HD
BRANCH  23  25
HETATM   25  C15 UNL     1      23.018  28.198  -8.007  1.00  0.00     0.049 A
HETATM   26  C16 UNL     1      23.550  27.967  -9.259  1.00  0.00     0.030 A
HETATM   27  C17 UNL     1      23.428  26.737  -9.873  1.00  0.00     0.002 A
HETATM   28  C18 UNL     1      22.770  25.686  -9.268  1.00  0.00     0.000 A
HETATM   29  C19 UNL     1      22.239  25.919  -8.016  1.00  0.00     0.002 A
HETATM   30  C20 UNL     1      22.350  27.140  -7.386  1.00  0.00     0.030 A
ENDBRANCH  23  25
ENDBRANCH  19  23
ENDBRANCH   6   8
ENDBRANCH   5   6
ENDBRANCH   4   5
ENDBRANCH   3   4
TORSDOF 6
ENDMDL