MODEL 2
REMARK VINA RESULT: -7.428355307      1.680      2.129
REMARK  6 active torsions:
REMARK  status: ('A' for Active; 'I' for Inactive)
REMARK    1  A    between atoms: C2_2  and  C4_4
REMARK    2  A    between atoms: C4_4  and  N1_5
REMARK       I    between atoms: C5_7  and  N3_9
REMARK    3  A    between atoms: N3_9  and  C6_10
REMARK    4  A    between atoms: C7_13  and  C8_14
REMARK    5  A    between atoms: C14_20  and  O1_21
REMARK    6  A    between atoms: O1_21  and  C15_22
ROOT
HETATM    1  C6  UNL     1      22.461  33.327  -8.667  1.00  0.00     0.262 A
HETATM    2  N4  UNL     1      22.402  32.079  -8.028  1.00  0.00    -0.313 N
ATOM      3  H4  UNL     1      22.640  32.007  -7.039  1.00  0.00     0.170 HD
HETATM    4  C7  UNL     1      22.037  30.987  -8.700  1.00  0.00     0.081 A
HETATM    5  C14 UNL     1      21.706  31.066 -10.045  1.00  0.00     0.112 A
HETATM    6  C18 UNL     1      21.762  32.280 -10.693  1.00  0.00     0.131 A
HETATM    7  N5  UNL     1      22.130  33.346  -9.990  1.00  0.00    -0.324 N
ATOM      8  H5  UNL     1      22.168  34.244 -10.475  1.00  0.00     0.169 HD
ENDROOT
BRANCH   1   9
HETATM    9  N3  UNL     1      22.711  34.311  -8.058  1.00  0.00    -0.338 NA
HETATM   10  C5  UNL     1      22.968  35.390  -7.393  1.00  0.00     0.266 C
HETATM   11  N1  UNL     1      23.335  35.322  -6.118  1.00  0.00    -0.353 N
HETATM   12  N2  UNL     1      22.889  36.705  -7.978  1.00  0.00    -0.049 NA
ATOM     13  H1  UNL     1      23.400  34.408  -5.672  1.00  0.00     0.163 HD
BRANCH  11  14
HETATM   14  C4  UNL     1      23.646  36.499  -5.342  1.00  0.00     0.127 C
BRANCH  14  15
HETATM   15  C2  UNL     1      24.864  36.264  -4.463  1.00  0.00    -0.005 C
HETATM   16  C1  UNL     1      24.996  34.794  -4.242  1.00  0.00     0.011 C
HETATM   17  C3  UNL     1      24.603  37.026  -3.165  1.00  0.00     0.011 C
ENDBRANCH  14  15
ENDBRANCH  11  14
ENDBRANCH   1   9
BRANCH   4  18
HETATM   18  C8  UNL     1      22.077  29.669  -8.063  1.00  0.00    -0.006 A
HETATM   19  C9  UNL     1      23.294  29.217  -7.585  1.00  0.00     0.014 A
HETATM   20  C10 UNL     1      23.358  27.966  -6.986  1.00  0.00     0.001 A
HETATM   21  C11 UNL     1      22.240  27.196  -6.867  1.00  0.00     0.000 A
HETATM   22  C12 UNL     1      21.008  27.637  -7.341  1.00  0.00     0.001 A
HETATM   23  C13 UNL     1      20.962  28.904  -7.946  1.00  0.00     0.014 A
ENDBRANCH   4  18
BRANCH   5  24
HETATM   24  O1  UNL     1      21.330  29.931 -10.672  1.00  0.00    -0.343 OA
BRANCH  24  25
HETATM   25  C15 UNL     1      21.889  29.226 -11.723  1.00  0.00     0.121 C
HETATM   26  C16 UNL     1      22.407  27.919 -11.237  1.00  0.00     0.040 C
HETATM   27  C17 UNL     1      20.866  29.021 -12.859  1.00  0.00     0.040 C
ENDBRANCH  24  25
ENDBRANCH   5  24
TORSDOF 6
ENDMDL