MODEL 5
REMARK VINA RESULT: -7.113224932      3.928      6.135
REMARK  7 active torsions:
REMARK  status: ('A' for Active; 'I' for Inactive)
REMARK    1  A    between atoms: O1_2  and  C2_3
REMARK    2  A    between atoms: C2_3  and  C3_4
REMARK    3  A    between atoms: C3_4  and  C4_5
REMARK    4  A    between atoms: C4_5  and  N1_6
REMARK    5  A    between atoms: N1_6  and  C5_8
REMARK    6  A    between atoms: C6_9  and  N2_10
REMARK    7  A    between atoms: N2_10  and  C7_12
ROOT
HETATM    1  C5  UNL     1      20.210  32.739  -9.266  1.00  0.00     0.086 A
HETATM    2  C6  UNL     1      21.348  33.460  -9.515  1.00  0.00     0.148 A
HETATM    3  N3  UNL     1      22.345  32.976 -10.317  1.00  0.00    -0.283 N
ATOM      4  H3  UNL     1      23.177  33.545 -10.476  1.00  0.00     0.188 HD
HETATM    5  N4  UNL     1      22.254  31.793 -10.886  1.00  0.00    -0.298 N
ATOM      6  H4  UNL     1      23.004  31.443 -11.482  1.00  0.00     0.187 HD
HETATM    7  C14 UNL     1      21.153  31.054 -10.666  1.00  0.00     0.060 A
HETATM    8  C15 UNL     1      21.069  29.802 -11.275  1.00  0.00     0.032 A
HETATM    9  C16 UNL     1      19.952  29.027 -11.066  1.00  0.00     0.002 A
HETATM   10  C17 UNL     1      18.908  29.448 -10.270  1.00  0.00     0.001 A
HETATM   11  C18 UNL     1      19.001  30.686  -9.673  1.00  0.00     0.016 A
HETATM   12  C19 UNL     1      20.114  31.488  -9.868  1.00  0.00     0.022 A
ENDROOT
BRANCH   2  13
HETATM   13  N2  UNL     1      21.472  34.618  -8.978  1.00  0.00    -0.339 N
ATOM     14  H2  UNL     1      20.976  35.418  -9.369  1.00  0.00     0.167 HD
BRANCH  13  15
HETATM   15  C7  UNL     1      22.307  34.787  -7.829  1.00  0.00     0.039 A
HETATM   16  C8  UNL     1      22.680  33.708  -7.052  1.00  0.00     0.030 A
HETATM   17  C9  UNL     1      23.483  33.884  -5.950  1.00  0.00     0.002 A
HETATM   18  C10 UNL     1      23.921  35.146  -5.615  1.00  0.00     0.001 A
HETATM   19  C11 UNL     1      23.571  36.250  -6.364  1.00  0.00     0.009 A
HETATM   20  C12 UNL     1      22.765  36.049  -7.466  1.00  0.00    -0.035 A
HETATM   21  C13 UNL     1      22.354  37.202  -8.312  1.00  0.00     0.050 C
ENDBRANCH  13  15
ENDBRANCH   2  13
BRANCH   1  22
HETATM   22  N1  UNL     1      19.261  33.122  -8.543  1.00  0.00    -0.386 N
ATOM     23  H1  UNL     1      18.529  33.622  -9.046  1.00  0.00     0.159 HD
BRANCH  22  24
HETATM   24  C4  UNL     1      19.020  32.986  -7.154  1.00  0.00     0.122 C
BRANCH  24  25
HETATM   25  C3  UNL     1      18.486  34.269  -6.541  1.00  0.00     0.046 C
BRANCH  25  26
HETATM   26  C2  UNL     1      17.226  34.048  -5.777  1.00  0.00     0.168 C
BRANCH  26  27
HETATM   27  O1  UNL     1      16.838  32.733  -5.634  1.00  0.00    -0.396 OA
HETATM   28  C1  UNL     1      15.499  32.525  -5.423  1.00  0.00     0.201 C
ENDBRANCH  26  27
ENDBRANCH  25  26
ENDBRANCH  24  25
ENDBRANCH  22  24
ENDBRANCH   1  22
TORSDOF 7
ENDMDL