MODEL 2
REMARK VINA RESULT: -7.071527277      1.180      1.225
REMARK  7 active torsions:
REMARK  status: ('A' for Active; 'I' for Inactive)
REMARK    1  A    between atoms: C2_2  and  N1_3
REMARK    2  A    between atoms: C8_11  and  N3_12
REMARK    3  A    between atoms: N3_12  and  C9_14
REMARK    4  A    between atoms: C9_14  and  C10_15
REMARK    5  A    between atoms: C9_14  and  C17_23
REMARK    6  A    between atoms: C13_18  and  O1_19
REMARK    7  A    between atoms: C17_23  and  N4_25
ROOT
HETATM    1  C9  UNL     1      21.543  33.553  -7.945  1.00  0.00     0.162 C
ENDROOT
BRANCH   1   2
HETATM    2  N3  UNL     1      21.113  32.220  -7.721  1.00  0.00    -0.215 N
ATOM      3  H3  UNL     1      20.522  32.081  -6.901  1.00  0.00     0.178 HD
BRANCH   2   4
HETATM    4  C8  UNL     1      21.362  31.175  -8.402  1.00  0.00     0.681 A
HETATM    5  N1  UNL     1      20.443  30.659  -9.240  1.00  0.00    -0.188 N
HETATM    6  C3  UNL     1      20.669  29.556  -9.976  1.00  0.00     0.027 A
HETATM    7  C4  UNL     1      19.670  28.988 -10.893  1.00  0.00     0.069 C
HETATM    8  C5  UNL     1      21.905  28.922  -9.868  1.00  0.00     0.050 A
HETATM    9  C6  UNL     1      22.851  29.444  -9.013  1.00  0.00     0.024 A
HETATM   10  C7  UNL     1      24.186  28.813  -8.854  1.00  0.00     0.068 C
HETATM   11  N2  UNL     1      22.550  30.554  -8.306  1.00  0.00    -0.196 N
ATOM     12  H2  UNL     1      23.253  30.937  -7.673  1.00  0.00     0.184 HD
BRANCH   5  13
HETATM   13  C2  UNL     1      19.135  31.288  -9.387  1.00  0.00     0.143 C
HETATM   14  C1  UNL     1      18.212  30.838  -8.281  1.00  0.00     0.027 C
ENDBRANCH   5  13
ENDBRANCH   2   4
ENDBRANCH   1   2
BRANCH   1  15
HETATM   15  C10 UNL     1      22.567  33.917  -6.902  1.00  0.00    -0.033 A
HETATM   16  C11 UNL     1      23.141  35.172  -6.913  1.00  0.00     0.012 A
HETATM   17  C12 UNL     1      24.086  35.573  -5.991  1.00  0.00     0.037 A
HETATM   18  C13 UNL     1      24.440  34.642  -5.034  1.00  0.00     0.068 A
HETATM   19  C15 UNL     1      23.874  33.386  -5.012  1.00  0.00     0.037 A
HETATM   20  C16 UNL     1      22.933  32.998  -5.938  1.00  0.00     0.012 A
BRANCH  18  21
HETATM   21  O1  UNL     1      25.388  35.034  -4.103  1.00  0.00    -0.356 OA
HETATM   22  C14 UNL     1      25.738  34.181  -3.004  1.00  0.00     0.210 C
ENDBRANCH  18  21
ENDBRANCH   1  15
BRANCH   1  23
HETATM   23  C17 UNL     1      20.466  34.594  -7.878  1.00  0.00     0.207 C
HETATM   24  C18 UNL     1      19.733  34.823  -9.163  1.00  0.00     0.042 C
BRANCH  23  25
HETATM   25  N4  UNL     1      19.456  34.187  -6.892  1.00  0.00    -0.073 N
ATOM     26  H43 UNL     1      18.802  33.501  -7.270  1.00  0.00     0.274 HD
ATOM     27  H42 UNL     1      19.852  33.613  -6.147  1.00  0.00     0.274 HD
ATOM     28  H41 UNL     1      18.983  35.015  -6.532  1.00  0.00     0.274 HD
ENDBRANCH  23  25
ENDBRANCH   1  23
TORSDOF 7
ENDMDL