MODEL 2
REMARK VINA RESULT: -8.261121910      1.627      5.270
REMARK  7 active torsions:
REMARK  status: ('A' for Active; 'I' for Inactive)
REMARK    1  A    between atoms: C2_2  and  C3_3
REMARK    2  A    between atoms: C3_3  and  N1_4
REMARK    3  A    between atoms: C3_3  and  C14_24
REMARK    4  A    between atoms: N1_4  and  C4_6
REMARK    5  A    between atoms: C6_12  and  N4_13
REMARK    6  A    between atoms: N4_13  and  C7_15
REMARK    7  A    between atoms: C7_15  and  C8_16
ROOT
HETATM    1  C4  UNL     1      20.993  29.818 -10.806  1.00  0.00     0.134 A
HETATM    2  C5  UNL     1      21.825  29.306 -11.781  1.00  0.00     0.156 A
HETATM    3  N2  UNL     1      22.772  30.097 -12.307  1.00  0.00    -0.294 N
ATOM      4  H2  UNL     1      23.384  29.713 -13.027  1.00  0.00     0.186 HD
HETATM    5  N3  UNL     1      22.945  31.353 -11.933  1.00  0.00    -0.132 N
ATOM      6  H3  UNL     1      23.675  31.926 -12.354  1.00  0.00     0.205 HD
HETATM    7  C6  UNL     1      22.148  31.851 -10.997  1.00  0.00     0.694 A
HETATM    8  N5  UNL     1      21.171  31.084 -10.432  1.00  0.00    -0.174 N
ATOM      9  H5  UNL     1      20.569  31.485  -9.713  1.00  0.00     0.186 HD
ENDROOT
BRANCH   1  10
HETATM   10  N1  UNL     1      20.093  29.032 -10.320  1.00  0.00    -0.366 N
ATOM     11  H1  UNL     1      19.578  28.448 -10.978  1.00  0.00     0.161 HD
BRANCH  10  12
HETATM   12  C3  UNL     1      19.758  28.914  -8.927  1.00  0.00     0.116 C
BRANCH  12  13
HETATM   13  C2  UNL     1      18.499  28.091  -8.750  1.00  0.00     0.025 C
HETATM   14  C1  UNL     1      18.034  27.482 -10.044  1.00  0.00     0.007 C
ENDBRANCH  12  13
BRANCH  12  15
HETATM   15  C14 UNL     1      20.920  28.370  -8.189  1.00  0.00    -0.036 A
HETATM   16  C15 UNL     1      21.640  29.207  -7.369  1.00  0.00     0.009 A
HETATM   17  C16 UNL     1      22.741  28.751  -6.646  1.00  0.00     0.001 A
HETATM   18  C17 UNL     1      23.120  27.420  -6.755  1.00  0.00     0.000 A
HETATM   19  C18 UNL     1      22.400  26.588  -7.573  1.00  0.00     0.001 A
HETATM   20  C19 UNL     1      21.307  27.054  -8.287  1.00  0.00     0.009 A
ENDBRANCH  12  15
ENDBRANCH  10  12
ENDBRANCH   1  10
BRANCH   7  21
HETATM   21  N4  UNL     1      22.240  33.049 -10.574  1.00  0.00    -0.221 N
ATOM     22  H4  UNL     1      22.963  33.628 -11.001  1.00  0.00     0.178 HD
BRANCH  21  23
HETATM   23  C7  UNL     1      21.441  33.666  -9.566  1.00  0.00     0.176 C
BRANCH  23  24
HETATM   24  C8  UNL     1      22.184  33.841  -8.281  1.00  0.00    -0.040 A
HETATM   25  C9  UNL     1      22.932  34.972  -8.008  1.00  0.00     0.009 A
HETATM   26  C10 UNL     1      23.606  35.096  -6.803  1.00  0.00     0.001 A
HETATM   27  C11 UNL     1      23.550  34.100  -5.850  1.00  0.00     0.000 A
HETATM   28  C12 UNL     1      22.806  32.974  -6.119  1.00  0.00     0.001 A
HETATM   29  C13 UNL     1      22.144  32.864  -7.313  1.00  0.00     0.009 A
ENDBRANCH  23  24
ENDBRANCH  21  23
ENDBRANCH   7  21
TORSDOF 7
ENDMDL