MODEL 5
REMARK VINA RESULT: -6.623347337      1.755      2.119
REMARK  7 active torsions:
REMARK  status: ('A' for Active; 'I' for Inactive)
REMARK    1  A    between atoms: C2_2  and  C3_3
REMARK    2  A    between atoms: C3_3  and  C4_4
REMARK    3  A    between atoms: C4_4  and  N1_5
REMARK    4  A    between atoms: N1_5  and  C5_7
REMARK    5  A    between atoms: C6_10  and  N3_11
REMARK    6  A    between atoms: N4_18  and  C11_19
REMARK    7  A    between atoms: C11_19  and  C12_20
ROOT
HETATM    1  C5  UNL     1      21.465  28.151 -10.125  1.00  0.00     0.680 A
HETATM    2  N2  UNL     1      20.179  27.738 -10.311  1.00  0.00    -0.176 N
ATOM      3  H2  UNL     1      19.934  26.777 -10.548  1.00  0.00     0.186 HD
HETATM    4  C6  UNL     1      19.264  28.711 -10.155  1.00  0.00     0.136 A
HETATM    5  C8  UNL     1      19.623  30.007  -9.833  1.00  0.00     0.078 A
HETATM    6  S1  UNL     1      18.736  31.431  -9.571  1.00  0.00    -0.082 SA
HETATM    7  C9  UNL     1      20.038  32.504  -9.233  1.00  0.00     0.034 A
HETATM    8  C10 UNL     1      20.106  33.869  -8.917  1.00  0.00     0.110 A
HETATM    9  N4  UNL     1      21.285  34.471  -8.695  1.00  0.00    -0.365 N
HETATM   10  C14 UNL     1      22.359  33.694  -8.795  1.00  0.00     0.091 A
HETATM   11  C15 UNL     1      22.356  32.363  -9.099  1.00  0.00     0.032 A
HETATM   12  C16 UNL     1      21.132  31.694  -9.340  1.00  0.00     0.012 A
HETATM   13  C17 UNL     1      20.916  30.396  -9.651  1.00  0.00     0.081 A
HETATM   14  N5  UNL     1      21.827  29.378  -9.818  1.00  0.00    -0.190 N
ATOM     15  H5  UNL     1      22.819  29.583  -9.699  1.00  0.00     0.184 HD
ENDROOT
BRANCH   1  16
HETATM   16  N1  UNL     1      22.359  27.233 -10.270  1.00  0.00    -0.226 N
ATOM     17  H1  UNL     1      22.531  26.896 -11.218  1.00  0.00     0.177 HD
BRANCH  16  18
HETATM   18  C4  UNL     1      23.137  26.640  -9.210  1.00  0.00     0.138 C
BRANCH  18  19
HETATM   19  C3  UNL     1      22.359  26.613  -7.904  1.00  0.00     0.020 C
BRANCH  19  20
HETATM   20  C2  UNL     1      23.192  27.269  -6.826  1.00  0.00    -0.003 C
HETATM   21  C1  UNL     1      22.533  28.588  -6.489  1.00  0.00     0.005 C
ENDBRANCH  19  20
ENDBRANCH  18  19
ENDBRANCH  16  18
ENDBRANCH   1  16
BRANCH   4  22
HETATM   22  N3  UNL     1      18.021  28.411 -10.313  1.00  0.00    -0.379 N
HETATM   23  C7  UNL     1      17.484  27.107 -10.096  1.00  0.00     0.147 C
ATOM     24  H3  UNL     1      17.383  29.149 -10.610  1.00  0.00     0.160 HD
ENDBRANCH   4  22
BRANCH   9  25
HETATM   25  C11 UNL     1      21.328  35.874  -8.371  1.00  0.00     0.127 C
BRANCH  25  26
HETATM   26  C12 UNL     1      22.640  36.277  -7.736  1.00  0.00     0.016 C
HETATM   27  C13 UNL     1      22.385  36.768  -6.335  1.00  0.00     0.006 C
ENDBRANCH  25  26
ENDBRANCH   9  25
TORSDOF 7
ENDMDL