MODEL 5
REMARK VINA RESULT: -8.183973475      2.725      7.713
REMARK  5 active torsions:
REMARK  status: ('A' for Active; 'I' for Inactive)
REMARK    1  A    between atoms: C4_6  and  C5_7
REMARK    2  A    between atoms: C5_7  and  C6_8
REMARK    3  A    between atoms: C6_8  and  N2_9
REMARK    4  A    between atoms: C9_13  and  C10_14
REMARK    5  A    between atoms: C10_14  and  C11_15
ROOT
HETATM    1  N2  UNL     1      24.009  35.665  -6.760  1.00  0.00    -0.376 N
ATOM      2  H2  UNL     1      24.128  36.427  -7.428  1.00  0.00     0.161 HD
HETATM    3  C7  UNL     1      23.280  34.631  -7.051  1.00  0.00     0.103 A
HETATM    4  C8  UNL     1      22.666  34.590  -8.297  1.00  0.00     0.073 A
HETATM    5  C9  UNL     1      21.895  33.498  -8.610  1.00  0.00     0.018 A
HETATM    6  N4  UNL     1      21.791  32.520  -7.660  1.00  0.00    -0.355 N
ATOM      7  H4  UNL     1      21.224  31.701  -7.878  1.00  0.00     0.166 HD
HETATM    8  C19 UNL     1      22.381  32.570  -6.479  1.00  0.00     0.182 A
HETATM    9  N5  UNL     1      23.137  33.632  -6.159  1.00  0.00    -0.339 N
ATOM     10  H5  UNL     1      23.597  33.683  -5.250  1.00  0.00     0.168 HD
ENDROOT
BRANCH   1  11
HETATM   11  C6  UNL     1      24.647  35.706  -5.467  1.00  0.00     0.126 C
BRANCH  11  12
HETATM   12  C5  UNL     1      24.050  36.752  -4.551  1.00  0.00     0.059 C
BRANCH  12  13
HETATM   13  C4  UNL     1      24.756  36.630  -3.241  1.00  0.00    -0.041 A
HETATM   14  C3  UNL     1      26.025  36.100  -3.247  1.00  0.00     0.094 A
HETATM   15  N1  UNL     1      26.702  35.971  -2.089  1.00  0.00    -0.375 N
HETATM   16  C2  UNL     1      26.157  36.352  -0.922  1.00  0.00     0.087 A
ATOM     17  H1  UNL     1      27.643  35.578  -2.099  1.00  0.00     0.164 HD
HETATM   18  C1  UNL     1      24.900  36.880  -0.900  1.00  0.00     0.018 A
HETATM   19  C20 UNL     1      24.185  37.024  -2.060  1.00  0.00     0.010 A
ENDBRANCH  12  13
ENDBRANCH  11  12
ENDBRANCH   1  11
BRANCH   5  20
HETATM   20  C10 UNL     1      21.199  33.332  -9.890  1.00  0.00     0.098 C
BRANCH  20  21
HETATM   21  C11 UNL     1      21.723  32.152 -10.622  1.00  0.00    -0.025 A
HETATM   22  C12 UNL     1      22.928  32.117 -11.326  1.00  0.00     0.096 A
HETATM   23  N3  UNL     1      23.054  30.908 -11.873  1.00  0.00    -0.365 N
HETATM   24  C13 UNL     1      21.965  30.154 -11.544  1.00  0.00     0.042 A
ATOM     25  H3  UNL     1      23.839  30.596 -12.445  1.00  0.00     0.165 HD
HETATM   26  C14 UNL     1      21.605  28.860 -11.839  1.00  0.00     0.030 A
HETATM   27  C18 UNL     1      21.104  30.924 -10.748  1.00  0.00    -0.002 A
HETATM   28  C15 UNL     1      20.432  28.309 -11.376  1.00  0.00     0.002 A
HETATM   29  C16 UNL     1      19.621  29.082 -10.606  1.00  0.00     0.001 A
HETATM   30  C17 UNL     1      19.925  30.389 -10.273  1.00  0.00     0.014 A
ENDBRANCH  20  21
ENDBRANCH   5  20
TORSDOF 5
ENDMDL