MODEL 5
REMARK VINA RESULT: -7.133090648      1.636      4.598
REMARK  7 active torsions:
REMARK  status: ('A' for Active; 'I' for Inactive)
REMARK    1  A    between atoms: C2_2  and  C3_3
REMARK    2  A    between atoms: C7_9  and  N2_10
REMARK    3  A    between atoms: N2_10  and  C8_12
REMARK    4  A    between atoms: C8_12  and  C9_13
REMARK    5  A    between atoms: C9_13  and  C10_14
REMARK    6  A    between atoms: C10_14  and  N3_15
REMARK    7  A    between atoms: N3_15  and  C11_17
ROOT
HETATM    1  C9  UNL     1      18.192  30.756  -8.366  1.00  0.00     0.040 C
ENDROOT
BRANCH   1   2
HETATM    2  C8  UNL     1      19.140  31.614  -9.131  1.00  0.00     0.139 C
BRANCH   2   3
HETATM    3  N2  UNL     1      20.334  31.871  -8.363  1.00  0.00    -0.226 N
ATOM      4  H2  UNL     1      20.325  32.488  -7.551  1.00  0.00     0.177 HD
BRANCH   3   5
HETATM    5  C7  UNL     1      21.430  31.272  -8.759  1.00  0.00     0.678 A
HETATM    6  N1  UNL     1      22.068  31.623  -9.879  1.00  0.00    -0.196 N
HETATM    7  C5  UNL     1      23.190  31.043 -10.328  1.00  0.00     0.024 A
ATOM      8  H1  UNL     1      21.674  32.386 -10.431  1.00  0.00     0.184 HD
HETATM    9  C4  UNL     1      23.710  30.017  -9.573  1.00  0.00     0.050 A
HETATM   10  C6  UNL     1      23.879  31.452 -11.574  1.00  0.00     0.068 C
HETATM   11  C3  UNL     1      23.059  29.634  -8.401  1.00  0.00     0.028 A
HETATM   12  N5  UNL     1      21.938  30.265  -8.017  1.00  0.00    -0.196 N
ATOM     13  H5  UNL     1      21.466  29.981  -7.159  1.00  0.00     0.184 HD
BRANCH  11  14
HETATM   14  C2  UNL     1      23.633  28.511  -7.582  1.00  0.00     0.053 C
HETATM   15  C1  UNL     1      22.662  28.189  -6.477  1.00  0.00     0.011 C
ENDBRANCH  11  14
ENDBRANCH   3   5
ENDBRANCH   2   3
ENDBRANCH   1   2
BRANCH   1  16
HETATM   16  C10 UNL     1      18.586  29.319  -8.466  1.00  0.00     0.123 C
BRANCH  16  17
HETATM   17  N3  UNL     1      18.817  28.947  -9.825  1.00  0.00    -0.376 N
ATOM     18  H3  UNL     1      18.092  29.179 -10.504  1.00  0.00     0.161 HD
BRANCH  17  19
HETATM   19  C11 UNL     1      19.857  28.346 -10.260  1.00  0.00     0.101 A
HETATM   20  C12 UNL     1      20.426  28.708 -11.450  1.00  0.00     0.049 A
HETATM   21  C13 UNL     1      21.562  28.065 -11.940  1.00  0.00     0.017 A
HETATM   22  C14 UNL     1      22.079  27.053 -11.176  1.00  0.00    -0.009 A
HETATM   23  C15 UNL     1      23.198  26.390 -11.621  1.00  0.00     0.013 A
HETATM   24  C19 UNL     1      21.478  26.706  -9.972  1.00  0.00     0.043 A
HETATM   25  C16 UNL     1      23.724  25.372 -10.857  1.00  0.00     0.001 A
HETATM   26  C17 UNL     1      23.161  24.996  -9.658  1.00  0.00     0.002 A
HETATM   27  C18 UNL     1      22.039  25.677  -9.235  1.00  0.00     0.030 A
HETATM   28  N4  UNL     1      20.387  27.347  -9.531  1.00  0.00    -0.342 N
ATOM     29  H4  UNL     1      19.960  27.079  -8.645  1.00  0.00     0.167 HD
ENDBRANCH  17  19
ENDBRANCH  16  17
ENDBRANCH   1  16
TORSDOF 7
ENDMDL