MODEL 5
REMARK VINA RESULT: -7.770386022      2.086      4.405
REMARK  7 active torsions:
REMARK  status: ('A' for Active; 'I' for Inactive)
REMARK    1  A    between atoms: C2_2  and  N1_4
REMARK    2  A    between atoms: N1_4  and  C4_6
REMARK    3  A    between atoms: C10_18  and  N5_19
REMARK    4  A    between atoms: N5_19  and  C11_21
REMARK    5  A    between atoms: C11_21  and  C12_22
REMARK    6  A    between atoms: C12_22  and  C13_23
REMARK    7  A    between atoms: C13_23  and  C14_24
ROOT
HETATM    1  C4  UNL     1      22.379  31.307  -8.786  1.00  0.00     0.147 A
HETATM    2  N2  UNL     1      21.860  31.955  -7.733  1.00  0.00    -0.324 N
ATOM      3  H2  UNL     1      22.079  31.628  -6.791  1.00  0.00     0.169 HD
HETATM    4  C5  UNL     1      21.060  33.020  -7.886  1.00  0.00     0.134 A
HETATM    5  N3  UNL     1      20.528  33.685  -6.841  1.00  0.00    -0.350 N
ATOM      6  H3  UNL     1      20.720  33.392  -5.883  1.00  0.00     0.166 HD
HETATM    7  C6  UNL     1      19.738  34.742  -7.092  1.00  0.00     0.090 A
HETATM    8  C7  UNL     1      19.451  35.172  -8.367  1.00  0.00     0.019 A
HETATM    9  C8  UNL     1      19.976  34.518  -9.438  1.00  0.00     0.035 A
HETATM   10  C9  UNL     1      20.794  33.424  -9.198  1.00  0.00     0.078 A
HETATM   11  N4  UNL     1      21.320  32.768 -10.261  1.00  0.00    -0.337 N
ATOM     12  H4  UNL     1      21.106  33.087 -11.206  1.00  0.00     0.168 HD
HETATM   13  C10 UNL     1      22.113  31.712 -10.085  1.00  0.00     0.146 A
ENDROOT
BRANCH  13  14
HETATM   14  N5  UNL     1      22.605  31.098 -11.071  1.00  0.00    -0.373 N
ATOM     15  H5  UNL     1      23.624  31.116 -11.130  1.00  0.00     0.161 HD
BRANCH  14  16
HETATM   16  C11 UNL     1      21.954  30.390 -12.101  1.00  0.00     0.121 C
BRANCH  16  17
HETATM   17  C12 UNL     1      21.588  28.955 -11.695  1.00  0.00     0.024 C
BRANCH  17  18
HETATM   18  C13 UNL     1      20.078  28.797 -11.655  1.00  0.00     0.040 C
BRANCH  18  19
HETATM   19  C14 UNL     1      19.552  28.983 -10.282  1.00  0.00    -0.058 A
HETATM   20  C15 UNL     1      18.969  30.170  -9.881  1.00  0.00     0.007 A
HETATM   21  C16 UNL     1      18.468  30.399  -8.631  1.00  0.00     0.001 A
HETATM   22  C17 UNL     1      18.547  29.374  -7.700  1.00  0.00     0.000 A
HETATM   23  C18 UNL     1      19.124  28.168  -8.058  1.00  0.00     0.001 A
HETATM   24  C19 UNL     1      19.620  27.969  -9.328  1.00  0.00     0.007 A
ENDBRANCH  18  19
ENDBRANCH  17  18
ENDBRANCH  16  17
ENDBRANCH  14  16
ENDBRANCH  13  14
BRANCH   1  25
HETATM   25  N1  UNL     1      23.134  30.301  -8.615  1.00  0.00    -0.369 N
ATOM     26  H1  UNL     1      24.086  30.359  -8.977  1.00  0.00     0.161 HD
BRANCH  25  27
HETATM   27  C2  UNL     1      22.747  29.084  -7.948  1.00  0.00     0.075 C
HETATM   28  C1  UNL     1      23.173  29.035  -6.514  1.00  0.00     0.031 C
HETATM   29  C3  UNL     1      23.332  27.877  -8.663  1.00  0.00     0.031 C
ENDBRANCH  25  27
ENDBRANCH   1  25
TORSDOF 7
ENDMDL