MODEL 4
REMARK VINA RESULT: -6.837217968      1.019      1.931
REMARK  8 active torsions:
REMARK  status: ('A' for Active; 'I' for Inactive)
REMARK    1  A    between atoms: C3_4  and  O2_5
REMARK    2  A    between atoms: O2_5  and  C4_6
REMARK    3  A    between atoms: C6_8  and  O3_9
REMARK    4  A    between atoms: C7_11  and  O4_12
REMARK    5  A    between atoms: C8_14  and  O5_15
REMARK    6  A    between atoms: C9_18  and  O7_19
REMARK    7  A    between atoms: C10_21  and  O8_22
REMARK    8  A    between atoms: C11_24  and  O9_25
ROOT
HETATM    1  C1  UNL     1      35.726  67.428  22.187  1.00  0.00     0.042 C
HETATM    2  C2  UNL     1      35.715  66.693  20.854  1.00  0.00     0.152 C
HETATM    3  O1  UNL     1      35.896  67.559  19.822  1.00  0.00    -0.351 OA
HETATM    4  C3  UNL     1      34.996  67.462  18.791  1.00  0.00     0.300 C
HETATM    5  C9  UNL     1      33.601  67.659  19.400  1.00  0.00     0.205 C
HETATM    6  C10 UNL     1      33.274  66.484  20.291  1.00  0.00     0.183 C
HETATM    7  C11 UNL     1      34.512  65.827  20.782  1.00  0.00     0.178 C
ENDROOT
BRANCH   4   8
HETATM    8  O2  UNL     1      35.190  68.595  17.947  1.00  0.00    -0.296 OA
BRANCH   8   9
HETATM    9  C4  UNL     1      35.021  68.579  16.591  1.00  0.00     0.183 C
HETATM   10  C5  UNL     1      36.092  68.441  15.828  1.00  0.00     0.071 C
HETATM   11  C6  UNL     1      35.914  68.422  14.343  1.00  0.00     0.179 C
HETATM   12  C7  UNL     1      34.923  69.498  14.000  1.00  0.00     0.206 C
HETATM   13  C8  UNL     1      33.602  69.269  14.701  1.00  0.00     0.297 C
HETATM   14  O6  UNL     1      33.772  68.702  15.980  1.00  0.00    -0.296 OA
BRANCH  11  15
HETATM   15  O3  UNL     1      35.497  67.175  13.890  1.00  0.00    -0.389 OA
ATOM     16  H3  UNL     1      34.750  67.244  13.308  1.00  0.00     0.210 HD
ENDBRANCH  11  15
BRANCH  12  17
HETATM   17  O4  UNL     1      35.424  70.729  14.389  1.00  0.00    -0.388 OA
ATOM     18  H4  UNL     1      36.048  71.035  13.742  1.00  0.00     0.210 HD
ENDBRANCH  12  17
BRANCH  13  19
HETATM   19  O5  UNL     1      32.930  70.484  14.743  1.00  0.00    -0.368 OA
ATOM     20  H5  UNL     1      32.706  70.660  15.649  1.00  0.00     0.212 HD
ENDBRANCH  13  19
ENDBRANCH   8   9
ENDBRANCH   4   8
BRANCH   5  21
HETATM   21  O7  UNL     1      33.689  68.782  20.225  1.00  0.00    -0.388 OA
ATOM     22  H7  UNL     1      33.220  68.564  21.022  1.00  0.00     0.210 HD
ENDBRANCH   5  21
BRANCH   6  23
HETATM   23  O8  UNL     1      32.553  65.573  19.484  1.00  0.00    -0.390 OA
ATOM     24  H8  UNL     1      32.726  64.711  19.845  1.00  0.00     0.210 HD
ENDBRANCH   6  23
BRANCH   7  25
HETATM   25  O9  UNL     1      34.754  64.667  20.038  1.00  0.00    -0.390 OA
ATOM     26  H9  UNL     1      35.196  64.004  20.556  1.00  0.00     0.210 HD
ENDBRANCH   7  25
TORSDOF 8
ENDMDL