MODEL 1
REMARK VINA RESULT: -6.501835268      0.000      0.000
REMARK  9 active torsions:
REMARK  status: ('A' for Active; 'I' for Inactive)
REMARK    1  A    between atoms: C3_4  and  O2_5
REMARK    2  A    between atoms: O2_5  and  C4_6
REMARK    3  A    between atoms: C5_8  and  C6_9
REMARK    4  A    between atoms: C6_9  and  O4_10
REMARK    5  A    between atoms: C7_12  and  O5_13
REMARK    6  A    between atoms: C8_15  and  O6_16
REMARK    7  A    between atoms: C9_18  and  O7_19
REMARK    8  A    between atoms: C10_21  and  O8_22
REMARK    9  A    between atoms: C11_24  and  O9_25
ROOT
HETATM    1  C4  UNL     1      34.384  67.222  18.691  1.00  0.00     0.294 C
HETATM    2  O3  UNL     1      35.257  67.600  19.714  1.00  0.00    -0.348 OA
HETATM    3  C5  UNL     1      35.353  66.635  20.696  1.00  0.00     0.179 C
HETATM    4  C7  UNL     1      34.019  66.297  21.319  1.00  0.00     0.180 C
HETATM    5  C8  UNL     1      33.004  67.284  20.734  1.00  0.00     0.183 C
HETATM    6  C9  UNL     1      32.972  66.991  19.243  1.00  0.00     0.204 C
ENDROOT
BRANCH   1   7
HETATM    7  O2  UNL     1      34.289  68.209  17.747  1.00  0.00    -0.326 OA
BRANCH   7   8
HETATM    8  C3  UNL     1      34.809  67.869  16.508  1.00  0.00     0.294 C
HETATM    9  O1  UNL     1      36.174  67.997  16.559  1.00  0.00    -0.351 OA
HETATM   10  C2  UNL     1      36.628  68.574  15.412  1.00  0.00     0.152 C
HETATM   11  C1  UNL     1      37.094  70.017  15.626  1.00  0.00     0.042 C
HETATM   12  C11 UNL     1      35.490  68.630  14.421  1.00  0.00     0.180 C
HETATM   13  C10 UNL     1      34.303  68.721  15.392  1.00  0.00     0.204 C
BRANCH  12  14
HETATM   14  O9  UNL     1      35.451  67.411  13.760  1.00  0.00    -0.390 OA
ATOM     15  H9  UNL     1      34.940  67.530  12.968  1.00  0.00     0.210 HD
ENDBRANCH  12  14
BRANCH  13  16
HETATM   16  O8  UNL     1      33.210  68.203  14.735  1.00  0.00    -0.388 OA
ATOM     17  H8  UNL     1      32.826  68.790  14.095  1.00  0.00     0.210 HD
ENDBRANCH  13  16
ENDBRANCH   7   8
ENDBRANCH   1   7
BRANCH   6  18
HETATM   18  O7  UNL     1      32.578  65.664  19.073  1.00  0.00    -0.388 OA
ATOM     19  H7  UNL     1      32.361  65.262  19.906  1.00  0.00     0.210 HD
ENDBRANCH   6  18
BRANCH   3  20
HETATM   20  C6  UNL     1      36.239  67.176  21.800  1.00  0.00     0.198 C
BRANCH  20  21
HETATM   21  O4  UNL     1      35.874  68.467  22.181  1.00  0.00    -0.398 OA
ATOM     22  H4  UNL     1      35.196  68.465  22.846  1.00  0.00     0.209 HD
ENDBRANCH  20  21
ENDBRANCH   3  20
BRANCH   5  23
HETATM   23  O6  UNL     1      33.451  68.584  20.912  1.00  0.00    -0.390 OA
ATOM     24  H6  UNL     1      32.831  69.070  21.443  1.00  0.00     0.210 HD
ENDBRANCH   5  23
BRANCH   4  25
HETATM   25  O5  UNL     1      34.020  66.336  22.690  1.00  0.00    -0.390 OA
ATOM     26  H5  UNL     1      33.297  65.867  23.089  1.00  0.00     0.210 HD
ENDBRANCH   4  25
TORSDOF 9
ENDMDL