MODEL 1
REMARK VINA RESULT: -6.899431989      0.000      0.000
REMARK  8 active torsions:
REMARK  status: ('A' for Active; 'I' for Inactive)
REMARK    1  A    between atoms: C3_4  and  O2_5
REMARK    2  A    between atoms: O2_5  and  C4_6
REMARK    3  A    between atoms: C6_9  and  O4_10
REMARK    4  A    between atoms: C7_12  and  O5_13
REMARK    5  A    between atoms: C8_15  and  O6_16
REMARK    6  A    between atoms: C9_18  and  O7_19
REMARK    7  A    between atoms: C10_21  and  O8_22
REMARK    8  A    between atoms: C11_24  and  O9_25
ROOT
HETATM    1  C1  UNL     1      36.100  68.529  20.795  1.00  0.00     0.042 C
HETATM    2  C2  UNL     1      34.717  68.050  20.500  1.00  0.00     0.152 C
HETATM    3  O1  UNL     1      34.188  68.678  19.438  1.00  0.00    -0.351 OA
HETATM    4  C3  UNL     1      33.044  68.179  18.885  1.00  0.00     0.294 C
HETATM    5  C9  UNL     1      32.459  66.969  19.488  1.00  0.00     0.204 C
HETATM    6  C10 UNL     1      33.366  66.095  20.271  1.00  0.00     0.183 C
HETATM    7  C11 UNL     1      34.812  66.553  20.178  1.00  0.00     0.178 C
ENDROOT
BRANCH   4   8
HETATM    8  O2  UNL     1      33.293  67.957  17.547  1.00  0.00    -0.326 OA
BRANCH   8   9
HETATM    9  C4  UNL     1      34.193  68.785  16.948  1.00  0.00     0.294 C
HETATM   10  O3  UNL     1      33.599  69.604  16.001  1.00  0.00    -0.356 OA
HETATM   11  C5  UNL     1      33.560  69.021  14.738  1.00  0.00     0.205 C
HETATM   12  C6  UNL     1      34.954  68.928  14.143  1.00  0.00     0.173 C
HETATM   13  C7  UNL     1      35.938  69.108  15.299  1.00  0.00     0.182 C
HETATM   14  C8  UNL     1      35.413  68.192  16.389  1.00  0.00     0.204 C
BRANCH  12  15
HETATM   15  O4  UNL     1      35.114  70.000  13.273  1.00  0.00    -0.391 OA
ATOM     16  H4  UNL     1      35.140  70.793  13.796  1.00  0.00     0.210 HD
ENDBRANCH  12  15
BRANCH  13  17
HETATM   17  O5  UNL     1      37.224  68.814  14.921  1.00  0.00    -0.390 OA
ATOM     18  H5  UNL     1      37.249  68.116  14.277  1.00  0.00     0.210 HD
ENDBRANCH  13  17
BRANCH  14  19
HETATM   19  O6  UNL     1      35.177  66.954  15.742  1.00  0.00    -0.388 OA
ATOM     20  H6  UNL     1      35.919  66.363  15.794  1.00  0.00     0.210 HD
ENDBRANCH  14  19
ENDBRANCH   8   9
ENDBRANCH   4   8
BRANCH   5  21
HETATM   21  O7  UNL     1      31.921  66.154  18.462  1.00  0.00    -0.388 OA
ATOM     22  H7  UNL     1      31.934  65.248  18.746  1.00  0.00     0.210 HD
ENDBRANCH   5  21
BRANCH   6  23
HETATM   23  O8  UNL     1      33.297  64.747  19.912  1.00  0.00    -0.390 OA
ATOM     24  H8  UNL     1      33.796  64.174  20.481  1.00  0.00     0.210 HD
ENDBRANCH   6  23
BRANCH   7  25
HETATM   25  O9  UNL     1      35.580  65.884  21.120  1.00  0.00    -0.390 OA
ATOM     26  H9  UNL     1      36.359  65.509  20.727  1.00  0.00     0.210 HD
ENDBRANCH   7  25
TORSDOF 8
ENDMDL