MODEL 3
REMARK VINA RESULT: -6.501522852      2.432      6.076
REMARK  8 active torsions:
REMARK  status: ('A' for Active; 'I' for Inactive)
REMARK    1  A    between atoms: C2_4  and  C3_5
REMARK    2  A    between atoms: C4_7  and  C5_8
REMARK    3  A    between atoms: C5_8  and  O3_9
REMARK    4  A    between atoms: C6_11  and  O4_12
REMARK    5  A    between atoms: C7_14  and  O5_15
REMARK    6  A    between atoms: C8_17  and  O6_18
REMARK    7  A    between atoms: C9_20  and  O7_21
REMARK    8  A    between atoms: C10_24  and  O9_25
ROOT
HETATM    1  C3  UNL     1      34.042  67.699  19.108  1.00  0.00     0.189 C
HETATM    2  O2  UNL     1      35.077  67.783  20.021  1.00  0.00    -0.370 OA
HETATM    3  C4  UNL     1      34.563  67.590  21.277  1.00  0.00     0.177 C
HETATM    4  C6  UNL     1      34.151  66.168  21.451  1.00  0.00     0.180 C
HETATM    5  C7  UNL     1      33.653  65.486  20.237  1.00  0.00     0.180 C
HETATM    6  C8  UNL     1      33.592  66.285  18.999  1.00  0.00     0.181 C
ENDROOT
BRANCH   1   7
HETATM    7  C2  UNL     1      34.520  68.290  17.806  1.00  0.00     0.232 C
HETATM    8  O1  UNL     1      35.185  69.475  18.056  1.00  0.00    -0.286 OA
HETATM    9  N1  UNL     1      35.729  69.984  16.929  1.00  0.00    -0.147 NA
HETATM   10  C1  UNL     1      36.500  71.157  17.296  1.00  0.00     0.149 C
HETATM   11  C10 UNL     1      36.564  69.008  16.254  1.00  0.00     0.367 C
HETATM   12  O8  UNL     1      36.668  67.826  16.958  1.00  0.00    -0.314 OA
HETATM   13  C9  UNL     1      35.411  67.263  17.135  1.00  0.00     0.294 C
BRANCH  11  14
HETATM   14  O9  UNL     1      36.052  68.771  14.992  1.00  0.00    -0.357 OA
ATOM     15  H9  UNL     1      36.742  68.886  14.350  1.00  0.00     0.214 HD
ENDBRANCH  11  14
BRANCH  13  16
HETATM   16  O7  UNL     1      34.868  66.798  15.941  1.00  0.00    -0.368 OA
ATOM     17  H7  UNL     1      35.166  65.921  15.730  1.00  0.00     0.212 HD
ENDBRANCH  13  16
ENDBRANCH   1   7
BRANCH   6  18
HETATM   18  O6  UNL     1      32.261  66.309  18.523  1.00  0.00    -0.390 OA
ATOM     19  H6  UNL     1      31.808  66.998  18.994  1.00  0.00     0.210 HD
ENDBRANCH   6  18
BRANCH   3  20
HETATM   20  C5  UNL     1      35.687  67.923  22.267  1.00  0.00     0.198 C
BRANCH  20  21
HETATM   21  O3  UNL     1      35.677  67.026  23.334  1.00  0.00    -0.398 OA
ATOM     22  H3  UNL     1      35.078  67.321  24.010  1.00  0.00     0.209 HD
ENDBRANCH  20  21
ENDBRANCH   3  20
BRANCH   5  23
HETATM   23  O5  UNL     1      34.452  64.350  19.980  1.00  0.00    -0.390 OA
ATOM     24  H5  UNL     1      35.239  64.620  19.521  1.00  0.00     0.210 HD
ENDBRANCH   5  23
BRANCH   4  25
HETATM   25  O4  UNL     1      33.206  66.141  22.503  1.00  0.00    -0.390 OA
ATOM     26  H4  UNL     1      33.696  66.197  23.315  1.00  0.00     0.210 HD
ENDBRANCH   4  25
TORSDOF 8
ENDMDL