MODEL 3
REMARK VINA RESULT: -6.575870467      1.901      2.693
REMARK  9 active torsions:
REMARK  status: ('A' for Active; 'I' for Inactive)
REMARK    1  A    between atoms: O1_2  and  C2_3
REMARK    2  A    between atoms: C3_5  and  C4_6
REMARK    3  A    between atoms: C4_6  and  O3_7
REMARK    4  A    between atoms: C4_6  and  C5_9
REMARK    5  A    between atoms: C6_11  and  O5_12
REMARK    6  A    between atoms: C7_14  and  O6_15
REMARK    7  A    between atoms: C8_18  and  O8_19
REMARK    8  A    between atoms: C9_21  and  O9_22
REMARK    9  A    between atoms: C10_24  and  O10_25
ROOT
HETATM    1  C2  UNL     1      35.876  68.695  20.940  1.00  0.00     0.290 C
HETATM    2  O2  UNL     1      35.086  68.516  19.782  1.00  0.00    -0.348 OA
HETATM    3  C3  UNL     1      35.262  67.180  19.423  1.00  0.00     0.189 C
HETATM    4  C8  UNL     1      34.424  66.261  20.298  1.00  0.00     0.181 C
HETATM    5  C9  UNL     1      34.237  66.979  21.619  1.00  0.00     0.183 C
HETATM    6  C10 UNL     1      35.547  67.653  21.952  1.00  0.00     0.204 C
ENDROOT
BRANCH   3   7
HETATM    7  C4  UNL     1      34.920  66.919  17.986  1.00  0.00     0.205 C
BRANCH   7   8
HETATM    8  O3  UNL     1      33.636  66.471  17.786  1.00  0.00    -0.388 OA
ATOM      9  H3  UNL     1      33.116  67.024  17.214  1.00  0.00     0.210 HD
ENDBRANCH   7   8
BRANCH   7  10
HETATM   10  C5  UNL     1      35.240  68.147  17.134  1.00  0.00     0.297 C
HETATM   11  O4  UNL     1      36.301  67.928  16.292  1.00  0.00    -0.324 OA
HETATM   12  C6  UNL     1      35.967  68.396  15.038  1.00  0.00     0.315 C
HETATM   13  C7  UNL     1      34.739  69.244  15.345  1.00  0.00     0.315 C
HETATM   14  O7  UNL     1      34.143  68.474  16.369  1.00  0.00    -0.324 OA
BRANCH  12  15
HETATM   15  O5  UNL     1      35.584  67.321  14.236  1.00  0.00    -0.367 OA
ATOM     16  H5  UNL     1      34.641  67.336  14.124  1.00  0.00     0.212 HD
ENDBRANCH  12  15
BRANCH  13  17
HETATM   17  O6  UNL     1      35.131  70.440  15.933  1.00  0.00    -0.367 OA
ATOM     18  H6  UNL     1      34.373  70.997  16.062  1.00  0.00     0.212 HD
ENDBRANCH  13  17
ENDBRANCH   7  10
ENDBRANCH   3   7
BRANCH   4  19
HETATM   19  O8  UNL     1      35.092  65.067  20.442  1.00  0.00    -0.390 OA
ATOM     20  H8  UNL     1      35.629  64.927  19.672  1.00  0.00     0.210 HD
ENDBRANCH   4  19
BRANCH   1  21
HETATM   21  O1  UNL     1      35.856  69.977  21.397  1.00  0.00    -0.363 OA
HETATM   22  C1  UNL     1      35.990  70.939  20.403  1.00  0.00     0.204 C
ENDBRANCH   1  21
BRANCH   5  23
HETATM   23  O9  UNL     1      34.001  66.032  22.616  1.00  0.00    -0.390 OA
ATOM     24  H9  UNL     1      34.512  66.260  23.384  1.00  0.00     0.210 HD
ENDBRANCH   5  23
BRANCH   6  25
HETATM   25  O10 UNL     1      36.520  66.630  21.996  1.00  0.00    -0.388 OA
ATOM     26  H10 UNL     1      37.183  66.798  22.656  1.00  0.00     0.210 HD
ENDBRANCH   6  25
TORSDOF 9
ENDMDL