MODEL 1
REMARK VINA RESULT: -6.672769733      0.000      0.000
REMARK  8 active torsions:
REMARK  status: ('A' for Active; 'I' for Inactive)
REMARK    1  A    between atoms: O1_1  and  N1_3
REMARK    2  A    between atoms: C1_5  and  C2_6
REMARK    3  A    between atoms: C4_10  and  C5_11
REMARK    4  A    between atoms: C6_12  and  O4_13
REMARK    5  A    between atoms: C7_15  and  O5_16
REMARK    6  A    between atoms: C8_18  and  O6_19
REMARK    7  A    between atoms: C9_21  and  O7_22
REMARK    8  A    between atoms: C10_24  and  O8_25
ROOT
HETATM    1  C5  UNL     1      34.867  68.576  17.358  1.00  0.00     0.104 C
HETATM    2  C6  UNL     1      33.866  69.461  16.694  1.00  0.00     0.161 C
HETATM    3  C7  UNL     1      34.273  70.000  15.375  1.00  0.00     0.178 C
HETATM    4  C8  UNL     1      34.875  68.969  14.466  1.00  0.00     0.180 C
HETATM    5  C9  UNL     1      35.822  68.039  15.105  1.00  0.00     0.178 C
HETATM    6  C10 UNL     1      35.506  67.569  16.464  1.00  0.00     0.161 C
ENDROOT
BRANCH   1   7
HETATM    7  C4  UNL     1      34.213  67.955  18.565  1.00  0.00     0.275 C
HETATM    8  O3  UNL     1      33.608  68.941  19.338  1.00  0.00    -0.337 OA
HETATM    9  C3  UNL     1      34.444  69.219  20.443  1.00  0.00     0.344 C
HETATM   10  O2  UNL     1      34.296  68.146  21.318  1.00  0.00    -0.332 OA
HETATM   11  C2  UNL     1      34.536  66.987  20.581  1.00  0.00     0.307 C
HETATM   12  O9  UNL     1      35.119  67.251  19.347  1.00  0.00    -0.326 OA
BRANCH  11  13
HETATM   13  C1  UNL     1      33.281  66.226  20.454  1.00  0.00     0.147 C
HETATM   14  N1  UNL     1      33.306  64.993  20.110  1.00  0.00    -0.280 N
ATOM     15  H1  UNL     1      32.438  64.464  20.022  1.00  0.00     0.193 HD
BRANCH  14  16
HETATM   16  O1  UNL     1      34.514  64.392  19.861  1.00  0.00    -0.290 OA
ATOM     17  H1  UNL     1      34.896  64.462  18.995  1.00  0.00     0.244 HD
ENDBRANCH  14  16
ENDBRANCH  11  13
ENDBRANCH   1   7
BRANCH   2  18
HETATM   18  O4  UNL     1      32.697  68.692  16.498  1.00  0.00    -0.392 OA
ATOM     19  H4  UNL     1      32.155  69.163  15.876  1.00  0.00     0.210 HD
ENDBRANCH   2  18
BRANCH   6  20
HETATM   20  O8  UNL     1      34.763  66.367  16.442  1.00  0.00    -0.392 OA
ATOM     21  H8  UNL     1      35.299  65.631  16.711  1.00  0.00     0.210 HD
ENDBRANCH   6  20
BRANCH   3  22
HETATM   22  O5  UNL     1      35.116  71.119  15.479  1.00  0.00    -0.390 OA
ATOM     23  H5  UNL     1      34.744  71.813  16.011  1.00  0.00     0.210 HD
ENDBRANCH   3  22
BRANCH   5  24
HETATM   24  O7  UNL     1      37.117  68.608  15.070  1.00  0.00    -0.390 OA
ATOM     25  H7  UNL     1      37.103  69.433  15.541  1.00  0.00     0.210 HD
ENDBRANCH   5  24
BRANCH   4  26
HETATM   26  O6  UNL     1      33.843  68.314  13.762  1.00  0.00    -0.390 OA
ATOM     27  H6  UNL     1      33.967  67.374  13.829  1.00  0.00     0.210 HD
ENDBRANCH   4  26
TORSDOF 8
ENDMDL