MODEL 4
REMARK VINA RESULT: -6.142255131      1.672      1.863
REMARK  8 active torsions:
REMARK  status: ('A' for Active; 'I' for Inactive)
REMARK    1  A    between atoms: S1_2  and  C2_3
REMARK    2  A    between atoms: C3_5  and  O2_6
REMARK    3  A    between atoms: O2_6  and  C4_7
REMARK    4  A    between atoms: C5_11  and  O3_12
REMARK    5  A    between atoms: C6_14  and  O4_15
REMARK    6  A    between atoms: C7_18  and  O6_19
REMARK    7  A    between atoms: C8_21  and  O7_22
REMARK    8  A    between atoms: C9_24  and  O8_25
ROOT
HETATM    1  C2  UNL     1      32.866  67.721  20.269  1.00  0.00     0.217 C
HETATM    2  O1  UNL     1      33.285  66.879  19.247  1.00  0.00    -0.340 OA
HETATM    3  C3  UNL     1      34.685  66.939  19.220  1.00  0.00     0.297 C
HETATM    4  C7  UNL     1      35.140  66.004  20.324  1.00  0.00     0.204 C
HETATM    5  C8  UNL     1      34.495  66.352  21.642  1.00  0.00     0.183 C
HETATM    6  C9  UNL     1      33.582  67.539  21.555  1.00  0.00     0.188 C
ENDROOT
BRANCH   3   7
HETATM    7  O2  UNL     1      35.109  66.543  17.979  1.00  0.00    -0.305 OA
BRANCH   7   8
HETATM    8  C4  UNL     1      35.188  67.567  17.058  1.00  0.00     0.477 C
HETATM    9  N1  UNL     1      36.447  68.294  17.135  1.00  0.00     0.006 N
HETATM   10  C5  UNL     1      36.398  69.065  15.905  1.00  0.00     0.380 C
ATOM     11  H12 UNL     1      36.587  68.836  17.987  1.00  0.00     0.286 HD
ATOM     12  H11 UNL     1      37.279  67.717  17.258  1.00  0.00     0.286 HD
HETATM   13  C6  UNL     1      35.315  68.371  15.071  1.00  0.00     0.318 C
HETATM   14  O5  UNL     1      35.235  67.122  15.734  1.00  0.00    -0.304 OA
BRANCH  10  15
HETATM   15  O3  UNL     1      37.591  68.984  15.191  1.00  0.00    -0.366 OA
ATOM     16  H3  UNL     1      37.526  69.403  14.341  1.00  0.00     0.212 HD
ENDBRANCH  10  15
BRANCH  13  17
HETATM   17  O4  UNL     1      34.080  68.984  15.264  1.00  0.00    -0.367 OA
ATOM     18  H4  UNL     1      33.929  69.647  14.600  1.00  0.00     0.212 HD
ENDBRANCH  13  17
ENDBRANCH   7   8
ENDBRANCH   3   7
BRANCH   4  19
HETATM   19  O6  UNL     1      34.787  64.716  19.924  1.00  0.00    -0.388 OA
ATOM     20  H6  UNL     1      35.082  64.621  19.026  1.00  0.00     0.210 HD
ENDBRANCH   4  19
BRANCH   1  21
HETATM   21  S1  UNL     1      31.046  67.609  20.481  1.00  0.00    -0.139 SA
HETATM   22  C1  UNL     1      30.695  67.100  22.207  1.00  0.00     0.092 C
ENDBRANCH   1  21
BRANCH   5  23
HETATM   23  O7  UNL     1      35.470  66.659  22.612  1.00  0.00    -0.390 OA
ATOM     24  H7  UNL     1      36.344  66.504  22.273  1.00  0.00     0.210 HD
ENDBRANCH   5  23
BRANCH   6  25
HETATM   25  O8  UNL     1      34.258  68.718  21.896  1.00  0.00    -0.389 OA
ATOM     26  H8  UNL     1      34.944  68.528  22.525  1.00  0.00     0.210 HD
ENDBRANCH   6  25
TORSDOF 8
ENDMDL