MODEL 1
REMARK VINA RESULT: -6.693705078      0.000      0.000
REMARK  9 active torsions:
REMARK  status: ('A' for Active; 'I' for Inactive)
REMARK    1  A    between atoms: O1_2  and  C2_3
REMARK    2  A    between atoms: C3_5  and  O3_6
REMARK    3  A    between atoms: O3_6  and  C4_7
REMARK    4  A    between atoms: C5_9  and  O5_10
REMARK    5  A    between atoms: C6_12  and  O6_13
REMARK    6  A    between atoms: C7_15  and  N1_16
REMARK    7  A    between atoms: C8_20  and  O7_21
REMARK    8  A    between atoms: C9_23  and  O8_24
REMARK    9  A    between atoms: C10_26  and  O9_27
ROOT
HETATM    1  C2  UNL     1      36.086  69.845  16.781  1.00  0.00     0.293 C
HETATM    2  O2  UNL     1      36.475  68.919  17.742  1.00  0.00    -0.326 OA
HETATM    3  C3  UNL     1      35.392  68.063  17.948  1.00  0.00     0.297 C
HETATM    4  C8  UNL     1      35.269  67.156  16.758  1.00  0.00     0.204 C
HETATM    5  C9  UNL     1      35.485  67.803  15.450  1.00  0.00     0.185 C
HETATM    6  C10 UNL     1      36.135  69.131  15.450  1.00  0.00     0.204 C
ENDROOT
BRANCH   3   7
HETATM    7  O3  UNL     1      35.663  67.393  19.121  1.00  0.00    -0.326 OA
BRANCH   7   8
HETATM    8  C4  UNL     1      34.717  67.556  20.117  1.00  0.00     0.299 C
HETATM    9  O4  UNL     1      33.767  66.559  19.881  1.00  0.00    -0.327 OA
HETATM   10  C5  UNL     1      33.362  66.043  21.066  1.00  0.00     0.290 C
HETATM   11  C6  UNL     1      34.049  66.713  22.194  1.00  0.00     0.208 C
HETATM   12  C7  UNL     1      35.250  67.363  21.493  1.00  0.00     0.271 C
BRANCH  10  13
HETATM   13  O5  UNL     1      31.957  66.177  21.153  1.00  0.00    -0.368 OA
ATOM     14  H5  UNL     1      31.557  65.423  20.734  1.00  0.00     0.212 HD
ENDBRANCH  10  13
BRANCH  11  15
HETATM   15  O6  UNL     1      33.236  67.771  22.630  1.00  0.00    -0.388 OA
ATOM     16  H6  UNL     1      33.591  68.095  23.449  1.00  0.00     0.210 HD
ENDBRANCH  11  15
BRANCH  12  17
HETATM   17  N1  UNL     1      35.536  68.551  22.214  1.00  0.00    -0.068 N
ATOM     18  H13 UNL     1      34.771  69.217  22.106  1.00  0.00     0.275 HD
ATOM     19  H12 UNL     1      35.479  68.371  23.216  1.00  0.00     0.275 HD
ATOM     20  H11 UNL     1      36.424  69.000  21.991  1.00  0.00     0.275 HD
ENDBRANCH  12  17
ENDBRANCH   7   8
ENDBRANCH   3   7
BRANCH   4  21
HETATM   21  O7  UNL     1      33.947  66.652  16.773  1.00  0.00    -0.388 OA
ATOM     22  H7  UNL     1      33.938  65.905  16.187  1.00  0.00     0.210 HD
ENDBRANCH   4  21
BRANCH   1  23
HETATM   23  O1  UNL     1      37.051  70.854  16.778  1.00  0.00    -0.363 OA
HETATM   24  C1  UNL     1      37.014  71.572  17.991  1.00  0.00     0.204 C
ENDBRANCH   1  23
BRANCH   5  25
HETATM   25  O8  UNL     1      34.283  67.916  14.708  1.00  0.00    -0.390 OA
ATOM     26  H8  UNL     1      33.667  68.513  15.115  1.00  0.00     0.210 HD
ENDBRANCH   5  25
BRANCH   6  27
HETATM   27  O9  UNL     1      37.505  69.028  15.113  1.00  0.00    -0.388 OA
ATOM     28  H9  UNL     1      37.576  69.321  14.212  1.00  0.00     0.210 HD
ENDBRANCH   6  27
TORSDOF 9
ENDMDL