MODEL 5
REMARK VINA RESULT: -6.403209938      3.081      5.240
REMARK  8 active torsions:
REMARK  status: ('A' for Active; 'I' for Inactive)
REMARK    1  A    between atoms: C3_4  and  O2_5
REMARK    2  A    between atoms: O2_5  and  C4_6
REMARK    3  A    between atoms: C5_9  and  O5_10
REMARK    4  A    between atoms: C6_12  and  O6_13
REMARK    5  A    between atoms: C7_15  and  O7_16
REMARK    6  A    between atoms: C8_18  and  O8_19
REMARK    7  A    between atoms: C9_21  and  O9_22
REMARK    8  A    between atoms: C10_24  and  O10_25
ROOT
HETATM    1  C1  UNL     1      35.912  68.502  21.273  1.00  0.00     0.042 C
HETATM    2  C2  UNL     1      34.683  68.098  20.459  1.00  0.00     0.152 C
HETATM    3  O1  UNL     1      33.522  68.255  21.131  1.00  0.00    -0.351 OA
HETATM    4  C3  UNL     1      32.831  67.141  21.498  1.00  0.00     0.294 C
HETATM    5  C8  UNL     1      33.646  65.935  21.827  1.00  0.00     0.204 C
HETATM    6  C9  UNL     1      34.692  65.609  20.793  1.00  0.00     0.183 C
HETATM    7  C10 UNL     1      34.919  66.754  19.848  1.00  0.00     0.178 C
ENDROOT
BRANCH   4   8
HETATM    8  O2  UNL     1      31.956  66.807  20.468  1.00  0.00    -0.323 OA
BRANCH   8   9
HETATM    9  C4  UNL     1      31.254  67.911  20.057  1.00  0.00     0.331 C
HETATM   10  O3  UNL     1      31.491  68.077  18.679  1.00  0.00    -0.203 OA
HETATM   11  O4  UNL     1      30.423  68.380  18.015  1.00  0.00    -0.203 OA
HETATM   12  C5  UNL     1      29.733  69.479  18.529  1.00  0.00     0.325 C
HETATM   13  C6  UNL     1      29.159  69.135  19.896  1.00  0.00     0.209 C
HETATM   14  C7  UNL     1      29.761  67.791  20.284  1.00  0.00     0.210 C
BRANCH  12  15
HETATM   15  O5  UNL     1      28.625  69.665  17.669  1.00  0.00    -0.366 OA
ATOM     16  H5  UNL     1      28.958  70.162  16.931  1.00  0.00     0.212 HD
ENDBRANCH  12  15
BRANCH  13  17
HETATM   17  O6  UNL     1      29.686  70.066  20.804  1.00  0.00    -0.388 OA
ATOM     18  H6  UNL     1      29.070  70.787  20.848  1.00  0.00     0.210 HD
ENDBRANCH  13  17
BRANCH  14  19
HETATM   19  O7  UNL     1      29.192  66.807  19.476  1.00  0.00    -0.388 OA
ATOM     20  H7  UNL     1      28.259  66.944  19.357  1.00  0.00     0.210 HD
ENDBRANCH  14  19
ENDBRANCH   8   9
ENDBRANCH   4   8
BRANCH   5  21
HETATM   21  O8  UNL     1      34.203  66.066  23.109  1.00  0.00    -0.388 OA
ATOM     22  H8  UNL     1      33.532  66.318  23.732  1.00  0.00     0.210 HD
ENDBRANCH   5  21
BRANCH   6  23
HETATM   23  O9  UNL     1      34.338  64.490  20.041  1.00  0.00    -0.390 OA
ATOM     24  H9  UNL     1      33.398  64.438  19.915  1.00  0.00     0.210 HD
ENDBRANCH   6  23
BRANCH   7  25
HETATM   25  O10 UNL     1      34.212  66.645  18.670  1.00  0.00    -0.390 OA
ATOM     26  H10 UNL     1      33.498  67.271  18.662  1.00  0.00     0.210 HD
ENDBRANCH   7  25
TORSDOF 8
ENDMDL