MODEL 3
REMARK VINA RESULT: -6.231064218      3.622      5.833
REMARK  8 active torsions:
REMARK  status: ('A' for Active; 'I' for Inactive)
REMARK    1  A    between atoms: O1_1  and  S1_3
REMARK    2  A    between atoms: S1_3  and  C1_4
REMARK    3  A    between atoms: C3_8  and  C4_9
REMARK    4  A    between atoms: C5_10  and  O4_11
REMARK    5  A    between atoms: C6_13  and  O5_14
REMARK    6  A    between atoms: C7_16  and  O6_17
REMARK    7  A    between atoms: C8_19  and  O7_20
REMARK    8  A    between atoms: C9_22  and  O8_23
ROOT
HETATM    1  C4  UNL     1      34.871  68.567  17.719  1.00  0.00     0.104 C
HETATM    2  C5  UNL     1      34.020  67.595  16.955  1.00  0.00     0.161 C
HETATM    3  C6  UNL     1      33.784  68.240  15.596  1.00  0.00     0.178 C
HETATM    4  C7  UNL     1      35.065  68.626  14.914  1.00  0.00     0.180 C
HETATM    5  C8  UNL     1      36.296  68.194  15.682  1.00  0.00     0.178 C
HETATM    6  C9  UNL     1      36.240  68.630  17.121  1.00  0.00     0.161 C
ENDROOT
BRANCH   1   7
HETATM    7  C3  UNL     1      34.895  68.323  19.196  1.00  0.00     0.275 C
HETATM    8  O3  UNL     1      35.489  69.328  19.932  1.00  0.00    -0.336 OA
HETATM    9  C2  UNL     1      35.157  69.102  21.270  1.00  0.00     0.345 C
HETATM   10  O2  UNL     1      35.499  67.837  21.707  1.00  0.00    -0.326 OA
HETATM   11  C1  UNL     1      35.175  66.828  20.825  1.00  0.00     0.357 C
HETATM   12  O9  UNL     1      35.530  67.136  19.502  1.00  0.00    -0.319 OA
BRANCH  11  13
HETATM   13  S1  UNL     1      33.392  66.457  20.819  1.00  0.00     0.047 SA
BRANCH  13  14
HETATM   14  O1  UNL     1      32.964  65.437  19.512  1.00  0.00    -0.326 OA
ATOM     15  H1  UNL     1      32.393  64.731  19.792  1.00  0.00     0.228 HD
ENDBRANCH  13  14
ENDBRANCH  11  13
ENDBRANCH   1   7
BRANCH   2  16
HETATM   16  O4  UNL     1      34.568  66.331  16.854  1.00  0.00    -0.392 OA
ATOM     17  H4  UNL     1      33.968  65.678  16.516  1.00  0.00     0.210 HD
ENDBRANCH   2  16
BRANCH   6  18
HETATM   18  O8  UNL     1      36.697  69.955  17.157  1.00  0.00    -0.392 OA
ATOM     19  H8  UNL     1      36.554  70.357  16.308  1.00  0.00     0.210 HD
ENDBRANCH   6  18
BRANCH   3  20
HETATM   20  O5  UNL     1      33.088  69.430  15.868  1.00  0.00    -0.390 OA
ATOM     21  H5  UNL     1      33.756  70.057  16.121  1.00  0.00     0.210 HD
ENDBRANCH   3  20
BRANCH   5  22
HETATM   22  O7  UNL     1      37.368  68.866  15.069  1.00  0.00    -0.390 OA
ATOM     23  H7  UNL     1      37.900  69.193  15.786  1.00  0.00     0.210 HD
ENDBRANCH   5  22
BRANCH   4  24
HETATM   24  O6  UNL     1      35.090  68.007  13.658  1.00  0.00    -0.390 OA
ATOM     25  H6  UNL     1      35.695  67.276  13.704  1.00  0.00     0.210 HD
ENDBRANCH   4  24
TORSDOF 8
ENDMDL