MODEL 4
REMARK VINA RESULT: -8.017566592      1.595      2.050
REMARK  8 active torsions:
REMARK  status: ('A' for Active; 'I' for Inactive)
REMARK    1  A    between atoms: C2_2  and  C4_4
REMARK    2  A    between atoms: C6_6  and  N1_7
REMARK    3  A    between atoms: C9_12  and  C10_13
REMARK    4  A    between atoms: C10_13  and  N2_14
REMARK    5  A    between atoms: N2_14  and  C11_15
REMARK    6  A    between atoms: N2_14  and  C16_25
REMARK    7  A    between atoms: C11_15  and  C12_16
REMARK    8  A    between atoms: C21_30  and  O5_31
ROOT
HETATM    1  C12 UNL     1     -52.500  22.091  29.411  1.00  0.00     0.209 C
HETATM    2  O3  UNL     1     -52.768  21.315  28.286  1.00  0.00    -0.290 OA
HETATM    3  C13 UNL     1     -51.570  20.868  27.756  1.00  0.00     0.362 C
HETATM    4  O4  UNL     1     -51.395  20.055  26.799  1.00  0.00    -0.238 OA
HETATM    5  N3  UNL     1     -50.486  21.461  28.455  1.00  0.00    -0.317 N
ATOM      6  H3  UNL     1     -49.496  21.261  28.309  1.00  0.00     0.166 HD
HETATM    7  C14 UNL     1     -51.032  22.402  29.414  1.00  0.00     0.228 C
HETATM    8  C15 UNL     1     -50.513  22.180  30.757  1.00  0.00     0.087 C
HETATM    9  N4  UNL     1     -50.077  22.006  31.824  1.00  0.00    -0.195 NA
ENDROOT
BRANCH   1  10
HETATM   10  C11 UNL     1     -53.326  23.373  29.480  1.00  0.00     0.099 C
BRANCH  10  11
HETATM   11  N2  UNL     1     -54.228  23.483  30.522  1.00  0.00    -0.360 N
BRANCH  11  12
HETATM   12  C10 UNL     1     -55.069  22.468  30.963  1.00  0.00     0.102 C
BRANCH  12  13
HETATM   13  C9  UNL     1     -56.258  22.119  30.188  1.00  0.00    -0.014 A
HETATM   14  C4  UNL     1     -56.799  20.857  30.278  1.00  0.00    -0.041 A
HETATM   15  C5  UNL     1     -57.942  20.499  29.558  1.00  0.00     0.044 A
HETATM   16  C6  UNL     1     -58.572  21.381  28.740  1.00  0.00     0.103 A
HETATM   17  C7  UNL     1     -58.053  22.650  28.634  1.00  0.00     0.037 A
HETATM   18  C8  UNL     1     -56.907  23.000  29.358  1.00  0.00     0.016 A
BRANCH  14  19
HETATM   19  C2  UNL     1     -56.214  19.826  31.157  1.00  0.00     0.011 C
HETATM   20  C1  UNL     1     -55.389  18.825  30.351  1.00  0.00     0.015 C
HETATM   21  C3  UNL     1     -57.350  18.974  31.739  1.00  0.00     0.015 C
ENDBRANCH  14  19
BRANCH  16  22
HETATM   22  N1  UNL     1     -59.749  20.989  28.009  1.00  0.00    -0.116 N
HETATM   23  O1  UNL     1     -59.684  20.785  26.789  1.00  0.00    -0.532 OA
HETATM   24  O2  UNL     1     -60.931  20.839  28.650  1.00  0.00    -0.532 OA
ENDBRANCH  16  22
ENDBRANCH  12  13
ENDBRANCH  11  12
BRANCH  11  25
HETATM   25  C16 UNL     1     -54.048  24.549  31.431  1.00  0.00     0.117 C
HETATM   26  C17 UNL     1     -55.344  25.178  31.906  1.00  0.00     0.028 C
HETATM   27  C18 UNL     1     -54.963  26.472  32.612  1.00  0.00     0.002 C
HETATM   28  C19 UNL     1     -54.200  26.209  33.883  1.00  0.00     0.003 C
HETATM   29  C20 UNL     1     -53.858  24.756  33.938  1.00  0.00     0.034 C
HETATM   30  C21 UNL     1     -53.205  24.280  32.632  1.00  0.00     0.141 C
BRANCH  30  31
HETATM   31  O5  UNL     1     -52.869  22.953  32.830  1.00  0.00    -0.393 OA
ATOM     32  H5  UNL     1     -53.598  22.345  32.815  1.00  0.00     0.210 HD
ENDBRANCH  30  31
ENDBRANCH  11  25
ENDBRANCH  10  11
ENDBRANCH   1  10
TORSDOF 8
ENDMDL