MODEL 4
REMARK VINA RESULT: -7.608865616      2.840      4.404
REMARK  7 active torsions:
REMARK  status: ('A' for Active; 'I' for Inactive)
REMARK    1  A    between atoms: N1_2  and  N2_3
REMARK    2  A    between atoms: N1_2  and  C12_23
REMARK       I    between atoms: N2_3  and  C2_5
REMARK    3  A    between atoms: C2_5  and  C3_7
REMARK    4  A    between atoms: C3_7  and  S1_8
REMARK    5  A    between atoms: S1_8  and  C4_9
REMARK    6  A    between atoms: C6_14  and  C7_15
REMARK    7  A    between atoms: N4_19  and  C9_20
ROOT
HETATM    1  C3  UNL     1     -53.526  20.673  30.093  1.00  0.00     0.186 C
ENDROOT
BRANCH   1   2
HETATM    2  C2  UNL     1     -52.244  21.367  30.346  1.00  0.00     0.245 C
HETATM    3  N2  UNL     1     -51.009  20.808  29.933  1.00  0.00    -0.272 N
ATOM      4  H2  UNL     1     -51.052  19.907  29.456  1.00  0.00     0.189 HD
HETATM    5  O1  UNL     1     -52.314  22.479  30.949  1.00  0.00    -0.271 OA
BRANCH   3   6
HETATM    6  N1  UNL     1     -49.770  21.346  30.105  1.00  0.00    -0.325 N
HETATM    7  C1  UNL     1     -49.352  22.315  29.199  1.00  0.00     0.171 C
BRANCH   6   8
HETATM    8  C12 UNL     1     -48.911  20.811  31.069  1.00  0.00     0.102 C
HETATM    9  C13 UNL     1     -49.290  19.467  31.609  1.00  0.00     0.027 C
HETATM   10  C14 UNL     1     -48.337  18.911  32.605  1.00  0.00     0.002 C
HETATM   11  C15 UNL     1     -49.012  18.476  33.878  1.00  0.00     0.000 C
HETATM   12  C16 UNL     1     -48.524  19.204  35.098  1.00  0.00     0.000 C
HETATM   13  C17 UNL     1     -48.383  20.700  34.909  1.00  0.00     0.000 C
HETATM   14  C18 UNL     1     -49.599  21.305  34.303  1.00  0.00     0.000 C
HETATM   15  C19 UNL     1     -49.400  22.211  33.147  1.00  0.00     0.002 C
HETATM   16  C20 UNL     1     -48.487  21.820  32.069  1.00  0.00     0.027 C
ENDBRANCH   6   8
ENDBRANCH   3   6
ENDBRANCH   1   2
BRANCH   1  17
HETATM   17  S1  UNL     1     -54.935  21.297  30.971  1.00  0.00    -0.084 SA
BRANCH  17  18
HETATM   18  C4  UNL     1     -56.472  21.221  30.122  1.00  0.00     0.150 A
HETATM   19  N3  UNL     1     -57.036  22.202  29.433  1.00  0.00    -0.303 N
HETATM   20  C5  UNL     1     -58.218  22.068  28.809  1.00  0.00     0.265 A
ATOM     21  H3  UNL     1     -56.552  23.098  29.373  1.00  0.00     0.171 HD
HETATM   22  O2  UNL     1     -58.698  23.018  28.178  1.00  0.00    -0.267 OA
HETATM   23  C6  UNL     1     -58.907  20.877  28.863  1.00  0.00     0.124 A
HETATM   24  C8  UNL     1     -58.328  19.858  29.576  1.00  0.00     0.117 A
HETATM   25  N4  UNL     1     -57.141  20.033  30.185  1.00  0.00    -0.332 N
BRANCH  23  26
HETATM   26  C7  UNL     1     -60.200  20.728  28.187  1.00  0.00     0.216 C
HETATM   27  O3  UNL     1     -60.228  20.141  27.077  1.00  0.00    -0.644 OA
HETATM   28  O4  UNL     1     -61.367  21.198  28.718  1.00  0.00    -0.644 OA
ENDBRANCH  23  26
BRANCH  25  29
HETATM   29  C9  UNL     1     -56.622  18.882  30.897  1.00  0.00     0.091 A
HETATM   30  C10 UNL     1     -56.515  17.599  30.156  1.00  0.00     0.028 A
HETATM   31  C11 UNL     1     -57.556  17.794  31.240  1.00  0.00     0.028 A
ENDBRANCH  25  29
ENDBRANCH  17  18
ENDBRANCH   1  17
TORSDOF 7
ENDMDL