MODEL 1
REMARK VINA RESULT: -7.613529978      0.000      0.000
REMARK  8 active torsions:
REMARK  status: ('A' for Active; 'I' for Inactive)
REMARK    1  A    between atoms: C2_2  and  O1_3
REMARK    2  A    between atoms: O1_3  and  C3_4
REMARK    3  A    between atoms: C3_4  and  C4_5
REMARK    4  A    between atoms: C3_4  and  N4_30
REMARK    5  A    between atoms: C6_8  and  N1_9
REMARK    6  A    between atoms: N1_9  and  C7_11
REMARK    7  A    between atoms: C8_12  and  N2_13
REMARK    8  A    between atoms: N2_13  and  C9_15
ROOT
HETATM    1  C7  UNL     1     -51.694  20.653  29.542  1.00  0.00     0.120 A
HETATM    2  C8  UNL     1     -53.038  20.873  29.791  1.00  0.00     0.114 A
HETATM    3  C18 UNL     1     -53.043  21.992  28.987  1.00  0.00     0.252 A
HETATM    4  O2  UNL     1     -53.848  22.877  28.595  1.00  0.00    -0.281 OA
HETATM    5  C19 UNL     1     -51.707  21.775  28.740  1.00  0.00     0.253 A
HETATM    6  O3  UNL     1     -50.793  22.331  28.063  1.00  0.00    -0.281 OA
ENDROOT
BRANCH   1   7
HETATM    7  N1  UNL     1     -50.712  19.676  29.947  1.00  0.00    -0.331 N
ATOM      8  H1  UNL     1     -50.632  18.766  29.494  1.00  0.00     0.168 HD
BRANCH   7   9
HETATM    9  C6  UNL     1     -49.926  20.038  30.943  1.00  0.00     0.149 A
HETATM   10  S1  UNL     1     -49.637  21.590  31.577  1.00  0.00    -0.064 SA
HETATM   11  C5  UNL     1     -48.530  21.156  32.799  1.00  0.00     0.083 A
HETATM   12  C4  UNL     1     -48.445  19.802  32.645  1.00  0.00     0.066 A
HETATM   13  N3  UNL     1     -49.160  19.248  31.695  1.00  0.00    -0.336 N
ATOM     14  H3  UNL     1     -49.131  18.240  31.538  1.00  0.00     0.168 HD
BRANCH  12  15
HETATM   15  C3  UNL     1     -47.536  18.954  33.561  1.00  0.00     0.269 C
BRANCH  15  16
HETATM   16  O1  UNL     1     -46.454  18.517  32.823  1.00  0.00    -0.362 OA
BRANCH  16  17
HETATM   17  C2  UNL     1     -45.368  19.324  32.746  1.00  0.00     0.166 C
HETATM   18  C1  UNL     1     -44.167  18.939  33.567  1.00  0.00     0.033 C
ENDBRANCH  16  17
ENDBRANCH  15  16
BRANCH  15  19
HETATM   19  N4  UNL     1     -48.286  17.855  34.034  1.00  0.00    -0.391 N
HETATM   20  C20 UNL     1     -47.599  16.647  34.324  1.00  0.00     0.145 C
HETATM   21  C21 UNL     1     -49.297  18.181  34.959  1.00  0.00     0.145 C
ENDBRANCH  15  19
ENDBRANCH  12  15
ENDBRANCH   7   9
ENDBRANCH   1   7
BRANCH   2  22
HETATM   22  N2  UNL     1     -54.041  20.228  30.558  1.00  0.00    -0.380 N
ATOM     23  H2  UNL     1     -53.993  20.318  31.573  1.00  0.00     0.160 HD
BRANCH  22  24
HETATM   24  C9  UNL     1     -55.115  19.462  30.011  1.00  0.00     0.086 C
HETATM   25  C10 UNL     1     -54.963  18.004  30.341  1.00  0.00     0.025 C
HETATM   26  C11 UNL     1     -55.994  17.165  29.625  1.00  0.00     0.003 C
HETATM   27  C12 UNL     1     -57.237  17.931  29.269  1.00  0.00     0.009 C
HETATM   28  C13 UNL     1     -57.565  19.011  30.274  1.00  0.00    -0.043 C
HETATM   29  C14 UNL     1     -57.963  18.422  31.613  1.00  0.00     0.015 C
HETATM   30  C15 UNL     1     -58.775  19.753  29.743  1.00  0.00     0.015 C
HETATM   31  C16 UNL     1     -56.443  20.017  30.403  1.00  0.00     0.012 C
HETATM   32  C17 UNL     1     -56.365  20.500  31.834  1.00  0.00     0.012 C
ENDBRANCH  22  24
ENDBRANCH   2  22
TORSDOF 8
ENDMDL