MODEL 2
REMARK VINA RESULT: -6.766276187      1.132      1.815
REMARK  12 active torsions:
REMARK  status: ('A' for Active; 'I' for Inactive)
REMARK    1  A    between atoms: C4_4  and  C5_5
REMARK    2  A    between atoms: C6_6  and  C7_7
REMARK    3  A    between atoms: C7_7  and  C9_9
REMARK    4  A    between atoms: C9_9  and  C11_11
REMARK    5  A    between atoms: C9_9  and  C20_25
REMARK    6  A    between atoms: C11_11  and  C12_13
REMARK    7  A    between atoms: C12_13  and  O2_14
REMARK    8  A    between atoms: O2_14  and  C13_15
REMARK    9  A    between atoms: C13_15  and  C14_17
REMARK   10  A    between atoms: C14_17  and  O4_19
REMARK   11  A    between atoms: C14_17  and  C16_21
REMARK   12  A    between atoms: C20_25  and  O5_26
ROOT
HETATM    1  C9  UNL     1     -51.129  22.254  30.433  1.00  0.00     0.102 C
HETATM    2  C10 UNL     1     -50.864  23.369  29.389  1.00  0.00     0.034 C
ENDROOT
BRANCH   1   3
HETATM    3  C7  UNL     1     -52.400  22.596  31.129  1.00  0.00    -0.062 C
HETATM    4  C8  UNL     1     -52.341  23.724  32.078  1.00  0.00     0.045 C
BRANCH   3   5
HETATM    5  C6  UNL     1     -53.586  22.596  30.289  1.00  0.00     0.004 C
HETATM    6  C5  UNL     1     -54.682  21.931  30.245  1.00  0.00     0.001 C
BRANCH   6   7
HETATM    7  C4  UNL     1     -55.214  20.867  31.047  1.00  0.00     0.002 C
HETATM    8  C2  UNL     1     -56.463  20.402  30.852  1.00  0.00    -0.088 C
HETATM    9  C1  UNL     1     -57.035  19.311  31.662  1.00  0.00     0.043 C
HETATM   10  C3  UNL     1     -57.256  21.040  29.779  1.00  0.00     0.043 C
ENDBRANCH   6   7
ENDBRANCH   3   5
ENDBRANCH   1   3
BRANCH   1  11
HETATM   11  C11 UNL     1     -50.011  22.361  31.404  1.00  0.00     0.169 C
HETATM   12  O1  UNL     1     -49.050  23.074  31.091  1.00  0.00    -0.294 OA
BRANCH  11  13
HETATM   13  C12 UNL     1     -49.952  21.688  32.709  1.00  0.00     0.258 C
BRANCH  13  14
HETATM   14  O2  UNL     1     -49.297  20.422  32.597  1.00  0.00    -0.312 OA
BRANCH  14  15
HETATM   15  C13 UNL     1     -48.718  19.836  33.709  1.00  0.00     0.294 C
HETATM   16  O3  UNL     1     -49.304  19.943  34.798  1.00  0.00    -0.262 OA
BRANCH  15  17
HETATM   17  C14 UNL     1     -47.434  19.115  33.527  1.00  0.00     0.148 C
HETATM   18  C15 UNL     1     -47.191  18.242  34.729  1.00  0.00     0.057 C
BRANCH  17  19
HETATM   19  O4  UNL     1     -47.461  18.309  32.406  1.00  0.00    -0.379 OA
ATOM     20  H4  UNL     1     -46.883  17.562  32.501  1.00  0.00     0.211 HD
ENDBRANCH  17  19
BRANCH  17  21
HETATM   21  C16 UNL     1     -46.265  20.062  33.395  1.00  0.00    -0.011 C
HETATM   22  C17 UNL     1     -45.005  19.236  33.591  1.00  0.00     0.018 C
HETATM   23  C18 UNL     1     -46.321  21.162  34.440  1.00  0.00     0.018 C
HETATM   24  C19 UNL     1     -46.194  20.725  32.049  1.00  0.00     0.018 C
ENDBRANCH  17  21
ENDBRANCH  15  17
ENDBRANCH  14  15
ENDBRANCH  13  14
ENDBRANCH  11  13
ENDBRANCH   1  11
BRANCH   1  25
HETATM   25  C20 UNL     1     -51.024  20.981  29.703  1.00  0.00     0.209 A
HETATM   26  C21 UNL     1     -51.228  21.041  28.241  1.00  0.00     0.048 A
HETATM   27  C22 UNL     1     -51.978  20.002  27.922  1.00  0.00     0.083 A
HETATM   28  C23 UNL     1     -52.301  19.232  29.114  1.00  0.00     0.285 A
HETATM   29  O6  UNL     1     -53.004  18.170  29.141  1.00  0.00    -0.260 OA
HETATM   30  O7  UNL     1     -51.699  19.879  30.176  1.00  0.00    -0.275 OA
BRANCH  25  31
HETATM   31  O5  UNL     1     -49.631  20.619  29.816  1.00  0.00    -0.361 OA
ATOM     32  H5  UNL     1     -49.602  19.711  29.539  1.00  0.00     0.213 HD
ENDBRANCH  25  31
ENDBRANCH   1  25
TORSDOF 12
ENDMDL