MODEL 4
REMARK VINA RESULT: -7.543862126      1.673      3.256
REMARK  11 active torsions:
REMARK  status: ('A' for Active; 'I' for Inactive)
REMARK    1  A    between atoms: C2_2  and  C3_3
REMARK    2  A    between atoms: C3_3  and  C4_4
REMARK    3  A    between atoms: C4_4  and  C5_6
REMARK    4  A    between atoms: C6_7  and  O2_8
REMARK    5  A    between atoms: C12_15  and  O3_16
REMARK    6  A    between atoms: O3_16  and  C13_17
REMARK    7  A    between atoms: C13_17  and  C14_19
REMARK    8  A    between atoms: C15_20  and  C16_21
REMARK    9  A    between atoms: C18_23  and  O5_24
REMARK   10  A    between atoms: C20_26  and  O6_27
REMARK   11  A    between atoms: C21_29  and  O7_30
ROOT
HETATM    1  O3  UNL     1     -53.027  21.985  30.566  1.00  0.00    -0.312 OA
ENDROOT
BRANCH   1   2
HETATM    2  C12 UNL     1     -51.974  22.323  29.716  1.00  0.00     0.141 C
HETATM    3  C8  UNL     1     -51.995  21.555  28.403  1.00  0.00     0.018 C
HETATM    4  C7  UNL     1     -51.987  20.092  28.686  1.00  0.00     0.039 C
HETATM    5  C9  UNL     1     -50.621  21.919  27.838  1.00  0.00     0.008 C
HETATM    6  C6  UNL     1     -50.778  19.642  29.436  1.00  0.00     0.130 C
HETATM    7  C5  UNL     1     -50.583  20.464  30.681  1.00  0.00     0.091 C
HETATM    8  C11 UNL     1     -50.623  21.930  30.263  1.00  0.00     0.029 C
HETATM    9  C10 UNL     1     -49.733  22.159  29.040  1.00  0.00     0.008 C
BRANCH   6  10
HETATM   10  O2  UNL     1     -50.991  18.281  29.759  1.00  0.00    -0.395 OA
ATOM     11  H2  UNL     1     -50.383  17.723  29.290  1.00  0.00     0.210 HD
ENDBRANCH   6  10
BRANCH   7  12
HETATM   12  C4  UNL     1     -49.321  20.211  31.381  1.00  0.00     0.137 C
HETATM   13  O1  UNL     1     -48.755  19.133  31.311  1.00  0.00    -0.297 OA
BRANCH  12  14
HETATM   14  C3  UNL     1     -48.661  21.261  32.216  1.00  0.00     0.105 C
BRANCH  14  15
HETATM   15  C2  UNL     1     -47.188  21.236  32.041  1.00  0.00    -0.029 C
HETATM   16  C1  UNL     1     -46.627  22.006  31.130  1.00  0.00     0.007 C
ENDBRANCH  14  15
ENDBRANCH  12  14
ENDBRANCH   7  12
ENDBRANCH   1   2
BRANCH   1  17
HETATM   17  C13 UNL     1     -54.259  22.618  30.359  1.00  0.00     0.283 C
HETATM   18  O4  UNL     1     -54.307  23.874  30.322  1.00  0.00    -0.260 OA
BRANCH  17  19
HETATM   19  C14 UNL     1     -55.485  21.867  30.186  1.00  0.00     0.083 C
HETATM   20  C15 UNL     1     -55.625  20.687  30.730  1.00  0.00     0.017 C
BRANCH  20  21
HETATM   21  C16 UNL     1     -56.804  19.847  30.624  1.00  0.00    -0.031 A
HETATM   22  C17 UNL     1     -57.740  20.073  29.640  1.00  0.00     0.051 A
HETATM   23  C18 UNL     1     -58.865  19.280  29.528  1.00  0.00     0.104 A
HETATM   24  C20 UNL     1     -59.052  18.239  30.427  1.00  0.00     0.133 A
HETATM   25  C21 UNL     1     -58.136  17.993  31.416  1.00  0.00     0.104 A
HETATM   26  C23 UNL     1     -57.009  18.814  31.499  1.00  0.00     0.051 A
BRANCH  23  27
HETATM   27  O5  UNL     1     -59.817  19.494  28.544  1.00  0.00    -0.353 OA
HETATM   28  C19 UNL     1     -59.478  20.100  27.319  1.00  0.00     0.210 C
ENDBRANCH  23  27
BRANCH  24  29
HETATM   29  O6  UNL     1     -60.179  17.415  30.347  1.00  0.00    -0.356 OA
ATOM     30  H6  UNL     1     -60.477  17.076  29.511  1.00  0.00     0.218 HD
ENDBRANCH  24  29
BRANCH  25  31
HETATM   31  O7  UNL     1     -58.329  16.937  32.324  1.00  0.00    -0.353 OA
HETATM   32  C22 UNL     1     -59.198  17.137  33.445  1.00  0.00     0.210 C
ENDBRANCH  25  31
ENDBRANCH  20  21
ENDBRANCH  17  19
ENDBRANCH   1  17
TORSDOF 11
ENDMDL