MODEL 5
REMARK VINA RESULT: -6.703896631      1.938      4.031
REMARK  10 active torsions:
REMARK  status: ('A' for Active; 'I' for Inactive)
REMARK    1  A    between atoms: C3_3  and  C4_4
REMARK    2  A    between atoms: C5_5  and  C6_6
REMARK    3  A    between atoms: C6_6  and  C8_8
REMARK    4  A    between atoms: C11_11  and  O1_12
REMARK    5  A    between atoms: O1_12  and  C12_13
REMARK    6  A    between atoms: C12_13  and  C13_15
REMARK    7  A    between atoms: C13_15  and  C14_16
REMARK    8  A    between atoms: C14_16  and  C15_17
REMARK    9  A    between atoms: C21_25  and  O5_26
REMARK   10  A    between atoms: C23_30  and  O7_31
ROOT
HETATM    1  C8  UNL     1     -50.930  23.978  30.405  1.00  0.00     0.035 C
HETATM    2  C9  UNL     1     -50.766  22.575  30.880  1.00  0.00     0.048 C
HETATM    3  C10 UNL     1     -52.068  21.845  30.946  1.00  0.00     0.025 C
HETATM    4  C11 UNL     1     -52.549  21.086  29.984  1.00  0.00     0.150 C
HETATM    5  C18 UNL     1     -51.752  20.943  28.770  1.00  0.00     0.317 C
HETATM    6  O3  UNL     1     -52.181  20.230  27.825  1.00  0.00    -0.257 OA
HETATM    7  O4  UNL     1     -50.535  21.631  28.738  1.00  0.00    -0.310 OA
HETATM    8  C19 UNL     1     -49.840  21.814  29.983  1.00  0.00     0.145 C
HETATM    9  C20 UNL     1     -48.518  22.356  29.705  1.00  0.00     0.104 C
HETATM   10  C21 UNL     1     -48.126  23.649  30.310  1.00  0.00     0.193 C
HETATM   11  O6  UNL     1     -48.769  23.998  31.457  1.00  0.00    -0.344 OA
HETATM   12  C22 UNL     1     -49.653  24.741  30.683  1.00  0.00     0.164 C
HETATM   13  C23 UNL     1     -48.728  24.777  29.497  1.00  0.00     0.209 C
ENDROOT
BRANCH   4  14
HETATM   14  O1  UNL     1     -53.767  20.421  30.073  1.00  0.00    -0.273 OA
BRANCH  14  15
HETATM   15  C12 UNL     1     -54.968  21.045  30.293  1.00  0.00     0.264 C
HETATM   16  O2  UNL     1     -55.279  22.019  29.562  1.00  0.00    -0.265 OA
BRANCH  15  17
HETATM   17  C13 UNL     1     -55.934  20.644  31.347  1.00  0.00     0.112 C
BRANCH  17  18
HETATM   18  C14 UNL     1     -57.047  19.801  30.777  1.00  0.00     0.013 C
BRANCH  18  19
HETATM   19  C15 UNL     1     -56.873  18.400  31.383  1.00  0.00    -0.022 C
HETATM   20  C16 UNL     1     -56.248  17.521  30.334  1.00  0.00     0.009 C
HETATM   21  C17 UNL     1     -58.186  17.877  31.881  1.00  0.00     0.009 C
ENDBRANCH  18  19
ENDBRANCH  17  18
ENDBRANCH  15  17
ENDBRANCH  14  15
ENDBRANCH   4  14
BRANCH   1  22
HETATM   22  C6  UNL     1     -52.119  24.710  31.013  1.00  0.00     0.011 C
HETATM   23  C7  UNL     1     -52.770  25.465  29.902  1.00  0.00     0.015 C
BRANCH  22  24
HETATM   24  C5  UNL     1     -51.796  25.417  32.234  1.00  0.00    -0.022 C
HETATM   25  C4  UNL     1     -51.812  25.094  33.483  1.00  0.00    -0.004 C
BRANCH  25  26
HETATM   26  C3  UNL     1     -52.162  23.891  34.161  1.00  0.00    -0.005 C
HETATM   27  C2  UNL     1     -51.255  23.147  34.818  1.00  0.00    -0.031 C
HETATM   28  C1  UNL     1     -49.860  23.629  34.808  1.00  0.00     0.036 C
ENDBRANCH  25  26
ENDBRANCH  22  24
ENDBRANCH   1  22
BRANCH  13  29
HETATM   29  O7  UNL     1     -49.253  24.348  28.299  1.00  0.00    -0.387 OA
ATOM     30  H7  UNL     1     -48.631  23.846  27.784  1.00  0.00     0.210 HD
ENDBRANCH  13  29
BRANCH  10  31
HETATM   31  O5  UNL     1     -46.750  23.844  30.425  1.00  0.00    -0.363 OA
ATOM     32  H5  UNL     1     -46.406  23.732  31.302  1.00  0.00     0.213 HD
ENDBRANCH  10  31
TORSDOF 10
ENDMDL