MODEL 1
REMARK VINA RESULT: -7.688963785      0.000      0.000
REMARK  9 active torsions:
REMARK  status: ('A' for Active; 'I' for Inactive)
REMARK    1  A    between atoms: C2_2  and  S1_4
REMARK    2  A    between atoms: S1_4  and  C4_5
REMARK    3  A    between atoms: C5_6  and  N1_7
REMARK    4  A    between atoms: N1_7  and  C6_9
REMARK    5  A    between atoms: C11_17  and  S2_18
REMARK    6  A    between atoms: S2_18  and  C12_19
REMARK    7  A    between atoms: C12_19  and  C13_20
REMARK    8  A    between atoms: C13_20  and  O2_21
REMARK    9  A    between atoms: C13_20  and  N3_23
ROOT
HETATM    1  C4  UNL     1     -47.745  20.220  32.745  1.00  0.00     0.113 A
HETATM    2  C5  UNL     1     -48.203  18.911  32.611  1.00  0.00     0.126 A
HETATM    3  N2  UNL     1     -49.158  18.695  31.696  1.00  0.00    -0.322 N
ATOM      4  H2  UNL     1     -49.501  17.740  31.589  1.00  0.00     0.169 HD
HETATM    5  C11 UNL     1     -49.699  19.640  30.907  1.00  0.00     0.149 A
HETATM    6  N4  UNL     1     -49.229  20.885  31.068  1.00  0.00    -0.303 N
ATOM      7  H4  UNL     1     -49.617  21.627  30.487  1.00  0.00     0.171 HD
HETATM    8  C18 UNL     1     -48.275  21.207  31.955  1.00  0.00     0.268 A
HETATM    9  O3  UNL     1     -47.866  22.421  32.062  1.00  0.00    -0.267 OA
ENDROOT
BRANCH   5  10
HETATM   10  S2  UNL     1     -50.975  19.227  29.717  1.00  0.00    -0.086 SA
BRANCH  10  11
HETATM   11  C12 UNL     1     -52.459  20.168  29.959  1.00  0.00     0.166 C
BRANCH  11  12
HETATM   12  C13 UNL     1     -53.669  19.380  29.857  1.00  0.00     0.123 C
BRANCH  12  13
HETATM   13  O2  UNL     1     -53.481  18.169  29.410  1.00  0.00    -0.349 OA
ATOM     14  H2  UNL     1     -54.056  17.926  28.693  1.00  0.00     0.219 HD
ENDBRANCH  12  13
BRANCH  12  15
HETATM   15  N3  UNL     1     -54.984  19.706  30.157  1.00  0.00    -0.365 N
HETATM   16  C14 UNL     1     -56.062  18.643  30.269  1.00  0.00     0.124 C
HETATM   17  C15 UNL     1     -56.887  19.092  31.451  1.00  0.00     0.021 C
HETATM   18  C16 UNL     1     -56.391  20.481  31.778  1.00  0.00     0.021 C
HETATM   19  C17 UNL     1     -55.750  20.883  30.430  1.00  0.00     0.124 C
ENDBRANCH  12  15
ENDBRANCH  11  12
ENDBRANCH  10  11
ENDBRANCH   5  10
BRANCH   2  20
HETATM   20  N1  UNL     1     -47.639  17.868  33.396  1.00  0.00    -0.370 N
ATOM     21  H1  UNL     1     -46.712  17.507  33.168  1.00  0.00     0.161 HD
BRANCH  20  22
HETATM   22  C6  UNL     1     -48.361  17.321  34.503  1.00  0.00     0.087 C
HETATM   23  C7  UNL     1     -47.860  17.729  35.858  1.00  0.00     0.051 C
HETATM   24  C8  UNL     1     -49.000  17.475  36.843  1.00  0.00     0.169 C
HETATM   25  O1  UNL     1     -49.690  16.332  36.443  1.00  0.00    -0.391 OA
HETATM   26  C9  UNL     1     -48.861  15.367  35.877  1.00  0.00     0.169 C
HETATM   27  C10 UNL     1     -48.359  15.792  34.495  1.00  0.00     0.051 C
ENDBRANCH  20  22
ENDBRANCH   2  20
BRANCH   1  28
HETATM   28  S1  UNL     1     -46.493  20.612  33.942  1.00  0.00    -0.117 SA
BRANCH  28  29
HETATM   29  C2  UNL     1     -44.823  20.395  33.349  1.00  0.00     0.044 C
HETATM   30  C1  UNL     1     -44.614  20.666  31.896  1.00  0.00     0.021 C
HETATM   31  C3  UNL     1     -44.251  19.032  33.666  1.00  0.00     0.021 C
ENDBRANCH  28  29
ENDBRANCH   1  28
TORSDOF 9
ENDMDL