MODEL 2
REMARK VINA RESULT: -6.708828622      1.662      2.356
REMARK  10 active torsions:
REMARK  status: ('A' for Active; 'I' for Inactive)
REMARK    1  A    between atoms: C2_2  and  N1_3
REMARK    2  A    between atoms: C3_5  and  C4_6
REMARK    3  A    between atoms: C3_5  and  N3_25
REMARK    4  A    between atoms: C4_6  and  C5_11
REMARK    5  A    between atoms: N2_7  and  O1_9
REMARK    6  A    between atoms: C7_13  and  C8_14
REMARK    7  A    between atoms: C8_14  and  C9_15
REMARK    8  A    between atoms: C10_19  and  C11_20
REMARK    9  A    between atoms: C11_20  and  O5_22
REMARK   10  A    between atoms: O5_22  and  C12_23
ROOT
HETATM    1  C4  UNL     1     -56.415  22.346  29.913  1.00  0.00     0.109 C
HETATM    2  N2  UNL     1     -57.010  23.299  29.343  1.00  0.00    -0.265 N
ATOM      3  H2  UNL     1     -57.917  23.056  28.945  1.00  0.00     0.194 HD
ENDROOT
BRANCH   1   4
HETATM    4  C3  UNL     1     -55.114  22.520  30.534  1.00  0.00     0.133 C
HETATM    5  N1  UNL     1     -54.945  23.035  31.653  1.00  0.00    -0.354 N
ATOM      6  H1  UNL     1     -55.819  23.323  32.092  1.00  0.00     0.166 HD
BRANCH   5   7
HETATM    7  C2  UNL     1     -53.813  23.308  32.447  1.00  0.00     0.058 C
HETATM    8  C1  UNL     1     -53.324  24.737  32.363  1.00  0.00     0.054 C
ENDBRANCH   5   7
BRANCH   4   9
HETATM    9  N3  UNL     1     -53.920  22.091  29.861  1.00  0.00    -0.365 N
HETATM   10  C14 UNL     1     -53.239  22.985  28.957  1.00  0.00     0.124 C
HETATM   11  C15 UNL     1     -51.754  23.150  29.316  1.00  0.00     0.020 C
HETATM   12  C16 UNL     1     -51.134  21.833  29.640  1.00  0.00     0.007 C
HETATM   13  C17 UNL     1     -52.015  20.641  29.454  1.00  0.00    -0.001 C
HETATM   14  C18 UNL     1     -52.078  20.180  28.021  1.00  0.00     0.011 C
HETATM   15  C19 UNL     1     -53.364  20.796  30.107  1.00  0.00     0.128 C
ENDBRANCH   4   9
ENDBRANCH   1   4
BRANCH   1  16
HETATM   16  C5  UNL     1     -57.149  21.024  29.941  1.00  0.00     0.020 A
HETATM   17  C6  UNL     1     -56.819  20.032  30.822  1.00  0.00     0.030 A
HETATM   18  C7  UNL     1     -57.437  18.820  30.703  1.00  0.00    -0.006 A
HETATM   19  S1  UNL     1     -58.461  19.039  29.396  1.00  0.00    -0.087 SA
HETATM   20  C10 UNL     1     -58.086  20.711  29.006  1.00  0.00     0.093 A
BRANCH  18  21
HETATM   21  C8  UNL     1     -57.209  17.596  31.578  1.00  0.00     0.159 C
BRANCH  21  22
HETATM   22  C9  UNL     1     -58.518  17.108  32.017  1.00  0.00     0.177 C
HETATM   23  O2  UNL     1     -59.097  16.207  31.362  1.00  0.00    -0.648 OA
HETATM   24  O3  UNL     1     -59.165  17.603  33.148  1.00  0.00    -0.648 OA
ENDBRANCH  21  22
ENDBRANCH  18  21
BRANCH  20  25
HETATM   25  C11 UNL     1     -58.804  21.438  27.951  1.00  0.00     0.301 C
HETATM   26  O4  UNL     1     -58.815  21.258  26.751  1.00  0.00    -0.259 OA
BRANCH  25  27
HETATM   27  O5  UNL     1     -59.627  22.531  28.370  1.00  0.00    -0.317 OA
BRANCH  27  28
HETATM   28  C12 UNL     1     -60.945  22.212  28.816  1.00  0.00     0.174 C
HETATM   29  C13 UNL     1     -61.572  23.365  29.550  1.00  0.00     0.034 C
ENDBRANCH  27  28
ENDBRANCH  25  27
ENDBRANCH  20  25
ENDBRANCH   1  16
BRANCH   2  30
HETATM   30  O1  UNL     1     -56.655  24.564  29.173  1.00  0.00    -0.289 OA
ATOM     31  H1  UNL     1     -57.179  25.354  29.114  1.00  0.00     0.244 HD
ENDBRANCH   2  30
TORSDOF 10
ENDMDL