MODEL 3
REMARK VINA RESULT: -6.578158765      2.298      5.286
REMARK  10 active torsions:
REMARK  status: ('A' for Active; 'I' for Inactive)
REMARK    1  A    between atoms: C2_2  and  C4_4
REMARK    2  A    between atoms: C5_5  and  C6_6
REMARK    3  A    between atoms: C6_6  and  O1_7
REMARK    4  A    between atoms: C10_13  and  C11_14
REMARK    5  A    between atoms: C11_14  and  O3_15
REMARK    6  A    between atoms: O3_15  and  C12_16
REMARK    7  A    between atoms: C12_16  and  C13_18
REMARK    8  A    between atoms: C13_18  and  C14_19
REMARK    9  A    between atoms: C20_26  and  C21_27
REMARK   10  A    between atoms: C23_30  and  O7_31
ROOT
HETATM    1  C6  UNL     1     -54.742  21.849  30.520  1.00  0.00     0.141 C
HETATM    2  C7  UNL     1     -55.084  22.338  31.877  1.00  0.00     0.126 C
HETATM    3  C8  UNL     1     -54.117  23.263  32.482  1.00  0.00     0.133 C
HETATM    4  O2  UNL     1     -54.490  23.966  33.405  1.00  0.00    -0.298 OA
HETATM    5  C9  UNL     1     -52.710  23.394  32.038  1.00  0.00     0.124 C
HETATM    6  C10 UNL     1     -52.708  23.350  30.532  1.00  0.00     0.149 C
HETATM    7  O5  UNL     1     -51.454  23.492  30.070  1.00  0.00    -0.359 OA
HETATM    8  C17 UNL     1     -50.677  22.377  29.871  1.00  0.00     0.081 C
HETATM    9  C18 UNL     1     -50.273  22.384  28.415  1.00  0.00     0.048 C
HETATM   10  C19 UNL     1     -49.383  22.710  30.648  1.00  0.00     0.048 C
HETATM   11  C20 UNL     1     -51.204  21.109  30.382  1.00  0.00     0.159 C
HETATM   12  O6  UNL     1     -52.570  21.029  30.561  1.00  0.00    -0.341 OA
HETATM   13  C23 UNL     1     -53.320  22.061  30.093  1.00  0.00     0.233 C
ENDROOT
BRANCH   6  14
HETATM   14  C11 UNL     1     -53.544  24.495  30.014  1.00  0.00     0.223 C
BRANCH  14  15
HETATM   15  O3  UNL     1     -53.059  25.748  30.526  1.00  0.00    -0.318 OA
BRANCH  15  16
HETATM   16  C12 UNL     1     -53.927  26.637  31.145  1.00  0.00     0.259 C
HETATM   17  O4  UNL     1     -53.492  27.189  32.196  1.00  0.00    -0.265 OA
BRANCH  16  18
HETATM   18  C13 UNL     1     -55.274  26.973  30.680  1.00  0.00     0.115 C
BRANCH  18  19
HETATM   19  C14 UNL     1     -56.332  26.055  31.283  1.00  0.00    -0.013 C
HETATM   20  C15 UNL     1     -57.261  25.634  30.170  1.00  0.00     0.010 C
HETATM   21  C16 UNL     1     -57.165  26.799  32.302  1.00  0.00     0.010 C
ENDBRANCH  18  19
ENDBRANCH  16  18
ENDBRANCH  15  16
ENDBRANCH  14  15
ENDBRANCH   6  14
BRANCH  13  22
HETATM   22  O7  UNL     1     -53.330  21.965  28.681  1.00  0.00    -0.360 OA
ATOM     23  H7  UNL     1     -54.086  21.430  28.467  1.00  0.00     0.213 HD
ENDBRANCH  13  22
BRANCH   1  24
HETATM   24  C5  UNL     1     -55.006  20.383  30.472  1.00  0.00     0.017 C
HETATM   25  C4  UNL     1     -56.147  19.857  30.884  1.00  0.00     0.005 C
BRANCH  25  26
HETATM   26  C2  UNL     1     -56.412  18.444  30.840  1.00  0.00    -0.072 C
HETATM   27  C1  UNL     1     -55.604  17.603  30.214  1.00  0.00     0.018 C
HETATM   28  C3  UNL     1     -57.619  17.894  31.511  1.00  0.00     0.047 C
ENDBRANCH  25  26
ENDBRANCH   1  24
BRANCH   1  29
HETATM   29  O1  UNL     1     -55.577  22.408  29.535  1.00  0.00    -0.380 OA
ATOM     30  H1  UNL     1     -55.238  23.283  29.390  1.00  0.00     0.211 HD
ENDBRANCH   1  29
BRANCH  11  31
HETATM   31  C21 UNL     1     -50.824  19.866  29.596  1.00  0.00     0.030 C
HETATM   32  C22 UNL     1     -51.894  18.832  29.534  1.00  0.00     0.007 C
ENDBRANCH  11  31
TORSDOF 10
ENDMDL