MODEL 4
REMARK VINA RESULT: -7.751702289      1.724      4.041
REMARK  8 active torsions:
REMARK  status: ('A' for Active; 'I' for Inactive)
REMARK    1  A    between atoms: C2_2  and  C3_3
REMARK    2  A    between atoms: C3_3  and  C4_4
REMARK    3  A    between atoms: C4_4  and  C5_5
REMARK    4  A    between atoms: C7_10  and  C8_11
REMARK    5  A    between atoms: C8_11  and  O2_13
REMARK    6  A    between atoms: O2_13  and  C9_14
REMARK    7  A    between atoms: C9_14  and  C10_15
REMARK       I    between atoms: C10_15  and  N3_17
REMARK       I    between atoms: N3_17  and  C11_19
REMARK       I    between atoms: C11_19  and  N4_21
REMARK    8  A    between atoms: N4_21  and  C12_23
ROOT
HETATM    1  C8  UNL     1     -53.667  21.648  30.415  1.00  0.00     0.298 C
HETATM    2  O1  UNL     1     -52.882  22.023  31.319  1.00  0.00    -0.259 OA
ENDROOT
BRANCH   1   3
HETATM    3  C7  UNL     1     -53.887  20.225  30.147  1.00  0.00     0.098 A
HETATM    4  C5  UNL     1     -53.046  19.353  29.501  1.00  0.00     0.045 A
HETATM    5  N1  UNL     1     -53.700  18.177  29.479  1.00  0.00    -0.297 N
HETATM    6  N2  UNL     1     -54.896  18.288  30.078  1.00  0.00    -0.260 N
ATOM      7  H1  UNL     1     -53.336  17.319  29.064  1.00  0.00     0.187 HD
HETATM    8  C6  UNL     1     -55.033  19.546  30.500  1.00  0.00     0.111 A
HETATM    9  C20 UNL     1     -55.888  17.300  30.272  1.00  0.00     0.114 A
HETATM   10  S1  UNL     1     -56.492  20.094  31.351  1.00  0.00    -0.105 SA
HETATM   11  C18 UNL     1     -57.604  18.684  31.479  1.00  0.00     0.109 A
HETATM   12  C19 UNL     1     -57.033  17.471  30.865  1.00  0.00     0.003 A
BRANCH   4  13
HETATM   13  C4  UNL     1     -51.699  19.562  28.954  1.00  0.00     0.060 C
BRANCH  13  14
HETATM   14  C3  UNL     1     -51.658  20.114  27.565  1.00  0.00     0.006 C
BRANCH  14  15
HETATM   15  C2  UNL     1     -51.274  21.577  27.568  1.00  0.00    -0.004 C
HETATM   16  C1  UNL     1     -50.382  21.923  28.708  1.00  0.00     0.005 C
ENDBRANCH  14  15
ENDBRANCH  13  14
ENDBRANCH   4  13
ENDBRANCH   1   3
BRANCH   1  17
HETATM   17  O2  UNL     1     -54.309  22.609  29.692  1.00  0.00    -0.308 OA
BRANCH  17  18
HETATM   18  C9  UNL     1     -54.997  23.724  30.153  1.00  0.00     0.282 C
BRANCH  18  19
HETATM   19  C10 UNL     1     -56.427  23.775  29.770  1.00  0.00     0.249 C
HETATM   20  O3  UNL     1     -57.078  24.772  30.116  1.00  0.00    -0.271 OA
HETATM   21  N3  UNL     1     -57.001  22.727  29.043  1.00  0.00    -0.277 N
HETATM   22  C11 UNL     1     -58.302  22.556  28.587  1.00  0.00     0.323 C
ATOM     23  H3  UNL     1     -56.362  21.967  28.810  1.00  0.00     0.173 HD
HETATM   24  O4  UNL     1     -58.563  21.472  27.931  1.00  0.00    -0.247 OA
HETATM   25  N4  UNL     1     -59.354  23.468  28.783  1.00  0.00    -0.338 N
ATOM     26  H4  UNL     1     -59.168  24.330  29.296  1.00  0.00     0.164 HD
BRANCH  25  27
HETATM   27  C12 UNL     1     -60.702  23.225  28.277  1.00  0.00     0.086 C
HETATM   28  C13 UNL     1     -61.082  24.135  27.159  1.00  0.00     0.025 C
HETATM   29  C14 UNL     1     -62.349  24.924  27.419  1.00  0.00     0.002 C
HETATM   30  C15 UNL     1     -63.501  24.009  27.787  1.00  0.00     0.000 C
HETATM   31  C16 UNL     1     -63.071  22.961  28.795  1.00  0.00     0.002 C
HETATM   32  C17 UNL     1     -61.718  23.334  29.408  1.00  0.00     0.025 C
ENDBRANCH  25  27
ENDBRANCH  18  19
ENDBRANCH  17  18
ENDBRANCH   1  17
TORSDOF 8
ENDMDL