MODEL 5
REMARK VINA RESULT: -7.147473118      1.741      2.403
REMARK  13 active torsions:
REMARK  status: ('A' for Active; 'I' for Inactive)
REMARK    1  A    between atoms: C2_2  and  C3_3
REMARK    2  A    between atoms: C5_5  and  S1_6
REMARK    3  A    between atoms: S1_6  and  N1_9
REMARK    4  A    between atoms: N1_9  and  C6_11
REMARK    5  A    between atoms: C7_14  and  O3_15
REMARK    6  A    between atoms: C8_17  and  C9_18
REMARK       I    between atoms: C9_18  and  N3_20
REMARK    7  A    between atoms: N3_20  and  N4_22
REMARK    8  A    between atoms: N4_22  and  C10_23
REMARK    9  A    between atoms: C10_23  and  O5_24
REMARK   10  A    between atoms: C10_23  and  C11_26
REMARK   11  A    between atoms: C11_26  and  S2_27
REMARK   12  A    between atoms: S2_27  and  C12_28
REMARK   13  A    between atoms: C14_41  and  C15_42
ROOT
HETATM    1  C6  UNL     1      27.067 -13.749   0.258  1.00  0.00     0.701 C
HETATM    2  N2  UNL     1      26.743 -14.977   0.065  1.00  0.00    -0.196 N
ATOM      3  H2  UNL     1      26.464 -15.224  -0.884  1.00  0.00     0.180 HD
HETATM    4  C7  UNL     1      26.726 -16.041   1.025  1.00  0.00     0.265 C
HETATM    5  C8  UNL     1      26.861 -15.499   2.446  1.00  0.00     0.243 C
HETATM    6  N9  UNL     1      27.979 -14.555   2.346  1.00  0.00    -0.107 NA
HETATM    7  N10 UNL     1      27.448 -13.471   1.652  1.00  0.00    -0.135 N
ATOM      8  H10 UNL     1      27.332 -12.552   2.078  1.00  0.00     0.201 HD
ENDROOT
BRANCH   5   9
HETATM    9  C9  UNL     1      27.172 -16.619   3.377  1.00  0.00     0.272 C
HETATM   10  O4  UNL     1      26.502 -17.670   3.429  1.00  0.00    -0.269 OA
HETATM   11  N3  UNL     1      28.316 -16.467   4.258  1.00  0.00    -0.199 N
ATOM     12  H3  UNL     1      28.854 -15.614   4.108  1.00  0.00     0.205 HD
BRANCH  11  13
HETATM   13  N4  UNL     1      28.779 -17.243   5.220  1.00  0.00    -0.301 NA
BRANCH  13  14
HETATM   14  C10 UNL     1      29.219 -18.165   6.115  1.00  0.00     0.224 C
BRANCH  14  15
HETATM   15  O5  UNL     1      30.574 -18.299   6.236  1.00  0.00    -0.337 OA
ATOM     16  H5  UNL     1      31.092 -17.519   6.071  1.00  0.00     0.220 HD
ENDBRANCH  14  15
BRANCH  14  17
HETATM   17  C11 UNL     1      28.577 -19.116   7.036  1.00  0.00     0.184 C
BRANCH  17  18
HETATM   18  S2  UNL     1      27.735 -20.475   6.337  1.00  0.00    -0.082 SA
BRANCH  18  19
HETATM   19  C12 UNL     1      28.606 -22.025   6.319  1.00  0.00     0.176 A
HETATM   20  N5  UNL     1      29.312 -22.562   7.269  1.00  0.00    -0.263 N
HETATM   21  N6  UNL     1      29.918 -23.658   6.921  1.00  0.00    -0.226 N
ATOM     22  H5  UNL     1      29.385 -22.160   8.203  1.00  0.00     0.190 HD
HETATM   23  N7  UNL     1      29.601 -23.860   5.683  1.00  0.00    -0.226 N
ATOM     24  H6  UNL     1      30.520 -24.240   7.504  1.00  0.00     0.210 HD
HETATM   25  N8  UNL     1      28.776 -22.879   5.201  1.00  0.00    -0.263 N
ATOM     26  H7  UNL     1      29.926 -24.654   5.132  1.00  0.00     0.210 HD
ATOM     27  H8  UNL     1      28.381 -22.785   4.265  1.00  0.00     0.190 HD
ENDBRANCH  18  19
ENDBRANCH  17  18
ENDBRANCH  14  17
ENDBRANCH  13  14
ENDBRANCH  11  13
ENDBRANCH   5   9
BRANCH   4  28
HETATM   28  O3  UNL     1      25.717 -16.910   0.803  1.00  0.00    -0.374 OA
ATOM     29  H3  UNL     1      25.441 -17.348   1.599  1.00  0.00     0.212 HD
ENDBRANCH   4  28
BRANCH   1  30
HETATM   30  N1  UNL     1      27.090 -12.709  -0.664  1.00  0.00    -0.112 N
ATOM     31  H1  UNL     1      27.739 -12.795  -1.446  1.00  0.00     0.197 HD
BRANCH  30  32
HETATM   32  S1  UNL     1      26.136 -11.313  -0.602  1.00  0.00     0.276 S
HETATM   33  O1  UNL     1      26.705 -10.249   0.260  1.00  0.00    -0.200 OA
HETATM   34  O2  UNL     1      26.210 -10.722  -2.054  1.00  0.00    -0.200 OA
BRANCH  32  35
HETATM   35  C5  UNL     1      24.431 -11.622  -0.332  1.00  0.00     0.081 A
HETATM   36  C4  UNL     1      23.509 -11.047  -1.184  1.00  0.00     0.034 A
HETATM   37  C3  UNL     1      22.192 -11.306  -0.954  1.00  0.00    -0.032 A
HETATM   38  C18 UNL     1      21.774 -12.122   0.108  1.00  0.00     0.063 A
HETATM   39  C14 UNL     1      22.669 -12.699   0.961  1.00  0.00    -0.008 A
HETATM   40  N11 UNL     1      20.385 -12.353   0.290  1.00  0.00    -0.101 NA
HETATM   41  C13 UNL     1      24.024 -12.402   0.680  1.00  0.00     0.038 A
BRANCH  37  42
HETATM   42  C2  UNL     1      21.067 -10.875  -1.868  1.00  0.00     0.036 C
HETATM   43  C1  UNL     1      21.691  -9.964  -2.947  1.00  0.00     0.010 C
ENDBRANCH  37  42
BRANCH  39  44
HETATM   44  C15 UNL     1      22.319 -13.455   2.156  1.00  0.00    -0.075 C
HETATM   45  C16 UNL     1      22.314 -12.498   3.390  1.00  0.00     0.044 C
HETATM   46  C17 UNL     1      22.791 -14.794   2.395  1.00  0.00     0.044 C
ENDBRANCH  39  44
ENDBRANCH  32  35
ENDBRANCH  30  32
ENDBRANCH   1  30
TORSDOF 13
ENDMDL