MODEL 2
REMARK VINA RESULT: -5.790411610      1.373      1.577
REMARK  11 active torsions:
REMARK  status: ('A' for Active; 'I' for Inactive)
REMARK    1  A    between atoms: O1_2  and  C2_3
REMARK    2  A    between atoms: C2_3  and  C3_5
REMARK       I    between atoms: N2_8  and  C4_9
REMARK       I    between atoms: C4_9  and  N4_13
REMARK    3  A    between atoms: C5_14  and  S1_15
REMARK    4  A    between atoms: S1_15  and  N5_18
REMARK    5  A    between atoms: N5_18  and  C6_20
REMARK    6  A    between atoms: C11_25  and  N6_26
REMARK    7  A    between atoms: C15_37  and  N9_38
REMARK       I    between atoms: N9_38  and  C16_40
REMARK    8  A    between atoms: C16_40  and  C17_42
REMARK    9  A    between atoms: C17_42  and  N10_43
REMARK   10  A    between atoms: C17_42  and  C18_47
REMARK   11  A    between atoms: C18_47  and  O7_49
ROOT
HETATM    1  C3  UNL     1      26.640 -16.428   2.898  1.00  0.00     0.157 A
HETATM    2  N1  UNL     1      26.389 -15.137   3.153  1.00  0.00    -0.269 N
ATOM      3  H1  UNL     1      26.497 -14.710   4.073  1.00  0.00     0.188 HD
HETATM    4  N2  UNL     1      25.986 -14.480   2.082  1.00  0.00    -0.045 N
HETATM    5  C4  UNL     1      25.654 -13.092   2.058  1.00  0.00     0.709 C
HETATM    6  N3  UNL     1      26.208 -12.306   2.944  1.00  0.00    -0.232 N
ATOM      7  H31 UNL     1      25.971 -11.314   2.927  1.00  0.00     0.174 HD
ATOM      8  H32 UNL     1      26.852 -12.737   3.607  1.00  0.00     0.174 HD
HETATM    9  N4  UNL     1      24.763 -12.495   1.141  1.00  0.00    -0.117 N
HETATM   10  C5  UNL     1      23.404 -12.432   1.371  1.00  0.00     0.174 A
HETATM   11  C9  UNL     1      22.846 -11.784   0.290  1.00  0.00     0.064 A
HETATM   12  C10 UNL     1      23.866 -11.447  -0.609  1.00  0.00     0.056 A
HETATM   13  C11 UNL     1      23.903 -10.809  -1.823  1.00  0.00     0.114 A
HETATM   14  N7  UNL     1      25.085 -10.639  -2.442  1.00  0.00    -0.338 N
ATOM     15  H7  UNL     1      25.120 -10.165  -3.344  1.00  0.00     0.168 HD
HETATM   16  C12 UNL     1      26.234 -11.095  -1.875  1.00  0.00     0.183 A
HETATM   17  N8  UNL     1      26.173 -11.716  -0.689  1.00  0.00    -0.337 N
ATOM     18  H8  UNL     1      27.039 -12.055  -0.270  1.00  0.00     0.168 HD
HETATM   19  C13 UNL     1      25.019 -11.913  -0.026  1.00  0.00     0.145 A
HETATM   20  C14 UNL     1      25.967 -15.365   1.079  1.00  0.00     0.311 A
HETATM   21  O5  UNL     1      25.641 -15.150  -0.112  1.00  0.00    -0.263 OA
HETATM   22  C15 UNL     1      26.376 -16.607   1.562  1.00  0.00     0.140 A
ENDROOT
BRANCH  10  23
HETATM   23  S1  UNL     1      22.563 -13.051   2.739  1.00  0.00     0.276 S
HETATM   24  O3  UNL     1      22.720 -14.570   2.702  1.00  0.00    -0.199 OA
HETATM   25  O4  UNL     1      23.301 -12.643   4.011  1.00  0.00    -0.199 OA
BRANCH  23  26
HETATM   26  N5  UNL     1      20.972 -12.640   2.823  1.00  0.00    -0.310 N
ATOM     27  H5  UNL     1      20.422 -12.618   1.965  1.00  0.00     0.172 HD
BRANCH  26  28
HETATM   28  C6  UNL     1      20.350 -12.319   4.038  1.00  0.00     0.085 C
HETATM   29  C7  UNL     1      19.094 -11.518   3.943  1.00  0.00     0.032 C
HETATM   30  C8  UNL     1      19.934 -13.666   4.688  1.00  0.00     0.032 C
ENDBRANCH  26  28
ENDBRANCH  23  26
ENDBRANCH  10  23
BRANCH   1  31
HETATM   31  C2  UNL     1      27.104 -17.450   3.866  1.00  0.00     0.313 C
HETATM   32  O2  UNL     1      26.415 -18.478   4.058  1.00  0.00    -0.257 OA
BRANCH  31  33
HETATM   33  O1  UNL     1      28.280 -17.292   4.562  1.00  0.00    -0.321 OA
HETATM   34  C1  UNL     1      28.595 -18.084   5.717  1.00  0.00     0.213 C
ENDBRANCH  31  33
ENDBRANCH   1  31
BRANCH  22  35
HETATM   35  N9  UNL     1      26.507 -17.814   0.831  1.00  0.00    -0.319 N
HETATM   36  C16 UNL     1      25.433 -18.719   0.686  1.00  0.00     0.255 C
HETATM   37  O6  UNL     1      24.335 -18.424   1.228  1.00  0.00    -0.271 OA
ATOM     38  H9  UNL     1      27.404 -18.036   0.398  1.00  0.00     0.169 HD
BRANCH  36  39
HETATM   39  C17 UNL     1      25.489 -19.990  -0.052  1.00  0.00     0.302 C
BRANCH  39  40
HETATM   40  N10 UNL     1      24.423 -20.195  -0.979  1.00  0.00    -0.064 N
ATOM     41 3H10 UNL     1      23.576 -20.478  -0.485  1.00  0.00     0.275 HD
ATOM     42 2H10 UNL     1      24.115 -19.303  -1.364  1.00  0.00     0.275 HD
ATOM     43 1H10 UNL     1      24.628 -20.852  -1.731  1.00  0.00     0.275 HD
ENDBRANCH  39  40
BRANCH  39  44
HETATM   44  C18 UNL     1      25.647 -21.186   0.862  1.00  0.00     0.153 C
HETATM   45  C19 UNL     1      24.395 -22.012   0.966  1.00  0.00     0.042 C
BRANCH  44  46
HETATM   46  O7  UNL     1      26.030 -20.772   2.157  1.00  0.00    -0.393 OA
ATOM     47  H7  UNL     1      26.284 -21.520   2.684  1.00  0.00     0.210 HD
ENDBRANCH  44  46
ENDBRANCH  39  44
ENDBRANCH  36  39
ENDBRANCH  22  35
BRANCH  13  48
HETATM   48  N6  UNL     1      22.835 -10.361  -2.391  1.00  0.00    -0.385 N
ATOM     49  H62 UNL     1      22.901  -9.521  -2.966  1.00  0.00     0.157 HD
ATOM     50  H61 UNL     1      21.932 -10.820  -2.278  1.00  0.00     0.157 HD
ENDBRANCH  13  48
TORSDOF 11
ENDMDL