MODEL 2
REMARK VINA RESULT: -7.215740686      1.132      1.662
REMARK  14 active torsions:
REMARK  status: ('A' for Active; 'I' for Inactive)
REMARK    1  A    between atoms: C9_9  and  O1_10
REMARK    2  A    between atoms: C10_12  and  C11_13
REMARK    3  A    between atoms: C11_13  and  C12_14
REMARK    4  A    between atoms: C12_14  and  C13_15
REMARK    5  A    between atoms: C14_18  and  O3_19
REMARK    6  A    between atoms: C17_26  and  O7_27
REMARK    7  A    between atoms: O7_27  and  C18_28
REMARK    8  A    between atoms: C18_28  and  C19_29
REMARK    9  A    between atoms: C19_29  and  O8_30
REMARK   10  A    between atoms: C19_29  and  C20_32
REMARK   11  A    between atoms: C20_32  and  O9_33
REMARK   12  A    between atoms: C22_37  and  C23_38
REMARK   13  A    between atoms: C23_38  and  O11_39
REMARK   14  A    between atoms: C24_41  and  O12_42
ROOT
HETATM    1  C1  UNL     1      22.679 -15.175   2.775  1.00  0.00     0.020 C
HETATM    2  C2  UNL     1      23.030 -14.338   1.859  1.00  0.00    -0.024 C
HETATM    3  C3  UNL     1      22.193 -13.062   2.091  1.00  0.00     0.040 C
HETATM    4  C4  UNL     1      23.186 -12.086   2.617  1.00  0.00     0.019 C
HETATM    5  C5  UNL     1      24.313 -11.735   1.719  1.00  0.00     0.019 C
HETATM    6  C6  UNL     1      24.315 -10.212   1.722  1.00  0.00     0.021 C
HETATM    7  C7  UNL     1      25.660 -12.262   2.203  1.00  0.00     0.033 C
HETATM    8  C8  UNL     1      25.771 -12.549   3.618  1.00  0.00     0.014 C
HETATM    9  C9  UNL     1      26.136 -13.227   1.188  1.00  0.00     0.108 C
HETATM   10  C10 UNL     1      25.810 -12.456  -0.064  1.00  0.00     0.087 C
HETATM   11  C14 UNL     1      24.313 -12.202   0.320  1.00  0.00     0.180 C
HETATM   12  O4  UNL     1      23.750 -13.360  -0.051  1.00  0.00    -0.310 OA
HETATM   13  C15 UNL     1      23.998 -14.487   0.794  1.00  0.00     0.228 C
HETATM   14  O5  UNL     1      23.709 -15.487  -0.123  1.00  0.00    -0.324 OA
HETATM   15  C16 UNL     1      22.671 -16.280  -0.049  1.00  0.00     0.347 C
HETATM   16  O6  UNL     1      22.963 -17.581   0.401  1.00  0.00    -0.314 OA
HETATM   17  C17 UNL     1      24.171 -18.074  -0.013  1.00  0.00     0.414 C
HETATM   18  O10 UNL     1      25.261 -17.218   0.193  1.00  0.00    -0.338 OA
HETATM   19  C21 UNL     1      25.605 -17.063   1.498  1.00  0.00     0.183 C
HETATM   20  C22 UNL     1      25.888 -15.649   1.958  1.00  0.00     0.076 C
HETATM   21  C24 UNL     1      25.462 -14.562   1.067  1.00  0.00     0.158 C
ENDROOT
BRANCH  17  22
HETATM   22  O7  UNL     1      24.153 -18.555  -1.318  1.00  0.00    -0.336 OA
BRANCH  22  23
HETATM   23  C18 UNL     1      23.857 -19.901  -1.346  1.00  0.00     0.207 C
BRANCH  23  24
HETATM   24  C19 UNL     1      24.937 -20.811  -0.868  1.00  0.00     0.165 C
BRANCH  24  25
HETATM   25  O8  UNL     1      26.115 -20.436  -1.536  1.00  0.00    -0.391 OA
ATOM     26  H8  UNL     1      26.715 -20.106  -0.878  1.00  0.00     0.210 HD
ENDBRANCH  24  25
BRANCH  24  27
HETATM   27  C20 UNL     1      24.593 -22.225  -1.322  1.00  0.00     0.198 C
BRANCH  27  28
HETATM   28  O9  UNL     1      25.683 -22.660  -2.102  1.00  0.00    -0.398 OA
ATOM     29  H9  UNL     1      26.416 -22.743  -1.504  1.00  0.00     0.209 HD
ENDBRANCH  27  28
ENDBRANCH  24  27
ENDBRANCH  23  24
ENDBRANCH  22  23
ENDBRANCH  17  22
BRANCH  20  30
HETATM   30  C23 UNL     1      27.326 -15.713   2.391  1.00  0.00     0.174 C
BRANCH  30  31
HETATM   31  O11 UNL     1      28.244 -15.988   1.385  1.00  0.00    -0.400 OA
ATOM     32  H11 UNL     1      28.821 -16.725   1.547  1.00  0.00     0.209 HD
ENDBRANCH  30  31
ENDBRANCH  20  30
BRANCH  21  33
HETATM   33  O12 UNL     1      26.067 -14.996  -0.164  1.00  0.00    -0.380 OA
ATOM     34  H12 UNL     1      26.877 -14.502  -0.104  1.00  0.00     0.211 HD
ENDBRANCH  21  33
BRANCH   9  35
HETATM   35  O1  UNL     1      27.514 -13.316   1.174  1.00  0.00    -0.386 OA
ATOM     36  H1  UNL     1      27.824 -14.046   1.696  1.00  0.00     0.210 HD
ENDBRANCH   9  35
BRANCH  11  37
HETATM   37  O3  UNL     1      23.899 -11.237  -0.611  1.00  0.00    -0.364 OA
ATOM     38  H3  UNL     1      23.727 -11.580  -1.480  1.00  0.00     0.213 HD
ENDBRANCH  11  37
BRANCH  10  39
HETATM   39  C11 UNL     1      26.495 -11.250  -0.452  1.00  0.00     0.022 C
BRANCH  39  40
HETATM   40  C12 UNL     1      26.669 -10.935  -1.908  1.00  0.00     0.100 C
BRANCH  40  41
HETATM   41  C13 UNL     1      28.080 -10.472  -2.179  1.00  0.00     0.231 C
HETATM   42  N1  UNL     1      28.760  -9.558  -1.359  1.00  0.00    -0.062 NA
HETATM   43  O2  UNL     1      28.645 -10.942  -3.191  1.00  0.00    -0.277 OA
ENDBRANCH  40  41
ENDBRANCH  39  40
ENDBRANCH  10  39
TORSDOF 14
ENDMDL