MODEL 2
REMARK VINA RESULT: -5.840242884      3.887      6.616
REMARK  16 active torsions:
REMARK  status: ('A' for Active; 'I' for Inactive)
REMARK    1  A    between atoms: N1_1  and  C1_5
REMARK    2  A    between atoms: C1_5  and  C2_6
REMARK    3  A    between atoms: C3_8  and  O2_9
REMARK    4  A    between atoms: O2_9  and  C4_10
REMARK    5  A    between atoms: C5_11  and  O3_12
REMARK    6  A    between atoms: O3_12  and  C6_13
REMARK    7  A    between atoms: C8_15  and  N2_16
REMARK    8  A    between atoms: C10_21  and  N3_22
REMARK    9  A    between atoms: C11_26  and  O4_27
REMARK   10  A    between atoms: O4_27  and  C12_28
REMARK   11  A    between atoms: C19_36  and  N4_37
REMARK   12  A    between atoms: C20_41  and  C21_42
REMARK   13  A    between atoms: C21_42  and  N5_43
REMARK   14  A    between atoms: C22_47  and  O6_48
REMARK   15  A    between atoms: C23_50  and  N6_51
REMARK   16  A    between atoms: C24_55  and  O7_56
ROOT
HETATM    1  C4  UNL     1      24.306 -12.211   0.373  1.00  0.00     0.190 C
HETATM    2  C5  UNL     1      23.817 -11.227  -0.627  1.00  0.00     0.292 C
HETATM    3  O5  UNL     1      24.832 -11.193  -1.612  1.00  0.00    -0.326 OA
HETATM    4  C19 UNL     1      26.022 -11.212  -0.889  1.00  0.00     0.329 C
HETATM    5  C20 UNL     1      25.768 -11.665   0.506  1.00  0.00     0.101 C
ENDROOT
BRANCH   2   6
HETATM    6  O3  UNL     1      22.559 -11.317  -1.103  1.00  0.00    -0.351 OA
BRANCH   6   7
HETATM    7  C6  UNL     1      21.640 -11.658  -0.121  1.00  0.00     0.157 C
HETATM    8  C7  UNL     1      21.108 -10.425   0.574  1.00  0.00     0.067 C
HETATM    9  C8  UNL     1      19.667 -10.521   0.939  1.00  0.00     0.188 C
HETATM   10  C9  UNL     1      19.190 -11.884   1.330  1.00  0.00     0.068 C
HETATM   11  C10 UNL     1      19.779 -13.012   0.552  1.00  0.00     0.216 C
HETATM   12  C11 UNL     1      20.556 -12.510  -0.686  1.00  0.00     0.181 C
BRANCH   9  13
HETATM   13  N2  UNL     1      19.478  -9.660   2.123  1.00  0.00    -0.075 N
ATOM     14  H23 UNL     1      18.508  -9.605   2.431  1.00  0.00     0.274 HD
ATOM     15  H22 UNL     1      19.861 -10.061   2.979  1.00  0.00     0.274 HD
ATOM     16  H21 UNL     1      19.879  -8.752   1.885  1.00  0.00     0.274 HD
ENDBRANCH   9  13
BRANCH  11  17
HETATM   17  N3  UNL     1      20.764 -13.679   1.382  1.00  0.00    -0.072 N
ATOM     18  H33 UNL     1      21.555 -13.076   1.612  1.00  0.00     0.274 HD
ATOM     19  H32 UNL     1      20.432 -13.840   2.332  1.00  0.00     0.274 HD
ATOM     20  H31 UNL     1      21.051 -14.540   0.916  1.00  0.00     0.274 HD
ENDBRANCH  11  17
BRANCH  12  21
HETATM   21  O4  UNL     1      19.718 -11.749  -1.478  1.00  0.00    -0.376 OA
BRANCH  21  22
HETATM   22  C12 UNL     1      19.390 -12.309  -2.670  1.00  0.00     0.122 C
HETATM   23  C13 UNL     1      20.003 -13.602  -3.048  1.00  0.00     0.032 C
HETATM   24  C14 UNL     1      19.077 -14.232  -4.099  1.00  0.00     0.002 C
HETATM   25  C15 UNL     1      19.539 -14.002  -5.498  1.00  0.00     0.000 C
HETATM   26  C16 UNL     1      19.778 -12.572  -5.871  1.00  0.00     0.000 C
HETATM   27  C17 UNL     1      19.087 -11.572  -4.973  1.00  0.00     0.002 C
HETATM   28  C18 UNL     1      19.877 -11.292  -3.734  1.00  0.00     0.032 C
ENDBRANCH  21  22
ENDBRANCH  12  21
ENDBRANCH   6   7
ENDBRANCH   2   6
BRANCH   1  29
HETATM   29  O2  UNL     1      24.502 -13.501  -0.089  1.00  0.00    -0.348 OA
BRANCH  29  30
HETATM   30  C3  UNL     1      24.439 -14.481   0.922  1.00  0.00     0.291 C
HETATM   31  O1  UNL     1      25.425 -14.333   1.845  1.00  0.00    -0.349 OA
HETATM   32  C2  UNL     1      26.392 -15.245   2.011  1.00  0.00     0.181 C
HETATM   33  C24 UNL     1      25.959 -16.679   1.792  1.00  0.00     0.182 C
HETATM   34  C23 UNL     1      25.308 -16.816   0.441  1.00  0.00     0.247 C
HETATM   35  C22 UNL     1      24.202 -15.818   0.344  1.00  0.00     0.206 C
BRANCH  32  36
HETATM   36  C1  UNL     1      26.846 -15.188   3.478  1.00  0.00     0.264 C
BRANCH  36  37
HETATM   37  N1  UNL     1      28.263 -15.448   3.488  1.00  0.00    -0.077 N
ATOM     38  H13 UNL     1      28.695 -15.356   2.569  1.00  0.00     0.274 HD
ATOM     39  H12 UNL     1      28.802 -14.719   3.957  1.00  0.00     0.274 HD
ATOM     40  H11 UNL     1      28.393 -16.371   3.902  1.00  0.00     0.274 HD
ENDBRANCH  36  37
ENDBRANCH  32  36
BRANCH  33  41
HETATM   41  O7  UNL     1      27.115 -17.461   1.784  1.00  0.00    -0.391 OA
ATOM     42  H7  UNL     1      26.841 -18.364   1.674  1.00  0.00     0.210 HD
ENDBRANCH  33  41
BRANCH  34  43
HETATM   43  N6  UNL     1      26.336 -16.584  -0.559  1.00  0.00    -0.070 N
ATOM     44  H63 UNL     1      25.930 -16.465  -1.488  1.00  0.00     0.274 HD
ATOM     45  H62 UNL     1      26.758 -15.661  -0.450  1.00  0.00     0.274 HD
ATOM     46  H61 UNL     1      27.044 -17.319  -0.555  1.00  0.00     0.274 HD
ENDBRANCH  34  43
BRANCH  35  47
HETATM   47  O6  UNL     1      23.806 -15.677  -0.999  1.00  0.00    -0.388 OA
ATOM     48  H6  UNL     1      24.403 -16.166  -1.553  1.00  0.00     0.210 HD
ENDBRANCH  35  47
ENDBRANCH  29  30
ENDBRANCH   1  29
BRANCH   5  49
HETATM   49  C21 UNL     1      25.834 -10.584   1.544  1.00  0.00     0.241 C
BRANCH  49  50
HETATM   50  N5  UNL     1      25.464 -11.217   2.811  1.00  0.00    -0.079 N
ATOM     51  H53 UNL     1      24.590 -10.865   3.202  1.00  0.00     0.274 HD
ATOM     52  H52 UNL     1      25.171 -12.189   2.711  1.00  0.00     0.274 HD
ATOM     53  H51 UNL     1      26.264 -11.095   3.432  1.00  0.00     0.274 HD
ENDBRANCH  49  50
ENDBRANCH   5  49
BRANCH   4  54
HETATM   54  N4  UNL     1      27.019 -11.991  -1.594  1.00  0.00    -0.052 N
ATOM     55  H43 UNL     1      26.812 -12.067  -2.590  1.00  0.00     0.277 HD
ATOM     56  H42 UNL     1      27.909 -11.499  -1.663  1.00  0.00     0.277 HD
ATOM     57  H41 UNL     1      27.123 -12.907  -1.154  1.00  0.00     0.277 HD
ENDBRANCH   4  54
TORSDOF 16
ENDMDL