MODEL 5
REMARK VINA RESULT: -7.787285603      3.578      5.692
REMARK  12 active torsions:
REMARK  status: ('A' for Active; 'I' for Inactive)
REMARK    1  A    between atoms: C5_9  and  C6_10
REMARK    2  A    between atoms: C6_10  and  O3_11
REMARK    3  A    between atoms: C6_10  and  N2_13
REMARK    4  A    between atoms: N2_13  and  N3_14
REMARK    5  A    between atoms: N3_14  and  C7_16
REMARK    6  A    between atoms: C7_16  and  C8_17
REMARK    7  A    between atoms: C9_18  and  C10_19
REMARK       I    between atoms: C10_19  and  N4_21
REMARK    8  A    between atoms: N4_21  and  N5_23
REMARK    9  A    between atoms: N7_28  and  S1_29
REMARK   10  A    between atoms: S1_29  and  C11_32
REMARK   11  A    between atoms: C11_32  and  C12_33
REMARK   12  A    between atoms: C15_36  and  C16_37
ROOT
HETATM    1  C8  UNL     1      26.488 -15.281   0.942  1.00  0.00     0.086 A
HETATM    2  C9  UNL     1      27.019 -14.850   2.138  1.00  0.00     0.136 A
HETATM    3  N6  UNL     1      26.098 -13.983   2.620  1.00  0.00    -0.275 N
ATOM      4  H6  UNL     1      26.195 -13.482   3.503  1.00  0.00     0.188 HD
HETATM    5  N7  UNL     1      25.060 -13.861   1.816  1.00  0.00    -0.141 N
HETATM    6  C18 UNL     1      25.253 -14.652   0.747  1.00  0.00     0.290 A
HETATM    7  O7  UNL     1      24.517 -14.828  -0.243  1.00  0.00    -0.264 OA
ENDROOT
BRANCH   1   8
HETATM    8  C7  UNL     1      27.106 -16.218   0.012  1.00  0.00     0.140 C
BRANCH   8   9
HETATM    9  N3  UNL     1      26.438 -17.101  -0.597  1.00  0.00    -0.243 N
ATOM     10  H3  UNL     1      26.086 -16.767  -1.494  1.00  0.00     0.201 HD
BRANCH   9  11
HETATM   11  N2  UNL     1      26.088 -18.337  -0.358  1.00  0.00    -0.298 NA
BRANCH  11  12
HETATM   12  C6  UNL     1      25.730 -19.618  -0.121  1.00  0.00     0.269 C
BRANCH  12  13
HETATM   13  C5  UNL     1      24.484 -20.330  -0.487  1.00  0.00     0.158 A
HETATM   14  C4  UNL     1      24.455 -21.379  -1.367  1.00  0.00     0.271 A
HETATM   15  C3  UNL     1      23.189 -21.972  -1.672  1.00  0.00     0.299 A
HETATM   16  O2  UNL     1      25.497 -21.880  -1.950  1.00  0.00    -0.280 OA
HETATM   17  N1  UNL     1      22.093 -21.489  -1.094  1.00  0.00    -0.310 N
HETATM   18  O1  UNL     1      23.174 -22.931  -2.475  1.00  0.00    -0.264 OA
HETATM   19  C2  UNL     1      22.117 -20.465  -0.228  1.00  0.00     0.080 A
ATOM     20  H1  UNL     1      21.194 -21.916  -1.319  1.00  0.00     0.170 HD
HETATM   21  C1  UNL     1      20.900 -19.946   0.417  1.00  0.00     0.089 C
HETATM   22  N11 UNL     1      23.301 -19.924   0.043  1.00  0.00    -0.338 N
ATOM     23  H11 UNL     1      23.324 -19.144   0.699  1.00  0.00     0.167 HD
ENDBRANCH  12  13
BRANCH  12  24
HETATM   24  O3  UNL     1      26.547 -20.415   0.519  1.00  0.00    -0.332 OA
ATOM     25  H3  UNL     1      27.451 -20.194   0.327  1.00  0.00     0.220 HD
ENDBRANCH  12  24
ENDBRANCH  11  12
ENDBRANCH   9  11
ENDBRANCH   8   9
ENDBRANCH   1   8
BRANCH   2  26
HETATM   26  C10 UNL     1      28.261 -15.216   2.795  1.00  0.00     0.288 C
HETATM   27  O4  UNL     1      28.328 -16.211   3.539  1.00  0.00    -0.264 OA
HETATM   28  N4  UNL     1      29.415 -14.420   2.584  1.00  0.00    -0.271 N
ATOM     29  H4  UNL     1      29.385 -13.601   1.977  1.00  0.00     0.189 HD
BRANCH  28  30
HETATM   30  N5  UNL     1      30.616 -14.799   3.243  1.00  0.00    -0.342 N
ATOM     31  H52 UNL     1      30.618 -15.591   3.886  1.00  0.00     0.176 HD
ATOM     32  H51 UNL     1      31.458 -14.257   3.052  1.00  0.00     0.176 HD
ENDBRANCH  28  30
ENDBRANCH   2  26
BRANCH   5  33
HETATM   33  S1  UNL     1      23.718 -12.855   2.144  1.00  0.00     0.257 S
HETATM   34  O5  UNL     1      23.116 -13.170   3.497  1.00  0.00    -0.203 OA
HETATM   35  O6  UNL     1      22.643 -13.112   1.130  1.00  0.00    -0.203 OA
BRANCH  33  36
HETATM   36  C11 UNL     1      24.153 -11.124   2.017  1.00  0.00     0.205 C
BRANCH  36  37
HETATM   37  C12 UNL     1      24.974 -11.045   0.754  1.00  0.00    -0.027 A
HETATM   38  C13 UNL     1      26.332 -10.848   0.811  1.00  0.00     0.012 A
HETATM   39  C14 UNL     1      27.008 -10.758  -0.386  1.00  0.00     0.033 A
HETATM   40  C15 UNL     1      26.413 -10.851  -1.631  1.00  0.00     0.073 A
HETATM   41  N10 UNL     1      25.073 -11.048  -1.606  1.00  0.00    -0.363 N
HETATM   42  C17 UNL     1      24.368 -11.144  -0.466  1.00  0.00     0.096 A
ATOM     43  H10 UNL     1      24.576 -11.127  -2.493  1.00  0.00     0.165 HD
BRANCH  40  44
HETATM   44  C16 UNL     1      27.139 -10.734  -2.894  1.00  0.00     0.137 C
HETATM   45  N8  UNL     1      26.708  -9.954  -3.815  1.00  0.00    -0.386 N
ATOM     46  H82 UNL     1      25.852  -9.422  -3.656  1.00  0.00     0.157 HD
ATOM     47  H81 UNL     1      27.214  -9.873  -4.696  1.00  0.00     0.157 HD
HETATM   48  N9  UNL     1      28.319 -11.467  -3.113  1.00  0.00    -0.081 NA
ENDBRANCH  40  44
ENDBRANCH  36  37
ENDBRANCH  33  36
ENDBRANCH   5  33
TORSDOF 12
ENDMDL