MODEL 5
REMARK VINA RESULT: -6.265585838      2.939      5.526
REMARK  15 active torsions:
REMARK  status: ('A' for Active; 'I' for Inactive)
REMARK    1  A    between atoms: C2_2  and  C3_3
REMARK    2  A    between atoms: C4_5  and  N1_6
REMARK    3  A    between atoms: C5_9  and  C6_10
REMARK    4  A    between atoms: C6_10  and  N2_11
REMARK    5  A    between atoms: N2_11  and  N3_13
REMARK    6  A    between atoms: C7_14  and  C8_15
REMARK    7  A    between atoms: C8_15  and  N4_16
REMARK    8  A    between atoms: C10_19  and  N5_20
REMARK    9  A    between atoms: N5_20  and  C11_22
REMARK   10  A    between atoms: C11_22  and  O3_23
REMARK   11  A    between atoms: C11_22  and  C12_25
REMARK   12  A    between atoms: C15_31  and  O4_32
REMARK   13  A    between atoms: C15_31  and  C16_34
REMARK   14  A    between atoms: C19_39  and  C20_40
REMARK   15  A    between atoms: C23_45  and  O8_46
ROOT
HETATM    1  C12 UNL     1      29.213 -17.086   6.372  1.00  0.00     0.177 C
HETATM    2  C13 UNL     1      28.301 -17.813   7.288  1.00  0.00     0.063 C
HETATM    3  N6  UNL     1      27.570 -18.376   7.986  1.00  0.00    -0.197 NA
ENDROOT
BRANCH   1   4
HETATM    4  C11 UNL     1      28.641 -17.229   4.999  1.00  0.00     0.232 C
BRANCH   4   5
HETATM    5  N5  UNL     1      27.974 -16.049   4.507  1.00  0.00    -0.345 N
ATOM      6  H5  UNL     1      28.072 -15.199   5.061  1.00  0.00     0.163 HD
BRANCH   5   7
HETATM    7  C10 UNL     1      27.203 -15.959   3.340  1.00  0.00     0.168 C
HETATM    8  C9  UNL     1      27.515 -14.985   2.268  1.00  0.00     0.290 C
HETATM    9  N4  UNL     1      26.681 -14.923   1.084  1.00  0.00    -0.297 N
HETATM   10  O2  UNL     1      28.501 -14.224   2.401  1.00  0.00    -0.264 OA
HETATM   11  C15 UNL     1      26.067 -16.178   0.746  1.00  0.00     0.244 C
HETATM   12  C14 UNL     1      25.360 -16.692   2.014  1.00  0.00     0.194 C
HETATM   13  N7  UNL     1      26.197 -16.715   3.161  1.00  0.00    -0.367 N
ATOM     14  H7  UNL     1      25.974 -17.388   3.895  1.00  0.00     0.161 HD
BRANCH   9  15
HETATM   15  C8  UNL     1      26.622 -13.672   0.425  1.00  0.00     0.189 C
BRANCH  15  16
HETATM   16  C7  UNL     1      25.750 -12.626   1.004  1.00  0.00     0.052 A
HETATM   17  N3  UNL     1      24.372 -12.581   0.980  1.00  0.00    -0.254 N
HETATM   18  C19 UNL     1      23.978 -11.508   1.634  1.00  0.00     0.121 A
HETATM   19  C18 UNL     1      25.121 -10.840   2.091  1.00  0.00     0.039 A
HETATM   20  C17 UNL     1      26.199 -11.553   1.686  1.00  0.00     0.031 A
BRANCH  17  21
HETATM   21  N2  UNL     1      23.605 -13.560   0.301  1.00  0.00    -0.304 N
ATOM     22  H2  UNL     1      23.843 -14.512   0.575  1.00  0.00     0.186 HD
BRANCH  21  23
HETATM   23  C6  UNL     1      22.613 -13.508  -0.645  1.00  0.00     0.124 C
BRANCH  23  24
HETATM   24  C5  UNL     1      21.596 -12.740  -0.889  1.00  0.00     0.040 A
HETATM   25  C4  UNL     1      20.299 -13.198  -0.578  1.00  0.00     0.154 A
HETATM   26  O1  UNL     1      19.244 -12.477  -0.819  1.00  0.00    -0.291 OA
HETATM   27  C3  UNL     1      19.242 -11.284  -1.361  1.00  0.00     0.107 A
HETATM   28  C23 UNL     1      20.467 -10.749  -1.701  1.00  0.00     0.106 A
HETATM   29  C21 UNL     1      21.642 -11.507  -1.448  1.00  0.00    -0.010 A
HETATM   30  C22 UNL     1      22.888 -10.801  -1.814  1.00  0.00     0.052 C
BRANCH  25  31
HETATM   31  N1  UNL     1      20.099 -14.352  -0.038  1.00  0.00    -0.379 N
ATOM     32  H12 UNL     1      20.871 -14.922   0.307  1.00  0.00     0.158 HD
ATOM     33  H11 UNL     1      19.131 -14.665   0.026  1.00  0.00     0.158 HD
ENDBRANCH  25  31
BRANCH  27  34
HETATM   34  C2  UNL     1      18.094 -10.653  -1.556  1.00  0.00     0.009 C
HETATM   35  C1  UNL     1      17.107 -10.921  -2.599  1.00  0.00     0.039 C
ENDBRANCH  27  34
BRANCH  28  36
HETATM   36  O8  UNL     1      20.539  -9.494  -2.281  1.00  0.00    -0.357 OA
ATOM     37  H8  UNL     1      21.292  -9.256  -2.809  1.00  0.00     0.217 HD
ENDBRANCH  28  36
ENDBRANCH  23  24
ENDBRANCH  21  23
ENDBRANCH  17  21
BRANCH  18  38
HETATM   38  C20 UNL     1      22.678 -10.953   1.938  1.00  0.00     0.283 C
HETATM   39  N8  UNL     1      21.660 -11.775   2.569  1.00  0.00    -0.056 NA
HETATM   40  O7  UNL     1      22.279  -9.806   1.729  1.00  0.00    -0.269 OA
ENDBRANCH  18  38
ENDBRANCH  15  16
ENDBRANCH   9  15
BRANCH  11  41
HETATM   41  O4  UNL     1      25.056 -16.093  -0.217  1.00  0.00    -0.361 OA
ATOM     42  H4  UNL     1      24.174 -16.076   0.135  1.00  0.00     0.213 HD
ENDBRANCH  11  41
BRANCH  11  43
HETATM   43  C16 UNL     1      27.048 -17.229   0.341  1.00  0.00     0.233 C
HETATM   44  O5  UNL     1      27.011 -18.431   0.655  1.00  0.00    -0.644 OA
HETATM   45  O6  UNL     1      28.137 -16.860  -0.476  1.00  0.00    -0.644 OA
ENDBRANCH  11  43
ENDBRANCH   5   7
ENDBRANCH   4   5
BRANCH   4  46
HETATM   46  O3  UNL     1      27.655 -18.238   5.057  1.00  0.00    -0.376 OA
ATOM     47  H3  UNL     1      27.909 -18.812   5.770  1.00  0.00     0.212 HD
ENDBRANCH   4  46
ENDBRANCH   1   4
TORSDOF 15
ENDMDL