MODEL 1
REMARK VINA RESULT: -8.084564047      0.000      0.000
REMARK  10 active torsions:
REMARK  status: ('A' for Active; 'I' for Inactive)
REMARK    1  A    between atoms: N1_1  and  C1_4
REMARK    2  A    between atoms: C3_8  and  C4_9
REMARK    3  A    between atoms: C4_9  and  C5_10
REMARK    4  A    between atoms: C8_13  and  C9_14
REMARK    5  A    between atoms: C9_14  and  N3_15
REMARK       I    between atoms: N3_15  and  C10_17
REMARK    6  A    between atoms: C10_17  and  C11_19
REMARK    7  A    between atoms: N4_21  and  C13_22
REMARK    8  A    between atoms: C14_25  and  C15_26
REMARK    9  A    between atoms: C16_39  and  N12_40
REMARK   10  A    between atoms: C21_49  and  N14_50
ROOT
HETATM    1  C5  UNL     1      27.408 -19.739   7.876  1.00  0.00    -0.009 A
HETATM    2  C6  UNL     1      27.503 -18.323   8.067  1.00  0.00     0.013 A
HETATM    3  C7  UNL     1      28.242 -17.552   7.227  1.00  0.00     0.031 A
HETATM    4  C8  UNL     1      28.912 -18.109   6.181  1.00  0.00     0.049 A
HETATM    5  N11 UNL     1      28.821 -19.436   6.005  1.00  0.00    -0.341 N
ATOM      6  H11 UNL     1      29.319 -19.862   5.223  1.00  0.00     0.167 HD
HETATM    7  C16 UNL     1      28.075 -20.252   6.847  1.00  0.00     0.118 A
ENDROOT
BRANCH   4   8
HETATM    8  C9  UNL     1      29.750 -17.362   5.239  1.00  0.00     0.121 C
BRANCH   8   9
HETATM    9  N3  UNL     1      29.090 -16.306   4.597  1.00  0.00    -0.329 N
HETATM   10  C10 UNL     1      27.953 -16.429   3.787  1.00  0.00     0.275 C
HETATM   11  O1  UNL     1      27.441 -17.547   3.575  1.00  0.00    -0.266 OA
ATOM     12  H3  UNL     1      29.470 -15.369   4.730  1.00  0.00     0.168 HD
BRANCH  10  13
HETATM   13  C11 UNL     1      27.369 -15.231   3.193  1.00  0.00     0.135 A
HETATM   14  C12 UNL     1      27.287 -14.824   1.876  1.00  0.00     0.173 A
HETATM   15  N4  UNL     1      26.670 -13.641   1.786  1.00  0.00    -0.079 N
HETATM   16  N9  UNL     1      26.353 -13.284   3.040  1.00  0.00    -0.221 N
HETATM   17  N10 UNL     1      26.759 -14.211   3.876  1.00  0.00    -0.279 N
ATOM     18  H9  UNL     1      25.871 -12.425   3.303  1.00  0.00     0.209 HD
ATOM     19  H10 UNL     1      26.638 -14.177   4.889  1.00  0.00     0.189 HD
BRANCH  15  20
HETATM   20  C13 UNL     1      26.358 -12.827   0.659  1.00  0.00     0.720 A
HETATM   21  N5  UNL     1      27.205 -12.046  -0.049  1.00  0.00    -0.167 N
HETATM   22  C14 UNL     1      26.551 -11.417  -1.054  1.00  0.00     0.201 A
ATOM     23  H5  UNL     1      28.201 -11.945   0.148  1.00  0.00     0.186 HD
HETATM   24  N7  UNL     1      25.278 -11.832  -0.947  1.00  0.00    -0.266 N
HETATM   25  N8  UNL     1      25.159 -12.673   0.074  1.00  0.00    -0.128 N
ATOM     26  H7  UNL     1      24.515 -11.543  -1.560  1.00  0.00     0.189 HD
ATOM     27  H8  UNL     1      24.295 -13.129   0.368  1.00  0.00     0.205 HD
BRANCH  22  28
HETATM   28  C15 UNL     1      27.143 -10.482  -2.041  1.00  0.00     0.300 C
HETATM   29  N6  UNL     1      28.381  -9.911  -1.741  1.00  0.00    -0.054 NA
HETATM   30  O2  UNL     1      26.465 -10.275  -3.095  1.00  0.00    -0.268 OA
ENDBRANCH  22  28
ENDBRANCH  15  20
ENDBRANCH  10  13
ENDBRANCH   8   9
ENDBRANCH   4   8
BRANCH   7  31
HETATM   31  N12 UNL     1      28.168 -21.629   6.474  1.00  0.00    -0.284 N
HETATM   32  C17 UNL     1      29.000 -22.491   7.266  1.00  0.00     0.144 C
HETATM   33  C18 UNL     1      28.134 -23.708   7.642  1.00  0.00     0.123 C
HETATM   34  C19 UNL     1      27.876 -24.387   6.324  1.00  0.00     0.227 C
HETATM   35  O3  UNL     1      28.193 -25.589   6.121  1.00  0.00    -0.273 OA
HETATM   36  N13 UNL     1      27.260 -23.600   5.320  1.00  0.00    -0.279 N
HETATM   37  C20 UNL     1      27.418 -22.159   5.411  1.00  0.00     0.330 C
ATOM     38  H13 UNL     1      26.725 -24.028   4.564  1.00  0.00     0.173 HD
HETATM   39  O4  UNL     1      26.879 -21.424   4.539  1.00  0.00    -0.246 OA
ENDBRANCH   7  31
BRANCH   1  40
HETATM   40  C4  UNL     1      26.579 -20.468   8.844  1.00  0.00     0.086 C
BRANCH  40  41
HETATM   41  C3  UNL     1      25.163 -20.647   8.538  1.00  0.00     0.006 A
HETATM   42  C2  UNL     1      24.834 -21.838   7.847  1.00  0.00     0.117 A
HETATM   43  N2  UNL     1      23.556 -22.137   7.612  1.00  0.00    -0.202 N
HETATM   44  C1  UNL     1      22.593 -21.309   8.034  1.00  0.00     0.677 A
ATOM     45  H2  UNL     1      23.313 -22.993   7.114  1.00  0.00     0.183 HD
HETATM   46  N15 UNL     1      22.857 -20.176   8.687  1.00  0.00    -0.177 N
HETATM   47  C21 UNL     1      24.152 -19.842   8.939  1.00  0.00     0.122 A
ATOM     48  H15 UNL     1      22.098 -19.568   8.994  1.00  0.00     0.185 HD
BRANCH  44  49
HETATM   49  N1  UNL     1      21.355 -21.620   7.800  1.00  0.00    -0.234 N
ATOM     50  H12 UNL     1      20.827 -22.108   8.523  1.00  0.00     0.174 HD
ATOM     51  H11 UNL     1      20.947 -21.368   6.899  1.00  0.00     0.174 HD
ENDBRANCH  44  49
BRANCH  47  52
HETATM   52  N14 UNL     1      24.365 -18.673   9.498  1.00  0.00    -0.385 N
ATOM     53 2H14 UNL     1      25.327 -18.457   9.760  1.00  0.00     0.157 HD
ATOM     54 1H14 UNL     1      23.605 -18.035   9.731  1.00  0.00     0.157 HD
ENDBRANCH  47  52
ENDBRANCH  40  41
ENDBRANCH   1  40
TORSDOF 10
ENDMDL