MODEL 4
REMARK VINA RESULT: -6.503724563      4.304     10.317
REMARK  13 active torsions:
REMARK  status: ('A' for Active; 'I' for Inactive)
REMARK    1  A    between atoms: C2_2  and  C3_3
REMARK    2  A    between atoms: C3_3  and  C5_5
REMARK       I    between atoms: C5_5  and  N1_7
REMARK    3  A    between atoms: N1_7  and  C6_9
REMARK    4  A    between atoms: C7_10  and  O2_11
REMARK    5  A    between atoms: C8_14  and  C9_15
REMARK    6  A    between atoms: C9_15  and  N2_16
REMARK    7  A    between atoms: N2_16  and  C10_18
REMARK    8  A    between atoms: C11_19  and  N3_20
REMARK    9  A    between atoms: C13_25  and  N4_26
REMARK   10  A    between atoms: N4_26  and  C14_28
REMARK   11  A    between atoms: C22_38  and  O6_39
REMARK   12  A    between atoms: C23_42  and  O8_43
REMARK   13  A    between atoms: C24_45  and  O9_46
ROOT
HETATM    1  C10 UNL     1      27.525 -15.502   1.585  1.00  0.00     0.162 C
HETATM    2  C11 UNL     1      26.698 -15.855   2.778  1.00  0.00     0.214 C
HETATM    3  C12 UNL     1      25.583 -16.853   2.511  1.00  0.00     0.088 C
HETATM    4  C13 UNL     1      25.939 -17.959   1.595  1.00  0.00     0.222 C
HETATM    5  O7  UNL     1      27.120 -17.665   0.862  1.00  0.00    -0.335 OA
HETATM    6  C23 UNL     1      27.080 -16.347   0.414  1.00  0.00     0.283 C
ENDROOT
BRANCH   1   7
HETATM    7  N2  UNL     1      27.401 -14.107   1.279  1.00  0.00    -0.408 N
ATOM      8  H2  UNL     1      27.799 -13.696   0.436  1.00  0.00     0.153 HD
BRANCH   7   9
HETATM    9  C9  UNL     1      26.675 -13.328   2.250  1.00  0.00     0.149 C
BRANCH   9  10
HETATM   10  C8  UNL     1      26.182 -12.084   1.518  1.00  0.00     0.172 C
HETATM   11  O3  UNL     1      25.587 -11.256   2.413  1.00  0.00    -0.350 OA
HETATM   12  C7  UNL     1      24.381 -10.785   1.972  1.00  0.00     0.282 C
HETATM   13  C6  UNL     1      24.273 -11.210   0.537  1.00  0.00     0.170 C
HETATM   14  C24 UNL     1      25.132 -12.453   0.488  1.00  0.00     0.176 C
BRANCH  12  15
HETATM   15  O2  UNL     1      24.404  -9.387   2.094  1.00  0.00    -0.369 OA
ATOM     16  H2  UNL     1      23.572  -9.051   2.405  1.00  0.00     0.212 HD
ENDBRANCH  12  15
BRANCH  13  17
HETATM   17  N1  UNL     1      22.906 -11.490   0.149  1.00  0.00    -0.349 N
HETATM   18  C5  UNL     1      22.486 -11.131  -1.156  1.00  0.00     0.222 C
HETATM   19  O1  UNL     1      23.279 -10.586  -1.952  1.00  0.00    -0.273 OA
ATOM     20  H1  UNL     1      22.260 -11.935   0.801  1.00  0.00     0.163 HD
BRANCH  18  21
HETATM   21  C3  UNL     1      21.065 -11.413  -1.586  1.00  0.00     0.073 C
HETATM   22  C4  UNL     1      20.836 -12.877  -1.759  1.00  0.00     0.020 C
BRANCH  21  23
HETATM   23  C2  UNL     1      20.823 -10.645  -2.868  1.00  0.00     0.009 C
HETATM   24  C1  UNL     1      19.974 -11.383  -3.845  1.00  0.00     0.006 C
ENDBRANCH  21  23
ENDBRANCH  18  21
ENDBRANCH  13  17
BRANCH  14  25
HETATM   25  O9  UNL     1      24.327 -13.509   0.914  1.00  0.00    -0.391 OA
ATOM     26  H9  UNL     1      24.788 -13.927   1.632  1.00  0.00     0.210 HD
ENDBRANCH  14  25
ENDBRANCH   9  10
ENDBRANCH   7   9
ENDBRANCH   1   7
BRANCH   2  27
HETATM   27  N3  UNL     1      27.527 -16.436   3.847  1.00  0.00    -0.073 N
ATOM     28  H33 UNL     1      27.557 -17.454   3.787  1.00  0.00     0.274 HD
ATOM     29  H32 UNL     1      28.517 -16.242   3.700  1.00  0.00     0.274 HD
ATOM     30  H31 UNL     1      27.215 -16.124   4.766  1.00  0.00     0.274 HD
ENDBRANCH   2  27
BRANCH   6  31
HETATM   31  O8  UNL     1      25.873 -15.940  -0.084  1.00  0.00    -0.369 OA
ATOM     32  H8  UNL     1      25.660 -16.374  -0.903  1.00  0.00     0.212 HD
ENDBRANCH   6  31
BRANCH   4  33
HETATM   33  N4  UNL     1      24.957 -18.533   0.779  1.00  0.00    -0.389 N
ATOM     34  H4  UNL     1      24.432 -17.922   0.153  1.00  0.00     0.156 HD
BRANCH  33  35
HETATM   35  C14 UNL     1      24.659 -19.897   0.775  1.00  0.00     0.116 C
HETATM   36  C15 UNL     1      23.269 -20.377   0.928  1.00  0.00     0.038 C
HETATM   37  C16 UNL     1      23.273 -21.824   1.434  1.00  0.00     0.015 C
HETATM   38  C17 UNL     1      22.703 -20.359  -0.489  1.00  0.00     0.162 C
HETATM   39  O4  UNL     1      22.041 -21.528  -0.792  1.00  0.00    -0.347 OA
HETATM   40  C21 UNL     1      23.884 -20.393  -1.420  1.00  0.00     0.185 C
HETATM   41  C18 UNL     1      22.269 -21.669  -2.157  1.00  0.00     0.158 C
HETATM   42  C19 UNL     1      21.468 -20.660  -2.962  1.00  0.00     0.078 C
HETATM   43  C20 UNL     1      21.918 -23.073  -2.623  1.00  0.00     0.078 C
HETATM   44  O5  UNL     1      23.638 -21.450  -2.257  1.00  0.00    -0.345 OA
HETATM   45  C22 UNL     1      25.072 -20.571  -0.540  1.00  0.00     0.172 C
BRANCH  45  46
HETATM   46  O6  UNL     1      26.227 -19.986  -1.050  1.00  0.00    -0.391 OA
ATOM     47  H6  UNL     1      26.010 -19.330  -1.702  1.00  0.00     0.210 HD
ENDBRANCH  45  46
ENDBRANCH  33  35
ENDBRANCH   4  33
TORSDOF 13
ENDMDL