MODEL 5
REMARK VINA RESULT: -6.176669785      1.898      2.599
REMARK  13 active torsions:
REMARK  status: ('A' for Active; 'I' for Inactive)
REMARK    1  A    between atoms: O1_2  and  C2_3
REMARK    2  A    between atoms: C5_8  and  O4_9
REMARK    3  A    between atoms: C7_12  and  O5_13
REMARK    4  A    between atoms: O5_13  and  C8_14
REMARK    5  A    between atoms: C9_18  and  O6_19
REMARK    6  A    between atoms: O6_19  and  C10_20
REMARK    7  A    between atoms: C14_26  and  N3_27
REMARK    8  A    between atoms: C15_31  and  N4_32
REMARK    9  A    between atoms: C17_37  and  N5_38
REMARK   10  A    between atoms: C18_42  and  O7_43
REMARK   11  A    between atoms: O7_43  and  C19_44
REMARK   12  A    between atoms: C23_48  and  C24_49
REMARK   13  A    between atoms: C24_49  and  N6_50
ROOT
HETATM    1  C8  UNL     1      23.822 -16.329   0.605  1.00  0.00     0.355 C
HETATM    2  N1  UNL     1      22.570 -15.911   0.004  1.00  0.00    -0.018 N
ATOM      3  H11 UNL     1      22.519 -14.902  -0.137  1.00  0.00     0.283 HD
ATOM      4  H12 UNL     1      21.778 -16.001   0.639  1.00  0.00     0.283 HD
HETATM    5  C9  UNL     1      22.390 -16.659  -1.228  1.00  0.00     0.355 C
HETATM    6  C15 UNL     1      21.881 -18.046  -0.968  1.00  0.00     0.241 C
HETATM    7  C16 UNL     1      22.659 -18.540   0.262  1.00  0.00     0.074 C
HETATM    8  C17 UNL     1      23.977 -17.806   0.374  1.00  0.00     0.241 C
ENDROOT
BRANCH   1   9
HETATM    9  O5  UNL     1      24.824 -15.544   0.085  1.00  0.00    -0.349 OA
BRANCH   9  10
HETATM   10  C7  UNL     1      25.276 -14.542   0.954  1.00  0.00     0.169 C
HETATM   11  C6  UNL     1      26.502 -15.018   1.605  1.00  0.00     0.104 C
HETATM   12  C3  UNL     1      27.351 -13.842   2.116  1.00  0.00     0.160 C
HETATM   13  C5  UNL     1      27.539 -15.662   0.737  1.00  0.00     0.266 C
HETATM   14  O2  UNL     1      27.636 -13.111   1.006  1.00  0.00    -0.351 OA
HETATM   15  C4  UNL     1      28.620 -14.643   2.442  1.00  0.00     0.203 C
HETATM   16  C2  UNL     1      26.626 -12.546   0.306  1.00  0.00     0.291 C
HETATM   17  C18 UNL     1      25.291 -13.191   0.316  1.00  0.00     0.209 C
HETATM   18  O3  UNL     1      28.662 -15.683   1.560  1.00  0.00    -0.358 OA
BRANCH  16  19
HETATM   19  O1  UNL     1      27.132 -12.397  -1.009  1.00  0.00    -0.363 OA
HETATM   20  C1  UNL     1      26.765 -11.198  -1.591  1.00  0.00     0.204 C
ENDBRANCH  16  19
BRANCH  17  21
HETATM   21  O7  UNL     1      24.313 -12.466   0.941  1.00  0.00    -0.348 OA
BRANCH  21  22
HETATM   22  C19 UNL     1      23.063 -12.470   0.481  1.00  0.00     0.261 C
HETATM   23  C20 UNL     1      22.561 -11.125  -0.038  1.00  0.00     0.061 C
HETATM   24  C21 UNL     1      22.232 -10.294   1.184  1.00  0.00     0.007 C
HETATM   25  C22 UNL     1      21.310 -11.066   2.091  1.00  0.00     0.034 C
HETATM   26  C23 UNL     1      21.890 -12.416   2.463  1.00  0.00     0.150 C
HETATM   27  O8  UNL     1      22.095 -13.094   1.261  1.00  0.00    -0.354 OA
BRANCH  26  28
HETATM   28  C24 UNL     1      20.944 -13.195   3.346  1.00  0.00     0.261 C
BRANCH  28  29
HETATM   29  N6  UNL     1      20.855 -12.672   4.670  1.00  0.00    -0.077 N
ATOM     30  H63 UNL     1      21.369 -11.795   4.750  1.00  0.00     0.274 HD
ATOM     31  H62 UNL     1      19.913 -12.332   4.863  1.00  0.00     0.274 HD
ATOM     32  H61 UNL     1      21.156 -13.335   5.384  1.00  0.00     0.274 HD
ENDBRANCH  28  29
ENDBRANCH  26  28
ENDBRANCH  21  22
ENDBRANCH  17  21
BRANCH  13  33
HETATM   33  O4  UNL     1      27.211 -16.958   0.409  1.00  0.00    -0.371 OA
ATOM     34  H4  UNL     1      27.627 -17.177  -0.416  1.00  0.00     0.212 HD
ENDBRANCH  13  33
ENDBRANCH   9  10
ENDBRANCH   1   9
BRANCH   8  35
HETATM   35  N5  UNL     1      24.685 -18.370   1.508  1.00  0.00    -0.071 N
ATOM     36  H53 UNL     1      24.405 -19.330   1.710  1.00  0.00     0.274 HD
ATOM     37  H52 UNL     1      25.668 -18.554   1.307  1.00  0.00     0.274 HD
ATOM     38  H51 UNL     1      24.557 -17.748   2.306  1.00  0.00     0.274 HD
ENDBRANCH   8  35
BRANCH   5  39
HETATM   39  O6  UNL     1      21.639 -15.912  -2.084  1.00  0.00    -0.348 OA
BRANCH  39  40
HETATM   40  C10 UNL     1      20.563 -15.261  -1.567  1.00  0.00     0.172 C
HETATM   41  C11 UNL     1      19.324 -15.887  -2.228  1.00  0.00     0.147 C
HETATM   42  N2  UNL     1      18.190 -15.043  -2.194  1.00  0.00    -0.419 N
HETATM   43  C12 UNL     1      18.320 -13.804  -2.889  1.00  0.00     0.116 C
ATOM     44  H2  UNL     1      17.335 -15.302  -1.704  1.00  0.00     0.153 HD
HETATM   45  C13 UNL     1      19.796 -13.535  -3.114  1.00  0.00     0.054 C
HETATM   46  C14 UNL     1      20.497 -13.800  -1.806  1.00  0.00     0.215 C
BRANCH  46  47
HETATM   47  N3  UNL     1      19.675 -13.203  -0.746  1.00  0.00    -0.072 N
ATOM     48  H33 UNL     1      18.773 -12.870  -1.087  1.00  0.00     0.274 HD
ATOM     49  H32 UNL     1      19.325 -13.893  -0.083  1.00  0.00     0.274 HD
ATOM     50  H31 UNL     1      20.223 -12.468  -0.298  1.00  0.00     0.274 HD
ENDBRANCH  46  47
ENDBRANCH  39  40
ENDBRANCH   5  39
BRANCH   6  51
HETATM   51  N4  UNL     1      22.197 -18.963  -2.047  1.00  0.00    -0.071 N
ATOM     52  H43 UNL     1      22.142 -18.496  -2.953  1.00  0.00     0.274 HD
ATOM     53  H42 UNL     1      23.187 -19.203  -2.047  1.00  0.00     0.274 HD
ATOM     54  H41 UNL     1      21.614 -19.800  -2.029  1.00  0.00     0.274 HD
ENDBRANCH   6  51
TORSDOF 13
ENDMDL