MODEL 5
REMARK VINA RESULT: -6.242777115      1.296      1.763
REMARK  15 active torsions:
REMARK  status: ('A' for Active; 'I' for Inactive)
REMARK    1  A    between atoms: C2_2  and  O1_3
REMARK    2  A    between atoms: C7_10  and  C8_11
REMARK    3  A    between atoms: C8_11  and  O3_12
REMARK    4  A    between atoms: C8_11  and  C9_14
REMARK    5  A    between atoms: C9_14  and  O4_15
REMARK    6  A    between atoms: C10_17  and  O5_18
REMARK    7  A    between atoms: C11_20  and  O6_21
REMARK    8  A    between atoms: C16_27  and  O7_28
REMARK    9  A    between atoms: C16_27  and  C17_30
REMARK   10  A    between atoms: C17_30  and  O8_31
REMARK   11  A    between atoms: O8_31  and  C18_32
REMARK   12  A    between atoms: C19_35  and  O11_36
REMARK   13  A    between atoms: C20_38  and  C21_39
REMARK   14  A    between atoms: C21_39  and  C22_41
REMARK   15  A    between atoms: C22_41  and  O13_42
ROOT
HETATM    1  C1  UNL     1      23.953 -10.445   1.393  1.00  0.00     0.047 C
HETATM    2  C2  UNL     1      23.064 -11.340   0.668  1.00  0.00     0.070 C
HETATM    3  C3  UNL     1      21.726 -10.644   0.495  1.00  0.00     0.076 C
HETATM    4  C4  UNL     1      20.756 -10.788   1.581  1.00  0.00    -0.035 C
HETATM    5  C5  UNL     1      20.426 -11.852   2.335  1.00  0.00     0.000 C
HETATM    6  C6  UNL     1      19.385 -11.715   3.389  1.00  0.00     0.210 C
HETATM    7  O2  UNL     1      18.317 -10.984   2.945  1.00  0.00    -0.376 OA
HETATM    8  C7  UNL     1      18.617  -9.769   2.401  1.00  0.00     0.185 C
HETATM    9  C10 UNL     1      20.004  -9.551   1.926  1.00  0.00     0.179 C
HETATM   10  C11 UNL     1      20.932 -13.219   2.324  1.00  0.00     0.061 C
HETATM   11  C12 UNL     1      22.461 -13.291   2.182  1.00  0.00     0.020 C
HETATM   12  C13 UNL     1      22.874 -12.505   3.444  1.00  0.00     0.023 C
HETATM   13  C14 UNL     1      22.831 -14.694   2.564  1.00  0.00     0.020 C
HETATM   14  C15 UNL     1      23.181 -15.606   1.440  1.00  0.00     0.046 C
HETATM   15  C16 UNL     1      24.062 -15.032   0.403  1.00  0.00     0.107 C
HETATM   16  C20 UNL     1      24.234 -13.551   0.371  1.00  0.00     0.017 C
HETATM   17  C23 UNL     1      22.992 -12.808   0.898  1.00  0.00     0.030 C
HETATM   18  C24 UNL     1      21.935 -13.193  -0.176  1.00  0.00     0.025 C
ENDROOT
BRANCH  15  19
HETATM   19  O7  UNL     1      23.609 -15.525  -0.871  1.00  0.00    -0.383 OA
ATOM     20  H7  UNL     1      24.081 -16.330  -1.049  1.00  0.00     0.211 HD
ENDBRANCH  15  19
BRANCH  15  21
HETATM   21  C17 UNL     1      25.384 -15.817   0.456  1.00  0.00     0.214 C
BRANCH  21  22
HETATM   22  O8  UNL     1      25.314 -16.558   1.684  1.00  0.00    -0.351 OA
BRANCH  22  23
HETATM   23  C18 UNL     1      26.526 -17.048   2.053  1.00  0.00     0.355 C
HETATM   24  O9  UNL     1      27.513 -16.125   2.371  1.00  0.00    -0.200 OA
HETATM   25  O10 UNL     1      27.914 -16.978   3.317  1.00  0.00    -0.200 OA
HETATM   26  C19 UNL     1      26.578 -17.249   3.558  1.00  0.00     0.352 C
BRANCH  26  27
HETATM   27  O11 UNL     1      26.275 -18.516   3.996  1.00  0.00    -0.365 OA
ATOM     28  H11 UNL     1      25.567 -18.572   4.627  1.00  0.00     0.213 HD
ENDBRANCH  26  27
ENDBRANCH  22  23
ENDBRANCH  21  22
ENDBRANCH  15  21
BRANCH  16  29
HETATM   29  C21 UNL     1      25.539 -12.989   0.668  1.00  0.00     0.178 C
HETATM   30  O12 UNL     1      26.296 -12.660  -0.297  1.00  0.00    -0.291 OA
BRANCH  29  31
HETATM   31  C22 UNL     1      26.241 -12.693   1.930  1.00  0.00     0.247 C
BRANCH  31  32
HETATM   32  O13 UNL     1      26.066 -13.767   2.854  1.00  0.00    -0.393 OA
ATOM     33  H13 UNL     1      26.688 -14.460   2.673  1.00  0.00     0.209 HD
ENDBRANCH  31  32
ENDBRANCH  29  31
ENDBRANCH  16  29
BRANCH   2  34
HETATM   34  O1  UNL     1      23.547 -11.285  -0.693  1.00  0.00    -0.389 OA
ATOM     35  H1  UNL     1      22.845 -11.673  -1.201  1.00  0.00     0.210 HD
ENDBRANCH   2  34
BRANCH  10  36
HETATM   36  O6  UNL     1      20.236 -14.140   1.602  1.00  0.00    -0.363 OA
ATOM     37  H6  UNL     1      19.291 -14.055   1.579  1.00  0.00     0.217 HD
ENDBRANCH  10  36
BRANCH   9  38
HETATM   38  O5  UNL     1      19.986  -8.769   0.749  1.00  0.00    -0.388 OA
ATOM     39  H5  UNL     1      19.304  -9.141   0.202  1.00  0.00     0.210 HD
ENDBRANCH   9  38
BRANCH   8  40
HETATM   40  C8  UNL     1      18.152  -8.710   3.390  1.00  0.00     0.173 C
BRANCH  40  41
HETATM   41  O3  UNL     1      18.104  -7.464   2.802  1.00  0.00    -0.391 OA
ATOM     42  H3  UNL     1      17.586  -6.859   3.319  1.00  0.00     0.210 HD
ENDBRANCH  40  41
BRANCH  40  43
HETATM   43  C9  UNL     1      16.786  -9.097   3.968  1.00  0.00     0.198 C
BRANCH  43  44
HETATM   44  O4  UNL     1      16.914  -9.673   5.215  1.00  0.00    -0.398 OA
ATOM     45  H4  UNL     1      17.124 -10.597   5.150  1.00  0.00     0.209 HD
ENDBRANCH  43  44
ENDBRANCH  40  43
ENDBRANCH   8  40
TORSDOF 15
ENDMDL