MODEL 3
REMARK VINA RESULT: -7.934964841      1.949      3.660
REMARK  6 active torsions:
REMARK  status: ('A' for Active; 'I' for Inactive)
REMARK    1  A    between atoms: N1_1  and  S1_4
REMARK    2  A    between atoms: S1_4  and  C1_7
REMARK    3  A    between atoms: C2_8  and  N2_9
REMARK    4  A    between atoms: C4_13  and  N3_14
REMARK    5  A    between atoms: C5_17  and  C6_18
REMARK    6  A    between atoms: C10_26  and  O7_27
ROOT
HETATM    1  C1  UNL     1      -3.126  -7.198  23.640  1.00  0.00     0.146 A
HETATM    2  C2  UNL     1      -3.043  -6.984  24.983  1.00  0.00     0.131 A
HETATM    3  C3  UNL     1      -2.552  -8.055  25.763  1.00  0.00     0.074 A
HETATM    4  C4  UNL     1      -2.171  -9.262  25.223  1.00  0.00     0.119 A
HETATM    5  C5  UNL     1      -2.257  -9.478  23.867  1.00  0.00     0.043 A
HETATM    6  C10 UNL     1      -2.733  -8.443  23.095  1.00  0.00     0.105 A
ENDROOT
BRANCH   5   7
HETATM    7  C6  UNL     1      -1.870 -10.746  23.218  1.00  0.00    -0.002 A
HETATM    8  C7  UNL     1      -0.589 -10.895  22.726  1.00  0.00     0.032 A
HETATM    9  C8  UNL     1      -0.196 -12.058  22.108  1.00  0.00     0.108 A
HETATM   10  N4  UNL     1      -1.078 -13.041  21.995  1.00  0.00    -0.312 N
HETATM   11  N5  UNL     1      -2.306 -12.909  22.461  1.00  0.00    -0.311 N
ATOM     12  H4  UNL     1      -0.803 -13.912  21.541  1.00  0.00     0.186 HD
HETATM   13  C9  UNL     1      -2.747 -11.788  23.078  1.00  0.00     0.119 A
ATOM     14  H5  UNL     1      -2.954 -13.690  22.352  1.00  0.00     0.186 HD
ENDBRANCH   5   7
BRANCH   4  15
HETATM   15  N3  UNL     1      -1.670 -10.311  26.060  1.00  0.00    -0.115 N
HETATM   16  O5  UNL     1      -0.453 -10.446  26.221  1.00  0.00    -0.532 OA
HETATM   17  O6  UNL     1      -2.506 -11.179  26.694  1.00  0.00    -0.532 OA
ENDBRANCH   4  15
BRANCH   6  18
HETATM   18  O7  UNL     1      -2.829  -8.628  21.735  1.00  0.00    -0.358 OA
ATOM     19  H7  UNL     1      -3.623  -8.353  21.292  1.00  0.00     0.217 HD
ENDBRANCH   6  18
BRANCH   1  20
HETATM   20  S1  UNL     1      -3.654  -5.967  22.531  1.00  0.00     0.262 S
HETATM   21  O1  UNL     1      -2.576  -5.441  21.664  1.00  0.00    -0.201 OA
HETATM   22  O2  UNL     1      -4.728  -6.585  21.587  1.00  0.00    -0.201 OA
BRANCH  20  23
HETATM   23  N1  UNL     1      -4.487  -4.670  23.288  1.00  0.00    -0.324 N
ATOM     24  H12 UNL     1      -5.033  -4.761  24.144  1.00  0.00     0.169 HD
ATOM     25  H11 UNL     1      -4.351  -3.810  22.756  1.00  0.00     0.169 HD
ENDBRANCH  20  23
ENDBRANCH   1  20
BRANCH   2  26
HETATM   26  N2  UNL     1      -3.463  -5.810  25.640  1.00  0.00    -0.114 N
HETATM   27  O3  UNL     1      -4.574  -5.923  26.283  1.00  0.00    -0.532 OA
HETATM   28  O4  UNL     1      -2.923  -4.585  25.719  1.00  0.00    -0.532 OA
ENDBRANCH   2  26
TORSDOF 6
ENDMDL