MODEL 3
REMARK VINA RESULT: -8.263053994      3.185      6.424
REMARK  6 active torsions:
REMARK  status: ('A' for Active; 'I' for Inactive)
REMARK    1  A    between atoms: C2_2  and  N1_5
REMARK    2  A    between atoms: C5_12  and  C6_13
REMARK    3  A    between atoms: C6_13  and  N5_14
REMARK    4  A    between atoms: C6_13  and  C12_28
REMARK    5  A    between atoms: N5_14  and  N6_16
REMARK       I    between atoms: N6_16  and  C7_18
REMARK    6  A    between atoms: C7_18  and  C8_20
ROOT
HETATM    1  C6  UNL     1      -1.169 -12.114  25.337  1.00  0.00     0.219 C
ENDROOT
BRANCH   1   2
HETATM    2  C5  UNL     1       0.161 -12.352  24.737  1.00  0.00     0.146 A
HETATM    3  N1  UNL     1       0.458 -12.960  23.582  1.00  0.00    -0.252 N
HETATM    4  N2  UNL     1       1.803 -12.919  23.551  1.00  0.00    -0.224 N
HETATM    5  N3  UNL     1       2.298 -12.332  24.599  1.00  0.00    -0.227 N
ATOM      6  H2  UNL     1       2.367 -13.303  22.793  1.00  0.00     0.210 HD
HETATM    7  N4  UNL     1       1.300 -11.971  25.350  1.00  0.00    -0.270 N
ATOM      8  H3  UNL     1       3.287 -12.181  24.796  1.00  0.00     0.210 HD
ATOM      9  H4  UNL     1       1.367 -11.486  26.245  1.00  0.00     0.190 HD
BRANCH   3  10
HETATM   10  C2  UNL     1      -0.376 -13.518  22.567  1.00  0.00     0.046 C
HETATM   11  C1  UNL     1      -1.251 -12.459  21.887  1.00  0.00     0.040 C
HETATM   12  C3  UNL     1      -1.160 -14.734  22.939  1.00  0.00     0.040 C
HETATM   13  C4  UNL     1       0.531 -13.969  21.402  1.00  0.00     0.040 C
ENDBRANCH   3  10
ENDBRANCH   1   2
BRANCH   1  14
HETATM   14  N5  UNL     1      -1.178 -10.989  26.228  1.00  0.00    -0.316 N
ATOM     15  H5  UNL     1      -0.740 -11.058  27.147  1.00  0.00     0.181 HD
BRANCH  14  16
HETATM   16  N6  UNL     1      -1.770  -9.837  25.841  1.00  0.00    -0.268 N
HETATM   17  C7  UNL     1      -2.136  -8.881  26.828  1.00  0.00     0.287 C
HETATM   18  O1  UNL     1      -1.895  -9.124  28.072  1.00  0.00    -0.264 OA
ATOM     19  H6  UNL     1      -1.952  -9.656  24.854  1.00  0.00     0.190 HD
BRANCH  17  20
HETATM   20  C8  UNL     1      -2.784  -7.606  26.558  1.00  0.00     0.117 A
HETATM   21  C9  UNL     1      -3.312  -6.899  27.611  1.00  0.00     0.122 A
HETATM   22  N7  UNL     1      -3.913  -5.708  27.333  1.00  0.00    -0.372 N
HETATM   23  C10 UNL     1      -3.982  -5.254  26.066  1.00  0.00     0.104 A
ATOM     24  H7  UNL     1      -4.315  -5.156  28.090  1.00  0.00     0.164 HD
HETATM   25  C11 UNL     1      -3.450  -5.972  25.022  1.00  0.00     0.105 A
HETATM   26  N8  UNL     1      -2.856  -7.141  25.275  1.00  0.00    -0.359 N
ATOM     27  H8  UNL     1      -2.456  -7.687  24.511  1.00  0.00     0.165 HD
ENDBRANCH  17  20
ENDBRANCH  14  16
ENDBRANCH   1  14
BRANCH   1  28
HETATM   28  C12 UNL     1      -1.696 -13.279  26.098  1.00  0.00     0.041 A
HETATM   29  C13 UNL     1      -3.040 -13.458  26.346  1.00  0.00     0.027 A
HETATM   30  C14 UNL     1      -3.471 -14.562  27.048  1.00  0.00     0.003 A
HETATM   31  C15 UNL     1      -2.580 -15.503  27.515  1.00  0.00     0.017 A
HETATM   32  C16 UNL     1      -1.235 -15.310  27.259  1.00  0.00     0.088 A
HETATM   33  N9  UNL     1      -0.871 -14.220  26.572  1.00  0.00    -0.367 N
ATOM     34  H9  UNL     1       0.126 -14.096  26.392  1.00  0.00     0.165 HD
ENDBRANCH   1  28
TORSDOF 6
ENDMDL