MODEL 3
REMARK VINA RESULT: -8.898267920      1.636      1.944
REMARK  6 active torsions:
REMARK  status: ('A' for Active; 'I' for Inactive)
REMARK    1  A    between atoms: S1_2  and  N1_4
REMARK    2  A    between atoms: S1_2  and  C5_17
REMARK    3  A    between atoms: N1_4  and  C1_6
REMARK    4  A    between atoms: C1_6  and  C2_11
REMARK    5  A    between atoms: N2_7  and  O3_9
REMARK    6  A    between atoms: N4_19  and  C7_20
ROOT
HETATM    1  O1  UNL     1      -0.114 -14.101  25.054  1.00  0.00    -0.199 OA
HETATM    2  S1  UNL     1      -0.725 -13.025  24.168  1.00  0.00     0.282 S
HETATM    3  O2  UNL     1      -1.830 -13.656  23.370  1.00  0.00    -0.199 OA
ENDROOT
BRANCH   2   4
HETATM    4  N1  UNL     1       0.509 -12.383  23.139  1.00  0.00    -0.261 N
ATOM      5  H1  UNL     1       0.293 -12.165  22.167  1.00  0.00     0.180 HD
BRANCH   4   6
HETATM    6  C1  UNL     1       1.788 -12.163  23.622  1.00  0.00     0.169 C
HETATM    7  N2  UNL     1       2.050 -12.187  24.871  1.00  0.00    -0.250 N
ATOM      8  H2  UNL     1       1.292 -12.373  25.527  1.00  0.00     0.196 HD
BRANCH   7   9
HETATM    9  O3  UNL     1       3.324 -11.970  25.369  1.00  0.00    -0.288 OA
ATOM     10  H3  UNL     1       3.833 -12.656  25.785  1.00  0.00     0.244 HD
ENDBRANCH   7   9
BRANCH   6  11
HETATM   11  C2  UNL     1       2.894 -11.893  22.694  1.00  0.00     0.120 A
HETATM   12  N3  UNL     1       3.569 -10.777  22.489  1.00  0.00    -0.357 N
HETATM   13  C3  UNL     1       4.524 -10.737  21.615  1.00  0.00     0.096 A
ATOM     14  H3  UNL     1       3.336  -9.939  23.022  1.00  0.00     0.166 HD
HETATM   15  C4  UNL     1       4.800 -11.890  20.921  1.00  0.00     0.069 A
HETATM   16  S2  UNL     1       3.653 -12.967  21.581  1.00  0.00    -0.079 SA
ENDBRANCH   6  11
ENDBRANCH   4   6
ENDBRANCH   2   4
BRANCH   2  17
HETATM   17  C5  UNL     1      -1.417 -11.794  25.178  1.00  0.00     0.182 A
HETATM   18  C6  UNL     1      -1.565 -10.452  24.887  1.00  0.00     0.163 A
HETATM   19  N4  UNL     1      -2.141  -9.849  25.926  1.00  0.00    -0.250 N
HETATM   20  N5  UNL     1      -2.343 -10.791  26.836  1.00  0.00    -0.235 N
HETATM   21  N6  UNL     1      -1.919 -11.957  26.412  1.00  0.00    -0.273 N
ATOM     22  H5  UNL     1      -2.772 -10.629  27.748  1.00  0.00     0.209 HD
ATOM     23  H6  UNL     1      -1.964 -12.834  26.930  1.00  0.00     0.189 HD
BRANCH  19  24
HETATM   24  C7  UNL     1      -2.502  -8.480  26.110  1.00  0.00     0.057 A
HETATM   25  C8  UNL     1      -2.654  -7.610  25.051  1.00  0.00     0.031 A
HETATM   26  C9  UNL     1      -3.004  -6.295  25.262  1.00  0.00     0.002 A
HETATM   27  C10 UNL     1      -3.211  -5.812  26.548  1.00  0.00     0.000 A
HETATM   28  C11 UNL     1      -3.059  -6.679  27.600  1.00  0.00     0.002 A
HETATM   29  C12 UNL     1      -2.710  -7.991  27.392  1.00  0.00     0.031 A
ENDBRANCH  19  24
ENDBRANCH   2  17
TORSDOF 6
ENDMDL