MODEL 3
REMARK VINA RESULT: -7.946459307      1.248      3.832
REMARK  5 active torsions:
REMARK  status: ('A' for Active; 'I' for Inactive)
REMARK    1  A    between atoms: C4_5  and  C5_6
REMARK       I    between atoms: C5_6  and  N2_8
REMARK    2  A    between atoms: N2_8  and  N3_10
REMARK    3  A    between atoms: C6_12  and  C7_13
REMARK    4  A    between atoms: C11_18  and  O3_19
REMARK    5  A    between atoms: C12_21  and  C13_22
ROOT
HETATM    1  N1  UNL     1      -1.606  -9.821  27.605  1.00  0.00    -0.195 NA
HETATM    2  C1  UNL     1      -1.972 -10.542  26.791  1.00  0.00     0.091 C
HETATM    3  C2  UNL     1      -2.444 -11.443  25.733  1.00  0.00     0.229 C
HETATM    4  C3  UNL     1      -1.355 -11.584  24.727  1.00  0.00     0.064 C
HETATM    5  C4  UNL     1      -0.194 -12.230  25.451  1.00  0.00     0.114 C
HETATM    6  C11 UNL     1      -0.604 -13.478  26.135  1.00  0.00     0.168 C
HETATM    7  C12 UNL     1      -1.970 -13.510  26.700  1.00  0.00     0.229 C
HETATM    8  O5  UNL     1      -2.871 -12.605  26.297  1.00  0.00    -0.355 OA
ENDROOT
BRANCH   5   9
HETATM    9  C5  UNL     1       0.992 -12.358  24.583  1.00  0.00     0.242 C
HETATM   10  O1  UNL     1       0.929 -12.933  23.444  1.00  0.00    -0.271 OA
HETATM   11  N2  UNL     1       2.258 -11.848  24.974  1.00  0.00    -0.270 N
ATOM     12  H2  UNL     1       2.342 -11.384  25.879  1.00  0.00     0.190 HD
BRANCH  11  13
HETATM   13  N3  UNL     1       3.388 -11.957  24.173  1.00  0.00    -0.307 N
HETATM   14  C6  UNL     1       3.690 -11.070  23.281  1.00  0.00     0.144 C
ATOM     15  H3  UNL     1       4.000 -12.764  24.292  1.00  0.00     0.186 HD
BRANCH  14  16
HETATM   16  C7  UNL     1       4.877 -11.198  22.447  1.00  0.00     0.091 A
HETATM   17  C8  UNL     1       6.168 -11.356  22.948  1.00  0.00     0.040 A
HETATM   18  C9  UNL     1       7.017 -11.439  21.865  1.00  0.00     0.027 A
HETATM   19  C10 UNL     1       6.193 -11.327  20.756  1.00  0.00     0.142 A
HETATM   20  O2  UNL     1       4.964 -11.188  21.158  1.00  0.00    -0.321 OA
ENDBRANCH  14  16
ENDBRANCH  11  13
ENDBRANCH   5   9
BRANCH   7  21
HETATM   21  C13 UNL     1      -2.574 -14.884  26.524  1.00  0.00     0.171 A
HETATM   22  N4  UNL     1      -3.470 -15.267  25.591  1.00  0.00    -0.280 N
HETATM   23  N5  UNL     1      -3.776 -16.536  25.738  1.00  0.00    -0.288 N
ATOM     24  H4  UNL     1      -3.856 -14.655  24.871  1.00  0.00     0.189 HD
HETATM   25  C14 UNL     1      -3.055 -16.968  26.790  1.00  0.00     0.251 A
ATOM     26  H5  UNL     1      -4.425 -17.083  25.171  1.00  0.00     0.188 HD
HETATM   27  O4  UNL     1      -2.350 -15.961  27.238  1.00  0.00    -0.288 OA
ENDBRANCH   7  21
BRANCH   6  28
HETATM   28  O3  UNL     1      -0.482 -14.537  25.235  1.00  0.00    -0.392 OA
ATOM     29  H3  UNL     1      -0.715 -15.342  25.682  1.00  0.00     0.210 HD
ENDBRANCH   6  28
TORSDOF 5
ENDMDL