MODEL 3
REMARK VINA RESULT: -8.270541423      3.519      4.492
REMARK  5 active torsions:
REMARK  status: ('A' for Active; 'I' for Inactive)
REMARK    1  A    between atoms: N1_1  and  N2_4
REMARK       I    between atoms: N2_4  and  C1_6
REMARK    2  A    between atoms: C1_6  and  C2_8
REMARK    3  A    between atoms: C5_11  and  N3_12
REMARK    4  A    between atoms: C8_17  and  N5_18
REMARK    5  A    between atoms: C12_26  and  N7_27
ROOT
HETATM    1  C2  UNL     1      -2.336  -8.784  25.656  1.00  0.00     0.036 A
HETATM    2  C3  UNL     1      -2.473  -8.692  24.288  1.00  0.00     0.019 A
HETATM    3  C4  UNL     1      -2.263  -9.847  23.557  1.00  0.00     0.035 A
HETATM    4  C5  UNL     1      -1.930 -11.058  24.125  1.00  0.00     0.089 A
HETATM    5  C12 UNL     1      -1.790 -11.160  25.493  1.00  0.00     0.132 A
HETATM    6  C13 UNL     1      -1.998 -10.016  26.229  1.00  0.00     0.055 A
ENDROOT
BRANCH   4   7
HETATM    7  N3  UNL     1      -1.730 -12.208  23.309  1.00  0.00    -0.254 N
HETATM    8  N4  UNL     1      -2.580 -13.172  23.012  1.00  0.00    -0.303 N
HETATM    9  C6  UNL     1      -2.013 -14.085  22.209  1.00  0.00     0.125 A
ATOM     10  H4  UNL     1      -3.542 -13.218  23.348  1.00  0.00     0.186 HD
HETATM   11  C7  UNL     1      -0.710 -13.684  21.972  1.00  0.00     0.060 A
HETATM   12  C8  UNL     1       0.337 -14.209  21.238  1.00  0.00     0.187 A
HETATM   13  C11 UNL     1      -0.553 -12.494  22.678  1.00  0.00     0.073 A
HETATM   14  N6  UNL     1       1.506 -13.554  21.216  1.00  0.00    -0.347 N
HETATM   15  C9  UNL     1       1.681 -12.388  21.898  1.00  0.00     0.092 A
ATOM     16  H6  UNL     1       2.282 -13.937  20.676  1.00  0.00     0.167 HD
HETATM   17  C10 UNL     1       0.666 -11.858  22.625  1.00  0.00     0.050 A
BRANCH  12  18
HETATM   18  N5  UNL     1       0.154 -15.417  20.531  1.00  0.00    -0.097 N
HETATM   19  O2  UNL     1       0.677 -16.514  20.855  1.00  0.00    -0.530 OA
HETATM   20  O3  UNL     1      -0.643 -15.479  19.393  1.00  0.00    -0.530 OA
ENDBRANCH  12  18
ENDBRANCH   4   7
BRANCH   5  21
HETATM   21  N7  UNL     1      -1.448 -12.374  26.150  1.00  0.00    -0.113 N
HETATM   22  O4  UNL     1      -0.338 -12.916  26.116  1.00  0.00    -0.532 OA
HETATM   23  O5  UNL     1      -2.439 -12.988  26.879  1.00  0.00    -0.532 OA
ENDBRANCH   5  21
BRANCH   1  24
HETATM   24  C1  UNL     1      -2.531  -7.641  26.514  1.00  0.00     0.269 C
HETATM   25  N2  UNL     1      -2.525  -7.745  27.922  1.00  0.00    -0.272 N
ATOM     26  H2  UNL     1      -2.380  -8.647  28.375  1.00  0.00     0.189 HD
HETATM   27  O1  UNL     1      -2.711  -6.511  25.993  1.00  0.00    -0.266 OA
BRANCH  25  28
HETATM   28  N1  UNL     1      -2.722  -6.586  28.685  1.00  0.00    -0.342 N
ATOM     29  H12 UNL     1      -3.552  -6.502  29.271  1.00  0.00     0.176 HD
ATOM     30  H11 UNL     1      -2.024  -5.844  28.638  1.00  0.00     0.176 HD
ENDBRANCH  25  28
ENDBRANCH   1  24
TORSDOF 5
ENDMDL