MODEL 1
REMARK VINA RESULT: -9.951495575      0.000      0.000
REMARK  4 active torsions:
REMARK  status: ('A' for Active; 'I' for Inactive)
REMARK    1  A    between atoms: C6_10  and  S1_11
REMARK    2  A    between atoms: S1_11  and  N4_14
REMARK    3  A    between atoms: N4_14  and  C7_16
REMARK    4  A    between atoms: C10_19  and  N5_20
ROOT
HETATM    1  N1  UNL     1      -0.369 -13.871  26.255  1.00  0.00    -0.190 NA
HETATM    2  C1  UNL     1       0.276 -13.329  25.448  1.00  0.00     0.119 C
HETATM    3  C2  UNL     1       1.074 -12.652  24.478  1.00  0.00     0.138 A
HETATM    4  N2  UNL     1       2.312 -12.214  24.808  1.00  0.00    -0.335 N
ATOM      5  H2  UNL     1       2.647 -12.382  25.756  1.00  0.00     0.168 HD
HETATM    6  C3  UNL     1       3.123 -11.566  23.946  1.00  0.00     0.117 A
HETATM    7  N3  UNL     1       4.418 -11.116  24.317  1.00  0.00    -0.083 NA
HETATM    8  C4  UNL     1       2.632 -11.357  22.665  1.00  0.00     0.047 A
HETATM    9  C5  UNL     1       1.366 -11.803  22.318  1.00  0.00     0.032 A
HETATM   10  C6  UNL     1       0.554 -12.462  23.217  1.00  0.00     0.117 A
ENDROOT
BRANCH  10  11
HETATM   11  S1  UNL     1      -1.046 -13.012  22.740  1.00  0.00     0.266 S
HETATM   12  O1  UNL     1      -1.212 -12.851  21.230  1.00  0.00    -0.200 OA
HETATM   13  O2  UNL     1      -1.212 -14.466  23.004  1.00  0.00    -0.200 OA
BRANCH  11  14
HETATM   14  N4  UNL     1      -2.278 -12.135  23.523  1.00  0.00    -0.281 N
ATOM     15  H4  UNL     1      -2.865 -12.591  24.221  1.00  0.00     0.179 HD
BRANCH  14  16
HETATM   16  C7  UNL     1      -2.486 -10.757  23.199  1.00  0.00     0.042 A
HETATM   17  C8  UNL     1      -2.349  -9.778  24.188  1.00  0.00     0.032 A
HETATM   18  C9  UNL     1      -2.544  -8.444  23.920  1.00  0.00     0.033 A
HETATM   19  C10 UNL     1      -2.885  -8.007  22.659  1.00  0.00     0.055 A
HETATM   20  C12 UNL     1      -3.023  -8.956  21.678  1.00  0.00     0.033 A
HETATM   21  C13 UNL     1      -2.827 -10.310  21.942  1.00  0.00     0.032 A
BRANCH  19  22
HETATM   22  N5  UNL     1      -3.086  -6.639  22.381  1.00  0.00    -0.236 N
HETATM   23  C11 UNL     1      -3.536  -5.743  23.272  1.00  0.00     0.218 A
HETATM   24  N6  UNL     1      -3.615  -4.520  22.685  1.00  0.00    -0.280 N
HETATM   25  N7  UNL     1      -3.210  -4.690  21.437  1.00  0.00    -0.007 NA
ATOM     26  H6  UNL     1      -3.923  -3.649  23.118  1.00  0.00     0.184 HD
HETATM   27  N8  UNL     1      -2.889  -5.979  21.252  1.00  0.00    -0.000 NA
ENDBRANCH  19  22
ENDBRANCH  14  16
ENDBRANCH  11  14
ENDBRANCH  10  11
TORSDOF 4
ENDMDL