MODEL 3
REMARK VINA RESULT: -7.836703647      2.532      4.352
REMARK  8 active torsions:
REMARK  status: ('A' for Active; 'I' for Inactive)
REMARK    1  A    between atoms: O1_2  and  C2_3
REMARK    2  A    between atoms: C2_3  and  C3_5
REMARK    3  A    between atoms: C5_7  and  O3_8
REMARK    4  A    between atoms: C6_10  and  C7_11
REMARK    5  A    between atoms: N1_12  and  O4_14
REMARK    6  A    between atoms: C9_17  and  O5_18
REMARK    7  A    between atoms: O5_18  and  C10_19
REMARK    8  A    between atoms: C10_19  and  C12_24
ROOT
HETATM    1  C10 UNL     1      -1.935 -10.268  25.563  1.00  0.00     0.185 C
HETATM    2  N2  UNL     1      -2.275  -9.391  26.482  1.00  0.00    -0.272 N
ATOM      3  H2  UNL     1      -2.493  -8.446  26.166  1.00  0.00     0.180 HD
HETATM    4  C11 UNL     1      -2.359  -9.630  27.784  1.00  0.00     0.183 C
HETATM    5  N3  UNL     1      -2.428  -9.813  28.919  1.00  0.00    -0.172 NA
ENDROOT
BRANCH   1   6
HETATM    6  O5  UNL     1      -1.966  -9.655  24.368  1.00  0.00    -0.290 OA
BRANCH   6   7
HETATM    7  C9  UNL     1      -2.475  -8.816  23.591  1.00  0.00     0.095 A
HETATM    8  C3  UNL     1      -2.767  -9.196  22.228  1.00  0.00     0.076 A
HETATM    9  C4  UNL     1      -3.320  -8.281  21.423  1.00  0.00     0.057 A
HETATM   10  C5  UNL     1      -3.650  -6.960  21.788  1.00  0.00     0.078 A
HETATM   11  C6  UNL     1      -3.384  -6.588  23.075  1.00  0.00     0.017 A
HETATM   12  C8  UNL     1      -2.802  -7.531  23.937  1.00  0.00     0.054 A
BRANCH   8  13
HETATM   13  C2  UNL     1      -2.439 -10.568  21.811  1.00  0.00     0.295 C
HETATM   14  O2  UNL     1      -1.539 -10.673  20.904  1.00  0.00    -0.259 OA
BRANCH  13  15
HETATM   15  O1  UNL     1      -2.995 -11.687  22.296  1.00  0.00    -0.322 OA
HETATM   16  C1  UNL     1      -2.356 -12.910  22.598  1.00  0.00     0.213 C
ENDBRANCH  13  15
ENDBRANCH   8  13
BRANCH  10  17
HETATM   17  O3  UNL     1      -4.204  -6.163  20.841  1.00  0.00    -0.360 OA
ATOM     18  H3  UNL     1      -4.112  -5.224  20.944  1.00  0.00     0.217 HD
ENDBRANCH  10  17
BRANCH  11  19
HETATM   19  C7  UNL     1      -3.676  -5.276  23.606  1.00  0.00     0.128 C
HETATM   20  N1  UNL     1      -3.408  -4.972  24.809  1.00  0.00    -0.280 N
ATOM     21  H1  UNL     1      -2.988  -5.682  25.409  1.00  0.00     0.193 HD
BRANCH  20  22
HETATM   22  O4  UNL     1      -3.658  -3.726  25.339  1.00  0.00    -0.290 OA
ATOM     23  H4  UNL     1      -4.455  -3.517  25.813  1.00  0.00     0.244 HD
ENDBRANCH  20  22
ENDBRANCH  11  19
ENDBRANCH   6   7
ENDBRANCH   1   6
BRANCH   1  24
HETATM   24  C12 UNL     1      -1.597 -11.639  25.868  1.00  0.00     0.100 A
HETATM   25  C13 UNL     1      -0.276 -12.060  25.771  1.00  0.00     0.121 A
HETATM   26  N4  UNL     1       0.109 -13.289  26.069  1.00  0.00    -0.372 N
HETATM   27  C14 UNL     1      -0.771 -14.227  26.497  1.00  0.00     0.104 A
ATOM     28  H4  UNL     1       1.094 -13.538  25.976  1.00  0.00     0.164 HD
HETATM   29  C15 UNL     1      -2.070 -13.805  26.587  1.00  0.00     0.105 A
HETATM   30  N5  UNL     1      -2.487 -12.557  26.288  1.00  0.00    -0.360 N
ATOM     31  H5  UNL     1      -3.472 -12.311  26.381  1.00  0.00     0.165 HD
ENDBRANCH   1  24
TORSDOF 8
ENDMDL