MODEL 4
REMARK VINA RESULT: -9.095644259      3.039      8.284
REMARK  5 active torsions:
REMARK  status: ('A' for Active; 'I' for Inactive)
REMARK       I    between atoms: C1_2  and  N1_3
REMARK    1  A    between atoms: C1_2  and  C10_23
REMARK    2  A    between atoms: N1_3  and  N2_5
REMARK       I    between atoms: N2_5  and  C2_7
REMARK    3  A    between atoms: C2_7  and  C3_9
REMARK    4  A    between atoms: C4_15  and  C5_16
REMARK    5  A    between atoms: C13_26  and  N6_27
ROOT
HETATM    1  N2  UNL     1       0.258 -11.406  23.425  1.00  0.00    -0.262 N
ATOM      2  H2  UNL     1      -0.234 -12.299  23.400  1.00  0.00     0.190 HD
HETATM    3  C2  UNL     1       1.478 -11.301  22.719  1.00  0.00     0.291 C
HETATM    4  O2  UNL     1       2.163 -10.255  22.720  1.00  0.00    -0.264 OA
ENDROOT
BRANCH   3   5
HETATM    5  C3  UNL     1       1.950 -12.449  21.964  1.00  0.00     0.156 A
HETATM    6  N3  UNL     1       1.089 -13.391  21.441  1.00  0.00    -0.234 N
HETATM    7  O3  UNL     1       1.807 -14.280  20.848  1.00  0.00    -0.156 OA
ATOM      8  H3  UNL     1       0.072 -13.385  21.512  1.00  0.00     0.197 HD
HETATM    9  N4  UNL     1       3.059 -13.987  20.946  1.00  0.00    -0.237 N
HETATM   10  C4  UNL     1       3.224 -12.820  21.650  1.00  0.00     0.117 A
ATOM     11  H4  UNL     1       3.820 -14.543  20.554  1.00  0.00     0.197 HD
BRANCH  10  12
HETATM   12  C5  UNL     1       4.501 -12.221  21.952  1.00  0.00     0.063 A
HETATM   13  C6  UNL     1       5.167 -12.241  23.126  1.00  0.00     0.032 A
HETATM   14  C7  UNL     1       6.392 -11.612  23.302  1.00  0.00     0.004 A
HETATM   15  C8  UNL     1       6.983 -10.924  22.247  1.00  0.00     0.017 A
HETATM   16  C9  UNL     1       6.279 -10.919  21.060  1.00  0.00     0.088 A
HETATM   17  N5  UNL     1       5.115 -11.534  20.939  1.00  0.00    -0.364 N
ATOM     18  H5  UNL     1       4.645 -11.494  20.035  1.00  0.00     0.165 HD
ENDBRANCH  10  12
ENDBRANCH   3   5
BRANCH   1  19
HETATM   19  N1  UNL     1      -0.310 -10.376  24.145  1.00  0.00    -0.261 N
HETATM   20  C1  UNL     1      -1.600  -9.855  24.068  1.00  0.00     0.293 C
HETATM   21  O1  UNL     1      -2.428 -10.318  23.265  1.00  0.00    -0.264 OA
ATOM     22  H1  UNL     1       0.302  -9.933  24.831  1.00  0.00     0.190 HD
BRANCH  20  23
HETATM   23  C10 UNL     1      -2.032  -8.733  24.934  1.00  0.00     0.147 A
HETATM   24  C11 UNL     1      -2.340  -8.854  26.278  1.00  0.00     0.048 A
HETATM   25  C12 UNL     1      -2.697  -7.627  26.765  1.00  0.00     0.066 A
HETATM   26  C13 UNL     1      -2.593  -6.765  25.671  1.00  0.00     0.215 A
HETATM   27  O6  UNL     1      -2.202  -7.479  24.640  1.00  0.00    -0.283 OA
BRANCH  26  28
HETATM   28  N6  UNL     1      -2.856  -5.374  25.647  1.00  0.00    -0.090 N
HETATM   29  O4  UNL     1      -3.786  -4.907  26.315  1.00  0.00    -0.530 OA
HETATM   30  O5  UNL     1      -2.086  -4.546  24.893  1.00  0.00    -0.530 OA
ENDBRANCH  26  28
ENDBRANCH  20  23
ENDBRANCH   1  19
TORSDOF 5
ENDMDL