MODEL 5
REMARK VINA RESULT: -8.119528810      2.149      3.851
REMARK  4 active torsions:
REMARK  status: ('A' for Active; 'I' for Inactive)
REMARK    1  A    between atoms: C3_6  and  C4_7
REMARK    2  A    between atoms: C6_12  and  S1_13
REMARK    3  A    between atoms: S1_13  and  C7_16
REMARK    4  A    between atoms: C12_21  and  N4_22
ROOT
HETATM    1  N1  UNL     1       1.359 -15.251  19.349  1.00  0.00    -0.188 NA
HETATM    2  C1  UNL     1       1.386 -14.623  20.320  1.00  0.00     0.137 C
HETATM    3  C2  UNL     1       1.402 -13.829  21.511  1.00  0.00     0.190 A
HETATM    4  N2  UNL     1       2.469 -13.051  21.769  1.00  0.00    -0.326 N
ATOM      5  H2  UNL     1       3.236 -13.059  21.096  1.00  0.00     0.168 HD
HETATM    6  C3  UNL     1       2.598 -12.270  22.842  1.00  0.00     0.139 A
HETATM    7  C5  UNL     1       1.546 -12.271  23.752  1.00  0.00     0.118 A
HETATM    8  N3  UNL     1       1.583 -11.481  24.919  1.00  0.00    -0.097 NA
HETATM    9  C6  UNL     1       0.446 -13.053  23.517  1.00  0.00     0.162 A
HETATM   10  N5  UNL     1       0.401 -13.803  22.418  1.00  0.00    -0.322 N
ATOM     11  H5  UNL     1      -0.424 -14.382  22.253  1.00  0.00     0.169 HD
ENDROOT
BRANCH   6  12
HETATM   12  C4  UNL     1       3.780 -11.450  23.065  1.00  0.00     0.229 C
HETATM   13  O1  UNL     1       4.084 -10.490  22.313  1.00  0.00    -0.643 OA
HETATM   14  O2  UNL     1       4.638 -11.697  24.135  1.00  0.00    -0.643 OA
ENDBRANCH   6  12
BRANCH   9  15
HETATM   15  S1  UNL     1      -0.872 -13.065  24.646  1.00  0.00     0.226 S
HETATM   16  O3  UNL     1      -1.973 -13.978  24.225  1.00  0.00    -0.216 OA
HETATM   17  O4  UNL     1      -0.293 -13.632  25.942  1.00  0.00    -0.216 OA
BRANCH  15  18
HETATM   18  C7  UNL     1      -1.470 -11.490  25.000  1.00  0.00     0.098 A
HETATM   19  C8  UNL     1      -1.482 -11.061  26.303  1.00  0.00     0.026 A
HETATM   20  C9  UNL     1      -1.953  -9.815  26.659  1.00  0.00     0.002 A
HETATM   21  C10 UNL     1      -2.418  -9.002  25.649  1.00  0.00     0.003 A
HETATM   22  C11 UNL     1      -2.425  -9.389  24.335  1.00  0.00     0.037 A
HETATM   23  C12 UNL     1      -1.935 -10.670  24.014  1.00  0.00     0.124 A
BRANCH  23  24
HETATM   24  N4  UNL     1      -1.966 -10.958  22.631  1.00  0.00    -0.114 N
HETATM   25  O5  UNL     1      -2.845 -11.587  22.055  1.00  0.00    -0.532 OA
HETATM   26  O6  UNL     1      -0.927 -10.475  21.841  1.00  0.00    -0.532 OA
ENDBRANCH  23  24
ENDBRANCH  15  18
ENDBRANCH   9  15
TORSDOF 4
ENDMDL