MODEL 4
REMARK VINA RESULT: -7.657188173      2.300      3.735
REMARK  5 active torsions:
REMARK  status: ('A' for Active; 'I' for Inactive)
REMARK    1  A    between atoms: O1_2  and  C2_3
REMARK    2  A    between atoms: C2_3  and  C3_5
REMARK    3  A    between atoms: C5_10  and  S1_11
REMARK    4  A    between atoms: S1_11  and  C6_14
REMARK    5  A    between atoms: C12_20  and  N3_21
ROOT
HETATM    1  C3  UNL     1      -3.138  -7.025  23.636  1.00  0.00     0.136 A
HETATM    2  N1  UNL     1      -2.842  -7.227  24.926  1.00  0.00    -0.337 N
ATOM      3  H1  UNL     1      -2.979  -6.462  25.587  1.00  0.00     0.167 HD
HETATM    4  C4  UNL     1      -2.371  -8.403  25.385  1.00  0.00     0.141 A
HETATM    5  N2  UNL     1      -2.082  -8.537  26.766  1.00  0.00    -0.081 NA
HETATM    6  C5  UNL     1      -2.166  -9.488  24.525  1.00  0.00     0.140 A
HETATM    7  C12 UNL     1      -2.453  -9.321  23.207  1.00  0.00     0.154 A
HETATM    8  C13 UNL     1      -2.943  -8.073  22.771  1.00  0.00     0.114 A
HETATM    9  N4  UNL     1      -3.260  -7.850  21.410  1.00  0.00    -0.097 NA
ENDROOT
BRANCH   6  10
HETATM   10  S1  UNL     1      -1.585 -11.004  25.137  1.00  0.00     0.212 S
HETATM   11  O3  UNL     1      -2.729 -12.012  25.063  1.00  0.00    -0.217 OA
HETATM   12  O4  UNL     1      -1.112 -10.875  26.529  1.00  0.00    -0.217 OA
BRANCH  10  13
HETATM   13  C6  UNL     1      -0.284 -11.664  24.181  1.00  0.00     0.064 A
HETATM   14  C7  UNL     1      -0.344 -12.899  23.572  1.00  0.00     0.024 A
HETATM   15  C8  UNL     1       0.733 -13.360  22.822  1.00  0.00     0.002 A
HETATM   16  C9  UNL     1       1.877 -12.611  22.667  1.00  0.00     0.000 A
HETATM   17  C10 UNL     1       1.956 -11.381  23.265  1.00  0.00     0.002 A
HETATM   18  C11 UNL     1       0.861 -10.934  24.015  1.00  0.00     0.024 A
ENDBRANCH  10  13
ENDBRANCH   6  10
BRANCH   7  19
HETATM   19  N3  UNL     1      -2.323 -10.285  22.183  1.00  0.00    -0.112 N
HETATM   20  O5  UNL     1      -3.204 -11.142  22.040  1.00  0.00    -0.532 OA
HETATM   21  O6  UNL     1      -1.190 -10.242  21.400  1.00  0.00    -0.532 OA
ENDBRANCH   7  19
BRANCH   1  22
HETATM   22  C2  UNL     1      -3.644  -5.747  23.167  1.00  0.00     0.311 C
HETATM   23  O2  UNL     1      -4.875  -5.531  23.052  1.00  0.00    -0.258 OA
BRANCH  22  24
HETATM   24  O1  UNL     1      -2.799  -4.704  22.826  1.00  0.00    -0.321 OA
HETATM   25  C1  UNL     1      -2.496  -4.354  21.488  1.00  0.00     0.213 C
ENDBRANCH  22  24
ENDBRANCH   1  22
TORSDOF 5
ENDMDL