MODEL 5
REMARK VINA RESULT: -9.085404073      1.681      3.384
REMARK  12 active torsions:
REMARK  status: ('A' for Active; 'I' for Inactive)
REMARK    1  A    between atoms: C4_4  and  N1_5
REMARK    2  A    between atoms: N1_5  and  C5_7
REMARK    3  A    between atoms: C13_15  and  N2_16
REMARK    4  A    between atoms: N2_16  and  C14_18
REMARK    5  A    between atoms: C14_18  and  C15_19
REMARK    6  A    between atoms: C15_19  and  C16_20
REMARK    7  A    between atoms: C16_20  and  C17_21
REMARK    8  A    between atoms: C17_21  and  C18_22
REMARK    9  A    between atoms: C18_22  and  C19_23
REMARK   10  A    between atoms: C19_23  and  N3_24
REMARK   11  A    between atoms: N3_24  and  C20_27
REMARK   12  A    between atoms: C20_27  and  C21_28
ROOT
HETATM    1  N2  UNL     1       6.595 -66.073  59.842  1.00  0.00    -0.413 N
ATOM      2  H2  UNL     1       6.627 -65.341  60.552  1.00  0.00     0.153 HD
ENDROOT
BRANCH   1   3
HETATM    3  C13 UNL     1       6.292 -67.421  60.194  1.00  0.00     0.105 C
HETATM    4  C2  UNL     1       6.814 -67.777  61.549  1.00  0.00    -0.062 C
HETATM    5  C1  UNL     1       7.372 -66.987  62.404  1.00  0.00     0.016 C
HETATM    6  C3  UNL     1       6.634 -69.240  61.885  1.00  0.00     0.087 C
HETATM    7  C4  UNL     1       7.772 -69.931  61.077  1.00  0.00    -0.014 C
HETATM    8  C11 UNL     1       7.916 -69.323  59.747  1.00  0.00     0.054 C
HETATM    9  C12 UNL     1       6.732 -68.493  59.263  1.00  0.00     0.035 C
BRANCH   7  10
HETATM   10  N1  UNL     1       7.762 -71.281  61.333  1.00  0.00    -0.391 N
ATOM     11  H1  UNL     1       7.470 -71.547  62.273  1.00  0.00     0.159 HD
BRANCH  10  12
HETATM   12  C5  UNL     1       8.089 -72.317  60.505  1.00  0.00     0.081 C
HETATM   13  C6  UNL     1       6.929 -73.061  59.907  1.00  0.00     0.025 C
HETATM   14  C7  UNL     1       7.430 -74.106  58.911  1.00  0.00     0.002 C
HETATM   15  C8  UNL     1       8.276 -75.097  59.689  1.00  0.00     0.000 C
HETATM   16  C9  UNL     1       9.458 -74.323  60.261  1.00  0.00     0.002 C
HETATM   17  C10 UNL     1       8.897 -73.368  61.303  1.00  0.00     0.025 C
ENDBRANCH  10  12
ENDBRANCH   7  10
ENDBRANCH   1   3
BRANCH   1  18
HETATM   18  C14 UNL     1       6.850 -65.778  58.480  1.00  0.00     0.114 C
BRANCH  18  19
HETATM   19  C15 UNL     1       5.739 -64.990  57.873  1.00  0.00     0.019 C
BRANCH  19  20
HETATM   20  C16 UNL     1       5.139 -65.495  56.601  1.00  0.00     0.002 C
BRANCH  20  21
HETATM   21  C17 UNL     1       5.901 -66.622  56.038  1.00  0.00     0.002 C
BRANCH  21  22
HETATM   22  C18 UNL     1       6.707 -66.362  54.804  1.00  0.00     0.027 C
BRANCH  22  23
HETATM   23  C19 UNL     1       6.877 -64.933  54.419  1.00  0.00     0.232 C
BRANCH  23  24
HETATM   24  N3  UNL     1       8.127 -64.317  54.758  1.00  0.00    -0.069 N
ATOM     25  H32 UNL     1       8.749 -64.916  55.302  1.00  0.00     0.277 HD
ATOM     26  H31 UNL     1       8.754 -64.189  53.964  1.00  0.00     0.277 HD
BRANCH  24  27
HETATM   27  C20 UNL     1       7.756 -63.042  55.449  1.00  0.00     0.296 C
BRANCH  27  28
HETATM   28  C21 UNL     1       8.832 -62.818  56.482  1.00  0.00     0.078 A
HETATM   29  C22 UNL     1       9.637 -63.804  57.013  1.00  0.00     0.036 A
HETATM   30  C23 UNL     1      10.483 -63.150  57.907  1.00  0.00     0.027 A
HETATM   31  C24 UNL     1      10.094 -61.814  57.825  1.00  0.00     0.142 A
HETATM   32  O1  UNL     1       9.131 -61.636  56.990  1.00  0.00    -0.325 OA
ENDBRANCH  27  28
ENDBRANCH  24  27
ENDBRANCH  23  24
ENDBRANCH  22  23
ENDBRANCH  21  22
ENDBRANCH  20  21
ENDBRANCH  19  20
ENDBRANCH  18  19
ENDBRANCH   1  18
TORSDOF 12
ENDMDL