MODEL 5
REMARK VINA RESULT: -9.087876417      1.888      3.825
REMARK  11 active torsions:
REMARK  status: ('A' for Active; 'I' for Inactive)
REMARK    1  A    between atoms: C7_7  and  C8_8
REMARK    2  A    between atoms: C8_8  and  N1_9
REMARK    3  A    between atoms: N1_9  and  C9_11
REMARK    4  A    between atoms: C9_11  and  C10_12
REMARK    5  A    between atoms: C10_12  and  C11_13
REMARK    6  A    between atoms: C11_13  and  N2_14
REMARK    7  A    between atoms: N2_14  and  C12_16
REMARK    8  A    between atoms: C12_16  and  C13_17
REMARK    9  A    between atoms: C13_17  and  C14_18
REMARK   10  A    between atoms: C14_18  and  S1_19
REMARK   11  A    between atoms: S1_19  and  C15_20
ROOT
HETATM    1  N1  UNL     1       6.645 -69.161  62.231  1.00  0.00    -0.398 N
ATOM      2  H1  UNL     1       5.853 -69.804  62.208  1.00  0.00     0.158 HD
ENDROOT
BRANCH   1   3
HETATM    3  C8  UNL     1       7.809 -69.461  61.457  1.00  0.00     0.158 C
BRANCH   3   4
HETATM    4  C7  UNL     1       7.683 -70.826  60.856  1.00  0.00    -0.033 A
HETATM    5  C2  UNL     1       7.590 -71.034  59.531  1.00  0.00    -0.053 A
HETATM    6  C1  UNL     1       7.360 -69.909  58.589  1.00  0.00     0.049 C
HETATM    7  C3  UNL     1       7.691 -72.313  58.976  1.00  0.00     0.016 A
HETATM    8  C4  UNL     1       7.896 -73.407  59.824  1.00  0.00    -0.031 A
HETATM    9  C5  UNL     1       7.989 -73.218  61.167  1.00  0.00     0.035 A
HETATM   10  C23 UNL     1       8.015 -74.770  59.257  1.00  0.00     0.042 C
HETATM   11  C6  UNL     1       7.882 -71.945  61.685  1.00  0.00     0.039 A
HETATM   12  N3  UNL     1       8.241 -74.345  61.978  1.00  0.00    -0.389 N
HETATM   13  C21 UNL     1       9.025 -75.436  61.481  1.00  0.00     0.120 C
ATOM     14  H3  UNL     1       7.862 -74.384  62.923  1.00  0.00     0.159 HD
HETATM   15  C22 UNL     1       8.865 -75.712  60.028  1.00  0.00     0.024 C
ENDBRANCH   3   4
ENDBRANCH   1   3
BRANCH   1  16
HETATM   16  C9  UNL     1       6.566 -68.029  63.004  1.00  0.00     0.057 C
BRANCH  16  17
HETATM   17  C10 UNL     1       7.324 -66.786  62.876  1.00  0.00     0.063 C
BRANCH  17  18
HETATM   18  C11 UNL     1       7.090 -65.990  61.590  1.00  0.00     0.118 C
BRANCH  18  19
HETATM   19  N2  UNL     1       7.678 -64.693  61.819  1.00  0.00    -0.421 N
ATOM     20  H2  UNL     1       7.902 -64.374  62.762  1.00  0.00     0.153 HD
BRANCH  19  21
HETATM   21  C12 UNL     1       7.934 -63.878  60.691  1.00  0.00     0.114 C
BRANCH  21  22
HETATM   22  C13 UNL     1       8.569 -64.746  59.598  1.00  0.00     0.029 C
BRANCH  22  23
HETATM   23  C14 UNL     1       8.274 -64.139  58.233  1.00  0.00     0.081 C
BRANCH  23  24
HETATM   24  S1  UNL     1       6.461 -64.328  57.933  1.00  0.00    -0.130 SA
BRANCH  24  25
HETATM   25  C15 UNL     1       6.364 -65.605  56.682  1.00  0.00     0.000 A
HETATM   26  C16 UNL     1       5.945 -66.859  56.971  1.00  0.00     0.018 A
HETATM   27  C17 UNL     1       5.941 -67.821  55.970  1.00  0.00     0.001 A
HETATM   28  C18 UNL     1       6.363 -67.462  54.707  1.00  0.00     0.000 A
HETATM   29  C19 UNL     1       6.792 -66.158  54.428  1.00  0.00     0.001 A
HETATM   30  C20 UNL     1       6.800 -65.213  55.405  1.00  0.00     0.018 A
ENDBRANCH  24  25
ENDBRANCH  23  24
ENDBRANCH  22  23
ENDBRANCH  21  22
ENDBRANCH  19  21
ENDBRANCH  18  19
ENDBRANCH  17  18
ENDBRANCH  16  17
ENDBRANCH   1  16
TORSDOF 11
ENDMDL