MODEL 3
REMARK VINA RESULT: -9.112070345      2.551      8.014
REMARK  11 active torsions:
REMARK  status: ('A' for Active; 'I' for Inactive)
REMARK    1  A    between atoms: C2_2  and  C3_3
REMARK    2  A    between atoms: C3_3  and  C4_4
REMARK    3  A    between atoms: C4_4  and  N1_5
REMARK    4  A    between atoms: N1_5  and  C5_7
REMARK    5  A    between atoms: C5_7  and  C6_8
REMARK    6  A    between atoms: C6_8  and  C7_9
REMARK    7  A    between atoms: C7_9  and  N2_10
REMARK    8  A    between atoms: N2_10  and  C8_12
REMARK    9  A    between atoms: C8_12  and  C9_13
REMARK   10  A    between atoms: C10_18  and  C11_19
REMARK   11  A    between atoms: C17_25  and  C18_26
ROOT
HETATM    1  C18 UNL     1       8.039 -70.402  59.351  1.00  0.00    -0.021 A
HETATM    2  C19 UNL     1       7.064 -71.341  59.320  1.00  0.00     0.014 A
HETATM    3  C20 UNL     1       7.296 -72.624  59.824  1.00  0.00     0.023 A
HETATM    4  C21 UNL     1       8.500 -72.970  60.359  1.00  0.00     0.044 A
HETATM    5  C22 UNL     1       8.731 -74.295  60.879  1.00  0.00     0.099 C
HETATM    6  N5  UNL     1       8.907 -75.358  61.278  1.00  0.00    -0.191 NA
HETATM    7  C23 UNL     1       9.508 -72.021  60.397  1.00  0.00     0.023 A
HETATM    8  C24 UNL     1       9.276 -70.763  59.902  1.00  0.00     0.014 A
ENDROOT
BRANCH   1   9
HETATM    9  C17 UNL     1       7.935 -69.018  58.853  1.00  0.00     0.029 A
HETATM   10  C9  UNL     1       8.070 -68.529  57.577  1.00  0.00     0.056 A
HETATM   11  N3  UNL     1       7.968 -67.202  57.637  1.00  0.00    -0.302 N
HETATM   12  N4  UNL     1       7.774 -66.825  58.863  1.00  0.00    -0.299 N
ATOM     13  H3  UNL     1       8.033 -66.574  56.836  1.00  0.00     0.186 HD
HETATM   14  C10 UNL     1       7.743 -67.928  59.655  1.00  0.00     0.071 A
ATOM     15  H4  UNL     1       7.664 -65.862  59.179  1.00  0.00     0.187 HD
BRANCH  10  16
HETATM   16  C8  UNL     1       8.138 -69.347  56.333  1.00  0.00     0.178 C
BRANCH  16  17
HETATM   17  N2  UNL     1       7.068 -69.108  55.411  1.00  0.00    -0.396 N
ATOM     18  H2  UNL     1       6.850 -69.776  54.671  1.00  0.00     0.159 HD
BRANCH  17  19
HETATM   19  C7  UNL     1       6.344 -67.948  55.557  1.00  0.00     0.061 C
BRANCH  19  20
HETATM   20  C6  UNL     1       6.354 -66.928  54.481  1.00  0.00     0.088 C
BRANCH  20  21
HETATM   21  C5  UNL     1       6.516 -65.504  54.891  1.00  0.00     0.060 C
BRANCH  21  22
HETATM   22  N1  UNL     1       7.661 -64.848  54.425  1.00  0.00    -0.402 N
ATOM     23  H1  UNL     1       8.403 -65.335  53.922  1.00  0.00     0.158 HD
BRANCH  22  24
HETATM   24  C4  UNL     1       7.715 -63.446  54.704  1.00  0.00     0.118 C
BRANCH  24  25
HETATM   25  C3  UNL     1       6.514 -62.785  54.088  1.00  0.00     0.019 C
BRANCH  25  26
HETATM   26  C2  UNL     1       6.876 -61.597  53.243  1.00  0.00    -0.003 C
HETATM   27  C1  UNL     1       6.792 -60.322  54.045  1.00  0.00     0.005 C
ENDBRANCH  25  26
ENDBRANCH  24  25
ENDBRANCH  22  24
ENDBRANCH  21  22
ENDBRANCH  20  21
ENDBRANCH  19  20
ENDBRANCH  17  19
ENDBRANCH  16  17
ENDBRANCH  10  16
BRANCH  14  28
HETATM   28  C11 UNL     1       7.456 -67.877  61.080  1.00  0.00    -0.007 A
HETATM   29  C12 UNL     1       7.450 -66.627  61.647  1.00  0.00     0.014 A
HETATM   30  C13 UNL     1       7.231 -66.501  62.994  1.00  0.00     0.001 A
HETATM   31  C14 UNL     1       7.021 -67.608  63.764  1.00  0.00     0.000 A
HETATM   32  C15 UNL     1       7.030 -68.862  63.179  1.00  0.00     0.001 A
HETATM   33  C16 UNL     1       7.251 -68.999  61.815  1.00  0.00     0.014 A
ENDBRANCH  14  28
ENDBRANCH   1   9
TORSDOF 11
ENDMDL