MODEL 3
REMARK VINA RESULT: -8.893490324      2.106      3.558
REMARK  14 active torsions:
REMARK  status: ('A' for Active; 'I' for Inactive)
REMARK    1  A    between atoms: N1_1  and  C1_5
REMARK    2  A    between atoms: C1_5  and  C2_6
REMARK    3  A    between atoms: C2_6  and  C3_7
REMARK    4  A    between atoms: C3_7  and  C4_8
REMARK    5  A    between atoms: C4_8  and  C5_9
REMARK    6  A    between atoms: C5_9  and  C6_10
REMARK    7  A    between atoms: C6_10  and  C7_11
REMARK    8  A    between atoms: C7_11  and  C8_12
REMARK    9  A    between atoms: C8_12  and  O1_13
REMARK   10  A    between atoms: O1_13  and  C9_14
REMARK   11  A    between atoms: C12_17  and  N2_18
REMARK   12  A    between atoms: N2_18  and  C13_19
REMARK   13  A    between atoms: C18_26  and  C19_27
REMARK   14  A    between atoms: C19_27  and  N4_28
ROOT
HETATM    1  C9  UNL     1       5.589 -65.643  55.893  1.00  0.00     0.069 A
HETATM    2  C10 UNL     1       5.965 -66.961  55.769  1.00  0.00     0.040 A
HETATM    3  C11 UNL     1       6.326 -67.689  56.867  1.00  0.00     0.047 A
HETATM    4  C12 UNL     1       6.333 -67.136  58.163  1.00  0.00     0.107 A
HETATM    5  C23 UNL     1       5.949 -65.797  58.267  1.00  0.00     0.047 A
HETATM    6  C24 UNL     1       5.596 -65.108  57.152  1.00  0.00     0.040 A
ENDROOT
BRANCH   4   7
HETATM    7  N2  UNL     1       6.695 -67.902  59.177  1.00  0.00    -0.405 NA
BRANCH   7   8
HETATM    8  C13 UNL     1       6.853 -68.459  60.208  1.00  0.00     0.121 A
HETATM    9  C14 UNL     1       6.598 -67.772  61.418  1.00  0.00     0.062 A
HETATM   10  C15 UNL     1       6.788 -68.416  62.612  1.00  0.00     0.091 A
HETATM   11  N3  UNL     1       7.210 -69.685  62.673  1.00  0.00    -0.365 N
HETATM   12  C16 UNL     1       7.469 -70.396  61.569  1.00  0.00     0.046 A
ATOM     13  H3  UNL     1       7.338 -70.123  63.585  1.00  0.00     0.165 HD
HETATM   14  C17 UNL     1       7.904 -71.706  61.633  1.00  0.00     0.039 A
HETATM   15  C22 UNL     1       7.289 -69.780  60.351  1.00  0.00     0.031 A
HETATM   16  C18 UNL     1       8.162 -72.412  60.492  1.00  0.00    -0.031 A
HETATM   17  C20 UNL     1       7.974 -71.776  59.287  1.00  0.00     0.010 A
HETATM   18  C21 UNL     1       7.541 -70.468  59.171  1.00  0.00     0.018 A
BRANCH  16  19
HETATM   19  C19 UNL     1       8.632 -73.830  60.556  1.00  0.00     0.268 C
BRANCH  19  20
HETATM   20  N4  UNL     1      10.072 -73.840  60.684  1.00  0.00    -0.075 N
ATOM     21  H43 UNL     1      10.417 -73.068  61.254  1.00  0.00     0.274 HD
ATOM     22  H42 UNL     1      10.404 -74.607  61.269  1.00  0.00     0.274 HD
ATOM     23  H41 UNL     1      10.487 -73.853  59.753  1.00  0.00     0.274 HD
ENDBRANCH  19  20
ENDBRANCH  16  19
ENDBRANCH   7   8
ENDBRANCH   4   7
BRANCH   1  24
HETATM   24  O1  UNL     1       5.224 -64.905  54.790  1.00  0.00    -0.351 OA
BRANCH  24  25
HETATM   25  C8  UNL     1       4.943 -63.508  54.870  1.00  0.00     0.175 C
BRANCH  25  26
HETATM   26  C7  UNL     1       5.823 -62.721  53.959  1.00  0.00     0.027 C
BRANCH  26  27
HETATM   27  C6  UNL     1       7.284 -62.956  54.107  1.00  0.00     0.002 C
BRANCH  27  28
HETATM   28  C5  UNL     1       7.803 -62.708  55.493  1.00  0.00     0.000 C
BRANCH  28  29
HETATM   29  C4  UNL     1       8.742 -63.783  55.969  1.00  0.00     0.000 C
BRANCH  29  30
HETATM   30  C3  UNL     1       9.277 -63.605  57.334  1.00  0.00     0.002 C
BRANCH  30  31
HETATM   31  C2  UNL     1      10.538 -62.860  57.516  1.00  0.00     0.027 C
BRANCH  31  32
HETATM   32  C1  UNL     1      10.487 -61.376  57.426  1.00  0.00     0.229 C
BRANCH  32  33
HETATM   33  N1  UNL     1      11.694 -60.659  57.408  1.00  0.00    -0.079 N
ATOM     34  H13 UNL     1      12.383 -61.184  56.869  1.00  0.00     0.274 HD
ATOM     35  H12 UNL     1      11.577 -59.830  56.824  1.00  0.00     0.274 HD
ATOM     36  H11 UNL     1      12.112 -60.380  58.296  1.00  0.00     0.274 HD
ENDBRANCH  32  33
ENDBRANCH  31  32
ENDBRANCH  30  31
ENDBRANCH  29  30
ENDBRANCH  28  29
ENDBRANCH  27  28
ENDBRANCH  26  27
ENDBRANCH  25  26
ENDBRANCH  24  25
ENDBRANCH   1  24
TORSDOF 14
ENDMDL