MODEL 4
REMARK VINA RESULT: -9.419556566      1.287      2.128
REMARK  12 active torsions:
REMARK  status: ('A' for Active; 'I' for Inactive)
REMARK    1  A    between atoms: C4_4  and  N1_5
REMARK    2  A    between atoms: N1_5  and  C5_7
REMARK    3  A    between atoms: C5_7  and  C6_8
REMARK    4  A    between atoms: C6_8  and  C7_9
REMARK    5  A    between atoms: C7_9  and  C8_10
REMARK    6  A    between atoms: C8_10  and  C9_11
REMARK    7  A    between atoms: C9_11  and  C10_12
REMARK    8  A    between atoms: C10_12  and  C11_13
REMARK    9  A    between atoms: C11_13  and  C12_14
REMARK   10  A    between atoms: C12_14  and  C13_15
REMARK   11  A    between atoms: C13_15  and  N2_16
REMARK   12  A    between atoms: C20_26  and  N3_27
ROOT
HETATM    1  C1  UNL     1       8.143 -70.011  57.267  1.00  0.00     0.050 C
HETATM    2  C2  UNL     1       7.820 -69.125  58.390  1.00  0.00    -0.032 A
HETATM    3  C3  UNL     1       7.580 -67.772  58.178  1.00  0.00     0.039 A
HETATM    4  C4  UNL     1       7.272 -66.896  59.215  1.00  0.00     0.039 A
HETATM    5  C14 UNL     1       7.207 -67.410  60.500  1.00  0.00     0.003 A
HETATM    6  C15 UNL     1       6.905 -66.632  61.585  1.00  0.00     0.014 A
HETATM    7  C16 UNL     1       6.836 -67.152  62.878  1.00  0.00     0.001 A
HETATM    8  C17 UNL     1       7.081 -68.494  63.044  1.00  0.00     0.001 A
HETATM    9  C18 UNL     1       7.385 -69.313  61.989  1.00  0.00     0.014 A
HETATM   10  C19 UNL     1       7.447 -68.774  60.728  1.00  0.00     0.003 A
HETATM   11  C20 UNL     1       7.753 -69.628  59.668  1.00  0.00     0.047 A
ENDROOT
BRANCH   4  12
HETATM   12  N1  UNL     1       7.077 -65.520  58.989  1.00  0.00    -0.389 N
ATOM     13  H1  UNL     1       6.204 -65.078  59.275  1.00  0.00     0.159 HD
BRANCH  12  14
HETATM   14  C5  UNL     1       8.100 -64.737  58.360  1.00  0.00     0.119 C
BRANCH  14  15
HETATM   15  C6  UNL     1       7.690 -63.422  57.816  1.00  0.00     0.020 C
BRANCH  15  16
HETATM   16  C7  UNL     1       8.133 -63.039  56.461  1.00  0.00     0.002 C
BRANCH  16  17
HETATM   17  C8  UNL     1       8.517 -64.158  55.565  1.00  0.00     0.000 C
BRANCH  17  18
HETATM   18  C9  UNL     1       7.360 -64.581  54.654  1.00  0.00     0.000 C
BRANCH  18  19
HETATM   19  C10 UNL     1       6.912 -65.990  54.922  1.00  0.00     0.000 C
BRANCH  19  20
HETATM   20  C11 UNL     1       5.577 -65.893  55.647  1.00  0.00     0.002 C
BRANCH  20  21
HETATM   21  C12 UNL     1       4.903 -64.580  55.361  1.00  0.00     0.027 C
BRANCH  21  22
HETATM   22  C13 UNL     1       4.056 -64.113  56.520  1.00  0.00     0.229 C
BRANCH  22  23
HETATM   23  N2  UNL     1       2.776 -63.602  56.092  1.00  0.00    -0.079 N
ATOM     24  H23 UNL     1       2.787 -63.367  55.099  1.00  0.00     0.274 HD
ATOM     25  H22 UNL     1       2.071 -64.339  56.077  1.00  0.00     0.274 HD
ATOM     26  H21 UNL     1       2.468 -62.809  56.655  1.00  0.00     0.274 HD
ENDBRANCH  22  23
ENDBRANCH  21  22
ENDBRANCH  20  21
ENDBRANCH  19  20
ENDBRANCH  18  19
ENDBRANCH  17  18
ENDBRANCH  16  17
ENDBRANCH  15  16
ENDBRANCH  14  15
ENDBRANCH  12  14
ENDBRANCH   4  12
BRANCH  11  27
HETATM   27  N3  UNL     1       8.000 -71.006  59.875  1.00  0.00    -0.377 N
HETATM   28  C21 UNL     1       9.311 -71.565  60.190  1.00  0.00     0.142 C
HETATM   29  C22 UNL     1       9.143 -72.911  60.898  1.00  0.00     0.133 C
HETATM   30  N4  UNL     1       8.493 -73.843  60.033  1.00  0.00    -0.418 N
HETATM   31  C23 UNL     1       7.368 -73.321  59.305  1.00  0.00     0.133 C
ATOM     32  H4  UNL     1       8.804 -74.809  59.939  1.00  0.00     0.153 HD
HETATM   33  C24 UNL     1       6.926 -71.975  59.791  1.00  0.00     0.142 C
ENDBRANCH  11  27
TORSDOF 12
ENDMDL