MODEL 1
REMARK VINA RESULT: -9.537081773      0.000      0.000
REMARK  11 active torsions:
REMARK  status: ('A' for Active; 'I' for Inactive)
REMARK    1  A    between atoms: C4_4  and  O1_5
REMARK    2  A    between atoms: O1_5  and  C5_6
REMARK    3  A    between atoms: C5_6  and  C6_7
REMARK    4  A    between atoms: C6_7  and  C7_8
REMARK    5  A    between atoms: C7_8  and  N1_9
REMARK    6  A    between atoms: N1_9  and  C8_11
REMARK    7  A    between atoms: C8_11  and  C9_12
REMARK    8  A    between atoms: C9_12  and  C10_13
REMARK    9  A    between atoms: C10_13  and  C11_14
REMARK   10  A    between atoms: C11_14  and  N2_15
REMARK   11  A    between atoms: N2_15  and  C12_17
ROOT
HETATM    1  C11 UNL     1       7.573 -69.120  56.706  1.00  0.00     0.120 C
ENDROOT
BRANCH   1   2
HETATM    2  C10 UNL     1       6.281 -68.452  56.297  1.00  0.00     0.025 C
BRANCH   2   3
HETATM    3  C9  UNL     1       6.367 -67.737  55.007  1.00  0.00     0.046 C
BRANCH   3   4
HETATM    4  C8  UNL     1       6.759 -66.332  54.928  1.00  0.00     0.055 C
BRANCH   4   5
HETATM    5  N1  UNL     1       6.614 -65.430  55.989  1.00  0.00    -0.402 N
ATOM      6  H1  UNL     1       5.684 -65.133  56.283  1.00  0.00     0.158 HD
BRANCH   5   7
HETATM    7  C7  UNL     1       7.740 -64.938  56.644  1.00  0.00     0.120 C
BRANCH   7   8
HETATM    8  C6  UNL     1       7.961 -65.593  58.017  1.00  0.00     0.046 C
BRANCH   8   9
HETATM    9  C5  UNL     1       6.720 -65.425  58.837  1.00  0.00     0.177 C
BRANCH   9  10
HETATM   10  O1  UNL     1       6.325 -66.600  59.425  1.00  0.00    -0.351 OA
BRANCH  10  11
HETATM   11  C4  UNL     1       6.566 -67.005  60.702  1.00  0.00     0.068 A
HETATM   12  C3  UNL     1       6.264 -68.335  61.076  1.00  0.00     0.037 A
HETATM   13  C2  UNL     1       6.499 -68.760  62.340  1.00  0.00     0.003 A
HETATM   14  C1  UNL     1       7.035 -67.949  63.322  1.00  0.00     0.000 A
HETATM   15  C23 UNL     1       7.326 -66.663  62.952  1.00  0.00     0.003 A
HETATM   16  C22 UNL     1       7.099 -66.183  61.658  1.00  0.00     0.037 A
ENDBRANCH  10  11
ENDBRANCH   9  10
ENDBRANCH   8   9
ENDBRANCH   7   8
ENDBRANCH   5   7
ENDBRANCH   4   5
ENDBRANCH   3   4
ENDBRANCH   2   3
ENDBRANCH   1   2
BRANCH   1  17
HETATM   17  N2  UNL     1       7.661 -69.140  58.143  1.00  0.00    -0.390 N
ATOM     18  H2  UNL     1       7.431 -68.296  58.667  1.00  0.00     0.159 HD
BRANCH  17  19
HETATM   19  C12 UNL     1       8.059 -70.302  58.844  1.00  0.00     0.030 A
HETATM   20  C13 UNL     1       9.272 -70.347  59.471  1.00  0.00     0.030 A
HETATM   21  C14 UNL     1       9.639 -71.501  60.160  1.00  0.00     0.019 A
HETATM   22  C15 UNL     1       8.780 -72.589  60.206  1.00  0.00     0.026 A
HETATM   23  C16 UNL     1       8.868 -73.836  60.799  1.00  0.00     0.103 A
HETATM   24  C18 UNL     1       7.553 -72.554  59.576  1.00  0.00     0.047 A
HETATM   25  C17 UNL     1       7.723 -74.544  60.538  1.00  0.00     0.046 A
HETATM   26  O2  UNL     1       9.721 -74.619  61.574  1.00  0.00    -0.348 OA
HETATM   27  N3  UNL     1       6.940 -73.737  59.791  1.00  0.00    -0.356 N
HETATM   28  C20 UNL     1       7.802 -75.908  61.182  1.00  0.00     0.086 C
ATOM     29  H3  UNL     1       6.015 -73.986  59.438  1.00  0.00     0.166 HD
HETATM   30  C21 UNL     1       9.206 -75.929  61.695  1.00  0.00     0.181 C
HETATM   31  C19 UNL     1       7.197 -71.412  58.897  1.00  0.00     0.059 A
ENDBRANCH  17  19
ENDBRANCH   1  17
TORSDOF 11
ENDMDL