MODEL 4
REMARK VINA RESULT: -9.810406841      1.390      7.307
REMARK  11 active torsions:
REMARK  status: ('A' for Active; 'I' for Inactive)
REMARK    1  A    between atoms: C2_2  and  N1_3
REMARK    2  A    between atoms: C2_2  and  C19_28
REMARK    3  A    between atoms: N1_3  and  C3_5
REMARK    4  A    between atoms: C6_10  and  C7_11
REMARK    5  A    between atoms: C7_11  and  N3_12
REMARK    6  A    between atoms: N3_12  and  C8_15
REMARK    7  A    between atoms: C8_15  and  C9_16
REMARK    8  A    between atoms: C9_16  and  C10_17
REMARK    9  A    between atoms: C10_17  and  N4_18
REMARK   10  A    between atoms: N4_18  and  C11_20
REMARK   11  A    between atoms: C11_20  and  C12_21
ROOT
HETATM    1  C3  UNL     1       6.510 -64.404  57.518  1.00  0.00     0.044 A
HETATM    2  C4  UNL     1       6.495 -63.412  56.564  1.00  0.00     0.116 A
HETATM    3  N2  UNL     1       6.327 -63.693  55.274  1.00  0.00    -0.372 N
ATOM      4  H2  UNL     1       6.317 -62.943  54.582  1.00  0.00     0.164 HD
HETATM    5  C5  UNL     1       6.168 -64.977  54.888  1.00  0.00     0.096 A
HETATM    6  C6  UNL     1       6.169 -66.031  55.771  1.00  0.00    -0.015 A
HETATM    7  C18 UNL     1       6.346 -65.708  57.121  1.00  0.00     0.040 A
ENDROOT
BRANCH   6   8
HETATM    8  C7  UNL     1       6.036 -67.385  55.229  1.00  0.00     0.272 C
BRANCH   8   9
HETATM    9  N3  UNL     1       6.209 -68.463  56.126  1.00  0.00    -0.071 N
ATOM     10  H32 UNL     1       5.883 -68.239  57.067  1.00  0.00     0.277 HD
ATOM     11  H31 UNL     1       5.571 -69.234  55.931  1.00  0.00     0.277 HD
BRANCH   9  12
HETATM   12  C8  UNL     1       7.612 -68.886  56.112  1.00  0.00     0.234 C
BRANCH  12  13
HETATM   13  C9  UNL     1       7.903 -69.979  57.109  1.00  0.00     0.046 C
BRANCH  13  14
HETATM   14  C10 UNL     1       8.164 -69.404  58.478  1.00  0.00     0.115 C
BRANCH  14  15
HETATM   15  N4  UNL     1       7.573 -70.172  59.533  1.00  0.00    -0.417 N
ATOM     16  H4  UNL     1       6.563 -70.282  59.621  1.00  0.00     0.153 HD
BRANCH  15  17
HETATM   17  C11 UNL     1       8.485 -70.777  60.458  1.00  0.00     0.152 C
BRANCH  17  18
HETATM   18  C12 UNL     1       8.488 -72.262  60.220  1.00  0.00    -0.041 A
HETATM   19  C13 UNL     1       7.455 -72.896  59.587  1.00  0.00     0.009 A
HETATM   20  C14 UNL     1       7.540 -74.268  59.407  1.00  0.00     0.001 A
HETATM   21  C15 UNL     1       8.619 -75.001  59.842  1.00  0.00     0.000 A
HETATM   22  C16 UNL     1       9.670 -74.369  60.487  1.00  0.00     0.001 A
HETATM   23  C17 UNL     1       9.565 -73.006  60.654  1.00  0.00     0.009 A
ENDBRANCH  17  18
ENDBRANCH  15  17
ENDBRANCH  14  15
ENDBRANCH  13  14
ENDBRANCH  12  13
ENDBRANCH   9  12
ENDBRANCH   8   9
ENDBRANCH   6   8
BRANCH   1  24
HETATM   24  N1  UNL     1       6.760 -64.051  58.847  1.00  0.00    -0.381 N
ATOM     25  H1  UNL     1       6.010 -63.533  59.304  1.00  0.00     0.160 HD
BRANCH  24  26
HETATM   26  C2  UNL     1       7.898 -64.305  59.658  1.00  0.00     0.111 C
HETATM   27  C1  UNL     1       9.160 -64.639  58.922  1.00  0.00     0.037 C
BRANCH  26  28
HETATM   28  C19 UNL     1       7.642 -65.198  60.786  1.00  0.00    -0.036 A
HETATM   29  C20 UNL     1       7.579 -64.673  62.070  1.00  0.00     0.009 A
HETATM   30  C21 UNL     1       7.343 -65.517  63.130  1.00  0.00     0.001 A
HETATM   31  C22 UNL     1       7.168 -66.878  62.959  1.00  0.00     0.000 A
HETATM   32  C23 UNL     1       7.229 -67.404  61.682  1.00  0.00     0.001 A
HETATM   33  C24 UNL     1       7.468 -66.539  60.609  1.00  0.00     0.009 A
ENDBRANCH  26  28
ENDBRANCH  24  26
ENDBRANCH   1  24
TORSDOF 11
ENDMDL