MODEL 2
REMARK VINA RESULT: -10.447053724      3.240      8.569
REMARK  10 active torsions:
REMARK  status: ('A' for Active; 'I' for Inactive)
REMARK    1  A    between atoms: N2_10  and  C8_12
REMARK    2  A    between atoms: C13_17  and  N3_18
REMARK    3  A    between atoms: C14_20  and  C15_21
REMARK    4  A    between atoms: C15_21  and  C16_22
REMARK    5  A    between atoms: C16_22  and  C17_23
REMARK    6  A    between atoms: C17_23  and  C18_24
REMARK    7  A    between atoms: C18_24  and  C19_25
REMARK    8  A    between atoms: C19_25  and  N4_26
REMARK    9  A    between atoms: N4_26  and  C20_28
REMARK   10  A    between atoms: C20_28  and  C21_29
ROOT
HETATM    1  C8  UNL     1       7.821 -69.982  60.355  1.00  0.00     0.129 C
HETATM    2  C9  UNL     1       7.052 -69.649  61.591  1.00  0.00     0.031 C
HETATM    3  C10 UNL     1       5.850 -68.776  61.247  1.00  0.00     0.003 C
HETATM    4  C11 UNL     1       6.423 -67.485  60.807  1.00  0.00     0.006 C
HETATM    5  C12 UNL     1       7.248 -67.604  59.553  1.00  0.00     0.054 C
HETATM    6  C13 UNL     1       8.056 -68.818  59.437  1.00  0.00     0.009 C
ENDROOT
BRANCH   6   7
HETATM    7  N3  UNL     1       8.494 -69.096  58.144  1.00  0.00    -0.374 N
HETATM    8  C14 UNL     1       7.741 -69.570  57.122  1.00  0.00     0.061 C
ATOM      9  H3  UNL     1       9.480 -68.926  57.947  1.00  0.00     0.164 HD
BRANCH   8  10
HETATM   10  C15 UNL     1       6.636 -68.875  56.436  1.00  0.00     0.044 C
BRANCH  10  11
HETATM   11  C16 UNL     1       6.892 -67.621  55.661  1.00  0.00     0.005 C
BRANCH  11  12
HETATM   12  C17 UNL     1       5.786 -66.602  55.991  1.00  0.00     0.005 C
BRANCH  12  13
HETATM   13  C18 UNL     1       5.855 -65.380  55.166  1.00  0.00     0.044 C
BRANCH  13  14
HETATM   14  C19 UNL     1       7.116 -65.150  54.456  1.00  0.00     0.056 C
BRANCH  14  15
HETATM   15  N4  UNL     1       8.164 -64.314  54.753  1.00  0.00    -0.398 N
ATOM     16  H4  UNL     1       9.051 -64.418  54.262  1.00  0.00     0.158 HD
BRANCH  15  17
HETATM   17  C20 UNL     1       8.016 -63.304  55.742  1.00  0.00     0.159 C
BRANCH  17  18
HETATM   18  C21 UNL     1       8.834 -63.710  56.937  1.00  0.00    -0.017 A
HETATM   19  C22 UNL     1       8.565 -64.756  57.777  1.00  0.00     0.035 A
HETATM   20  C23 UNL     1       9.645 -64.781  58.654  1.00  0.00     0.142 A
HETATM   21  O1  UNL     1      10.472 -63.815  58.340  1.00  0.00    -0.334 OA
HETATM   22  C24 UNL     1      10.025 -63.144  57.312  1.00  0.00     0.150 A
ENDBRANCH  17  18
ENDBRANCH  15  17
ENDBRANCH  14  15
ENDBRANCH  13  14
ENDBRANCH  12  13
ENDBRANCH  11  12
ENDBRANCH  10  11
ENDBRANCH   8  10
ENDBRANCH   6   7
BRANCH   1  23
HETATM   23  N2  UNL     1       8.896 -70.790  60.598  1.00  0.00    -0.366 N
HETATM   24  C7  UNL     1       9.302 -71.950  60.561  1.00  0.00     0.114 A
HETATM   25  C4  UNL     1       8.868 -73.288  60.215  1.00  0.00     0.034 A
HETATM   26  N1  UNL     1      10.570 -72.546  60.901  1.00  0.00    -0.341 N
HETATM   27  C3  UNL     1       7.883 -74.179  59.753  1.00  0.00     0.017 A
HETATM   28  C5  UNL     1      10.066 -73.810  60.541  1.00  0.00     0.047 A
HETATM   29  C2  UNL     1       8.116 -75.518  59.637  1.00  0.00     0.001 A
HETATM   30  C1  UNL     1       9.345 -76.044  59.974  1.00  0.00     0.002 A
HETATM   31  C6  UNL     1      10.347 -75.199  60.436  1.00  0.00     0.030 A
ATOM     32  H1  UNL     1      11.461 -72.196  61.254  1.00  0.00     0.167 HD
ATOM     33  H2  UNL     1       9.656 -70.203  60.943  1.00  0.00     0.161 HD
ENDBRANCH   1  23
TORSDOF 10
ENDMDL