MODEL 1
REMARK VINA RESULT: -10.156993547      0.000      0.000
REMARK  11 active torsions:
REMARK  status: ('A' for Active; 'I' for Inactive)
REMARK    1  A    between atoms: C2_2  and  C3_3
REMARK    2  A    between atoms: C2_2  and  N1_11
REMARK    3  A    between atoms: C3_3  and  C4_4
REMARK    4  A    between atoms: C4_4  and  C5_5
REMARK    5  A    between atoms: N1_11  and  C11_13
REMARK    6  A    between atoms: C11_13  and  C12_14
REMARK    7  A    between atoms: C12_14  and  C13_15
REMARK    8  A    between atoms: C17_20  and  N3_21
REMARK    9  A    between atoms: N3_21  and  C18_23
REMARK   10  A    between atoms: C18_23  and  C19_24
REMARK   11  A    between atoms: C19_24  and  N4_25
ROOT
HETATM    1  C13 UNL     1       7.108 -67.114  61.864  1.00  0.00    -0.054 A
HETATM    2  C14 UNL     1       7.055 -66.242  62.928  1.00  0.00     0.009 A
HETATM    3  C15 UNL     1       7.388 -64.892  62.766  1.00  0.00     0.029 A
HETATM    4  C16 UNL     1       7.776 -64.390  61.546  1.00  0.00     0.072 A
HETATM    5  N2  UNL     1       8.102 -63.009  61.446  1.00  0.00    -0.100 NA
HETATM    6  C17 UNL     1       7.833 -65.249  60.473  1.00  0.00     0.053 A
HETATM    7  C24 UNL     1       7.503 -66.587  60.641  1.00  0.00     0.038 A
ENDROOT
BRANCH   1   8
HETATM    8  C12 UNL     1       6.768 -68.554  61.988  1.00  0.00     0.058 C
BRANCH   8   9
HETATM    9  C11 UNL     1       6.073 -68.949  60.662  1.00  0.00     0.124 C
BRANCH   9  10
HETATM   10  N1  UNL     1       6.626 -70.185  60.274  1.00  0.00    -0.396 N
ATOM     11  H1  UNL     1       6.053 -71.029  60.306  1.00  0.00     0.159 HD
BRANCH  10  12
HETATM   12  C2  UNL     1       7.964 -70.263  59.841  1.00  0.00    -0.022 C
HETATM   13  C1  UNL     1       8.120 -70.216  58.328  1.00  0.00     0.062 C
BRANCH  12  14
HETATM   14  C3  UNL     1       8.908 -71.185  60.511  1.00  0.00     0.052 C
BRANCH  14  15
HETATM   15  C4  UNL     1       8.340 -72.244  61.381  1.00  0.00     0.010 C
BRANCH  15  16
HETATM   16  C5  UNL     1       8.661 -73.643  60.903  1.00  0.00    -0.014 C
HETATM   17  C6  UNL     1       7.824 -74.108  59.760  1.00  0.00     0.004 C
HETATM   18  C7  UNL     1       8.296 -75.432  59.207  1.00  0.00     0.000 C
HETATM   19  C8  UNL     1       9.179 -76.144  60.219  1.00  0.00     0.000 C
HETATM   20  C9  UNL     1      10.403 -75.311  60.501  1.00  0.00     0.000 C
HETATM   21  C10 UNL     1      10.107 -73.829  60.560  1.00  0.00     0.004 C
ENDBRANCH  15  16
ENDBRANCH  14  15
ENDBRANCH  12  14
ENDBRANCH  10  12
ENDBRANCH   9  10
ENDBRANCH   8   9
ENDBRANCH   1   8
BRANCH   6  22
HETATM   22  N3  UNL     1       8.231 -64.733  59.214  1.00  0.00    -0.387 N
ATOM     23  H3  UNL     1       8.426 -63.735  59.126  1.00  0.00     0.159 HD
BRANCH  22  24
HETATM   24  C18 UNL     1       8.371 -65.590  58.040  1.00  0.00     0.150 C
BRANCH  24  25
HETATM   25  C19 UNL     1       7.753 -64.897  56.863  1.00  0.00     0.292 C
BRANCH  25  26
HETATM   26  N4  UNL     1       6.674 -65.717  56.295  1.00  0.00     0.090 N
HETATM   27  C20 UNL     1       6.826 -67.051  56.862  1.00  0.00     0.272 C
HETATM   28  C21 UNL     1       6.011 -67.886  55.926  1.00  0.00     0.032 C
HETATM   29  C22 UNL     1       6.396 -67.323  54.562  1.00  0.00     0.032 C
HETATM   30  C23 UNL     1       6.910 -65.941  54.879  1.00  0.00     0.272 C
ENDBRANCH  25  26
ENDBRANCH  24  25
ENDBRANCH  22  24
ENDBRANCH   6  22
TORSDOF 11
ENDMDL