MODEL 1
REMARK VINA RESULT: -9.901253765      0.000      0.000
REMARK  11 active torsions:
REMARK  status: ('A' for Active; 'I' for Inactive)
REMARK    1  A    between atoms: C5_6  and  N2_7
REMARK    2  A    between atoms: N2_7  and  C6_9
REMARK    3  A    between atoms: C6_9  and  C7_10
REMARK    4  A    between atoms: C7_10  and  C8_11
REMARK    5  A    between atoms: C8_11  and  C9_12
REMARK    6  A    between atoms: C9_12  and  C10_13
REMARK    7  A    between atoms: C10_13  and  C11_14
REMARK    8  A    between atoms: C11_14  and  O1_15
REMARK    9  A    between atoms: O1_15  and  C12_16
REMARK   10  A    between atoms: C15_19  and  C16_20
REMARK   11  A    between atoms: C16_20  and  C17_21
ROOT
HETATM    1  O1  UNL     1       6.732 -66.653  62.797  1.00  0.00    -0.351 OA
ENDROOT
BRANCH   1   2
HETATM    2  C11 UNL     1       7.473 -65.549  63.134  1.00  0.00     0.175 C
BRANCH   2   3
HETATM    3  C10 UNL     1       7.162 -64.270  62.437  1.00  0.00     0.027 C
BRANCH   3   4
HETATM    4  C9  UNL     1       8.415 -63.662  61.835  1.00  0.00     0.002 C
BRANCH   4   5
HETATM    5  C8  UNL     1       8.179 -63.141  60.448  1.00  0.00     0.002 C
BRANCH   5   6
HETATM    6  C7  UNL     1       7.918 -64.216  59.444  1.00  0.00     0.020 C
BRANCH   6   7
HETATM    7  C6  UNL     1       6.724 -63.927  58.573  1.00  0.00     0.119 C
BRANCH   7   8
HETATM    8  N2  UNL     1       5.966 -65.072  58.189  1.00  0.00    -0.390 N
ATOM      9  H2  UNL     1       5.214 -65.354  58.818  1.00  0.00     0.159 HD
BRANCH   8  10
HETATM   10  C5  UNL     1       6.149 -65.857  57.027  1.00  0.00     0.029 A
HETATM   11  C4  UNL     1       5.701 -65.463  55.780  1.00  0.00     0.029 A
HETATM   12  C3  UNL     1       5.917 -66.255  54.671  1.00  0.00     0.004 A
HETATM   13  C2  UNL     1       6.582 -67.457  54.768  1.00  0.00     0.027 A
HETATM   14  C1  UNL     1       7.039 -67.872  56.003  1.00  0.00     0.048 A
HETATM   15  N1  UNL     1       7.729 -69.088  56.197  1.00  0.00    -0.102 NA
HETATM   16  C24 UNL     1       6.811 -67.055  57.112  1.00  0.00     0.055 A
ENDBRANCH   8  10
ENDBRANCH   7   8
ENDBRANCH   6   7
ENDBRANCH   5   6
ENDBRANCH   4   5
ENDBRANCH   3   4
ENDBRANCH   2   3
ENDBRANCH   1   2
BRANCH   1  17
HETATM   17  C12 UNL     1       7.054 -67.779  62.103  1.00  0.00     0.068 A
HETATM   18  C13 UNL     1       7.030 -69.031  62.638  1.00  0.00     0.037 A
HETATM   19  C14 UNL     1       7.379 -70.111  61.850  1.00  0.00     0.010 A
HETATM   20  C15 UNL     1       7.757 -70.007  60.530  1.00  0.00    -0.058 A
HETATM   21  C22 UNL     1       7.773 -68.727  60.009  1.00  0.00     0.010 A
HETATM   22  C23 UNL     1       7.437 -67.637  60.750  1.00  0.00     0.037 A
BRANCH  20  23
HETATM   23  C16 UNL     1       8.131 -71.147  59.680  1.00  0.00     0.043 C
BRANCH  23  24
HETATM   24  C17 UNL     1       8.287 -72.422  60.484  1.00  0.00    -0.007 C
HETATM   25  C18 UNL     1       9.691 -72.948  60.440  1.00  0.00     0.032 C
HETATM   26  C19 UNL     1       9.742 -74.449  60.682  1.00  0.00     0.232 C
HETATM   27  N3  UNL     1       8.679 -74.829  61.568  1.00  0.00    -0.075 N
HETATM   28  C20 UNL     1       7.373 -74.617  61.014  1.00  0.00     0.232 C
ATOM     29  H32 UNL     1       8.790 -75.796  61.872  1.00  0.00     0.277 HD
ATOM     30  H31 UNL     1       8.772 -74.358  62.468  1.00  0.00     0.277 HD
HETATM   31  C21 UNL     1       7.368 -73.504  59.986  1.00  0.00     0.032 C
ENDBRANCH  23  24
ENDBRANCH  20  23
ENDBRANCH   1  17
TORSDOF 11
ENDMDL