MODEL 5
REMARK VINA RESULT: -7.603140541      1.641      3.411
REMARK  14 active torsions:
REMARK  status: ('A' for Active; 'I' for Inactive)
REMARK    1  A    between atoms: C2_2  and  C3_3
REMARK    2  A    between atoms: C3_3  and  C4_4
REMARK    3  A    between atoms: C4_4  and  C6_6
REMARK    4  A    between atoms: C6_6  and  C8_8
REMARK    5  A    between atoms: C8_8  and  C10_10
REMARK    6  A    between atoms: C10_10  and  C11_11
REMARK    7  A    between atoms: C11_11  and  C13_13
REMARK    8  A    between atoms: C16_17  and  O2_18
REMARK    9  A    between atoms: O2_18  and  C17_19
REMARK   10  A    between atoms: C19_22  and  O4_23
REMARK   11  A    between atoms: O4_23  and  C20_24
REMARK   12  A    between atoms: C20_24  and  C21_26
REMARK   13  A    between atoms: C29_34  and  O6_35
REMARK   14  A    between atoms: C32_39  and  O7_40
ROOT
HETATM    1  C13 UNL     1     -20.783 -45.365 -50.884  1.00  0.00     0.034 A
HETATM    2  C14 UNL     1     -19.363 -45.020 -50.829  1.00  0.00     0.074 A
HETATM    3  C15 UNL     1     -18.653 -44.193 -51.806  1.00  0.00     0.164 C
HETATM    4  O1  UNL     1     -19.055 -43.081 -52.081  1.00  0.00    -0.295 OA
HETATM    5  C16 UNL     1     -17.413 -44.639 -52.523  1.00  0.00     0.231 C
HETATM    6  C19 UNL     1     -17.842 -45.498 -53.669  1.00  0.00     0.180 C
HETATM    7  C24 UNL     1     -18.367 -46.848 -53.374  1.00  0.00     0.026 C
HETATM    8  C25 UNL     1     -18.833 -47.259 -54.801  1.00  0.00     0.022 C
HETATM    9  C26 UNL     1     -17.421 -47.908 -52.964  1.00  0.00    -0.009 C
HETATM   10  C27 UNL     1     -16.635 -47.689 -51.708  1.00  0.00     0.018 C
HETATM   11  C28 UNL     1     -16.318 -48.157 -54.011  1.00  0.00     0.018 C
HETATM   12  C29 UNL     1     -18.090 -49.260 -52.876  1.00  0.00     0.127 C
HETATM   13  C30 UNL     1     -19.468 -49.296 -52.355  1.00  0.00     0.035 C
HETATM   14  C31 UNL     1     -20.364 -48.173 -52.666  1.00  0.00     0.042 C
HETATM   15  C32 UNL     1     -19.657 -46.806 -52.630  1.00  0.00     0.073 C
HETATM   16  C33 UNL     1     -19.685 -46.376 -51.222  1.00  0.00     0.042 A
ENDROOT
BRANCH   1  17
HETATM   17  C11 UNL     1     -21.623 -45.465 -49.688  1.00  0.00    -0.078 C
HETATM   18  C12 UNL     1     -23.089 -45.711 -49.914  1.00  0.00     0.044 C
BRANCH  17  19
HETATM   19  C10 UNL     1     -21.143 -45.352 -48.460  1.00  0.00     0.010 C
BRANCH  19  20
HETATM   20  C8  UNL     1     -21.408 -46.169 -47.316  1.00  0.00    -0.056 C
HETATM   21  C9  UNL     1     -22.609 -45.884 -46.501  1.00  0.00     0.049 C
BRANCH  20  22
HETATM   22  C6  UNL     1     -20.785 -47.475 -47.134  1.00  0.00    -0.058 C
HETATM   23  C7  UNL     1     -20.365 -47.942 -45.973  1.00  0.00     0.020 C
BRANCH  22  24
HETATM   24  C4  UNL     1     -20.575 -48.344 -48.362  1.00  0.00     0.017 C
HETATM   25  C5  UNL     1     -21.918 -49.052 -48.615  1.00  0.00     0.015 C
BRANCH  24  26
HETATM   26  C3  UNL     1     -19.525 -49.352 -48.202  1.00  0.00     0.035 C
BRANCH  26  27
HETATM   27  C2  UNL     1     -18.233 -49.044 -48.834  1.00  0.00    -0.036 C
HETATM   28  C1  UNL     1     -17.036 -49.312 -48.372  1.00  0.00     0.007 C
ENDBRANCH  26  27
ENDBRANCH  24  26
ENDBRANCH  22  24
ENDBRANCH  20  22
ENDBRANCH  19  20
ENDBRANCH  17  19
ENDBRANCH   1  17
BRANCH  15  29
HETATM   29  O7  UNL     1     -20.494 -45.967 -53.394  1.00  0.00    -0.389 OA
ATOM     30  H7  UNL     1     -20.770 -45.281 -52.797  1.00  0.00     0.210 HD
ENDBRANCH  15  29
BRANCH   5  31
HETATM   31  O2  UNL     1     -16.762 -43.497 -53.110  1.00  0.00    -0.306 OA
BRANCH  31  32
HETATM   32  C17 UNL     1     -15.746 -42.814 -52.463  1.00  0.00     0.255 C
HETATM   33  C18 UNL     1     -14.850 -43.436 -51.463  1.00  0.00     0.126 C
HETATM   34  O3  UNL     1     -15.548 -41.581 -52.721  1.00  0.00    -0.266 OA
ENDBRANCH  31  32
ENDBRANCH   5  31
BRANCH   6  35
HETATM   35  O4  UNL     1     -16.923 -45.422 -54.754  1.00  0.00    -0.312 OA
BRANCH  35  36
HETATM   36  C20 UNL     1     -16.907 -44.462 -55.729  1.00  0.00     0.262 C
HETATM   37  O5  UNL     1     -15.801 -44.153 -56.241  1.00  0.00    -0.265 OA
BRANCH  36  38
HETATM   38  C21 UNL     1     -18.140 -43.766 -56.209  1.00  0.00     0.077 C
HETATM   39  C22 UNL     1     -17.879 -42.300 -56.390  1.00  0.00     0.020 C
HETATM   40  C23 UNL     1     -18.774 -44.432 -57.384  1.00  0.00     0.020 C
ENDBRANCH  36  38
ENDBRANCH  35  36
ENDBRANCH   6  35
BRANCH  12  41
HETATM   41  O6  UNL     1     -17.934 -50.017 -54.066  1.00  0.00    -0.395 OA
ATOM     42  H6  UNL     1     -18.722 -50.497 -54.294  1.00  0.00     0.210 HD
ENDBRANCH  12  41
TORSDOF 14
ENDMDL