MODEL 2
REMARK VINA RESULT: -8.238515384      6.805     11.420
REMARK  12 active torsions:
REMARK  status: ('A' for Active; 'I' for Inactive)
REMARK    1  A    between atoms: C2_2  and  C4_4
REMARK    2  A    between atoms: C5_5  and  C6_6
REMARK    3  A    between atoms: C7_7  and  C8_8
REMARK    4  A    between atoms: C8_8  and  O1_11
REMARK    5  A    between atoms: C14_16  and  C15_17
REMARK    6  A    between atoms: C19_21  and  O2_22
REMARK    7  A    between atoms: O2_22  and  C20_23
REMARK    8  A    between atoms: C20_23  and  C21_25
REMARK    9  A    between atoms: C22_26  and  C23_27
REMARK   10  A    between atoms: C26_30  and  O4_31
REMARK   11  A    between atoms: C28_33  and  O5_34
REMARK   12  A    between atoms: C32_38  and  O6_39
ROOT
HETATM    1  C4  UNL     1     -17.892 -45.053 -51.791  1.00  0.00    -0.056 C
HETATM    2  C5  UNL     1     -18.823 -44.673 -52.905  1.00  0.00     0.039 C
HETATM    3  C11 UNL     1     -19.659 -45.942 -53.110  1.00  0.00     0.023 C
HETATM    4  C12 UNL     1     -19.274 -46.844 -51.986  1.00  0.00     0.033 C
HETATM    5  C13 UNL     1     -19.488 -48.271 -52.138  1.00  0.00    -0.048 C
HETATM    6  C14 UNL     1     -20.372 -48.947 -51.437  1.00  0.00    -0.012 C
HETATM    7  C19 UNL     1     -18.664 -49.083 -53.126  1.00  0.00     0.164 C
HETATM    8  C31 UNL     1     -17.245 -48.583 -53.148  1.00  0.00     0.070 C
HETATM    9  C32 UNL     1     -17.199 -47.058 -53.202  1.00  0.00     0.134 C
HETATM   10  C33 UNL     1     -17.733 -46.511 -51.943  1.00  0.00     0.014 C
HETATM   11  C34 UNL     1     -17.206 -47.256 -50.759  1.00  0.00     0.023 C
ENDROOT
BRANCH   7  12
HETATM   12  O2  UNL     1     -19.325 -48.958 -54.365  1.00  0.00    -0.308 OA
BRANCH  12  13
HETATM   13  C20 UNL     1     -19.758 -50.106 -55.108  1.00  0.00     0.283 C
HETATM   14  O3  UNL     1     -19.051 -50.269 -56.113  1.00  0.00    -0.260 OA
BRANCH  13  15
HETATM   15  C21 UNL     1     -20.855 -50.886 -54.675  1.00  0.00     0.083 C
HETATM   16  C22 UNL     1     -22.039 -50.740 -54.237  1.00  0.00     0.017 C
BRANCH  16  17
HETATM   17  C23 UNL     1     -22.959 -49.687 -53.927  1.00  0.00    -0.033 A
HETATM   18  C24 UNL     1     -22.778 -48.445 -54.580  1.00  0.00     0.014 A
HETATM   19  C25 UNL     1     -23.603 -47.383 -54.320  1.00  0.00     0.040 A
HETATM   20  C26 UNL     1     -24.633 -47.497 -53.414  1.00  0.00     0.101 A
HETATM   21  C28 UNL     1     -24.834 -48.687 -52.765  1.00  0.00     0.102 A
HETATM   22  C30 UNL     1     -23.988 -49.759 -53.038  1.00  0.00     0.051 A
BRANCH  20  23
HETATM   23  O4  UNL     1     -25.453 -46.385 -53.180  1.00  0.00    -0.353 OA
HETATM   24  C27 UNL     1     -26.757 -46.367 -53.722  1.00  0.00     0.210 C
ENDBRANCH  20  23
BRANCH  21  25
HETATM   25  O5  UNL     1     -25.877 -48.777 -51.858  1.00  0.00    -0.353 OA
HETATM   26  C29 UNL     1     -25.729 -48.584 -50.472  1.00  0.00     0.210 C
ENDBRANCH  21  25
ENDBRANCH  16  17
ENDBRANCH  13  15
ENDBRANCH  12  13
ENDBRANCH   7  12
BRANCH   6  27
HETATM   27  C15 UNL     1     -21.305 -48.488 -50.402  1.00  0.00    -0.033 C
HETATM   28  C16 UNL     1     -20.545 -48.075 -49.132  1.00  0.00     0.018 C
HETATM   29  C17 UNL     1     -22.183 -47.342 -50.763  1.00  0.00     0.018 C
HETATM   30  C18 UNL     1     -22.165 -49.655 -49.965  1.00  0.00     0.018 C
ENDBRANCH   6  27
BRANCH   9  31
HETATM   31  O6  UNL     1     -15.879 -46.758 -53.513  1.00  0.00    -0.394 OA
ATOM     32  H6  UNL     1     -15.635 -46.082 -52.893  1.00  0.00     0.210 HD
ENDBRANCH   9  31
BRANCH   2  33
HETATM   33  C6  UNL     1     -18.237 -44.110 -54.100  1.00  0.00    -0.019 C
HETATM   34  C7  UNL     1     -18.734 -44.361 -55.338  1.00  0.00     0.006 C
BRANCH  34  35
HETATM   35  C8  UNL     1     -18.162 -43.804 -56.578  1.00  0.00     0.068 C
HETATM   36  C9  UNL     1     -19.109 -44.037 -57.742  1.00  0.00     0.050 C
HETATM   37  C10 UNL     1     -17.954 -42.300 -56.493  1.00  0.00     0.050 C
BRANCH  35  38
HETATM   38  O1  UNL     1     -16.923 -44.362 -56.906  1.00  0.00    -0.387 OA
ATOM     39  H1  UNL     1     -16.218 -43.725 -56.898  1.00  0.00     0.211 HD
ENDBRANCH  35  38
ENDBRANCH  34  35
ENDBRANCH   2  33
BRANCH   1  40
HETATM   40  C2  UNL     1     -16.824 -44.177 -51.452  1.00  0.00    -0.067 C
HETATM   41  C1  UNL     1     -15.902 -43.749 -52.260  1.00  0.00     0.018 C
HETATM   42  C3  UNL     1     -16.760 -43.681 -50.018  1.00  0.00     0.047 C
ENDBRANCH   1  40
TORSDOF 12
ENDMDL