MODEL 3
REMARK VINA RESULT: -7.653410900      3.518      5.736
REMARK  11 active torsions:
REMARK  status: ('A' for Active; 'I' for Inactive)
REMARK    1  A    between atoms: C2_2  and  C4_4
REMARK    2  A    between atoms: C13_15  and  C15_17
REMARK    3  A    between atoms: C15_17  and  C16_18
REMARK    4  A    between atoms: C16_18  and  C17_19
REMARK    5  A    between atoms: C17_19  and  C20_22
REMARK    6  A    between atoms: C20_22  and  C21_23
REMARK    7  A    between atoms: C21_23  and  C22_24
REMARK    8  A    between atoms: C26_28  and  O3_29
REMARK    9  A    between atoms: C27_31  and  O4_32
REMARK   10  A    between atoms: C29_36  and  C30_37
REMARK   11  A    between atoms: C30_37  and  C31_38
ROOT
HETATM    1  C31 UNL     1     -26.503 -44.432 -45.181  1.00  0.00     0.019 C
HETATM    2  C32 UNL     1     -26.838 -43.335 -44.506  1.00  0.00     0.018 C
HETATM    3  C33 UNL     1     -28.239 -42.989 -44.184  1.00  0.00     0.060 C
HETATM    4  C34 UNL     1     -25.786 -42.463 -44.082  1.00  0.00     0.094 C
HETATM    5  N1  UNL     1     -24.920 -41.769 -43.743  1.00  0.00    -0.192 NA
ENDROOT
BRANCH   1   6
HETATM    6  C30 UNL     1     -25.115 -44.750 -45.486  1.00  0.00     0.015 C
BRANCH   6   7
HETATM    7  C29 UNL     1     -24.766 -45.307 -46.614  1.00  0.00     0.020 C
HETATM    8  C9  UNL     1     -25.684 -46.147 -47.399  1.00  0.00     0.163 C
HETATM    9  C7  UNL     1     -25.966 -47.510 -46.972  1.00  0.00     0.015 C
HETATM   10  O1  UNL     1     -25.187 -46.126 -48.666  1.00  0.00    -0.359 OA
HETATM   11  C6  UNL     1     -25.732 -48.614 -47.994  1.00  0.00     0.008 C
HETATM   12  C8  UNL     1     -25.346 -47.970 -45.672  1.00  0.00     0.013 C
HETATM   13  C5  UNL     1     -26.204 -48.314 -49.349  1.00  0.00     0.013 C
HETATM   14  C4  UNL     1     -25.214 -48.171 -50.470  1.00  0.00     0.054 C
HETATM   15  C26 UNL     1     -24.169 -47.125 -50.407  1.00  0.00     0.133 C
HETATM   16  C10 UNL     1     -24.019 -46.657 -48.978  1.00  0.00     0.171 A
HETATM   17  C13 UNL     1     -22.800 -47.537 -50.802  1.00  0.00     0.093 C
HETATM   18  C11 UNL     1     -22.671 -46.817 -48.695  1.00  0.00     0.138 A
HETATM   19  C27 UNL     1     -23.132 -45.447 -48.603  1.00  0.00     0.194 A
HETATM   20  C12 UNL     1     -22.014 -47.500 -47.489  1.00  0.00     0.053 C
HETATM   21  O2  UNL     1     -21.916 -47.075 -49.842  1.00  0.00    -0.360 OA
HETATM   22  C28 UNL     1     -23.447 -45.093 -47.161  1.00  0.00     0.199 C
HETATM   23  O5  UNL     1     -22.510 -44.612 -46.493  1.00  0.00    -0.289 OA
HETATM   24  C14 UNL     1     -22.629 -49.092 -50.644  1.00  0.00     0.049 C
BRANCH  14  25
HETATM   25  C2  UNL     1     -26.080 -48.004 -51.670  1.00  0.00    -0.086 C
HETATM   26  C1  UNL     1     -25.704 -48.328 -52.901  1.00  0.00     0.014 C
HETATM   27  C3  UNL     1     -27.471 -47.531 -51.513  1.00  0.00     0.043 C
ENDBRANCH  14  25
BRANCH  15  28
HETATM   28  O3  UNL     1     -24.555 -46.011 -51.147  1.00  0.00    -0.383 OA
ATOM     29  H3  UNL     1     -23.842 -45.385 -51.198  1.00  0.00     0.210 HD
ENDBRANCH  15  28
BRANCH  19  30
HETATM   30  O4  UNL     1     -22.959 -44.432 -49.489  1.00  0.00    -0.376 OA
ATOM     31  H4  UNL     1     -23.408 -43.605 -49.358  1.00  0.00     0.211 HD
ENDBRANCH  19  30
BRANCH  17  32
HETATM   32  C15 UNL     1     -22.328 -47.307 -52.192  1.00  0.00     0.042 C
BRANCH  32  33
HETATM   33  C16 UNL     1     -21.392 -48.263 -52.793  1.00  0.00     0.012 C
BRANCH  33  34
HETATM   34  C17 UNL     1     -21.817 -48.592 -54.248  1.00  0.00    -0.047 C
HETATM   35  C18 UNL     1     -22.622 -49.854 -54.280  1.00  0.00     0.015 C
HETATM   36  C19 UNL     1     -22.799 -47.459 -54.631  1.00  0.00     0.015 C
BRANCH  34  37
HETATM   37  C20 UNL     1     -20.643 -48.554 -55.133  1.00  0.00     0.012 C
BRANCH  37  38
HETATM   38  C21 UNL     1     -19.625 -47.494 -54.985  1.00  0.00     0.028 C
BRANCH  38  39
HETATM   39  C22 UNL     1     -19.637 -46.462 -56.016  1.00  0.00    -0.025 C
HETATM   40  C23 UNL     1     -19.833 -45.178 -55.690  1.00  0.00    -0.091 C
HETATM   41  C24 UNL     1     -19.846 -44.115 -56.746  1.00  0.00     0.042 C
HETATM   42  C25 UNL     1     -20.038 -44.812 -54.280  1.00  0.00     0.042 C
ENDBRANCH  38  39
ENDBRANCH  37  38
ENDBRANCH  34  37
ENDBRANCH  33  34
ENDBRANCH  32  33
ENDBRANCH  17  32
ENDBRANCH   6   7
ENDBRANCH   1   6
TORSDOF 11
ENDMDL