MODEL 5
REMARK VINA RESULT: -7.280227699      3.923      8.808
REMARK  12 active torsions:
REMARK  status: ('A' for Active; 'I' for Inactive)
REMARK    1  A    between atoms: C2_2  and  C3_3
REMARK    2  A    between atoms: C3_3  and  C4_4
REMARK    3  A    between atoms: C4_4  and  C5_5
REMARK    4  A    between atoms: C5_5  and  C6_6
REMARK    5  A    between atoms: C6_6  and  C7_7
REMARK    6  A    between atoms: C7_7  and  C8_8
REMARK    7  A    between atoms: C8_8  and  O2_10
REMARK    8  A    between atoms: O2_10  and  C9_11
REMARK    9  A    between atoms: C15_18  and  C16_19
REMARK   10  A    between atoms: C16_19  and  C17_20
REMARK   11  A    between atoms: C32_36  and  O5_38
REMARK   12  A    between atoms: C34_40  and  O6_41
ROOT
HETATM    1  C9  UNL     1     -23.977 -47.109 -52.275  1.00  0.00     0.193 C
HETATM    2  C10 UNL     1     -23.200 -47.097 -51.069  1.00  0.00    -0.047 C
HETATM    3  C11 UNL     1     -23.708 -46.580 -49.728  1.00  0.00     0.046 C
HETATM    4  C12 UNL     1     -21.988 -47.580 -51.226  1.00  0.00    -0.039 C
HETATM    5  C13 UNL     1     -20.982 -47.660 -50.064  1.00  0.00     0.047 C
HETATM    6  C14 UNL     1     -21.772 -48.018 -52.633  1.00  0.00     0.145 C
HETATM    7  O3  UNL     1     -20.534 -47.762 -52.965  1.00  0.00    -0.349 OA
HETATM    8  C15 UNL     1     -19.868 -47.270 -53.941  1.00  0.00     0.140 C
HETATM    9  C21 UNL     1     -19.890 -45.747 -54.046  1.00  0.00     0.190 C
HETATM   10  O4  UNL     1     -20.299 -44.904 -53.227  1.00  0.00    -0.289 OA
HETATM   11  C22 UNL     1     -19.304 -45.498 -55.344  1.00  0.00    -0.016 C
HETATM   12  C23 UNL     1     -18.693 -44.184 -55.769  1.00  0.00     0.052 C
HETATM   13  C24 UNL     1     -19.370 -46.554 -56.111  1.00  0.00    -0.004 C
HETATM   14  C25 UNL     1     -20.040 -47.654 -55.356  1.00  0.00     0.074 C
HETATM   15  C26 UNL     1     -19.421 -48.933 -55.786  1.00  0.00    -0.012 C
HETATM   16  C27 UNL     1     -19.506 -50.121 -55.286  1.00  0.00    -0.086 C
HETATM   17  C28 UNL     1     -18.717 -51.210 -56.011  1.00  0.00     0.043 C
HETATM   18  C29 UNL     1     -20.245 -50.611 -54.115  1.00  0.00     0.040 C
HETATM   19  C30 UNL     1     -21.657 -50.172 -53.972  1.00  0.00     0.023 C
HETATM   20  C31 UNL     1     -22.507 -51.451 -54.147  1.00  0.00     0.013 C
HETATM   21  C32 UNL     1     -21.927 -49.563 -52.591  1.00  0.00     0.096 C
HETATM   22  C33 UNL     1     -21.080 -50.246 -51.595  1.00  0.00     0.050 C
HETATM   23  C34 UNL     1     -22.976 -47.561 -53.320  1.00  0.00     0.194 C
ENDROOT
BRANCH  21  24
HETATM   24  O5  UNL     1     -23.242 -49.905 -52.270  1.00  0.00    -0.386 OA
ATOM     25  H5  UNL     1     -23.365 -50.843 -52.353  1.00  0.00     0.210 HD
ENDBRANCH  21  24
BRANCH  23  26
HETATM   26  O6  UNL     1     -22.950 -46.538 -54.225  1.00  0.00    -0.389 OA
ATOM     27  H6  UNL     1     -22.165 -46.698 -54.735  1.00  0.00     0.210 HD
ENDBRANCH  23  26
BRANCH   8  28
HETATM   28  C16 UNL     1     -18.346 -47.445 -53.691  1.00  0.00     0.075 C
BRANCH  28  29
HETATM   29  C17 UNL     1     -17.997 -48.106 -52.437  1.00  0.00    -0.021 C
HETATM   30  C18 UNL     1     -17.582 -47.497 -51.340  1.00  0.00    -0.091 C
HETATM   31  C19 UNL     1     -17.256 -48.281 -50.122  1.00  0.00     0.042 C
HETATM   32  C20 UNL     1     -17.427 -46.021 -51.284  1.00  0.00     0.042 C
ENDBRANCH  28  29
ENDBRANCH   8  28
BRANCH   1  33
HETATM   33  O2  UNL     1     -25.175 -47.821 -52.256  1.00  0.00    -0.309 OA
BRANCH  33  34
HETATM   34  C8  UNL     1     -26.382 -47.287 -52.673  1.00  0.00     0.259 C
HETATM   35  O1  UNL     1     -26.360 -46.064 -53.021  1.00  0.00    -0.265 OA
BRANCH  34  36
HETATM   36  C7  UNL     1     -27.639 -48.029 -52.734  1.00  0.00     0.111 C
BRANCH  36  37
HETATM   37  C6  UNL     1     -28.195 -48.260 -51.362  1.00  0.00     0.010 C
BRANCH  37  38
HETATM   38  C5  UNL     1     -29.058 -49.515 -51.302  1.00  0.00     0.001 C
BRANCH  38  39
HETATM   39  C4  UNL     1     -29.043 -49.984 -49.868  1.00  0.00     0.004 C
BRANCH  39  40
HETATM   40  C3  UNL     1     -28.256 -51.218 -49.615  1.00  0.00     0.026 C
BRANCH  40  41
HETATM   41  C2  UNL     1     -28.986 -52.279 -48.910  1.00  0.00    -0.037 C
HETATM   42  C1  UNL     1     -28.998 -53.536 -49.254  1.00  0.00     0.007 C
ENDBRANCH  40  41
ENDBRANCH  39  40
ENDBRANCH  38  39
ENDBRANCH  37  38
ENDBRANCH  36  37
ENDBRANCH  34  36
ENDBRANCH  33  34
ENDBRANCH   1  33
TORSDOF 12
ENDMDL