MODEL 4
REMARK VINA RESULT: -6.962388915      6.888     10.692
REMARK  14 active torsions:
REMARK  status: ('A' for Active; 'I' for Inactive)
REMARK    1  A    between atoms: C2_2  and  C4_4
REMARK    2  A    between atoms: C7_7  and  C8_8
REMARK    3  A    between atoms: C8_8  and  C10_10
REMARK    4  A    between atoms: C10_10  and  C11_11
REMARK    5  A    between atoms: C11_11  and  O2_13
REMARK    6  A    between atoms: C16_18  and  O3_19
REMARK    7  A    between atoms: O3_19  and  C17_20
REMARK    8  A    between atoms: C17_20  and  O4_21
REMARK    9  A    between atoms: C17_20  and  C18_23
REMARK   10  A    between atoms: C18_23  and  C19_24
REMARK   11  A    between atoms: C21_26  and  O5_27
REMARK   12  A    between atoms: C25_32  and  C26_33
REMARK   13  A    between atoms: C26_33  and  O6_36
REMARK   14  A    between atoms: C29_38  and  C31_40
ROOT
HETATM    1  C4  UNL     1     -19.548 -50.717 -54.947  1.00  0.00     0.019 C
HETATM    2  C5  UNL     1     -20.589 -51.821 -54.479  1.00  0.00     0.010 C
HETATM    3  C6  UNL     1     -21.890 -51.175 -54.387  1.00  0.00     0.010 C
HETATM    4  C7  UNL     1     -21.749 -50.079 -53.410  1.00  0.00     0.023 C
HETATM    5  C13 UNL     1     -20.695 -49.003 -53.730  1.00  0.00    -0.029 C
HETATM    6  C14 UNL     1     -21.132 -48.509 -55.090  1.00  0.00     0.016 C
HETATM    7  C15 UNL     1     -20.907 -48.099 -52.631  1.00  0.00     0.045 C
HETATM    8  C16 UNL     1     -19.946 -47.124 -51.999  1.00  0.00     0.164 C
HETATM    9  C21 UNL     1     -19.066 -46.523 -52.918  1.00  0.00     0.114 C
HETATM   10  C22 UNL     1     -18.213 -47.522 -53.685  1.00  0.00    -0.038 C
HETATM   11  C23 UNL     1     -17.479 -46.754 -54.477  1.00  0.00    -0.019 C
HETATM   12  C24 UNL     1     -17.781 -45.288 -54.280  1.00  0.00     0.038 C
HETATM   13  C25 UNL     1     -18.159 -45.394 -52.768  1.00  0.00     0.064 C
HETATM   14  C29 UNL     1     -18.126 -49.041 -53.595  1.00  0.00    -0.010 C
HETATM   15  C30 UNL     1     -16.979 -49.379 -54.576  1.00  0.00     0.021 C
HETATM   16  C34 UNL     1     -19.362 -49.785 -53.823  1.00  0.00     0.015 C
ENDROOT
BRANCH   4  17
HETATM   17  C8  UNL     1     -23.092 -49.626 -53.037  1.00  0.00    -0.075 C
HETATM   18  C9  UNL     1     -23.469 -49.732 -51.765  1.00  0.00     0.015 C
BRANCH  17  19
HETATM   19  C10 UNL     1     -24.136 -49.152 -53.971  1.00  0.00     0.144 C
BRANCH  19  20
HETATM   20  C11 UNL     1     -24.626 -47.793 -53.638  1.00  0.00     0.262 C
HETATM   21  O1  UNL     1     -23.951 -46.790 -53.889  1.00  0.00    -0.265 OA
BRANCH  20  22
HETATM   22  O2  UNL     1     -25.882 -47.573 -53.018  1.00  0.00    -0.326 OA
HETATM   23  C12 UNL     1     -26.556 -46.335 -53.237  1.00  0.00     0.213 C
ENDBRANCH  20  22
ENDBRANCH  19  20
ENDBRANCH  17  19
ENDBRANCH   4  17
BRANCH   1  24
HETATM   24  C2  UNL     1     -18.623 -51.666 -55.494  1.00  0.00    -0.088 C
HETATM   25  C1  UNL     1     -18.361 -51.740 -56.783  1.00  0.00     0.014 C
HETATM   26  C3  UNL     1     -17.926 -52.794 -54.734  1.00  0.00     0.043 C
ENDBRANCH   1  24
BRANCH   8  27
HETATM   27  O3  UNL     1     -20.854 -46.077 -51.551  1.00  0.00    -0.353 OA
BRANCH  27  28
HETATM   28  C17 UNL     1     -21.414 -45.966 -50.355  1.00  0.00     0.257 C
BRANCH  28  29
HETATM   29  O4  UNL     1     -20.962 -45.048 -49.550  1.00  0.00    -0.371 OA
ATOM     30  H4  UNL     1     -20.219 -44.530 -49.834  1.00  0.00     0.212 HD
ENDBRANCH  28  29
BRANCH  28  31
HETATM   31  C18 UNL     1     -22.511 -46.761 -49.794  1.00  0.00     0.060 C
BRANCH  31  32
HETATM   32  C19 UNL     1     -23.883 -46.337 -50.319  1.00  0.00     0.000 C
HETATM   33  C20 UNL     1     -24.508 -45.217 -49.557  1.00  0.00     0.005 C
ENDBRANCH  31  32
ENDBRANCH  28  31
ENDBRANCH  27  28
ENDBRANCH   8  27
BRANCH  14  34
HETATM   34  C31 UNL     1     -17.443 -49.286 -52.249  1.00  0.00    -0.010 C
HETATM   35  C32 UNL     1     -17.914 -50.455 -51.452  1.00  0.00     0.010 C
HETATM   36  C33 UNL     1     -15.948 -49.521 -52.361  1.00  0.00     0.010 C
ENDBRANCH  14  34
BRANCH   9  37
HETATM   37  O5  UNL     1     -19.984 -45.950 -53.934  1.00  0.00    -0.382 OA
ATOM     38  H5  UNL     1     -19.632 -46.282 -54.751  1.00  0.00     0.211 HD
ENDBRANCH   9  37
BRANCH  13  39
HETATM   39  C26 UNL     1     -18.492 -44.081 -52.270  1.00  0.00     0.058 C
HETATM   40  C27 UNL     1     -17.750 -42.894 -52.797  1.00  0.00     0.046 C
HETATM   41  C28 UNL     1     -18.026 -44.123 -50.765  1.00  0.00     0.046 C
BRANCH  39  42
HETATM   42  O6  UNL     1     -19.828 -43.749 -52.121  1.00  0.00    -0.390 OA
ATOM     43  H6  UNL     1     -20.143 -42.946 -52.520  1.00  0.00     0.210 HD
ENDBRANCH  39  42
ENDBRANCH  13  39
TORSDOF 14
ENDMDL