MODEL 4
REMARK VINA RESULT: -8.908922967      4.612      9.769
REMARK  15 active torsions:
REMARK  status: ('A' for Active; 'I' for Inactive)
REMARK    1  A    between atoms: C4_4  and  C5_5
REMARK    2  A    between atoms: C5_5  and  C6_6
REMARK    3  A    between atoms: C9_9  and  C10_10
REMARK    4  A    between atoms: C10_10  and  C11_11
REMARK    5  A    between atoms: C11_11  and  C12_12
REMARK    6  A    between atoms: C12_12  and  C14_14
REMARK    7  A    between atoms: C14_14  and  C15_15
REMARK    8  A    between atoms: C15_15  and  C17_17
REMARK    9  A    between atoms: C17_17  and  C18_18
REMARK   10  A    between atoms: C18_18  and  O1_19
REMARK   11  A    between atoms: C18_18  and  O2_21
REMARK   12  A    between atoms: O2_21  and  C19_22
REMARK   13  A    between atoms: C19_22  and  C20_24
REMARK   14  A    between atoms: C32_37  and  O5_38
REMARK   15  A    between atoms: C33_40  and  O6_42
ROOT
HETATM    1  C11 UNL     1     -24.231 -49.632 -44.906  1.00  0.00     0.007 C
ENDROOT
BRANCH   1   2
HETATM    2  C10 UNL     1     -25.412 -49.924 -45.422  1.00  0.00     0.001 C
BRANCH   2   3
HETATM    3  C9  UNL     1     -26.114 -49.137 -46.390  1.00  0.00     0.011 C
HETATM    4  C8  UNL     1     -26.377 -49.499 -47.607  1.00  0.00    -0.011 C
HETATM    5  C7  UNL     1     -27.103 -48.512 -48.466  1.00  0.00     0.050 C
HETATM    6  C29 UNL     1     -26.044 -50.851 -48.043  1.00  0.00     0.162 C
HETATM    7  C6  UNL     1     -27.339 -49.121 -49.832  1.00  0.00     0.030 C
HETATM    8  C33 UNL     1     -28.437 -50.098 -49.753  1.00  0.00     0.085 C
HETATM    9  C32 UNL     1     -27.923 -51.488 -49.643  1.00  0.00     0.163 C
HETATM   10  C34 UNL     1     -29.281 -50.077 -51.050  1.00  0.00     0.049 C
HETATM   11  C30 UNL     1     -26.947 -51.876 -48.632  1.00  0.00     0.088 C
HETATM   12  C31 UNL     1     -27.612 -52.680 -47.477  1.00  0.00     0.021 C
HETATM   13  O4  UNL     1     -24.843 -51.167 -47.891  1.00  0.00    -0.292 OA
BRANCH   7  14
HETATM   14  C5  UNL     1     -27.287 -48.144 -50.935  1.00  0.00     0.035 C
BRANCH  14  15
HETATM   15  C4  UNL     1     -25.996 -48.172 -51.663  1.00  0.00    -0.024 C
HETATM   16  C2  UNL     1     -25.110 -47.223 -51.556  1.00  0.00    -0.091 C
HETATM   17  C1  UNL     1     -25.358 -46.033 -50.684  1.00  0.00     0.042 C
HETATM   18  C3  UNL     1     -23.809 -47.272 -52.300  1.00  0.00     0.042 C
ENDBRANCH  14  15
ENDBRANCH   7  14
BRANCH   8  19
HETATM   19  O6  UNL     1     -29.338 -49.734 -48.743  1.00  0.00    -0.387 OA
ATOM     20  H6  UNL     1     -28.873 -49.335 -48.017  1.00  0.00     0.210 HD
ENDBRANCH   8  19
BRANCH   9  21
HETATM   21  O5  UNL     1     -29.008 -52.402 -49.545  1.00  0.00    -0.392 OA
ATOM     22  H5  UNL     1     -29.466 -52.379 -50.377  1.00  0.00     0.210 HD
ENDBRANCH   9  21
ENDBRANCH   2   3
ENDBRANCH   1   2
BRANCH   1  23
HETATM   23  C12 UNL     1     -23.155 -48.930 -45.437  1.00  0.00    -0.061 C
HETATM   24  C13 UNL     1     -22.254 -49.058 -43.793  1.00  0.00     0.048 C
BRANCH  23  25
HETATM   25  C14 UNL     1     -22.200 -48.309 -45.907  1.00  0.00     0.013 C
BRANCH  25  26
HETATM   26  C15 UNL     1     -22.146 -47.508 -47.141  1.00  0.00    -0.057 C
HETATM   27  C16 UNL     1     -23.170 -47.799 -48.193  1.00  0.00     0.048 C
BRANCH  26  28
HETATM   28  C17 UNL     1     -21.352 -46.474 -47.315  1.00  0.00     0.070 C
BRANCH  28  29
HETATM   29  C18 UNL     1     -21.680 -45.114 -46.974  1.00  0.00     0.186 C
BRANCH  29  30
HETATM   30  O1  UNL     1     -20.770 -44.417 -46.356  1.00  0.00    -0.341 OA
ATOM     31  H1  UNL     1     -19.984 -44.198 -46.842  1.00  0.00     0.220 HD
ENDBRANCH  29  30
BRANCH  29  32
HETATM   32  O2  UNL     1     -22.826 -44.427 -47.195  1.00  0.00    -0.255 OA
BRANCH  32  33
HETATM   33  C19 UNL     1     -23.642 -43.783 -46.332  1.00  0.00     0.274 C
HETATM   34  O3  UNL     1     -23.107 -43.017 -45.472  1.00  0.00    -0.264 OA
BRANCH  33  35
HETATM   35  C20 UNL     1     -25.140 -43.977 -46.374  1.00  0.00     0.045 C
HETATM   36  C21 UNL     1     -25.690 -43.512 -47.676  1.00  0.00     0.026 C
HETATM   37  C22 UNL     1     -25.810 -43.383 -45.196  1.00  0.00     0.020 C
HETATM   38  C23 UNL     1     -26.783 -44.317 -44.561  1.00  0.00     0.010 C
HETATM   39  C24 UNL     1     -26.070 -45.513 -43.976  1.00  0.00    -0.048 C
HETATM   40  C25 UNL     1     -25.416 -45.110 -42.681  1.00  0.00     0.015 C
HETATM   41  C26 UNL     1     -27.055 -46.613 -43.727  1.00  0.00     0.015 C
HETATM   42  C27 UNL     1     -24.975 -45.976 -44.933  1.00  0.00     0.010 C
HETATM   43  C28 UNL     1     -25.353 -45.514 -46.338  1.00  0.00     0.020 C
ENDBRANCH  33  35
ENDBRANCH  32  33
ENDBRANCH  29  32
ENDBRANCH  28  29
ENDBRANCH  26  28
ENDBRANCH  25  26
ENDBRANCH  23  25
ENDBRANCH   1  23
TORSDOF 15
ENDMDL