MODEL 5
REMARK VINA RESULT: -6.604773459      2.303      6.454
REMARK  11 active torsions:
REMARK  status: ('A' for Active; 'I' for Inactive)
REMARK    1  A    between atoms: C2_2  and  C4_4
REMARK    2  A    between atoms: C7_7  and  C9_9
REMARK    3  A    between atoms: C10_10  and  C11_11
REMARK    4  A    between atoms: C11_11  and  C12_12
REMARK    5  A    between atoms: C18_19  and  C20_21
REMARK    6  A    between atoms: C20_21  and  C21_22
REMARK    7  A    between atoms: C21_22  and  C22_23
REMARK    8  A    between atoms: C22_23  and  O3_25
REMARK    9  A    between atoms: C30_34  and  O5_35
REMARK   10  A    between atoms: C31_37  and  C32_38
REMARK   11  A    between atoms: C32_38  and  O6_41
ROOT
HETATM    1  C4  UNL     1     -19.233 -49.337 -52.473  1.00  0.00    -0.005 C
HETATM    2  C5  UNL     1     -19.570 -50.735 -52.095  1.00  0.00     0.021 C
HETATM    3  C6  UNL     1     -18.054 -49.176 -53.267  1.00  0.00     0.048 C
HETATM    4  C7  UNL     1     -16.882 -50.040 -53.483  1.00  0.00    -0.019 C
HETATM    5  C8  UNL     1     -16.761 -51.407 -53.036  1.00  0.00     0.020 C
HETATM    6  C15 UNL     1     -15.738 -49.272 -52.789  1.00  0.00     0.017 C
HETATM    7  C16 UNL     1     -16.131 -47.855 -52.967  1.00  0.00     0.043 C
HETATM    8  C17 UNL     1     -17.626 -47.724 -53.009  1.00  0.00     0.101 C
HETATM    9  O1  UNL     1     -17.983 -47.035 -54.102  1.00  0.00    -0.361 OA
HETATM   10  C18 UNL     1     -17.933 -45.701 -54.251  1.00  0.00     0.083 C
HETATM   11  C19 UNL     1     -16.524 -45.130 -54.517  1.00  0.00     0.051 C
HETATM   12  C24 UNL     1     -18.501 -45.122 -53.045  1.00  0.00    -0.031 C
HETATM   13  C25 UNL     1     -18.991 -43.909 -52.798  1.00  0.00    -0.012 C
HETATM   14  C26 UNL     1     -19.481 -43.816 -51.363  1.00  0.00     0.107 C
HETATM   15  C27 UNL     1     -19.793 -45.284 -51.268  1.00  0.00     0.146 C
HETATM   16  O4  UNL     1     -20.871 -45.602 -50.902  1.00  0.00    -0.296 OA
HETATM   17  C28 UNL     1     -18.514 -45.869 -51.712  1.00  0.00     0.077 C
HETATM   18  C29 UNL     1     -17.420 -45.064 -50.937  1.00  0.00     0.032 C
HETATM   19  C30 UNL     1     -18.225 -47.275 -51.687  1.00  0.00     0.115 C
HETATM   20  C31 UNL     1     -19.180 -48.343 -51.285  1.00  0.00     0.071 C
ENDROOT
BRANCH   4  21
HETATM   21  C9  UNL     1     -16.509 -50.026 -54.942  1.00  0.00    -0.021 C
HETATM   22  C10 UNL     1     -16.871 -50.900 -55.980  1.00  0.00    -0.029 C
BRANCH  22  23
HETATM   23  C11 UNL     1     -18.283 -51.016 -56.427  1.00  0.00     0.030 C
BRANCH  23  24
HETATM   24  C12 UNL     1     -18.712 -52.523 -56.373  1.00  0.00    -0.019 C
HETATM   25  C13 UNL     1     -17.430 -53.304 -56.322  1.00  0.00     0.010 C
HETATM   26  C14 UNL     1     -19.570 -52.765 -55.173  1.00  0.00     0.010 C
ENDBRANCH  23  24
ENDBRANCH  22  23
ENDBRANCH   4  21
BRANCH   1  27
HETATM   27  C2  UNL     1     -20.496 -49.023 -53.253  1.00  0.00    -0.084 C
HETATM   28  C1  UNL     1     -20.656 -49.301 -54.496  1.00  0.00     0.015 C
HETATM   29  C3  UNL     1     -21.696 -48.391 -52.599  1.00  0.00     0.043 C
ENDBRANCH   1  27
BRANCH  20  30
HETATM   30  C32 UNL     1     -19.187 -48.951 -49.950  1.00  0.00     0.058 C
HETATM   31  C33 UNL     1     -18.013 -49.819 -49.551  1.00  0.00     0.046 C
HETATM   32  C34 UNL     1     -20.326 -49.837 -49.510  1.00  0.00     0.046 C
BRANCH  30  33
HETATM   33  O6  UNL     1     -19.151 -47.901 -49.031  1.00  0.00    -0.390 OA
ATOM     34  H6  UNL     1     -18.673 -48.217 -48.273  1.00  0.00     0.210 HD
ENDBRANCH  30  33
ENDBRANCH  20  30
BRANCH  19  35
HETATM   35  O5  UNL     1     -17.140 -47.488 -50.771  1.00  0.00    -0.385 OA
ATOM     36  H5  UNL     1     -16.413 -47.669 -51.355  1.00  0.00     0.210 HD
ENDBRANCH  19  35
BRANCH  10  37
HETATM   37  C20 UNL     1     -18.647 -45.507 -55.563  1.00  0.00     0.052 C
BRANCH  37  38
HETATM   38  C21 UNL     1     -18.051 -44.734 -56.634  1.00  0.00     0.114 C
BRANCH  38  39
HETATM   39  C22 UNL     1     -18.727 -43.383 -56.810  1.00  0.00     0.258 C
HETATM   40  O2  UNL     1     -19.910 -43.432 -57.220  1.00  0.00    -0.265 OA
BRANCH  39  41
HETATM   41  O3  UNL     1     -18.124 -42.192 -56.555  1.00  0.00    -0.326 OA
HETATM   42  C23 UNL     1     -16.715 -42.093 -56.684  1.00  0.00     0.213 C
ENDBRANCH  39  41
ENDBRANCH  38  39
ENDBRANCH  37  38
ENDBRANCH  10  37
TORSDOF 11
ENDMDL