MODEL 3
REMARK VINA RESULT: -7.100988453      3.536      6.608
REMARK  12 active torsions:
REMARK  status: ('A' for Active; 'I' for Inactive)
REMARK    1  A    between atoms: C13_14  and  C14_15
REMARK    2  A    between atoms: C14_15  and  C15_16
REMARK    3  A    between atoms: C15_16  and  C16_17
REMARK    4  A    between atoms: C16_17  and  C17_18
REMARK    5  A    between atoms: C17_18  and  O2_20
REMARK    6  A    between atoms: C17_18  and  C19_22
REMARK    7  A    between atoms: C19_22  and  C20_23
REMARK    8  A    between atoms: C20_23  and  C21_24
REMARK    9  A    between atoms: C21_24  and  C22_25
REMARK   10  A    between atoms: C24_28  and  C25_29
REMARK   11  A    between atoms: C28_33  and  O5_34
REMARK   12  A    between atoms: O5_34  and  C29_35
ROOT
HETATM    1  C1  UNL     1     -17.924 -42.692 -53.650  1.00  0.00     0.015 C
HETATM    2  C2  UNL     1     -18.157 -43.830 -54.235  1.00  0.00    -0.078 C
HETATM    3  C3  UNL     1     -17.760 -44.059 -55.669  1.00  0.00     0.034 C
HETATM    4  C4  UNL     1     -18.290 -45.477 -55.988  1.00  0.00     0.010 C
HETATM    5  C5  UNL     1     -17.964 -46.045 -54.635  1.00  0.00     0.006 C
HETATM    6  C6  UNL     1     -18.524 -47.250 -54.176  1.00  0.00     0.011 C
HETATM    7  C7  UNL     1     -17.728 -48.487 -54.641  1.00  0.00     0.036 C
HETATM    8  C8  UNL     1     -18.318 -49.601 -53.843  1.00  0.00     0.007 C
HETATM    9  C9  UNL     1     -18.363 -49.328 -52.577  1.00  0.00     0.053 C
HETATM   10  O1  UNL     1     -18.852 -49.934 -51.453  1.00  0.00    -0.340 OA
HETATM   11  C10 UNL     1     -20.083 -49.011 -51.189  1.00  0.00     0.086 C
HETATM   12  C11 UNL     1     -20.506 -48.995 -49.842  1.00  0.00     0.051 C
HETATM   13  C12 UNL     1     -21.098 -50.131 -51.697  1.00  0.00     0.051 C
HETATM   14  C13 UNL     1     -20.101 -47.873 -52.201  1.00  0.00    -0.015 C
HETATM   15  C27 UNL     1     -18.820 -47.167 -52.626  1.00  0.00     0.032 C
HETATM   16  C28 UNL     1     -18.682 -45.692 -52.489  1.00  0.00     0.159 C
HETATM   17  C31 UNL     1     -18.773 -45.020 -53.813  1.00  0.00     0.011 C
HETATM   18  C32 UNL     1     -20.182 -44.859 -54.342  1.00  0.00     0.023 C
HETATM   19  C33 UNL     1     -17.691 -48.010 -52.104  1.00  0.00     0.016 C
HETATM   20  C34 UNL     1     -17.507 -48.084 -50.612  1.00  0.00     0.023 C
HETATM   21  C35 UNL     1     -16.341 -48.065 -52.586  1.00  0.00     0.023 C
ENDROOT
BRANCH  14  22
HETATM   22  C14 UNL     1     -21.299 -47.111 -51.774  1.00  0.00     0.015 C
HETATM   23  C24 UNL     1     -22.436 -47.178 -52.465  1.00  0.00     0.069 C
BRANCH  22  24
HETATM   24  C15 UNL     1     -21.471 -46.316 -50.592  1.00  0.00    -0.141 C
BRANCH  24  25
HETATM   25  C16 UNL     1     -21.619 -45.634 -49.580  1.00  0.00     0.123 C
BRANCH  25  26
HETATM   26  C17 UNL     1     -22.758 -45.343 -48.717  1.00  0.00     0.064 C
HETATM   27  C18 UNL     1     -23.627 -46.603 -48.710  1.00  0.00     0.046 C
BRANCH  26  28
HETATM   28  O2  UNL     1     -23.602 -44.364 -49.397  1.00  0.00    -0.389 OA
ATOM     29  H2  UNL     1     -24.264 -44.068 -48.783  1.00  0.00     0.210 HD
ENDBRANCH  26  28
BRANCH  26  30
HETATM   30  C19 UNL     1     -22.566 -44.796 -47.384  1.00  0.00     0.038 C
BRANCH  30  31
HETATM   31  C20 UNL     1     -23.597 -44.718 -46.352  1.00  0.00     0.010 C
BRANCH  31  32
HETATM   32  C21 UNL     1     -24.217 -43.366 -46.096  1.00  0.00     0.078 C
BRANCH  32  33
HETATM   33  C22 UNL     1     -25.577 -43.301 -46.744  1.00  0.00     0.123 C
HETATM   34  C23 UNL     1     -26.786 -43.612 -45.959  1.00  0.00     0.091 C
HETATM   35  O3  UNL     1     -25.643 -42.992 -47.907  1.00  0.00    -0.298 OA
ENDBRANCH  32  33
ENDBRANCH  31  32
ENDBRANCH  30  31
ENDBRANCH  26  30
ENDBRANCH  25  26
ENDBRANCH  24  25
ENDBRANCH  22  24
BRANCH  23  36
HETATM   36  C25 UNL     1     -22.900 -47.833 -53.628  1.00  0.00     0.146 C
HETATM   37  C26 UNL     1     -22.034 -48.021 -54.855  1.00  0.00     0.096 C
HETATM   38  O4  UNL     1     -24.035 -48.316 -53.781  1.00  0.00    -0.294 OA
ENDBRANCH  23  36
ENDBRANCH  14  22
BRANCH  16  39
HETATM   39  O5  UNL     1     -17.653 -45.356 -51.660  1.00  0.00    -0.314 OA
BRANCH  39  40
HETATM   40  C29 UNL     1     -17.499 -44.421 -50.703  1.00  0.00     0.255 C
HETATM   41  C30 UNL     1     -16.306 -43.620 -50.410  1.00  0.00     0.126 C
HETATM   42  O6  UNL     1     -18.524 -44.295 -50.056  1.00  0.00    -0.266 OA
ENDBRANCH  39  40
ENDBRANCH  16  39
TORSDOF 12
ENDMDL