MODEL 1
REMARK VINA RESULT: -8.171598131      0.000      0.000
REMARK  14 active torsions:
REMARK  status: ('A' for Active; 'I' for Inactive)
REMARK    1  A    between atoms: C3_3  and  C4_4
REMARK    2  A    between atoms: C5_5  and  C6_6
REMARK    3  A    between atoms: C8_8  and  C9_9
REMARK    4  A    between atoms: C10_10  and  C11_11
REMARK    5  A    between atoms: C11_11  and  C13_13
REMARK    6  A    between atoms: C13_13  and  C14_14
REMARK    7  A    between atoms: C14_14  and  C15_15
REMARK    8  A    between atoms: C15_15  and  C16_16
REMARK    9  A    between atoms: C16_16  and  C18_18
REMARK   10  A    between atoms: C19_21  and  O3_23
REMARK   11  A    between atoms: C22_26  and  O4_27
REMARK   12  A    between atoms: O4_27  and  C23_28
REMARK   13  A    between atoms: C27_33  and  O6_34
REMARK   14  A    between atoms: O6_34  and  C28_35
ROOT
HETATM    1  C1  UNL     1     -18.610 -46.967 -50.400  1.00  0.00     0.020 C
HETATM    2  C2  UNL     1     -19.194 -46.672 -51.563  1.00  0.00    -0.050 C
HETATM    3  C3  UNL     1     -20.627 -46.785 -51.716  1.00  0.00    -0.018 C
HETATM    4  C19 UNL     1     -21.064 -47.446 -52.996  1.00  0.00     0.084 C
HETATM    5  C20 UNL     1     -21.940 -48.617 -52.509  1.00  0.00     0.051 C
HETATM    6  C21 UNL     1     -19.905 -48.038 -53.730  1.00  0.00     0.082 C
HETATM    7  C22 UNL     1     -18.725 -47.153 -53.943  1.00  0.00     0.082 C
HETATM    8  C25 UNL     1     -19.065 -46.352 -55.221  1.00  0.00     0.042 C
HETATM    9  C26 UNL     1     -17.936 -45.349 -55.343  1.00  0.00     0.036 C
HETATM   10  C27 UNL     1     -18.121 -44.279 -54.323  1.00  0.00     0.140 C
HETATM   11  C30 UNL     1     -18.322 -44.826 -52.924  1.00  0.00    -0.010 C
HETATM   12  C31 UNL     1     -17.088 -44.308 -52.142  1.00  0.00     0.018 C
HETATM   13  C32 UNL     1     -19.440 -44.009 -52.301  1.00  0.00     0.018 C
HETATM   14  C33 UNL     1     -18.389 -46.273 -52.775  1.00  0.00     0.064 C
ENDROOT
BRANCH   3  15
HETATM   15  C4  UNL     1     -21.521 -46.384 -50.842  1.00  0.00     0.011 C
HETATM   16  C5  UNL     1     -21.357 -45.586 -49.676  1.00  0.00     0.007 C
BRANCH  16  17
HETATM   17  C6  UNL     1     -22.419 -45.266 -48.908  1.00  0.00    -0.062 C
HETATM   18  C7  UNL     1     -23.775 -45.185 -49.483  1.00  0.00     0.048 C
HETATM   19  C8  UNL     1     -22.161 -45.109 -47.506  1.00  0.00     0.007 C
BRANCH  19  20
HETATM   20  C9  UNL     1     -23.076 -44.755 -46.614  1.00  0.00     0.001 C
HETATM   21  C10 UNL     1     -23.293 -43.360 -46.396  1.00  0.00     0.007 C
BRANCH  21  22
HETATM   22  C11 UNL     1     -24.167 -42.759 -45.597  1.00  0.00    -0.062 C
HETATM   23  C12 UNL     1     -23.778 -42.261 -44.269  1.00  0.00     0.048 C
BRANCH  22  24
HETATM   24  C13 UNL     1     -25.480 -42.543 -46.180  1.00  0.00     0.007 C
BRANCH  24  25
HETATM   25  C14 UNL     1     -26.533 -43.273 -46.198  1.00  0.00     0.001 C
BRANCH  25  26
HETATM   26  C15 UNL     1     -27.663 -43.262 -45.341  1.00  0.00     0.013 C
BRANCH  26  27
HETATM   27  C16 UNL     1     -27.440 -43.464 -44.009  1.00  0.00     0.015 C
HETATM   28  C17 UNL     1     -27.044 -44.786 -43.559  1.00  0.00     0.055 C
BRANCH  27  29
HETATM   29  C18 UNL     1     -27.620 -42.350 -43.121  1.00  0.00     0.204 C
HETATM   30  O1  UNL     1     -26.819 -42.184 -42.141  1.00  0.00    -0.644 OA
HETATM   31  O2  UNL     1     -28.631 -41.451 -43.294  1.00  0.00    -0.644 OA
ENDBRANCH  27  29
ENDBRANCH  26  27
ENDBRANCH  25  26
ENDBRANCH  24  25
ENDBRANCH  22  24
ENDBRANCH  21  22
ENDBRANCH  19  20
ENDBRANCH  16  17
ENDBRANCH   3  15
BRANCH   4  32
HETATM   32  O3  UNL     1     -21.904 -46.651 -53.750  1.00  0.00    -0.385 OA
ATOM     33  H3  UNL     1     -21.509 -45.823 -53.995  1.00  0.00     0.211 HD
ENDBRANCH   4  32
BRANCH   7  34
HETATM   34  O4  UNL     1     -17.640 -47.937 -54.382  1.00  0.00    -0.309 OA
BRANCH  34  35
HETATM   35  C23 UNL     1     -16.694 -48.591 -53.685  1.00  0.00     0.255 C
HETATM   36  C24 UNL     1     -16.955 -49.761 -52.792  1.00  0.00     0.126 C
HETATM   37  O5  UNL     1     -15.513 -48.223 -53.765  1.00  0.00    -0.266 OA
ENDBRANCH  34  35
ENDBRANCH   7  34
BRANCH  10  38
HETATM   38  O6  UNL     1     -17.132 -43.296 -54.406  1.00  0.00    -0.316 OA
BRANCH  38  39
HETATM   39  C28 UNL     1     -16.845 -42.597 -55.571  1.00  0.00     0.255 C
HETATM   40  C29 UNL     1     -15.557 -42.697 -56.269  1.00  0.00     0.126 C
HETATM   41  O7  UNL     1     -17.744 -41.847 -56.034  1.00  0.00    -0.266 OA
ENDBRANCH  38  39
ENDBRANCH  10  38
TORSDOF 14
ENDMDL