MODEL 5
REMARK VINA RESULT: -7.500021179      5.095      8.834
REMARK  12 active torsions:
REMARK  status: ('A' for Active; 'I' for Inactive)
REMARK    1  A    between atoms: O1_2  and  C2_3
REMARK    2  A    between atoms: C9_10  and  O2_11
REMARK    3  A    between atoms: C16_19  and  O3_20
REMARK    4  A    between atoms: C18_23  and  C20_25
REMARK    5  A    between atoms: C20_25  and  O4_26
REMARK    6  A    between atoms: C20_25  and  C23_30
REMARK    7  A    between atoms: O4_26  and  C21_27
REMARK    8  A    between atoms: C23_30  and  C25_32
REMARK    9  A    between atoms: C25_32  and  C26_33
REMARK   10  A    between atoms: C26_33  and  C27_34
REMARK   11  A    between atoms: C27_34  and  C28_35
REMARK   12  A    between atoms: C34_41  and  O6_42
ROOT
HETATM    1  C2  UNL     1     -23.628 -51.231 -47.744  1.00  0.00     0.094 C
HETATM    2  C3  UNL     1     -23.702 -52.536 -47.825  1.00  0.00     0.017 C
HETATM    3  C4  UNL     1     -24.366 -53.592 -47.042  1.00  0.00     0.017 C
HETATM    4  C5  UNL     1     -23.501 -54.816 -47.007  1.00  0.00     0.015 C
HETATM    5  C6  UNL     1     -25.825 -53.857 -47.430  1.00  0.00    -0.015 C
HETATM    6  C7  UNL     1     -26.737 -53.498 -46.283  1.00  0.00     0.018 C
HETATM    7  C8  UNL     1     -25.921 -55.386 -47.347  1.00  0.00     0.018 C
HETATM    8  C9  UNL     1     -26.218 -53.505 -48.787  1.00  0.00     0.134 C
HETATM    9  C10 UNL     1     -27.462 -52.859 -49.238  1.00  0.00     0.033 C
HETATM   10  C11 UNL     1     -28.735 -53.483 -48.589  1.00  0.00     0.017 C
HETATM   11  C12 UNL     1     -27.577 -51.379 -49.143  1.00  0.00    -0.023 C
HETATM   12  C13 UNL     1     -27.146 -50.309 -49.721  1.00  0.00    -0.023 C
HETATM   13  C14 UNL     1     -27.278 -48.823 -49.611  1.00  0.00     0.032 C
HETATM   14  C15 UNL     1     -27.817 -48.507 -51.071  1.00  0.00     0.017 C
HETATM   15  C16 UNL     1     -25.939 -48.131 -49.413  1.00  0.00     0.126 C
HETATM   16  C17 UNL     1     -25.564 -47.199 -48.448  1.00  0.00     0.044 C
HETATM   17  C18 UNL     1     -25.274 -47.180 -46.991  1.00  0.00    -0.014 C
HETATM   18  C19 UNL     1     -26.636 -47.290 -46.286  1.00  0.00     0.018 C
HETATM   19  C31 UNL     1     -24.141 -47.768 -46.350  1.00  0.00     0.022 C
HETATM   20  C32 UNL     1     -23.660 -49.119 -46.015  1.00  0.00     0.042 C
HETATM   21  C33 UNL     1     -24.236 -49.595 -44.640  1.00  0.00     0.017 C
HETATM   22  C34 UNL     1     -24.130 -50.210 -46.881  1.00  0.00     0.080 C
ENDROOT
BRANCH  17  23
HETATM   23  C20 UNL     1     -24.998 -45.642 -46.805  1.00  0.00     0.143 C
BRANCH  23  24
HETATM   24  O4  UNL     1     -23.691 -45.495 -46.211  1.00  0.00    -0.315 OA
BRANCH  24  25
HETATM   25  C21 UNL     1     -22.611 -44.909 -46.876  1.00  0.00     0.255 C
HETATM   26  C22 UNL     1     -22.303 -45.192 -48.295  1.00  0.00     0.126 C
HETATM   27  O5  UNL     1     -21.857 -44.108 -46.273  1.00  0.00    -0.266 OA
ENDBRANCH  24  25
ENDBRANCH  23  24
BRANCH  23  28
HETATM   28  C23 UNL     1     -25.887 -44.869 -45.960  1.00  0.00     0.012 C
HETATM   29  C24 UNL     1     -26.403 -43.526 -46.338  1.00  0.00     0.012 C
BRANCH  28  30
HETATM   30  C25 UNL     1     -25.018 -44.582 -44.686  1.00  0.00     0.007 C
BRANCH  30  31
HETATM   31  C26 UNL     1     -25.875 -44.859 -43.487  1.00  0.00     0.001 C
BRANCH  31  32
HETATM   32  C27 UNL     1     -26.204 -43.679 -42.628  1.00  0.00     0.004 C
BRANCH  32  33
HETATM   33  C28 UNL     1     -27.582 -43.164 -42.604  1.00  0.00    -0.023 C
HETATM   34  C29 UNL     1     -28.647 -43.934 -43.286  1.00  0.00     0.009 C
HETATM   35  C30 UNL     1     -27.540 -41.769 -43.256  1.00  0.00     0.009 C
ENDBRANCH  32  33
ENDBRANCH  31  32
ENDBRANCH  30  31
ENDBRANCH  28  30
ENDBRANCH  23  28
ENDBRANCH  17  23
BRANCH  15  36
HETATM   36  O3  UNL     1     -25.703 -47.511 -50.691  1.00  0.00    -0.395 OA
ATOM     37  H3  UNL     1     -25.133 -48.133 -51.128  1.00  0.00     0.210 HD
ENDBRANCH  15  36
BRANCH  22  38
HETATM   38  O6  UNL     1     -25.432 -50.095 -46.725  1.00  0.00    -0.362 OA
ATOM     39  H6  UNL     1     -26.006 -50.637 -47.254  1.00  0.00     0.217 HD
ENDBRANCH  22  38
BRANCH   1  40
HETATM   40  O1  UNL     1     -22.843 -50.720 -48.797  1.00  0.00    -0.354 OA
HETATM   41  C1  UNL     1     -23.303 -50.599 -50.082  1.00  0.00     0.210 C
ENDBRANCH   1  40
BRANCH   8  42
HETATM   42  O2  UNL     1     -25.970 -54.595 -49.684  1.00  0.00    -0.394 OA
ATOM     43  H2  UNL     1     -26.637 -55.265 -49.588  1.00  0.00     0.210 HD
ENDBRANCH   8  42
TORSDOF 12
ENDMDL