MODEL 5
REMARK VINA RESULT: -5.878829759      2.422      4.854
REMARK  5 active torsions:
REMARK  status: ('A' for Active; 'I' for Inactive)
REMARK    1  A    between atoms: O1_2  and  C2_3
REMARK    2  A    between atoms: C18_21  and  O3_22
REMARK    3  A    between atoms: O3_22  and  C19_23
REMARK    4  A    between atoms: C27_32  and  O5_33
REMARK    5  A    between atoms: C28_35  and  O6_36
ROOT
HETATM    1  C2  UNL     1       2.064   0.664 105.145  1.00  0.00     0.095 C
HETATM    2  C3  UNL     1       1.438   1.943 104.748  1.00  0.00     0.009 C
HETATM    3  C4  UNL     1       1.901   2.810 103.948  1.00  0.00    -0.010 C
HETATM    4  C5  UNL     1       3.190   2.633 103.286  1.00  0.00     0.041 C
HETATM    5  C6  UNL     1       3.858   3.976 103.549  1.00  0.00     0.028 C
HETATM    6  C7  UNL     1       2.953   2.640 101.839  1.00  0.00     0.154 C
HETATM    7  O2  UNL     1       1.880   2.661 101.336  1.00  0.00    -0.295 OA
HETATM    8  C8  UNL     1       4.203   2.622 101.052  1.00  0.00     0.137 C
HETATM    9 BR1  UNL     1       3.627   2.078  99.274  1.00  0.00    -0.082 Br
HETATM   10  C9  UNL     1       5.228   1.710 101.604  1.00  0.00     0.045 C
HETATM   11  C10 UNL     1       6.562   2.110 101.096  1.00  0.00    -0.064 C
HETATM   12  C11 UNL     1       7.591   1.387 101.521  1.00  0.00    -0.048 C
HETATM   13  C12 UNL     1       8.947   1.758 101.039  1.00  0.00     0.037 C
HETATM   14  C13 UNL     1       9.011   2.015  99.575  1.00  0.00     0.009 C
HETATM   15  C14 UNL     1       7.710   2.486  99.045  1.00  0.00    -0.011 C
HETATM   16  C15 UNL     1       7.899   3.422  97.874  1.00  0.00     0.010 C
HETATM   17  C16 UNL     1       6.838   3.171 100.131  1.00  0.00     0.015 C
HETATM   18  C17 UNL     1       7.580   4.372 100.599  1.00  0.00     0.015 C
HETATM   19  C18 UNL     1       7.412   0.236 102.405  1.00  0.00     0.162 C
HETATM   20  C21 UNL     1       6.065   0.112 103.084  1.00  0.00     0.047 C
HETATM   21  C22 UNL     1       5.256   1.421 103.087  1.00  0.00    -0.027 C
HETATM   22  C23 UNL     1       6.216   2.322 103.861  1.00  0.00     0.016 C
HETATM   23  C24 UNL     1       3.972   1.435 103.781  1.00  0.00     0.028 C
HETATM   24  C25 UNL     1       3.109   0.226 104.058  1.00  0.00     0.026 C
HETATM   25  C26 UNL     1       3.906  -0.779 104.877  1.00  0.00     0.022 C
HETATM   26  C27 UNL     1       2.507  -0.494 102.937  1.00  0.00     0.158 C
HETATM   27  C28 UNL     1       1.039  -0.851 103.029  1.00  0.00     0.148 C
HETATM   28  C29 UNL     1       0.816  -1.383 104.386  1.00  0.00     0.046 C
HETATM   29  C30 UNL     1       1.030  -0.308 105.431  1.00  0.00    -0.010 C
HETATM   30  C31 UNL     1      -0.408   0.285 105.531  1.00  0.00     0.018 C
HETATM   31  C32 UNL     1       1.099  -1.076 106.742  1.00  0.00     0.018 C
ENDROOT
BRANCH  19  32
HETATM   32  O3  UNL     1       8.515   0.150 103.283  1.00  0.00    -0.312 OA
BRANCH  32  33
HETATM   33  C19 UNL     1       8.703  -0.832 104.211  1.00  0.00     0.255 C
HETATM   34  C20 UNL     1       8.602  -2.260 103.794  1.00  0.00     0.126 C
HETATM   35  O4  UNL     1       8.958  -0.503 105.402  1.00  0.00    -0.266 OA
ENDBRANCH  32  33
ENDBRANCH  19  32
BRANCH   1  36
HETATM   36  O1  UNL     1       2.780   1.017 106.277  1.00  0.00    -0.379 OA
HETATM   37  C1  UNL     1       2.336   1.993 107.078  1.00  0.00     0.203 C
ENDBRANCH   1  36
BRANCH  26  38
HETATM   38  O5  UNL     1       3.038  -1.825 102.828  1.00  0.00    -0.392 OA
ATOM     39  H5  UNL     1       3.989  -1.817 102.834  1.00  0.00     0.210 HD
ENDBRANCH  26  38
BRANCH  27  40
HETATM   40  O6  UNL     1       0.144   0.027 102.510  1.00  0.00    -0.393 OA
ATOM     41  H6  UNL     1      -0.345  -0.244 101.742  1.00  0.00     0.210 HD
ENDBRANCH  27  40
TORSDOF 5
ENDMDL