MODEL 4
REMARK VINA RESULT: -7.872880264      2.205      3.607
REMARK  6 active torsions:
REMARK  status: ('A' for Active; 'I' for Inactive)
REMARK    1  A    between atoms: C15_15  and  O1_16
REMARK    2  A    between atoms: O1_16  and  C16_17
REMARK    3  A    between atoms: C16_17  and  C17_19
REMARK    4  A    between atoms: C21_23  and  O3_24
REMARK    5  A    between atoms: C24_29  and  O5_30
REMARK    6  A    between atoms: C27_35  and  C29_37
ROOT
HETATM    1  C1  UNL     1      11.258   2.273  96.300  1.00  0.00     0.017 C
HETATM    2  C2  UNL     1      10.226   3.262  96.799  1.00  0.00     0.040 C
HETATM    3  C3  UNL     1       9.321   2.671  97.793  1.00  0.00    -0.069 C
HETATM    4  C4  UNL     1       9.789   1.749  98.595  1.00  0.00    -0.022 C
HETATM    5  C5  UNL     1       8.939   1.072  99.659  1.00  0.00     0.033 C
HETATM    6  C6  UNL     1       7.506   1.344  99.348  1.00  0.00    -0.001 C
HETATM    7  C7  UNL     1       6.452   1.049 100.322  1.00  0.00     0.003 C
HETATM    8  C8  UNL     1       6.201   2.383 100.973  1.00  0.00     0.023 C
HETATM    9  C9  UNL     1       6.162   3.245  99.681  1.00  0.00     0.013 C
HETATM   10  C10 UNL     1       7.483   2.878  99.194  1.00  0.00     0.003 C
HETATM   11  C11 UNL     1       7.921   3.174  97.819  1.00  0.00    -0.016 C
HETATM   12  C12 UNL     1       7.063   2.491  96.766  1.00  0.00     0.020 C
HETATM   13  C13 UNL     1       7.902   4.656  97.488  1.00  0.00     0.016 C
HETATM   14  C14 UNL     1       8.571   4.981  96.198  1.00  0.00     0.034 C
HETATM   15  C15 UNL     1       9.518   3.951  95.679  1.00  0.00     0.139 C
HETATM   16  C21 UNL     1       4.881   2.556 101.611  1.00  0.00     0.160 C
HETATM   17  C22 UNL     1       4.718   1.646 102.844  1.00  0.00     0.117 C
HETATM   18  C23 UNL     1       5.672   2.062 103.928  1.00  0.00     0.212 C
HETATM   19  O4  UNL     1       4.977   2.564 104.991  1.00  0.00    -0.358 OA
HETATM   20  C24 UNL     1       3.664   2.104 104.938  1.00  0.00     0.263 C
HETATM   21  C25 UNL     1       3.401   2.169 103.454  1.00  0.00     0.076 C
HETATM   22  C26 UNL     1       2.224   1.381 103.013  1.00  0.00     0.018 C
HETATM   23  O6  UNL     1       4.576   0.373 102.571  1.00  0.00    -0.363 OA
HETATM   24  C27 UNL     1       5.370  -0.478 101.959  1.00  0.00     0.071 C
HETATM   25  C28 UNL     1       4.509  -1.195 100.891  1.00  0.00     0.047 C
HETATM   26  C30 UNL     1       6.618  -0.073 101.255  1.00  0.00     0.021 C
HETATM   27  C31 UNL     1       7.144  -1.330 100.527  1.00  0.00     0.013 C
ENDROOT
BRANCH  15  28
HETATM   28  O1  UNL     1      10.516   4.656  94.925  1.00  0.00    -0.315 OA
BRANCH  28  29
HETATM   29  C16 UNL     1      11.175   5.766  95.401  1.00  0.00     0.267 C
HETATM   30  O2  UNL     1      10.543   6.623  96.047  1.00  0.00    -0.264 OA
BRANCH  29  31
HETATM   31  C17 UNL     1      12.618   5.920  95.135  1.00  0.00     0.037 C
HETATM   32  C18 UNL     1      12.867   5.479  93.687  1.00  0.00     0.025 C
HETATM   33  C19 UNL     1      13.448   5.030  96.050  1.00  0.00     0.025 C
HETATM   34  C20 UNL     1      12.981   7.377  95.313  1.00  0.00     0.025 C
ENDBRANCH  29  31
ENDBRANCH  28  29
ENDBRANCH  15  28
BRANCH  16  35
HETATM   35  O3  UNL     1       3.786   2.502 100.794  1.00  0.00    -0.392 OA
ATOM     36  H3  UNL     1       3.948   2.418  99.862  1.00  0.00     0.210 HD
ENDBRANCH  16  35
BRANCH  24  37
HETATM   37  C29 UNL     1       5.670  -1.604 102.985  1.00  0.00     0.123 C
HETATM   38 BR1  UNL     1       4.018  -2.351 103.667  1.00  0.00    -0.093 Br
ENDBRANCH  24  37
BRANCH  20  39
HETATM   39  O5  UNL     1       3.509   0.807 105.362  1.00  0.00    -0.371 OA
ATOM     40  H5  UNL     1       2.866   0.700 106.052  1.00  0.00     0.212 HD
ENDBRANCH  20  39
TORSDOF 6
ENDMDL