MODEL 2
REMARK VINA RESULT: -7.655341245      2.704      4.971
REMARK  5 active torsions:
REMARK  status: ('A' for Active; 'I' for Inactive)
REMARK    1  A    between atoms: C2_2  and  C5_5
REMARK    2  A    between atoms: C5_5  and  O2_7
REMARK    3  A    between atoms: O2_7  and  C6_8
REMARK    4  A    between atoms: C16_18  and  O3_19
REMARK    5  A    between atoms: C17_21  and  O4_22
ROOT
HETATM    1  C6  UNL     1       6.148   2.075 100.449  1.00  0.00     0.163 C
HETATM    2  C7  UNL     1       7.090   3.062 101.248  1.00  0.00     0.050 C
HETATM    3  C8  UNL     1       6.407   2.283 102.392  1.00  0.00    -0.019 C
HETATM    4  C9  UNL     1       6.741   3.059 103.586  1.00  0.00     0.019 C
HETATM    5  C10 UNL     1       7.221   0.994 102.552  1.00  0.00     0.019 C
HETATM    6  C11 UNL     1       5.199   2.151 101.585  1.00  0.00    -0.038 C
HETATM    7  C12 UNL     1       3.828   1.932 101.761  1.00  0.00    -0.047 C
HETATM    8  C13 UNL     1       3.133   1.484 100.496  1.00  0.00     0.006 C
HETATM    9  C14 UNL     1       4.017   0.374  99.846  1.00  0.00     0.022 C
HETATM   10  C15 UNL     1       2.967   2.518  99.437  1.00  0.00     0.022 C
HETATM   11  C16 UNL     1       1.833   0.781 100.573  1.00  0.00     0.159 C
HETATM   12  C17 UNL     1       1.411  -0.071 101.663  1.00  0.00     0.148 C
HETATM   13  C18 UNL     1       2.473  -0.246 102.652  1.00  0.00     0.045 C
HETATM   14  C19 UNL     1       2.621   0.877 103.682  1.00  0.00    -0.016 C
HETATM   15  C20 UNL     1       3.668   0.216 104.574  1.00  0.00     0.018 C
HETATM   16  C21 UNL     1       1.387   0.957 104.477  1.00  0.00     0.025 C
HETATM   17  C22 UNL     1       1.578   1.124 105.986  1.00  0.00     0.026 C
HETATM   18  C23 UNL     1       0.477   1.937 106.631  1.00  0.00     0.066 C
HETATM   19 BR1  UNL     1       0.511   1.588 108.529  1.00  0.00    -0.090 Br
HETATM   20  C24 UNL     1      -0.887   1.608 106.129  1.00  0.00    -0.031 C
HETATM   21  C25 UNL     1      -1.358   0.241 106.607  1.00  0.00     0.016 C
HETATM   22  C26 UNL     1      -1.857   2.610 106.754  1.00  0.00     0.016 C
HETATM   23  C27 UNL     1      -1.021   1.724 104.645  1.00  0.00     0.044 C
HETATM   24  C28 UNL     1       0.377   1.923 104.098  1.00  0.00    -0.071 C
HETATM   25  C29 UNL     1       0.627   2.908 103.281  1.00  0.00     0.054 C
HETATM   26  C30 UNL     1       1.920   3.076 102.714  1.00  0.00     0.163 C
HETATM   27  O5  UNL     1       2.086   4.042 101.944  1.00  0.00    -0.292 OA
HETATM   28  C31 UNL     1       3.103   2.139 103.010  1.00  0.00     0.053 C
HETATM   29  C32 UNL     1       3.617   2.959 104.144  1.00  0.00     0.029 C
ENDROOT
BRANCH   1  30
HETATM   30  O2  UNL     1       5.994   2.663  99.198  1.00  0.00    -0.311 OA
BRANCH  30  31
HETATM   31  C5  UNL     1       6.953   2.600  98.195  1.00  0.00     0.267 C
HETATM   32  O1  UNL     1       7.933   1.825  98.333  1.00  0.00    -0.264 OA
BRANCH  31  33
HETATM   33  C2  UNL     1       6.863   3.418  96.967  1.00  0.00     0.037 C
HETATM   34  C1  UNL     1       5.393   3.773  96.745  1.00  0.00     0.025 C
HETATM   35  C3  UNL     1       7.680   4.665  97.057  1.00  0.00     0.025 C
HETATM   36  C4  UNL     1       7.291   2.604  95.749  1.00  0.00     0.025 C
ENDBRANCH  31  33
ENDBRANCH  30  31
ENDBRANCH   1  30
BRANCH  11  37
HETATM   37  O3  UNL     1       0.775   1.627 100.160  1.00  0.00    -0.392 OA
ATOM     38  H3  UNL     1       0.964   2.022  99.317  1.00  0.00     0.210 HD
ENDBRANCH  11  37
BRANCH  12  39
HETATM   39  O4  UNL     1       1.137  -1.387 101.121  1.00  0.00    -0.393 OA
ATOM     40  H4  UNL     1       0.853  -1.945 101.835  1.00  0.00     0.210 HD
ENDBRANCH  12  39
TORSDOF 5
ENDMDL