MODEL 3
REMARK VINA RESULT: -6.155427473      3.168      8.145
REMARK  4 active torsions:
REMARK  status: ('A' for Active; 'I' for Inactive)
REMARK    1  A    between atoms: C29_37  and  O3_38
REMARK    2  A    between atoms: O3_38  and  C30_39
REMARK    3  A    between atoms: C32_42  and  O5_43
REMARK    4  A    between atoms: O5_43  and  C33_44
ROOT
HETATM    1  C1  UNL     1       2.196  -0.289 101.392  1.00  0.00     0.017 C
HETATM    2  C2  UNL     1       3.395   0.232 101.193  1.00  0.00    -0.053 C
HETATM    3  C3  UNL     1       4.537  -0.740 101.217  1.00  0.00     0.016 C
HETATM    4  C4  UNL     1       4.402  -1.591  99.952  1.00  0.00     0.015 C
HETATM    5  C5  UNL     1       4.587  -1.581 102.463  1.00  0.00    -0.010 C
HETATM    6  C6  UNL     1       4.484  -3.034 102.066  1.00  0.00     0.010 C
HETATM    7  C7  UNL     1       5.899  -1.275 103.139  1.00  0.00     0.018 C
HETATM    8  C8  UNL     1       6.221  -2.070 104.342  1.00  0.00     0.067 C
HETATM    9  C9  UNL     1       7.648  -2.544 104.169  1.00  0.00    -0.044 C
HETATM   10  C10 UNL     1       8.169  -3.467 103.395  1.00  0.00    -0.014 C
HETATM   11  C11 UNL     1       9.633  -3.746 103.412  1.00  0.00     0.106 C
HETATM   12  C12 UNL     1      10.084  -3.526 104.808  1.00  0.00     0.140 C
HETATM   13  O1  UNL     1      10.717  -4.380 105.364  1.00  0.00    -0.297 OA
HETATM   14  C13 UNL     1       9.738  -2.250 105.476  1.00  0.00     0.046 C
HETATM   15  C14 UNL     1       9.916  -2.415 106.973  1.00  0.00     0.025 C
HETATM   16  C15 UNL     1      10.824  -1.252 105.049  1.00  0.00     0.025 C
HETATM   17  C16 UNL     1       8.409  -1.697 105.108  1.00  0.00     0.232 C
HETATM   18  N1  UNL     1       7.489  -1.625 106.228  1.00  0.00    -0.044 N
ATOM     19  H11 UNL     1       7.791  -1.007 106.982  1.00  0.00     0.280 HD
ATOM     20  H12 UNL     1       7.446  -2.473 106.793  1.00  0.00     0.280 HD
HETATM   21  C17 UNL     1       6.233  -1.251 105.619  1.00  0.00     0.295 C
HETATM   22  N2  UNL     1       5.082  -1.587 106.423  1.00  0.00    -0.329 N
ATOM     23  H2  UNL     1       4.264  -1.952 105.936  1.00  0.00     0.164 HD
HETATM   24  C18 UNL     1       4.990  -1.454 107.836  1.00  0.00     0.245 C
HETATM   25  O2  UNL     1       4.578  -2.474 108.511  1.00  0.00    -0.268 OA
HETATM   26  C19 UNL     1       5.325  -0.248 108.592  1.00  0.00     0.112 C
HETATM   27  C20 UNL     1       4.768   0.938 108.424  1.00  0.00     0.103 C
HETATM   28  F1  UNL     1       5.197   1.973 109.217  1.00  0.00    -0.210 F
HETATM   29  C21 UNL     1       3.694   1.262 107.457  1.00  0.00     0.044 C
HETATM   30  C22 UNL     1       2.737   2.204 108.207  1.00  0.00     0.017 C
HETATM   31  C23 UNL     1       4.143   1.992 106.241  1.00  0.00     0.015 C
HETATM   32  C24 UNL     1       3.426   1.641 104.967  1.00  0.00    -0.017 C
HETATM   33  C25 UNL     1       2.234   0.741 105.264  1.00  0.00     0.010 C
HETATM   34  C26 UNL     1       2.873   2.872 104.301  1.00  0.00     0.011 C
HETATM   35  C27 UNL     1       3.442   3.187 102.952  1.00  0.00     0.014 C
HETATM   36  C28 UNL     1       4.919   3.077 102.970  1.00  0.00     0.012 C
HETATM   37  C29 UNL     1       2.741   2.510 101.802  1.00  0.00     0.169 C
HETATM   38  C32 UNL     1       3.617   1.679 100.939  1.00  0.00     0.190 C
ENDROOT
BRANCH  37  39
HETATM   39  O3  UNL     1       2.014   3.431 101.014  1.00  0.00    -0.313 OA
BRANCH  39  40
HETATM   40  C30 UNL     1       0.660   3.623 101.001  1.00  0.00     0.255 C
HETATM   41  C31 UNL     1      -0.312   2.520 101.301  1.00  0.00     0.126 C
HETATM   42  O4  UNL     1       0.234   4.752 100.729  1.00  0.00    -0.266 OA
ENDBRANCH  39  40
ENDBRANCH  37  39
BRANCH  38  43
HETATM   43  O5  UNL     1       3.368   1.860  99.551  1.00  0.00    -0.309 OA
BRANCH  43  44
HETATM   44  C33 UNL     1       4.333   2.124  98.625  1.00  0.00     0.255 C
HETATM   45  C34 UNL     1       5.713   2.419  99.077  1.00  0.00     0.126 C
HETATM   46  O6  UNL     1       4.071   2.121  97.420  1.00  0.00    -0.266 OA
ENDBRANCH  43  44
ENDBRANCH  38  43
TORSDOF 4
ENDMDL