MODEL 1
REMARK VINA RESULT: -7.981852101      0.000      0.000
REMARK  6 active torsions:
REMARK  status: ('A' for Active; 'I' for Inactive)
REMARK    1  A    between atoms: O1_2  and  C2_3
REMARK    2  A    between atoms: C2_3  and  C3_5
REMARK    3  A    between atoms: C7_9  and  O3_10
REMARK    4  A    between atoms: O3_10  and  C8_11
REMARK    5  A    between atoms: C23_28  and  O5_30
REMARK    6  A    between atoms: C29_36  and  O6_37
ROOT
HETATM    1  C3  UNL     1       6.096  -1.151 104.113  1.00  0.00     0.074 C
HETATM    2  C4  UNL     1       7.131  -0.147 103.706  1.00  0.00    -0.002 C
HETATM    3  C5  UNL     1       6.670   0.526 102.632  1.00  0.00    -0.067 C
HETATM    4  C6  UNL     1       5.342  -0.001 102.305  1.00  0.00     0.050 C
HETATM    5  C7  UNL     1       4.531   1.005 101.610  1.00  0.00     0.141 C
HETATM    6  C10 UNL     1       5.320   1.353 100.331  1.00  0.00     0.044 C
HETATM    7  C11 UNL     1       6.489   2.174 100.744  1.00  0.00    -0.019 C
HETATM    8  C12 UNL     1       5.849   3.422 101.396  1.00  0.00     0.017 C
HETATM    9  C13 UNL     1       7.319   1.586 101.855  1.00  0.00     0.047 C
HETATM   10  C14 UNL     1       8.526   1.060 101.153  1.00  0.00    -0.009 C
HETATM   11  C15 UNL     1       8.576   1.575  99.961  1.00  0.00    -0.051 C
HETATM   12  C16 UNL     1       9.379   1.577  98.728  1.00  0.00     0.014 C
HETATM   13  C17 UNL     1       8.569   1.955  97.711  1.00  0.00    -0.040 C
HETATM   14  C18 UNL     1       7.219   2.218  98.256  1.00  0.00     0.036 C
HETATM   15  C19 UNL     1       6.534   3.244  97.439  1.00  0.00     0.005 C
HETATM   16  C20 UNL     1       5.216   2.683  96.835  1.00  0.00     0.012 C
HETATM   17  C21 UNL     1       7.278   3.766  96.237  1.00  0.00     0.065 C
HETATM   18 BR1  UNL     1       8.477   5.205  96.572  1.00  0.00    -0.091 Br
HETATM   19  C22 UNL     1       7.903   2.648  95.448  1.00  0.00     0.058 C
HETATM   20  C23 UNL     1       8.968   2.050  96.277  1.00  0.00     0.079 C
HETATM   21  C24 UNL     1      10.278   2.808  96.160  1.00  0.00     0.051 C
HETATM   22  C25 UNL     1       7.455   2.539  99.688  1.00  0.00    -0.001 C
HETATM   23  C26 UNL     1       8.066   3.873  99.928  1.00  0.00     0.022 C
HETATM   24  C27 UNL     1       4.841  -0.403 103.685  1.00  0.00     0.021 C
HETATM   25  C28 UNL     1       4.587   0.816 104.534  1.00  0.00     0.038 C
HETATM   26  C29 UNL     1       5.035   0.625 105.946  1.00  0.00     0.119 C
HETATM   27  C30 UNL     1       5.090  -0.831 106.341  1.00  0.00     0.037 C
HETATM   28  C31 UNL     1       6.161  -1.495 105.554  1.00  0.00     0.006 C
HETATM   29  C32 UNL     1       7.543  -1.263 106.147  1.00  0.00     0.011 C
ENDROOT
BRANCH   1  30
HETATM   30  C2  UNL     1       6.188  -2.372 103.245  1.00  0.00     0.271 C
HETATM   31  O2  UNL     1       5.181  -3.078 103.038  1.00  0.00    -0.264 OA
BRANCH  30  32
HETATM   32  O1  UNL     1       7.422  -2.666 102.693  1.00  0.00    -0.326 OA
HETATM   33  C1  UNL     1       7.518  -3.020 101.328  1.00  0.00     0.213 C
ENDBRANCH  30  32
ENDBRANCH   1  30
BRANCH   5  34
HETATM   34  O3  UNL     1       3.219   0.615 101.300  1.00  0.00    -0.316 OA
BRANCH  34  35
HETATM   35  C8  UNL     1       2.237   1.405 100.759  1.00  0.00     0.255 C
HETATM   36  C9  UNL     1       1.990   2.743 101.345  1.00  0.00     0.126 C
HETATM   37  O4  UNL     1       1.610   0.931  99.794  1.00  0.00    -0.266 OA
ENDBRANCH  34  35
ENDBRANCH   5  34
BRANCH  26  38
HETATM   38  O6  UNL     1       4.242   1.288 106.869  1.00  0.00    -0.396 OA
ATOM     39  H6  UNL     1       3.343   1.398 106.581  1.00  0.00     0.210 HD
ENDBRANCH  26  38
BRANCH  20  40
HETATM   40  O5  UNL     1       9.200   0.756  95.751  1.00  0.00    -0.386 OA
ATOM     41  H5  UNL     1       8.621   0.595  95.015  1.00  0.00     0.211 HD
ENDBRANCH  20  40
TORSDOF 6
ENDMDL