MODEL 3
REMARK VINA RESULT: -6.131657708      1.951      4.479
REMARK  4 active torsions:
REMARK  status: ('A' for Active; 'I' for Inactive)
REMARK    1  A    between atoms: C12_12  and  O1_13
REMARK    2  A    between atoms: C17_19  and  O2_20
REMARK    3  A    between atoms: C30_37  and  O5_38
REMARK    4  A    between atoms: O5_38  and  C31_39
ROOT
HETATM    1  C1  UNL     1       4.757   2.765 104.183  1.00  0.00     0.026 C
HETATM    2  C2  UNL     1       4.376   2.342 102.977  1.00  0.00    -0.007 C
HETATM    3  C3  UNL     1       2.968   1.900 102.800  1.00  0.00    -0.033 C
HETATM    4  C4  UNL     1       2.760   1.115 101.531  1.00  0.00    -0.040 C
HETATM    5  C5  UNL     1       1.975   1.715 100.468  1.00  0.00     0.013 C
HETATM    6  C6  UNL     1       2.306   2.900  99.722  1.00  0.00     0.015 C
HETATM    7  C7  UNL     1       0.602   1.971 101.145  1.00  0.00     0.015 C
HETATM    8  C8  UNL     1       0.786   3.072 102.180  1.00  0.00     0.008 C
HETATM    9  C9  UNL     1       1.914   2.916 103.125  1.00  0.00    -0.009 C
HETATM   10  C10 UNL     1       2.607   4.301 103.191  1.00  0.00     0.021 C
HETATM   11  C11 UNL     1       1.508   2.651 104.570  1.00  0.00     0.046 C
HETATM   12  C12 UNL     1       0.043   2.544 104.829  1.00  0.00     0.124 C
HETATM   13  C13 UNL     1      -0.584   3.719 104.132  1.00  0.00     0.033 C
HETATM   14  C14 UNL     1      -1.834   4.148 104.780  1.00  0.00    -0.015 C
HETATM   15  C15 UNL     1      -2.708   3.012 105.304  1.00  0.00     0.018 C
HETATM   16  C16 UNL     1      -1.441   4.941 106.039  1.00  0.00     0.018 C
HETATM   17  C17 UNL     1      -2.708   5.018 103.916  1.00  0.00     0.130 C
HETATM   18  C18 UNL     1      -1.850   5.584 102.828  1.00  0.00     0.012 C
HETATM   19  C19 UNL     1      -2.773   6.433 101.941  1.00  0.00     0.012 C
HETATM   20  C20 UNL     1      -1.177   4.609 101.952  1.00  0.00     0.017 C
HETATM   21  C21 UNL     1      -0.571   3.402 102.690  1.00  0.00    -0.032 C
HETATM   22  C22 UNL     1      -1.561   2.268 102.377  1.00  0.00     0.016 C
HETATM   23  C23 UNL     1       4.002   0.412 101.256  1.00  0.00     0.124 C
HETATM   24 BR1  UNL     1       4.382  -0.568 102.934  1.00  0.00    -0.070 Br
HETATM   25  C24 UNL     1       4.061  -0.636 100.254  1.00  0.00     0.163 C
HETATM   26  O3  UNL     1       3.306  -1.122  99.475  1.00  0.00    -0.295 OA
HETATM   27  C25 UNL     1       5.508  -1.100 100.386  1.00  0.00     0.124 C
HETATM   28  C26 UNL     1       5.610  -2.409 101.087  1.00  0.00     0.026 C
HETATM   29  C27 UNL     1       6.184   0.022 101.083  1.00  0.00     0.155 C
HETATM   30  O4  UNL     1       7.234  -0.037 101.609  1.00  0.00    -0.296 OA
HETATM   31  C28 UNL     1       5.259   1.161 100.954  1.00  0.00     0.096 C
HETATM   32  C29 UNL     1       5.397   1.550  99.471  1.00  0.00     0.033 C
HETATM   33  C30 UNL     1       5.390   2.300 101.851  1.00  0.00     0.085 C
ENDROOT
BRANCH  33  34
HETATM   34  O5  UNL     1       6.652   2.685 102.251  1.00  0.00    -0.281 OA
BRANCH  34  35
HETATM   35  C31 UNL     1       7.613   3.352 101.555  1.00  0.00     0.259 C
HETATM   36  C32 UNL     1       9.031   3.048 101.794  1.00  0.00     0.126 C
HETATM   37  O6  UNL     1       7.161   4.182 100.758  1.00  0.00    -0.265 OA
ENDBRANCH  34  35
ENDBRANCH  33  34
BRANCH  12  38
HETATM   38  O1  UNL     1      -0.127   2.622 106.224  1.00  0.00    -0.395 OA
ATOM     39  H1  UNL     1      -0.219   3.544 106.437  1.00  0.00     0.210 HD
ENDBRANCH  12  38
BRANCH  17  40
HETATM   40  O2  UNL     1      -3.241   6.125 104.613  1.00  0.00    -0.394 OA
ATOM     41  H2  UNL     1      -2.887   6.214 105.490  1.00  0.00     0.210 HD
ENDBRANCH  17  40
TORSDOF 4
ENDMDL