MODEL 5
REMARK VINA RESULT: -7.781411391      3.079      7.482
REMARK  4 active torsions:
REMARK  status: ('A' for Active; 'I' for Inactive)
REMARK    1  A    between atoms: C2_2  and  O1_3
REMARK    2  A    between atoms: O1_3  and  C3_4
REMARK    3  A    between atoms: C5_7  and  C6_8
REMARK    4  A    between atoms: C9_12  and  O3_13
ROOT
HETATM    1  C3  UNL     1     -14.767  22.957  21.784  1.00  0.00     0.228 C
HETATM    2  F1  UNL     1     -15.315  22.113  20.878  1.00  0.00    -0.178 F
HETATM    3  C4  UNL     1     -15.154  24.167  21.892  1.00  0.00    -0.003 C
HETATM    4  C5  UNL     1     -14.568  25.119  22.876  1.00  0.00     0.058 C
HETATM    5  C10 UNL     1     -13.840  26.113  21.966  1.00  0.00     0.015 C
HETATM    6  C11 UNL     1     -13.974  25.750  20.495  1.00  0.00     0.011 C
HETATM    7  C12 UNL     1     -15.412  25.657  20.016  1.00  0.00    -0.032 C
HETATM    8  C13 UNL     1     -15.939  27.082  20.053  1.00  0.00     0.016 C
HETATM    9  C14 UNL     1     -16.178  24.853  21.021  1.00  0.00     0.029 C
HETATM   10  C15 UNL     1     -17.328  24.073  20.576  1.00  0.00     0.011 C
HETATM   11  C16 UNL     1     -17.456  23.722  19.155  1.00  0.00     0.021 C
HETATM   12  C17 UNL     1     -16.565  24.349  18.177  1.00  0.00     0.055 C
HETATM   13  C18 UNL     1     -16.164  23.229  17.190  1.00  0.00     0.058 C
HETATM   14  C19 UNL     1     -15.521  24.128  16.129  1.00  0.00     0.068 C
HETATM   15  C20 UNL     1     -15.519  23.509  14.771  1.00  0.00     0.047 C
HETATM   16  C21 UNL     1     -14.145  24.407  16.665  1.00  0.00     0.039 C
HETATM   17  C22 UNL     1     -14.127  24.439  18.201  1.00  0.00     0.009 C
HETATM   18  C23 UNL     1     -15.412  25.141  18.624  1.00  0.00     0.013 C
HETATM   19  O4  UNL     1     -16.364  25.276  16.128  1.00  0.00    -0.310 OA
HETATM   20  C24 UNL     1     -17.329  25.151  17.130  1.00  0.00     0.269 C
HETATM   21  O5  UNL     1     -18.497  25.561  17.196  1.00  0.00    -0.264 OA
ENDROOT
BRANCH   4  22
HETATM   22  C6  UNL     1     -13.796  24.614  23.975  1.00  0.00     0.010 A
HETATM   23  C7  UNL     1     -12.435  24.595  24.193  1.00  0.00     0.037 A
HETATM   24  C8  UNL     1     -12.181  24.008  25.414  1.00  0.00     0.145 A
HETATM   25  O2  UNL     1     -13.358  23.679  25.925  1.00  0.00    -0.300 OA
HETATM   26  C9  UNL     1     -14.330  24.013  25.119  1.00  0.00     0.189 A
BRANCH  26  27
HETATM   27  O3  UNL     1     -15.674  23.786  25.401  1.00  0.00    -0.340 OA
ATOM     28  H3  UNL     1     -16.410  23.896  24.810  1.00  0.00     0.220 HD
ENDBRANCH  26  27
ENDBRANCH   4  22
BRANCH   1  29
HETATM   29  O1  UNL     1     -13.761  22.434  22.579  1.00  0.00    -0.327 OA
BRANCH  29  30
HETATM   30  C2  UNL     1     -13.563  21.032  22.720  1.00  0.00     0.173 C
HETATM   31  C1  UNL     1     -14.511  20.602  23.838  1.00  0.00     0.034 C
ENDBRANCH  29  30
ENDBRANCH   1  29
TORSDOF 4
ENDMDL