MODEL 1
REMARK VINA RESULT: -8.068163209      0.000      0.000
REMARK  3 active torsions:
REMARK  status: ('A' for Active; 'I' for Inactive)
REMARK    1  A    between atoms: C2_2  and  O2_4
REMARK    2  A    between atoms: O2_4  and  C3_5
REMARK    3  A    between atoms: C15_20  and  O5_21
ROOT
HETATM    1  C3  UNL     1     -14.670  25.715  21.922  1.00  0.00     0.161 C
HETATM    2  C4  UNL     1     -13.546  25.024  21.181  1.00  0.00     0.058 C
HETATM    3  C5  UNL     1     -12.691  25.955  20.408  1.00  0.00     0.096 C
HETATM    4 CL1  UNL     1     -10.952  25.614  20.732  1.00  0.00    -0.124 Cl
HETATM    5  C6  UNL     1     -12.850  25.904  18.909  1.00  0.00     0.003 C
HETATM    6  C7  UNL     1     -12.003  24.708  18.452  1.00  0.00     0.019 C
HETATM    7  C8  UNL     1     -14.268  25.768  18.458  1.00  0.00     0.013 C
HETATM    8  C9  UNL     1     -14.362  25.786  16.970  1.00  0.00     0.002 C
HETATM    9  C10 UNL     1     -13.859  27.110  16.473  1.00  0.00     0.011 C
HETATM   10  C11 UNL     1     -12.476  27.414  16.935  1.00  0.00    -0.018 C
HETATM   11  C12 UNL     1     -12.171  28.863  16.593  1.00  0.00     0.018 C
HETATM   12  C13 UNL     1     -11.520  26.582  16.071  1.00  0.00     0.018 C
HETATM   13  C14 UNL     1     -12.236  27.214  18.388  1.00  0.00     0.178 C
HETATM   14  O3  UNL     1     -12.574  28.295  19.183  1.00  0.00    -0.226 OA
HETATM   15  O4  UNL     1     -13.709  28.846  18.820  1.00  0.00    -0.171 OA
HETATM   16  C15 UNL     1     -14.253  30.040  19.174  1.00  0.00     0.214 C
HETATM   17  C16 UNL     1     -14.368  30.529  20.401  1.00  0.00    -0.023 C
HETATM   18  C17 UNL     1     -14.997  31.877  20.640  1.00  0.00     0.048 C
HETATM   19  C18 UNL     1     -13.906  29.814  21.620  1.00  0.00     0.042 C
HETATM   20  C19 UNL     1     -14.978  28.831  22.110  1.00  0.00     0.032 C
HETATM   21  C20 UNL     1     -14.280  27.915  23.050  1.00  0.00    -0.021 C
HETATM   22  C21 UNL     1     -14.153  26.625  22.970  1.00  0.00    -0.058 C
HETATM   23  C22 UNL     1     -13.381  25.951  24.083  1.00  0.00     0.046 C
ENDROOT
BRANCH   1  24
HETATM   24  O2  UNL     1     -15.612  24.793  22.430  1.00  0.00    -0.312 OA
BRANCH  24  25
HETATM   25  C2  UNL     1     -16.817  24.520  21.839  1.00  0.00     0.255 C
HETATM   26  C1  UNL     1     -18.055  24.136  22.565  1.00  0.00     0.126 C
HETATM   27  O1  UNL     1     -16.891  24.595  20.587  1.00  0.00    -0.266 OA
ENDBRANCH  24  25
ENDBRANCH   1  24
BRANCH  16  28
HETATM   28  O5  UNL     1     -14.762  30.885  18.159  1.00  0.00    -0.339 OA
ATOM     29  H5  UNL     1     -14.810  31.819  18.323  1.00  0.00     0.220 HD
ENDBRANCH  16  28
TORSDOF 3
ENDMDL