MODEL 4
REMARK VINA RESULT: -7.396792131      1.845      3.263
REMARK  4 active torsions:
REMARK  status: ('A' for Active; 'I' for Inactive)
REMARK    1  A    between atoms: O1_2  and  C2_3
REMARK    2  A    between atoms: C2_3  and  O3_5
REMARK    3  A    between atoms: O3_5  and  C3_6
REMARK    4  A    between atoms: C15_18  and  N1_19
ROOT
HETATM    1  C3  UNL     1     -15.470  23.686  22.764  1.00  0.00     0.134 C
HETATM    2  C4  UNL     1     -14.866  22.897  21.596  1.00  0.00     0.033 C
HETATM    3  C5  UNL     1     -14.577  23.917  20.533  1.00  0.00     0.012 C
HETATM    4  C6  UNL     1     -13.539  24.923  20.967  1.00  0.00    -0.036 C
HETATM    5  C7  UNL     1     -12.235  24.122  21.122  1.00  0.00     0.016 C
HETATM    6  C8  UNL     1     -13.824  25.540  22.301  1.00  0.00    -0.004 C
HETATM    7  C9  UNL     1     -14.643  26.784  22.267  1.00  0.00     0.006 C
HETATM    8  C10 UNL     1     -14.511  27.618  21.045  1.00  0.00     0.006 C
HETATM    9  C11 UNL     1     -13.153  27.281  20.413  1.00  0.00    -0.004 C
HETATM   10  C12 UNL     1     -12.862  28.323  19.394  1.00  0.00     0.007 C
HETATM   11  C13 UNL     1     -14.081  28.783  18.617  1.00  0.00     0.035 C
HETATM   12  C14 UNL     1     -13.441  29.408  17.435  1.00  0.00     0.002 C
HETATM   13  C15 UNL     1     -12.215  28.912  17.234  1.00  0.00     0.038 C
HETATM   14  C19 UNL     1     -11.954  27.912  18.279  1.00  0.00     0.005 C
HETATM   15  C20 UNL     1     -10.513  27.880  18.753  1.00  0.00     0.022 C
HETATM   16  C21 UNL     1     -12.267  26.504  17.777  1.00  0.00     0.016 C
HETATM   17  C22 UNL     1     -12.166  25.560  18.954  1.00  0.00     0.007 C
HETATM   18  C23 UNL     1     -13.325  25.891  19.867  1.00  0.00    -0.002 C
HETATM   19  C24 UNL     1     -14.421  24.595  23.285  1.00  0.00     0.038 C
ENDROOT
BRANCH  13  20
HETATM   20  N1  UNL     1     -11.354  29.336  16.150  1.00  0.00    -0.269 N
HETATM   21  C16 UNL     1     -10.829  30.549  15.952  1.00  0.00     0.160 A
HETATM   22  C17 UNL     1     -10.061  30.537  14.781  1.00  0.00     0.150 A
HETATM   23  F1  UNL     1      -9.366  31.583  14.243  1.00  0.00    -0.203 F
HETATM   24  C18 UNL     1     -10.158  29.256  14.299  1.00  0.00     0.151 A
HETATM   25  N2  UNL     1     -10.937  28.578  15.145  1.00  0.00    -0.303 N
ATOM     26  H2  UNL     1     -11.182  27.594  15.032  1.00  0.00     0.186 HD
ENDBRANCH  13  20
BRANCH   1  27
HETATM   27  O3  UNL     1     -16.622  24.301  22.289  1.00  0.00    -0.293 OA
BRANCH  27  28
HETATM   28  C2  UNL     1     -17.854  23.702  22.128  1.00  0.00     0.406 C
HETATM   29  O2  UNL     1     -18.322  23.043  23.091  1.00  0.00    -0.230 OA
BRANCH  28  30
HETATM   30  O1  UNL     1     -18.587  23.801  20.942  1.00  0.00    -0.303 OA
HETATM   31  C1  UNL     1     -18.074  23.418  19.687  1.00  0.00     0.215 C
ENDBRANCH  28  30
ENDBRANCH  27  28
ENDBRANCH   1  27
TORSDOF 4
ENDMDL