MODEL 1
REMARK VINA RESULT: -7.356052481      0.000      0.000
REMARK  3 active torsions:
REMARK  status: ('A' for Active; 'I' for Inactive)
REMARK    1  A    between atoms: C2_2  and  C3_3
REMARK    2  A    between atoms: C3_3  and  N1_4
REMARK    3  A    between atoms: C12_18  and  C13_19
ROOT
HETATM    1  N1  UNL     1     -16.390  24.993  22.492  1.00  0.00    -0.365 N
ATOM      2  H1  UNL     1     -17.132  25.638  22.761  1.00  0.00     0.162 HD
HETATM    3  C4  UNL     1     -15.549  25.284  21.577  1.00  0.00     0.178 C
HETATM    4  O1  UNL     1     -15.557  26.506  20.854  1.00  0.00    -0.323 OA
HETATM    5  C5  UNL     1     -14.534  26.533  19.912  1.00  0.00     0.158 A
HETATM    6  C6  UNL     1     -14.410  26.899  18.572  1.00  0.00     0.100 A
HETATM    7  C7  UNL     1     -13.261  26.561  17.697  1.00  0.00     0.083 C
HETATM    8  N2  UNL     1     -12.070  26.945  17.962  1.00  0.00    -0.378 N
ATOM      9  H2  UNL     1     -11.795  27.501  18.772  1.00  0.00     0.160 HD
HETATM   10  C8  UNL     1     -11.186  26.470  16.944  1.00  0.00     0.141 C
HETATM   11  C9  UNL     1     -12.056  25.825  15.884  1.00  0.00     0.144 C
HETATM   12  N3  UNL     1     -13.358  25.800  16.508  1.00  0.00    -0.360 N
HETATM   13  C10 UNL     1     -14.456  25.089  15.900  1.00  0.00     0.120 C
HETATM   14  C11 UNL     1     -15.725  25.134  16.686  1.00  0.00     0.003 C
HETATM   15  C12 UNL     1     -15.946  25.312  17.997  1.00  0.00    -0.069 C
HETATM   16  C15 UNL     1     -14.912  25.517  18.961  1.00  0.00     0.036 A
HETATM   17  C16 UNL     1     -14.085  24.336  19.217  1.00  0.00     0.077 C
HETATM   18  C17 UNL     1     -14.490  23.052  18.589  1.00  0.00     0.067 C
HETATM   19  C18 UNL     1     -13.459  22.623  17.620  1.00  0.00     0.010 C
HETATM   20 CL1  UNL     1     -12.197  21.573  18.347  1.00  0.00    -0.089 Cl
HETATM   21  C19 UNL     1     -13.325  22.889  16.360  1.00  0.00     0.004 C
HETATM   22  C20 UNL     1     -14.127  23.695  15.440  1.00  0.00    -0.005 C
HETATM   23  C21 UNL     1     -13.411  23.768  14.067  1.00  0.00     0.021 C
HETATM   24  C22 UNL     1     -15.416  22.964  15.148  1.00  0.00     0.021 C
HETATM   25  S1  UNL     1     -14.214  24.169  21.062  1.00  0.00    -0.081 SA
ENDROOT
BRANCH   1  26
HETATM   26  C3  UNL     1     -16.239  23.700  23.129  1.00  0.00     0.122 C
BRANCH  26  27
HETATM   27  C2  UNL     1     -17.561  22.925  23.061  1.00  0.00     0.015 C
HETATM   28  C1  UNL     1     -18.383  23.411  21.889  1.00  0.00     0.006 C
ENDBRANCH  26  27
ENDBRANCH   1  26
BRANCH  15  29
HETATM   29  C13 UNL     1     -17.377  25.286  18.367  1.00  0.00     0.030 C
HETATM   30  C14 UNL     1     -18.311  24.911  17.248  1.00  0.00     0.010 C
ENDBRANCH  15  29
TORSDOF 3
ENDMDL