MODEL 5
REMARK VINA RESULT: -8.373588829      3.395      5.428
REMARK  3 active torsions:
REMARK  status: ('A' for Active; 'I' for Inactive)
REMARK    1  A    between atoms: C2_2  and  C3_3
REMARK    2  A    between atoms: N1_4  and  O1_6
REMARK    3  A    between atoms: C17_24  and  C18_25
ROOT
HETATM    1  C1  UNL     1     -13.739  24.545  25.244  1.00  0.00     0.055 C
HETATM    2  C2  UNL     1     -13.898  23.819  23.911  1.00  0.00     0.129 C
HETATM    3  O2  UNL     1     -13.182  22.607  24.080  1.00  0.00    -0.333 OA
HETATM    4  C4  UNL     1     -11.834  22.744  24.119  1.00  0.00     0.198 C
HETATM    5  C5  UNL     1     -11.229  21.663  23.211  1.00  0.00     0.071 C
HETATM    6  C6  UNL     1     -11.699  20.293  23.587  1.00  0.00     0.006 C
HETATM    7  C7  UNL     1     -11.690  20.093  25.097  1.00  0.00     0.000 C
HETATM    8  C8  UNL     1     -10.700  21.111  25.649  1.00  0.00     0.006 C
HETATM    9  C9  UNL     1     -11.224  22.531  25.482  1.00  0.00     0.071 C
HETATM   10  O3  UNL     1     -11.449  23.957  23.554  1.00  0.00    -0.200 OA
HETATM   11  O4  UNL     1     -12.148  24.057  22.444  1.00  0.00    -0.222 OA
HETATM   12  C10 UNL     1     -13.434  24.603  22.754  1.00  0.00     0.140 C
HETATM   13  C11 UNL     1     -13.158  26.052  23.010  1.00  0.00     0.028 C
HETATM   14  C12 UNL     1     -12.117  26.483  21.969  1.00  0.00     0.012 C
HETATM   15  C13 UNL     1     -12.678  26.239  20.602  1.00  0.00    -0.013 C
HETATM   16  C14 UNL     1     -13.840  27.204  20.450  1.00  0.00     0.010 C
HETATM   17  C15 UNL     1     -14.916  26.804  21.381  1.00  0.00    -0.005 C
HETATM   18  C16 UNL     1     -14.339  26.970  22.810  1.00  0.00     0.013 C
HETATM   19  C17 UNL     1     -15.372  25.389  21.345  1.00  0.00     0.030 C
HETATM   20  C24 UNL     1     -14.203  24.451  21.462  1.00  0.00     0.036 C
HETATM   21  C25 UNL     1     -13.228  24.865  20.370  1.00  0.00     0.013 C
ENDROOT
BRANCH   2  22
HETATM   22  C3  UNL     1     -15.312  23.360  23.866  1.00  0.00     0.127 C
HETATM   23  N1  UNL     1     -16.306  24.093  24.174  1.00  0.00    -0.281 N
ATOM     24  H1  UNL     1     -16.150  25.056  24.472  1.00  0.00     0.193 HD
BRANCH  23  25
HETATM   25  O1  UNL     1     -17.582  23.603  24.108  1.00  0.00    -0.290 OA
ATOM     26  H1  UNL     1     -18.212  23.798  24.793  1.00  0.00     0.244 HD
ENDBRANCH  23  25
ENDBRANCH   2  22
BRANCH  19  27
HETATM   27  C18 UNL     1     -16.182  25.003  20.175  1.00  0.00    -0.053 A
HETATM   28  C19 UNL     1     -16.029  25.557  18.923  1.00  0.00     0.010 A
HETATM   29  C20 UNL     1     -16.809  25.149  17.862  1.00  0.00     0.043 A
HETATM   30  C21 UNL     1     -17.763  24.174  18.036  1.00  0.00     0.116 A
HETATM   31  F1  UNL     1     -18.541  23.764  16.986  1.00  0.00    -0.206 F
HETATM   32  C22 UNL     1     -17.951  23.594  19.266  1.00  0.00     0.043 A
HETATM   33  C23 UNL     1     -17.143  24.032  20.316  1.00  0.00     0.010 A
ENDBRANCH  19  27
TORSDOF 3
ENDMDL