MODEL 1
REMARK VINA RESULT: -8.298711761      0.000      0.000
REMARK  4 active torsions:
REMARK  status: ('A' for Active; 'I' for Inactive)
REMARK    1  A    between atoms: C2_2  and  O1_4
REMARK    2  A    between atoms: O1_4  and  C4_5
REMARK    3  A    between atoms: C18_21  and  C19_22
REMARK    4  A    between atoms: C21_25  and  O5_26
ROOT
HETATM    1  C4  UNL     1     -15.192  24.436  21.442  1.00  0.00     0.161 C
HETATM    2  C5  UNL     1     -16.204  25.000  20.608  1.00  0.00     0.006 C
HETATM    3  C6  UNL     1     -16.041  25.764  19.388  1.00  0.00    -0.003 C
HETATM    4  C7  UNL     1     -14.721  26.083  18.811  1.00  0.00     0.007 C
HETATM    5  C8  UNL     1     -13.765  26.947  19.438  1.00  0.00     0.179 C
HETATM    6  O2  UNL     1     -12.462  26.350  19.185  1.00  0.00    -0.310 OA
HETATM    7  C9  UNL     1     -12.125  25.158  19.811  1.00  0.00     0.264 C
HETATM    8  O3  UNL     1     -10.943  24.797  19.482  1.00  0.00    -0.265 OA
HETATM    9  C10 UNL     1     -12.847  24.289  20.730  1.00  0.00     0.093 C
HETATM   10  C11 UNL     1     -11.856  23.315  21.328  1.00  0.00     0.021 C
HETATM   11  C12 UNL     1     -13.810  24.934  21.653  1.00  0.00     0.007 C
HETATM   12  C13 UNL     1     -13.458  24.284  23.024  1.00  0.00     0.020 C
HETATM   13  C14 UNL     1     -13.606  26.384  21.934  1.00  0.00    -0.008 C
HETATM   14  C15 UNL     1     -12.277  26.492  22.721  1.00  0.00     0.018 C
HETATM   15  C16 UNL     1     -14.550  26.926  22.976  1.00  0.00     0.013 C
HETATM   16  C17 UNL     1     -14.504  28.447  22.750  1.00  0.00     0.012 C
HETATM   17  C18 UNL     1     -14.718  28.424  21.242  1.00  0.00     0.048 C
HETATM   18  C23 UNL     1     -13.731  27.371  20.842  1.00  0.00     0.083 C
HETATM   19 CL1  UNL     1     -12.138  28.274  20.858  1.00  0.00    -0.115 Cl
ENDROOT
BRANCH  17  20
HETATM   20  C19 UNL     1     -14.692  29.695  20.599  1.00  0.00    -0.025 A
HETATM   21  C20 UNL     1     -14.711  30.128  19.293  1.00  0.00     0.152 A
HETATM   22  O4  UNL     1     -14.683  31.433  19.208  1.00  0.00    -0.300 OA
HETATM   23  C21 UNL     1     -14.644  31.937  20.405  1.00  0.00     0.183 A
HETATM   24  C22 UNL     1     -14.648  30.911  21.311  1.00  0.00     0.073 A
BRANCH  23  25
HETATM   25  O5  UNL     1     -14.607  33.293  20.703  1.00  0.00    -0.341 OA
ATOM     26  H5  UNL     1     -14.227  33.672  21.486  1.00  0.00     0.220 HD
ENDBRANCH  23  25
ENDBRANCH  17  20
BRANCH   1  27
HETATM   27  O1  UNL     1     -15.876  24.150  22.699  1.00  0.00    -0.347 OA
BRANCH  27  28
HETATM   28  C2  UNL     1     -16.780  23.078  22.723  1.00  0.00     0.034 C
HETATM   29  C1  UNL     1     -16.359  21.843  22.590  1.00  0.00     0.045 C
HETATM   30  C3  UNL     1     -18.236  23.315  22.899  1.00  0.00     0.075 C
ENDBRANCH  27  28
ENDBRANCH   1  27
TORSDOF 4
ENDMDL