MODEL 3
REMARK VINA RESULT: -8.441464843      3.157      5.164
REMARK  3 active torsions:
REMARK  status: ('A' for Active; 'I' for Inactive)
REMARK    1  A    between atoms: C12_12  and  C13_13
REMARK    2  A    between atoms: C15_15  and  N1_16
REMARK    3  A    between atoms: C17_23  and  O3_24
ROOT
HETATM    1  C1  UNL     1     -16.119  23.413  23.812  1.00  0.00     0.015 C
HETATM    2  C2  UNL     1     -15.013  23.007  22.885  1.00  0.00    -0.040 C
HETATM    3  C3  UNL     1     -14.941  21.505  22.839  1.00  0.00     0.009 C
HETATM    4  C4  UNL     1     -16.065  21.133  21.879  1.00  0.00     0.001 C
HETATM    5  C5  UNL     1     -16.432  22.364  21.116  1.00  0.00     0.006 C
HETATM    6  C6  UNL     1     -15.316  23.301  21.427  1.00  0.00    -0.002 C
HETATM    7  C7  UNL     1     -15.707  24.749  21.337  1.00  0.00    -0.005 C
HETATM    8  C8  UNL     1     -16.208  25.156  20.001  1.00  0.00     0.006 C
HETATM    9  C9  UNL     1     -15.613  26.518  19.545  1.00  0.00     0.013 C
HETATM   10  C10 UNL     1     -14.180  26.307  19.327  1.00  0.00    -0.009 C
HETATM   11  C11 UNL     1     -14.029  25.256  18.298  1.00  0.00     0.018 C
HETATM   12  C12 UNL     1     -13.281  27.451  18.926  1.00  0.00     0.167 C
HETATM   13  O4  UNL     1     -11.997  27.254  19.261  1.00  0.00    -0.380 OA
HETATM   14  C18 UNL     1     -11.509  26.022  19.510  1.00  0.00     0.169 C
HETATM   15  C19 UNL     1     -12.365  25.189  20.463  1.00  0.00     0.032 C
HETATM   16  C20 UNL     1     -13.599  25.966  20.690  1.00  0.00     0.003 C
HETATM   17  C21 UNL     1     -14.551  25.607  21.749  1.00  0.00    -0.005 C
HETATM   18  C22 UNL     1     -13.857  25.162  23.013  1.00  0.00     0.006 C
HETATM   19  C23 UNL     1     -13.694  23.682  23.167  1.00  0.00     0.010 C
ENDROOT
BRANCH  12  20
HETATM   20  C13 UNL     1     -13.715  28.782  19.484  1.00  0.00     0.025 A
HETATM   21  C14 UNL     1     -13.916  29.049  20.796  1.00  0.00     0.055 A
HETATM   22  C15 UNL     1     -14.342  30.311  21.199  1.00  0.00     0.159 A
HETATM   23  C16 UNL     1     -14.561  31.289  20.282  1.00  0.00     0.223 A
HETATM   24  F1  UNL     1     -14.950  32.552  20.662  1.00  0.00    -0.183 F
HETATM   25  N2  UNL     1     -14.378  31.056  18.968  1.00  0.00    -0.311 N
HETATM   26  C17 UNL     1     -13.968  29.836  18.603  1.00  0.00     0.151 A
ATOM     27  H2  UNL     1     -14.547  31.786  18.276  1.00  0.00     0.170 HD
BRANCH  22  28
HETATM   28  N1  UNL     1     -14.563  30.545  22.587  1.00  0.00    -0.111 N
HETATM   29  O1  UNL     1     -13.811  30.073  23.436  1.00  0.00    -0.532 OA
HETATM   30  O2  UNL     1     -15.654  31.296  23.005  1.00  0.00    -0.532 OA
ENDBRANCH  22  28
BRANCH  26  31
HETATM   31  O3  UNL     1     -13.796  29.643  17.215  1.00  0.00    -0.346 OA
ATOM     32  H3  UNL     1     -13.751  30.396  16.637  1.00  0.00     0.219 HD
ENDBRANCH  26  31
ENDBRANCH  12  20
TORSDOF 3
ENDMDL