MODEL 1
REMARK VINA RESULT: -8.187745419      0.000      0.000
REMARK  3 active torsions:
REMARK  status: ('A' for Active; 'I' for Inactive)
REMARK    1  A    between atoms: S1_2  and  C2_3
REMARK    2  A    between atoms: C3_8  and  N3_9
REMARK    3  A    between atoms: N3_9  and  N4_10
ROOT
HETATM    1  N4  UNL     1     -13.234  28.786  18.170  1.00  0.00    -0.195 N
HETATM    2  C4  UNL     1     -13.814  29.734  19.144  1.00  0.00     0.067 C
HETATM    3  C5  UNL     1     -14.191  30.921  18.747  1.00  0.00    -0.060 C
HETATM    4  C6  UNL     1     -14.770  31.886  19.714  1.00  0.00     0.045 C
HETATM    5  C7  UNL     1     -14.152  31.423  17.328  1.00  0.00     0.045 C
HETATM    6  C8  UNL     1     -13.974  29.134  20.485  1.00  0.00     0.139 C
HETATM    7 CL1  UNL     1     -14.274  30.149  21.845  1.00  0.00    -0.118 Cl
HETATM    8  C9  UNL     1     -15.003  27.978  20.340  1.00  0.00     0.066 C
HETATM    9  C10 UNL     1     -14.428  27.017  19.337  1.00  0.00    -0.019 C
HETATM   10  C11 UNL     1     -13.649  27.399  18.393  1.00  0.00     0.059 C
HETATM   11  C12 UNL     1     -13.100  26.400  17.436  1.00  0.00     0.069 C
HETATM   12  C13 UNL     1     -11.670  26.124  17.844  1.00  0.00     0.020 C
HETATM   13  C14 UNL     1     -13.849  25.117  17.398  1.00  0.00     0.064 C
HETATM   14  C15 UNL     1     -14.480  25.026  15.993  1.00  0.00     0.046 C
HETATM   15  C16 UNL     1     -12.909  23.904  17.452  1.00  0.00     0.046 C
HETATM   16  O1  UNL     1     -14.852  24.939  18.283  1.00  0.00    -0.365 OA
HETATM   17  C17 UNL     1     -14.817  25.553  19.491  1.00  0.00     0.080 C
HETATM   18  C18 UNL     1     -13.992  24.908  20.547  1.00  0.00     0.051 C
HETATM   19  C19 UNL     1     -16.264  25.577  20.012  1.00  0.00     0.051 C
ENDROOT
BRANCH   1  20
HETATM   20  N3  UNL     1     -12.427  29.124  17.239  1.00  0.00    -0.291 NA
BRANCH  20  21
HETATM   21  C3  UNL     1     -11.661  29.426  16.363  1.00  0.00     0.263 A
HETATM   22  N2  UNL     1     -11.109  28.643  15.375  1.00  0.00    -0.265 N
HETATM   23  N1  UNL     1     -10.328  29.160  14.558  1.00  0.00    -0.285 N
ATOM     24  H2  UNL     1     -11.339  27.651  15.314  1.00  0.00     0.190 HD
HETATM   25  C2  UNL     1     -10.007  30.436  14.603  1.00  0.00     0.130 A
ATOM     26  H1  UNL     1      -9.922  28.575  13.827  1.00  0.00     0.188 HD
HETATM   27  S2  UNL     1     -10.907  30.951  15.941  1.00  0.00    -0.009 SA
BRANCH  25  28
HETATM   28  S1  UNL     1      -8.901  31.371  13.518  1.00  0.00    -0.108 SA
HETATM   29  C1  UNL     1      -8.844  30.612  11.879  1.00  0.00     0.097 C
ENDBRANCH  25  28
ENDBRANCH  20  21
ENDBRANCH   1  20
TORSDOF 3
ENDMDL