MODEL 3
REMARK VINA RESULT: -8.834332898      5.920      8.382
REMARK  2 active torsions:
REMARK  status: ('A' for Active; 'I' for Inactive)
REMARK    1  A    between atoms: C2_2  and  C4_4
REMARK    2  A    between atoms: C5_5  and  C6_6
ROOT
HETATM    1  C6  UNL     1     -12.073  23.323  24.856  1.00  0.00     0.155 C
HETATM    2  C7  UNL     1     -12.066  23.706  23.414  1.00  0.00     0.042 C
HETATM    3  C8  UNL     1     -13.479  24.249  23.069  1.00  0.00     0.070 C
HETATM    4  C9  UNL     1     -13.498  25.627  23.795  1.00  0.00     0.203 C
HETATM    5  C10 UNL     1     -13.188  25.241  25.240  1.00  0.00     0.234 C
HETATM    6  O1  UNL     1     -13.285  23.824  25.397  1.00  0.00    -0.376 OA
HETATM    7  N1  UNL     1     -12.442  26.340  23.166  1.00  0.00    -0.299 N
ATOM      8  H1  UNL     1     -11.497  25.959  23.231  1.00  0.00     0.183 HD
HETATM    9  N2  UNL     1     -12.601  27.370  22.561  1.00  0.00    -0.301 N
ATOM     10  H2  UNL     1     -11.795  27.826  22.133  1.00  0.00     0.183 HD
HETATM   11  C11 UNL     1     -13.891  27.966  22.430  1.00  0.00     0.182 C
HETATM   12  C12 UNL     1     -13.666  29.462  22.434  1.00  0.00     0.073 C
HETATM   13  C13 UNL     1     -14.407  30.218  21.391  1.00  0.00     0.083 C
HETATM   14  C14 UNL     1     -14.394  29.550  20.077  1.00  0.00     0.127 C
HETATM   15  O2  UNL     1     -14.341  30.213  19.041  1.00  0.00    -0.298 OA
HETATM   16  C15 UNL     1     -14.447  28.090  19.959  1.00  0.00     0.083 C
HETATM   17  C16 UNL     1     -14.721  27.478  21.301  1.00  0.00     0.073 C
HETATM   18  O3  UNL     1     -14.577  27.581  23.617  1.00  0.00    -0.204 OA
HETATM   19  O4  UNL     1     -14.691  26.276  23.639  1.00  0.00    -0.201 OA
ENDROOT
BRANCH   1  20
HETATM   20  C5  UNL     1     -11.735  21.947  25.183  1.00  0.00    -0.022 A
HETATM   21  C4  UNL     1     -10.732  21.595  26.092  1.00  0.00    -0.039 A
HETATM   22  C20 UNL     1     -10.450  20.220  26.350  1.00  0.00    -0.044 A
HETATM   23  C19 UNL     1     -11.182  19.284  25.691  1.00  0.00    -0.051 A
HETATM   24  C21 UNL     1      -9.425  19.560  27.167  1.00  0.00     0.040 C
HETATM   25  C18 UNL     1     -12.200  19.613  24.768  1.00  0.00     0.008 A
HETATM   26  C23 UNL     1     -10.758  17.905  26.050  1.00  0.00     0.039 C
HETATM   27  C17 UNL     1     -12.438  20.948  24.549  1.00  0.00     0.011 A
HETATM   28  C22 UNL     1      -9.529  18.088  26.847  1.00  0.00     0.009 C
BRANCH  21  29
HETATM   29  C2  UNL     1      -9.869  22.621  26.686  1.00  0.00     0.012 C
HETATM   30  C1  UNL     1      -9.892  22.561  28.197  1.00  0.00     0.015 C
HETATM   31  C3  UNL     1      -8.380  22.282  26.296  1.00  0.00     0.015 C
ENDBRANCH  21  29
ENDBRANCH   1  20
TORSDOF 2
ENDMDL