MODEL 1
REMARK VINA RESULT: -7.162498674      0.000      0.000
REMARK  5 active torsions:
REMARK  status: ('A' for Active; 'I' for Inactive)
REMARK    1  A    between atoms: C2_2  and  C3_3
REMARK    2  A    between atoms: C15_16  and  O1_17
REMARK    3  A    between atoms: O1_17  and  C16_18
REMARK    4  A    between atoms: C20_25  and  O5_26
REMARK    5  A    between atoms: C20_25  and  C21_28
ROOT
HETATM    1  C3  UNL     1     -13.897  29.422  19.209  1.00  0.00    -0.043 C
HETATM    2  C4  UNL     1     -12.776  28.650  18.482  1.00  0.00    -0.061 C
HETATM    3  C5  UNL     1     -12.064  27.692  19.336  1.00  0.00     0.056 C
HETATM    4  C6  UNL     1     -12.808  26.944  20.370  1.00  0.00     0.093 C
HETATM    5 CL1  UNL     1     -11.633  26.654  21.732  1.00  0.00    -0.124 Cl
HETATM    6  C7  UNL     1     -14.063  27.524  20.851  1.00  0.00     0.043 C
HETATM    7  C8  UNL     1     -15.177  26.506  20.728  1.00  0.00     0.013 C
HETATM    8  C9  UNL     1     -15.886  26.450  19.429  1.00  0.00     0.034 C
HETATM    9  C10 UNL     1     -16.148  25.118  18.844  1.00  0.00    -0.087 C
HETATM   10  C11 UNL     1     -17.366  24.416  19.416  1.00  0.00     0.043 C
HETATM   11  C12 UNL     1     -15.454  24.508  17.914  1.00  0.00    -0.024 C
HETATM   12  C13 UNL     1     -14.246  24.957  17.206  1.00  0.00     0.033 C
HETATM   13  C14 UNL     1     -14.336  26.183  16.354  1.00  0.00     0.076 C
HETATM   14  C15 UNL     1     -13.054  27.036  16.431  1.00  0.00     0.215 C
HETATM   15  O3  UNL     1     -12.962  27.497  15.058  1.00  0.00    -0.199 OA
HETATM   16  O4  UNL     1     -11.944  28.320  15.095  1.00  0.00    -0.237 OA
HETATM   17  C18 UNL     1     -12.358  29.206  16.057  1.00  0.00     0.224 C
HETATM   18  C19 UNL     1     -13.105  28.307  17.072  1.00  0.00     0.107 C
HETATM   19  C20 UNL     1     -14.393  28.933  20.482  1.00  0.00     0.086 C
ENDROOT
BRANCH  14  20
HETATM   20  O1  UNL     1     -11.957  26.209  16.496  1.00  0.00    -0.280 OA
BRANCH  20  21
HETATM   21  C16 UNL     1     -11.241  25.664  15.468  1.00  0.00     0.257 C
HETATM   22  C17 UNL     1     -11.835  24.687  14.488  1.00  0.00     0.126 C
HETATM   23  O2  UNL     1     -10.039  25.998  15.343  1.00  0.00    -0.266 OA
ENDBRANCH  20  21
ENDBRANCH  14  20
BRANCH   1  24
HETATM   24  C2  UNL     1     -13.878  30.888  18.922  1.00  0.00     0.033 C
HETATM   25  C1  UNL     1     -14.951  31.503  18.128  1.00  0.00     0.010 C
ENDBRANCH   1  24
BRANCH  19  26
HETATM   26  O5  UNL     1     -15.821  28.940  20.420  1.00  0.00    -0.385 OA
ATOM     27  H5  UNL     1     -16.085  28.261  19.811  1.00  0.00     0.211 HD
ENDBRANCH  19  26
BRANCH  19  28
HETATM   28  C21 UNL     1     -14.225  29.791  21.733  1.00  0.00     0.038 C
HETATM   29  C22 UNL     1     -14.609  29.241  23.037  1.00  0.00     0.008 C
ENDBRANCH  19  28
TORSDOF 5
ENDMDL