MODEL 4
REMARK VINA RESULT: -4.866186637      1.263      4.557
REMARK  2 active torsions:
REMARK  status: ('A' for Active; 'I' for Inactive)
REMARK    1  A    between atoms: C5_6  and  C6_7
REMARK    2  A    between atoms: C6_7  and  N2_8
ROOT
HETATM    1  N1  UNL     1     -45.076  11.242  -6.508  1.00  0.00    -0.197 NA
HETATM    2  C1  UNL     1     -45.913  11.114  -5.713  1.00  0.00     0.064 C
HETATM    3  C2  UNL     1     -46.943  10.935  -4.716  1.00  0.00     0.093 C
HETATM    4  C3  UNL     1     -46.360  10.436  -3.389  1.00  0.00     0.019 C
HETATM    5  C4  UNL     1     -47.433  10.800  -2.356  1.00  0.00     0.007 C
HETATM    6  C5  UNL     1     -48.810  10.719  -2.934  1.00  0.00     0.011 C
HETATM    7  C7  UNL     1     -48.948   9.687  -4.014  1.00  0.00     0.007 C
HETATM    8  C8  UNL     1     -47.951   9.885  -5.138  1.00  0.00     0.019 C
ENDROOT
BRANCH   6   9
HETATM    9  C6  UNL     1     -49.761  10.343  -1.816  1.00  0.00     0.234 C
BRANCH   9  10
HETATM   10  N2  UNL     1     -50.903   9.636  -2.364  1.00  0.00    -0.079 N
ATOM     11  H23 UNL     1     -51.316  10.128  -3.156  1.00  0.00     0.274 HD
ATOM     12  H22 UNL     1     -50.629   8.780  -2.847  1.00  0.00     0.274 HD
ATOM     13  H21 UNL     1     -51.583   9.458  -1.625  1.00  0.00     0.274 HD
ENDBRANCH   9  10
ENDBRANCH   6   9
TORSDOF 2
ENDMDL