MODEL 1
REMARK VINA RESULT: -6.238418128      0.000      0.000
REMARK  2 active torsions:
REMARK  status: ('A' for Active; 'I' for Inactive)
REMARK    1  A    between atoms: C2_3  and  C3_4
REMARK    2  A    between atoms: C3_4  and  O1_5
ROOT
HETATM    1  N1  UNL     1     -50.608   9.439  -2.704  1.00  0.00    -0.197 NA
HETATM    2  C1  UNL     1     -49.845  10.106  -3.256  1.00  0.00     0.062 C
HETATM    3  C2  UNL     1     -48.903  10.957  -3.928  1.00  0.00     0.161 C
ENDROOT
BRANCH   3   4
HETATM    4  C3  UNL     1     -47.673  10.198  -4.449  1.00  0.00     0.070 C
HETATM    5  C4  UNL     1     -47.228  10.699  -5.766  1.00  0.00     0.039 C
HETATM    6  C5  UNL     1     -45.877  11.283  -5.859  1.00  0.00     0.003 C
HETATM    7  C6  UNL     1     -44.885  10.829  -4.840  1.00  0.00     0.000 C
HETATM    8  C7  UNL     1     -45.501  11.045  -3.475  1.00  0.00     0.003 C
HETATM    9  C8  UNL     1     -46.663  10.116  -3.376  1.00  0.00     0.039 C
BRANCH   4  10
HETATM   10  O1  UNL     1     -48.166   8.881  -4.652  1.00  0.00    -0.389 OA
ATOM     11  H1  UNL     1     -47.418   8.422  -5.015  1.00  0.00     0.210 HD
ENDBRANCH   4  10
ENDBRANCH   3   4
TORSDOF 2
ENDMDL