MODEL 4
REMARK VINA RESULT: -4.716328836      6.454      7.929
REMARK  2 active torsions:
REMARK  status: ('A' for Active; 'I' for Inactive)
REMARK    1  A    between atoms: O1_1  and  C1_3
REMARK    2  A    between atoms: C1_3  and  C2_4
ROOT
HETATM    1  C2  UNL     1     -50.660  13.106   2.941  1.00  0.00     0.009 C
HETATM    2  C3  UNL     1     -51.045  11.693   3.282  1.00  0.00     0.007 C
HETATM    3  C4  UNL     1     -50.064  10.649   3.600  1.00  0.00     0.012 C
HETATM    4  C5  UNL     1     -49.298  10.024   2.387  1.00  0.00     0.080 C
HETATM    5  C6  UNL     1     -49.114  11.104   1.512  1.00  0.00    -0.183 C
HETATM    6  C7  UNL     1     -48.787  11.861   0.374  1.00  0.00     0.080 C
HETATM    7  C8  UNL     1     -49.319  13.293   0.710  1.00  0.00     0.012 C
HETATM    8  C9  UNL     1     -50.579  13.361   1.452  1.00  0.00     0.007 C
ENDROOT
BRANCH   1   9
HETATM    9  C1  UNL     1     -51.783  14.001   3.456  1.00  0.00     0.168 C
BRANCH   9  10
HETATM   10  O1  UNL     1     -52.883  13.972   2.608  1.00  0.00    -0.400 OA
ATOM     11  H1  UNL     1     -52.800  13.286   1.956  1.00  0.00     0.209 HD
ENDBRANCH   9  10
ENDBRANCH   1   9
TORSDOF 2
ENDMDL