MODEL 5
REMARK VINA RESULT: -5.138218470      2.922      4.272
REMARK  3 active torsions:
REMARK  status: ('A' for Active; 'I' for Inactive)
REMARK    1  A    between atoms: N1_1  and  O1_4
REMARK    2  A    between atoms: O1_4  and  C1_5
REMARK    3  A    between atoms: C1_5  and  C2_6
ROOT
HETATM    1  C2  UNL     1     -48.182  10.747  -3.732  1.00  0.00     0.013 C
HETATM    2  C3  UNL     1     -47.583  11.053  -2.355  1.00  0.00     0.018 C
HETATM    3  C4  UNL     1     -48.671  10.978  -1.228  1.00  0.00     0.080 C
HETATM    4  C5  UNL     1     -49.745  10.266  -1.778  1.00  0.00    -0.183 C
HETATM    5  C6  UNL     1     -50.797   9.553  -2.373  1.00  0.00     0.080 C
HETATM    6  C7  UNL     1     -50.356   9.302  -3.858  1.00  0.00     0.012 C
HETATM    7  C8  UNL     1     -48.859   9.530  -4.040  1.00  0.00     0.007 C
ENDROOT
BRANCH   1   8
HETATM    8  C1  UNL     1     -46.912  10.809  -4.626  1.00  0.00     0.205 C
BRANCH   8   9
HETATM    9  O1  UNL     1     -45.862  11.370  -3.866  1.00  0.00    -0.287 OA
BRANCH   9  10
HETATM   10  N1  UNL     1     -44.725  11.044  -4.522  1.00  0.00    -0.311 N
ATOM     11  H12 UNL     1     -44.453  10.113  -4.838  1.00  0.00     0.184 HD
ATOM     12  H11 UNL     1     -44.209  11.918  -4.629  1.00  0.00     0.184 HD
ENDBRANCH   9  10
ENDBRANCH   8   9
ENDBRANCH   1   8
TORSDOF 3
ENDMDL