MODEL 2
REMARK VINA RESULT: -4.540734793      0.962      2.150
REMARK  2 active torsions:
REMARK  status: ('A' for Active; 'I' for Inactive)
REMARK    1  A    between atoms: O1_1  and  N1_3
REMARK    2  A    between atoms: C1_5  and  C2_6
ROOT
HETATM    1  C2  UNL     1     -47.918  10.606  -4.099  1.00  0.00     0.030 C
HETATM    2  C3  UNL     1     -47.349  10.772  -5.466  1.00  0.00     0.010 C
HETATM    3  C4  UNL     1     -45.863  10.826  -5.532  1.00  0.00     0.005 C
HETATM    4  C5  UNL     1     -45.203  10.923  -4.192  1.00  0.00    -0.014 C
HETATM    5  C6  UNL     1     -45.986  11.782  -3.213  1.00  0.00     0.010 C
HETATM    6  C7  UNL     1     -46.878  10.550  -3.013  1.00  0.00    -0.005 C
HETATM    7  C8  UNL     1     -45.682   9.718  -3.375  1.00  0.00     0.010 C
ENDROOT
BRANCH   1   8
HETATM    8  C1  UNL     1     -48.855   9.474  -4.067  1.00  0.00     0.091 C
HETATM    9  N1  UNL     1     -50.115   9.714  -4.118  1.00  0.00    -0.284 N
ATOM     10  H1  UNL     1     -50.759   8.923  -4.095  1.00  0.00     0.192 HD
BRANCH   9  11
HETATM   11  O1  UNL     1     -50.644  10.979  -4.201  1.00  0.00    -0.291 OA
ATOM     12  H1  UNL     1     -51.538  11.157  -4.469  1.00  0.00     0.244 HD
ENDBRANCH   9  11
ENDBRANCH   1   8
TORSDOF 2
ENDMDL