MODEL 3
REMARK VINA RESULT: -5.243453617      0.717      1.952
REMARK  2 active torsions:
REMARK  status: ('A' for Active; 'I' for Inactive)
REMARK    1  A    between atoms: N1_1  and  N2_4
REMARK    2  A    between atoms: C1_6  and  C2_7
ROOT
HETATM    1  C2  UNL     1     -47.650  10.003  -3.874  1.00  0.00     0.025 C
HETATM    2  C3  UNL     1     -47.859  10.226  -5.329  1.00  0.00     0.010 C
HETATM    3  C4  UNL     1     -47.088  11.379  -5.898  1.00  0.00     0.001 C
HETATM    4  C5  UNL     1     -45.605  11.152  -5.938  1.00  0.00     0.000 C
HETATM    5  C6  UNL     1     -45.099  10.331  -4.781  1.00  0.00     0.000 C
HETATM    6  C7  UNL     1     -45.412  11.069  -3.509  1.00  0.00     0.001 C
HETATM    7  C8  UNL     1     -46.878  11.088  -3.190  1.00  0.00     0.010 C
ENDROOT
BRANCH   1   8
HETATM    8  C1  UNL     1     -48.967   9.879  -3.201  1.00  0.00     0.084 C
HETATM    9  N2  UNL     1     -49.908   9.268  -3.791  1.00  0.00    -0.322 N
ATOM     10  H2  UNL     1     -49.716   8.883  -4.715  1.00  0.00     0.185 HD
BRANCH   9  11
HETATM   11  N1  UNL     1     -51.189   9.086  -3.264  1.00  0.00    -0.346 N
ATOM     12  H12 UNL     1     -51.245   8.830  -2.278  1.00  0.00     0.176 HD
ATOM     13  H11 UNL     1     -52.054   9.191  -3.794  1.00  0.00     0.176 HD
ENDBRANCH   9  11
ENDBRANCH   1   8
TORSDOF 2
ENDMDL