MODEL 2
REMARK VINA RESULT: -5.775081923      1.209      1.209
REMARK  2 active torsions:
REMARK  status: ('A' for Active; 'I' for Inactive)
REMARK    1  A    between atoms: N1_1  and  C1_5
REMARK    2  A    between atoms: C1_5  and  C2_6
ROOT
HETATM    1  C2  UNL     1     -47.986  10.871  -3.467  1.00  0.00     0.011 C
HETATM    2  C3  UNL     1     -46.931  10.570  -2.449  1.00  0.00     0.006 C
HETATM    3  C4  UNL     1     -45.558  10.383  -3.055  1.00  0.00     0.000 C
HETATM    4  C5  UNL     1     -45.258  11.366  -4.143  1.00  0.00     0.000 C
HETATM    5  C6  UNL     1     -44.947  10.671  -5.416  1.00  0.00     0.000 C
HETATM    6  C7  UNL     1     -46.048  10.553  -6.385  1.00  0.00     0.000 C
HETATM    7  C8  UNL     1     -47.421  10.845  -5.865  1.00  0.00     0.000 C
HETATM    8  C9  UNL     1     -47.833  10.010  -4.702  1.00  0.00     0.006 C
ENDROOT
BRANCH   1   9
HETATM    9  C1  UNL     1     -49.340  10.639  -2.792  1.00  0.00     0.234 C
BRANCH   9  10
HETATM   10  N1  UNL     1     -49.140  10.908  -1.383  1.00  0.00    -0.079 N
ATOM     11  H13 UNL     1     -48.156  10.960  -1.116  1.00  0.00     0.274 HD
ATOM     12  H12 UNL     1     -49.393  11.858  -1.111  1.00  0.00     0.274 HD
ATOM     13  H11 UNL     1     -49.659  10.189  -0.880  1.00  0.00     0.274 HD
ENDBRANCH   9  10
ENDBRANCH   1   9
TORSDOF 2
ENDMDL