MODEL 4
REMARK VINA RESULT: -3.814681773      6.599      7.275
REMARK  2 active torsions:
REMARK  status: ('A' for Active; 'I' for Inactive)
REMARK    1  A    between atoms: N1_1  and  S1_4
REMARK    2  A    between atoms: S1_4  and  C1_5
ROOT
HETATM    1  C1  UNL     1     -50.118  13.930   2.277  1.00  0.00     0.069 C
HETATM    2  C2  UNL     1     -49.392  12.841   1.516  1.00  0.00     0.021 C
HETATM    3  C3  UNL     1     -50.078  11.514   1.672  1.00  0.00    -0.013 C
HETATM    4  C4  UNL     1     -51.556  11.754   1.957  1.00  0.00     0.009 C
HETATM    5  C5  UNL     1     -51.147  11.994   3.383  1.00  0.00    -0.013 C
HETATM    6  C6  UNL     1     -49.999  11.024   3.114  1.00  0.00     0.009 C
HETATM    7  C7  UNL     1     -50.537  13.358   3.600  1.00  0.00     0.021 C
ENDROOT
BRANCH   1   8
HETATM    8  S1  UNL     1     -49.017  15.373   2.475  1.00  0.00    -0.058 SA
BRANCH   8   9
HETATM    9  N1  UNL     1     -49.881  16.667   3.330  1.00  0.00    -0.374 N
ATOM     10  H12 UNL     1     -50.773  16.545   3.810  1.00  0.00     0.164 HD
ATOM     11  H11 UNL     1     -49.349  17.534   3.264  1.00  0.00     0.164 HD
ENDBRANCH   8   9
ENDBRANCH   1   8
TORSDOF 2
ENDMDL