MODEL 2
REMARK VINA RESULT: -5.602997536      0.635      1.708
REMARK  1 active torsions:
REMARK  status: ('A' for Active; 'I' for Inactive)
REMARK    1  A    between atoms: C4_4  and  N1_5
ROOT
HETATM    1  C1  UNL     1     -45.226  10.949  -4.797  1.00  0.00     0.000 C
HETATM    2  C2  UNL     1     -46.265  10.445  -5.755  1.00  0.00     0.002 C
HETATM    3  C3  UNL     1     -47.672  10.733  -5.354  1.00  0.00     0.021 C
HETATM    4  C4  UNL     1     -47.820  11.299  -3.973  1.00  0.00     0.076 C
HETATM    5  C7  UNL     1     -46.917  10.647  -2.958  1.00  0.00     0.021 C
HETATM    6  C8  UNL     1     -45.484  10.582  -3.369  1.00  0.00     0.002 C
ENDROOT
BRANCH   4   7
HETATM    7  N1  UNL     1     -49.158  11.159  -3.462  1.00  0.00    -0.229 NA
HETATM    8  C5  UNL     1     -49.984  10.242  -4.222  1.00  0.00     0.127 A
HETATM    9  C6  UNL     1     -50.130   9.534  -2.903  1.00  0.00     0.145 A
HETATM   10  N2  UNL     1     -49.322  10.539  -2.245  1.00  0.00    -0.163 NA
ENDBRANCH   4   7
TORSDOF 1
ENDMDL