MODEL 4
REMARK VINA RESULT: -4.609355218      1.757      1.930
REMARK  2 active torsions:
REMARK  status: ('A' for Active; 'I' for Inactive)
REMARK    1  A    between atoms: O1_1  and  C1_3
REMARK    2  A    between atoms: C1_3  and  C2_4
ROOT
HETATM    1  C2  UNL     1     -48.096  10.420  -2.858  1.00  0.00     0.145 C
HETATM    2  C3  UNL     1     -46.802  10.994  -2.356  1.00  0.00     0.035 C
HETATM    3  C4  UNL     1     -45.480  10.543  -2.753  1.00  0.00     0.014 C
HETATM    4  C5  UNL     1     -45.019  10.897  -4.205  1.00  0.00     0.080 C
HETATM    5  C6  UNL     1     -46.196  10.834  -4.971  1.00  0.00    -0.181 C
HETATM    6  C7  UNL     1     -47.156  10.878  -5.999  1.00  0.00     0.106 C
HETATM    7  C8  UNL     1     -48.500  10.563  -5.223  1.00  0.00     0.179 C
HETATM    8  O2  UNL     1     -48.534  11.132  -4.003  1.00  0.00    -0.383 OA
ENDROOT
BRANCH   1   9
HETATM    9  C1  UNL     1     -49.153  10.747  -1.815  1.00  0.00     0.196 C
BRANCH   9  10
HETATM   10  O1  UNL     1     -48.588  11.309  -0.669  1.00  0.00    -0.398 OA
ATOM     11  H1  UNL     1     -49.253  11.661  -0.087  1.00  0.00     0.209 HD
ENDBRANCH   9  10
ENDBRANCH   1   9
TORSDOF 2
ENDMDL