MODEL 4
REMARK VINA RESULT: -4.337364497      1.360      3.184
REMARK  3 active torsions:
REMARK  status: ('A' for Active; 'I' for Inactive)
REMARK    1  A    between atoms: C2_2  and  O1_3
REMARK    2  A    between atoms: C4_7  and  O3_8
REMARK    3  A    between atoms: C6_11  and  O4_12
ROOT
HETATM    1  C1  UNL     1       4.719   2.525 -51.738  1.00  0.00     0.081 C
HETATM    2  C2  UNL     1       3.454   2.910 -52.451  1.00  0.00     0.184 C
HETATM    3  O2  UNL     1       3.569   2.835 -53.827  1.00  0.00    -0.351 OA
HETATM    4  C3  UNL     1       2.504   3.474 -54.397  1.00  0.00     0.203 C
HETATM    5  C4  UNL     1       1.164   2.937 -54.048  1.00  0.00     0.144 C
HETATM    6  C5  UNL     1       1.047   2.279 -52.731  1.00  0.00     0.071 C
HETATM    7  C6  UNL     1       2.341   1.937 -52.065  1.00  0.00     0.182 C
ENDROOT
BRANCH   2   8
HETATM    8  O1  UNL     1       3.054   4.160 -51.999  1.00  0.00    -0.364 OA
ATOM      9  H1  UNL     1       3.146   4.185 -51.054  1.00  0.00     0.213 HD
ENDBRANCH   2   8
BRANCH   7  10
HETATM   10  O4  UNL     1       2.802   0.666 -52.459  1.00  0.00    -0.390 OA
ATOM     11  H4  UNL     1       2.612   0.090 -51.727  1.00  0.00     0.210 HD
ENDBRANCH   7  10
BRANCH   5  12
HETATM   12  O3  UNL     1       0.682   2.062 -55.049  1.00  0.00    -0.393 OA
ATOM     13  H3  UNL     1      -0.143   2.368 -55.408  1.00  0.00     0.210 HD
ENDBRANCH   5  12
TORSDOF 3
ENDMDL