MODEL 3
REMARK VINA RESULT: -4.578403495      1.666      2.932
REMARK  3 active torsions:
REMARK  status: ('A' for Active; 'I' for Inactive)
REMARK    1  A    between atoms: C2_2  and  O1_3
REMARK    2  A    between atoms: C4_6  and  O2_7
REMARK    3  A    between atoms: C5_9  and  O3_11
ROOT
HETATM    1  C1  UNL     1       1.909   0.064 -53.188  1.00  0.00     0.046 C
HETATM    2  C2  UNL     1       2.344   1.388 -53.753  1.00  0.00     0.059 C
HETATM    3  C3  UNL     1       1.142   2.281 -53.834  1.00  0.00     0.072 C
HETATM    4  C4  UNL     1       1.479   3.507 -53.026  1.00  0.00     0.155 C
HETATM    5  C5  UNL     1       2.626   3.147 -52.121  1.00  0.00     0.083 C
HETATM    6  C6  UNL     1       2.189   2.544 -50.816  1.00  0.00     0.049 C
HETATM    7  C7  UNL     1       3.375   2.078 -52.911  1.00  0.00     0.077 C
ENDROOT
BRANCH   2   8
HETATM    8  O1  UNL     1       2.922   1.173 -55.021  1.00  0.00    -0.390 OA
ATOM      9  H1  UNL     1       3.857   1.048 -54.913  1.00  0.00     0.210 HD
ENDBRANCH   2   8
BRANCH   4  10
HETATM   10  O2  UNL     1       1.989   4.454 -53.945  1.00  0.00    -0.392 OA
ATOM     11  H2  UNL     1       1.275   4.655 -54.538  1.00  0.00     0.210 HD
ENDBRANCH   4  10
BRANCH   5  12
HETATM   12  O3  UNL     1       3.500   4.212 -51.971  1.00  0.00    -0.388 OA
ATOM     13  H3  UNL     1       3.781   4.548 -52.814  1.00  0.00     0.210 HD
ENDBRANCH   5  12
TORSDOF 3
ENDMDL