MODEL 4
REMARK VINA RESULT: -4.456763782      1.489      3.214
REMARK  3 active torsions:
REMARK  status: ('A' for Active; 'I' for Inactive)
REMARK    1  A    between atoms: C2_2  and  O1_3
REMARK    2  A    between atoms: C3_6  and  O3_7
REMARK    3  A    between atoms: C6_11  and  O4_12
ROOT
HETATM    1  C1  UNL     1       2.057   2.596 -54.602  1.00  0.00     0.082 C
HETATM    2  C2  UNL     1       2.559   3.121 -53.288  1.00  0.00     0.187 C
HETATM    3  O2  UNL     1       3.906   3.372 -53.257  1.00  0.00    -0.323 OA
HETATM    4  C3  UNL     1       4.650   2.497 -52.511  1.00  0.00     0.260 C
HETATM    5  C4  UNL     1       4.265   2.452 -51.052  1.00  0.00     0.063 C
HETATM    6  C5  UNL     1       2.783   2.761 -50.903  1.00  0.00     0.042 C
HETATM    7  C6  UNL     1       2.099   2.227 -52.136  1.00  0.00     0.180 C
ENDROOT
BRANCH   2   8
HETATM    8  O1  UNL     1       1.907   4.358 -53.064  1.00  0.00    -0.363 OA
ATOM      9  H1  UNL     1       2.482   5.036 -53.400  1.00  0.00     0.213 HD
ENDBRANCH   2   8
BRANCH   7  10
HETATM   10  O4  UNL     1       2.338   0.900 -52.377  1.00  0.00    -0.390 OA
ATOM     11  H4  UNL     1       3.139   0.760 -52.868  1.00  0.00     0.210 HD
ENDBRANCH   7  10
BRANCH   4  12
HETATM   12  O3  UNL     1       5.985   2.951 -52.549  1.00  0.00    -0.371 OA
ATOM     13  H3  UNL     1       6.517   2.230 -52.866  1.00  0.00     0.212 HD
ENDBRANCH   4  12
TORSDOF 3
ENDMDL