MODEL 4
REMARK VINA RESULT: -4.223465789      1.453      3.241
REMARK  2 active torsions:
REMARK  status: ('A' for Active; 'I' for Inactive)
REMARK    1  A    between atoms: C6_7  and  O2_8
REMARK    2  A    between atoms: C7_10  and  O3_11
ROOT
HETATM    1  C1  UNL     1       4.136   2.324 -51.296  1.00  0.00     0.042 C
HETATM    2  C2  UNL     1       3.817   2.188 -52.786  1.00  0.00     0.150 C
HETATM    3  O1  UNL     1       3.315   0.928 -52.979  1.00  0.00    -0.371 OA
HETATM    4  C3  UNL     1       2.078   1.019 -53.572  1.00  0.00     0.082 C
HETATM    5  C4  UNL     1       1.178  -0.135 -53.346  1.00  0.00     0.048 C
HETATM    6  C5  UNL     1       2.285   1.242 -55.046  1.00  0.00     0.048 C
HETATM    7  C6  UNL     1       1.517   2.274 -52.887  1.00  0.00     0.183 C
HETATM    8  C7  UNL     1       2.719   3.179 -53.125  1.00  0.00     0.178 C
ENDROOT
BRANCH   7   9
HETATM    9  O2  UNL     1       0.370   2.725 -53.464  1.00  0.00    -0.390 OA
ATOM     10  H2  UNL     1      -0.412   2.433 -53.010  1.00  0.00     0.210 HD
ENDBRANCH   7   9
BRANCH   8  11
HETATM   11  O3  UNL     1       2.728   4.291 -52.340  1.00  0.00    -0.390 OA
ATOM     12  H3  UNL     1       1.996   4.335 -51.736  1.00  0.00     0.210 HD
ENDBRANCH   8  11
TORSDOF 2
ENDMDL