MODEL 1
REMARK VINA RESULT: -4.075602907      0.000      0.000
REMARK  3 active torsions:
REMARK  status: ('A' for Active; 'I' for Inactive)
REMARK    1  A    between atoms: O1_1  and  C1_3
REMARK    2  A    between atoms: C4_7  and  O2_8
REMARK    3  A    between atoms: C5_10  and  O3_11
ROOT
HETATM    1  C1  UNL     1       2.736   3.034 -52.464  1.00  0.00     0.150 C
HETATM    2  C2  UNL     1       1.652   2.377 -51.643  1.00  0.00     0.045 C
HETATM    3  C3  UNL     1       0.774   1.612 -52.643  1.00  0.00     0.079 C
HETATM    4  S1  UNL     1       1.861   0.298 -53.308  1.00  0.00    -0.135 SA
HETATM    5  C4  UNL     1       3.517   0.955 -53.552  1.00  0.00     0.210 C
HETATM    6  C5  UNL     1       3.874   2.055 -52.608  1.00  0.00     0.185 C
ENDROOT
BRANCH   1   7
HETATM    7  O1  UNL     1       3.178   4.226 -51.932  1.00  0.00    -0.393 OA
ATOM      8  H1  UNL     1       3.948   4.131 -51.382  1.00  0.00     0.210 HD
ENDBRANCH   1   7
BRANCH   6   9
HETATM    9  O3  UNL     1       4.322   1.598 -51.368  1.00  0.00    -0.390 OA
ATOM     10  H3  UNL     1       5.271   1.595 -51.316  1.00  0.00     0.210 HD
ENDBRANCH   6   9
BRANCH   5  11
HETATM   11  O2  UNL     1       3.591   1.471 -54.852  1.00  0.00    -0.383 OA
ATOM     12  H2  UNL     1       4.336   1.071 -55.285  1.00  0.00     0.211 HD
ENDBRANCH   5  11
TORSDOF 3
ENDMDL