MODEL 2
REMARK VINA RESULT: -4.493548825      1.815      3.286
REMARK  3 active torsions:
REMARK  status: ('A' for Active; 'I' for Inactive)
REMARK    1  A    between atoms: C2_2  and  O1_3
REMARK    2  A    between atoms: N1_6  and  O2_7
REMARK    3  A    between atoms: C6_11  and  O3_12
ROOT
HETATM    1  C1  UNL     1       4.812   0.595 -53.190  1.00  0.00     0.050 C
HETATM    2  C2  UNL     1       3.563   1.379 -52.970  1.00  0.00     0.098 C
HETATM    3  C3  UNL     1       3.541   2.661 -53.815  1.00  0.00     0.194 C
HETATM    4  N1  UNL     1       2.516   3.481 -53.251  1.00  0.00    -0.273 N
HETATM    5  C4  UNL     1       1.231   2.918 -53.177  1.00  0.00     0.092 C
HETATM    6  C5  UNL     1       1.108   1.455 -53.045  1.00  0.00     0.081 C
HETATM    7  C6  UNL     1       2.306   0.644 -53.368  1.00  0.00     0.158 C
ENDROOT
BRANCH   2   8
HETATM    8  O1  UNL     1       3.391   1.739 -51.613  1.00  0.00    -0.386 OA
ATOM      9  H1  UNL     1       2.722   2.403 -51.501  1.00  0.00     0.210 HD
ENDBRANCH   2   8
BRANCH   7  10
HETATM   10  O3  UNL     1       2.210  -0.606 -52.782  1.00  0.00    -0.392 OA
ATOM     11  H3  UNL     1       1.320  -0.939 -52.773  1.00  0.00     0.210 HD
ENDBRANCH   7  10
BRANCH   4  12
HETATM   12  O2  UNL     1       2.913   4.149 -52.144  1.00  0.00    -0.288 OA
ATOM     13  H2  UNL     1       2.813   5.091 -52.216  1.00  0.00     0.244 HD
ENDBRANCH   4  12
TORSDOF 3
ENDMDL