MODEL 2
REMARK VINA RESULT: -4.189962864      1.809      2.232
REMARK  3 active torsions:
REMARK  status: ('A' for Active; 'I' for Inactive)
REMARK    1  A    between atoms: C2_2  and  O1_3
REMARK    2  A    between atoms: C4_7  and  O2_8
REMARK    3  A    between atoms: C5_10  and  O3_11
ROOT
HETATM    1  C1  UNL     1       2.441   2.679 -50.692  1.00  0.00     0.061 C
HETATM    2  C2  UNL     1       3.022   2.902 -52.056  1.00  0.00     0.130 C
HETATM    3  S1  UNL     1       1.660   3.317 -53.218  1.00  0.00    -0.127 SA
HETATM    4  C3  UNL     1       1.279   1.586 -53.616  1.00  0.00     0.111 C
HETATM    5  C4  UNL     1       2.561   0.900 -53.395  1.00  0.00     0.160 C
HETATM    6  C5  UNL     1       3.546   1.663 -52.664  1.00  0.00     0.192 C
ENDROOT
BRANCH   2   7
HETATM    7  O1  UNL     1       3.959   3.925 -52.067  1.00  0.00    -0.377 OA
ATOM      8  H1  UNL     1       3.927   4.451 -51.277  1.00  0.00     0.211 HD
ENDBRANCH   2   7
BRANCH   6   9
HETATM    9  O3  UNL     1       4.665   2.025 -53.456  1.00  0.00    -0.389 OA
ATOM     10  H3  UNL     1       4.544   1.629 -54.310  1.00  0.00     0.210 HD
ENDBRANCH   6   9
BRANCH   5  11
HETATM   11  O2  UNL     1       2.285  -0.350 -52.790  1.00  0.00    -0.392 OA
ATOM     12  H2  UNL     1       1.359  -0.530 -52.903  1.00  0.00     0.210 HD
ENDBRANCH   5  11
TORSDOF 3
ENDMDL