MODEL 5
REMARK VINA RESULT: -4.152685474      2.018      3.133
REMARK  2 active torsions:
REMARK  status: ('A' for Active; 'I' for Inactive)
REMARK    1  A    between atoms: C2_3  and  O1_4
REMARK    2  A    between atoms: C4_7  and  O2_8
ROOT
HETATM    1  C1  UNL     1       5.112   0.885 -53.749  1.00  0.00     0.316 C
HETATM    2  N1  UNL     1       4.235   1.370 -52.682  1.00  0.00     0.142 N
HETATM    3  C2  UNL     1       4.893   2.198 -51.698  1.00  0.00     0.370 C
HETATM    4  C3  UNL     1       3.776   3.192 -51.828  1.00  0.00     0.135 C
HETATM    5  C4  UNL     1       2.563   2.946 -51.009  1.00  0.00     0.154 C
HETATM    6  C5  UNL     1       1.648   2.150 -51.889  1.00  0.00     0.203 C
HETATM    7  O3  UNL     1       2.120   2.266 -53.185  1.00  0.00    -0.354 OA
HETATM    8  C6  UNL     1       3.477   2.501 -53.127  1.00  0.00     0.372 C
ENDROOT
BRANCH   3   9
HETATM    9  O1  UNL     1       5.072   1.636 -50.451  1.00  0.00    -0.367 OA
ATOM     10  H1  UNL     1       4.631   2.069 -49.729  1.00  0.00     0.212 HD
ENDBRANCH   3   9
BRANCH   5  11
HETATM   11  O2  UNL     1       2.820   2.330 -49.786  1.00  0.00    -0.393 OA
ATOM     12  H2  UNL     1       3.730   2.090 -49.657  1.00  0.00     0.210 HD
ENDBRANCH   5  11
TORSDOF 2
ENDMDL