MODEL 5
REMARK VINA RESULT: -4.103550313      1.039      2.744
REMARK  2 active torsions:
REMARK  status: ('A' for Active; 'I' for Inactive)
REMARK    1  A    between atoms: C4_5  and  O2_6
REMARK    2  A    between atoms: C6_9  and  O3_10
ROOT
HETATM    1  C1  UNL     1       2.642   2.682 -50.639  1.00  0.00     0.078 C
HETATM    2  C2  UNL     1       3.386   2.515 -51.935  1.00  0.00     0.163 C
HETATM    3  C3  UNL     1       4.886   2.457 -51.643  1.00  0.00     0.078 C
HETATM    4  O1  UNL     1       3.189   3.545 -52.823  1.00  0.00    -0.326 OA
HETATM    5  C4  UNL     1       1.893   3.728 -53.225  1.00  0.00     0.265 C
HETATM    6  C5  UNL     1       1.041   2.514 -53.216  1.00  0.00     0.121 C
HETATM    7  C6  UNL     1       1.722   1.239 -52.905  1.00  0.00     0.265 C
HETATM    8  O4  UNL     1       3.043   1.327 -52.569  1.00  0.00    -0.326 OA
ENDROOT
BRANCH   5   9
HETATM    9  O2  UNL     1       1.936   4.335 -54.497  1.00  0.00    -0.371 OA
ATOM     10  H2  UNL     1       2.777   4.118 -54.881  1.00  0.00     0.212 HD
ENDBRANCH   5   9
BRANCH   7  11
HETATM   11  O3  UNL     1       1.632   0.380 -54.024  1.00  0.00    -0.371 OA
ATOM     12  H3  UNL     1       1.634  -0.521 -53.725  1.00  0.00     0.212 HD
ENDBRANCH   7  11
TORSDOF 2
ENDMDL