MODEL 2
REMARK VINA RESULT: -4.020004118      2.220      3.843
REMARK  2 active torsions:
REMARK  status: ('A' for Active; 'I' for Inactive)
REMARK    1  A    between atoms: O1_1  and  C1_3
REMARK    2  A    between atoms: C2_4  and  O2_5
ROOT
HETATM    1  C1  UNL     1       2.635   3.056 -52.042  1.00  0.00     0.164 C
HETATM    2  C2  UNL     1       1.724   3.200 -53.272  1.00  0.00     0.164 C
HETATM    3  C3  UNL     1       2.494   2.373 -54.264  1.00  0.00     0.112 C
HETATM    4  C4  UNL     1       3.946   2.523 -53.912  1.00  0.00     0.040 C
HETATM    5  C5  UNL     1       3.583   2.010 -52.512  1.00  0.00     0.112 C
HETATM    6  S1  UNL     1       2.524   0.607 -53.368  1.00  0.00     0.029 S
HETATM    7  O3  UNL     1       3.661  -0.683 -54.322  1.00  0.00    -0.257 OA
ENDROOT
BRANCH   1   8
HETATM    8  O1  UNL     1       3.378   4.240 -51.851  1.00  0.00    -0.392 OA
ATOM      9  H1  UNL     1       3.023   4.731 -51.119  1.00  0.00     0.210 HD
ENDBRANCH   1   8
BRANCH   2  10
HETATM   10  O2  UNL     1       1.540   4.502 -53.639  1.00  0.00    -0.392 OA
ATOM     11  H2  UNL     1       0.704   4.848 -53.350  1.00  0.00     0.210 HD
ENDBRANCH   2  10
TORSDOF 2
ENDMDL