MODEL 5
REMARK VINA RESULT: -3.875946557      2.108      3.532
REMARK  7 active torsions:
REMARK  status: ('A' for Active; 'I' for Inactive)
REMARK    1  A    between atoms: N1_1  and  C1_5
REMARK    2  A    between atoms: C1_5  and  C2_6
REMARK    3  A    between atoms: C2_6  and  N2_7
REMARK    4  A    between atoms: N2_7  and  C3_10
REMARK    5  A    between atoms: C3_10  and  C4_11
REMARK    6  A    between atoms: C4_11  and  N3_12
REMARK    7  A    between atoms: N3_12  and  C5_14
ROOT
HETATM    1  N3  UNL     1       9.302   9.788   1.158  1.00  0.00    -0.373 N
ATOM      2  H3  UNL     1       9.342  10.169   2.104  1.00  0.00     0.161 HD
ENDROOT
BRANCH   1   3
HETATM    3  C4  UNL     1       8.409  10.404   0.219  1.00  0.00     0.148 C
BRANCH   3   4
HETATM    4  C3  UNL     1       8.745  11.901   0.192  1.00  0.00     0.251 C
BRANCH   4   5
HETATM    5  N2  UNL     1       7.924  12.631   1.108  1.00  0.00    -0.072 N
ATOM      6  H22 UNL     1       7.744  12.123   1.974  1.00  0.00     0.277 HD
ATOM      7  H21 UNL     1       6.956  12.712   0.798  1.00  0.00     0.277 HD
BRANCH   5   8
HETATM    8  C2  UNL     1       8.563  13.932   1.331  1.00  0.00     0.259 C
BRANCH   8   9
HETATM    9  C1  UNL     1       7.890  14.645   2.503  1.00  0.00     0.257 C
BRANCH   9  10
HETATM   10  N1  UNL     1       6.871  13.759   3.016  1.00  0.00    -0.078 N
ATOM     11  H13 UNL     1       5.933  14.157   2.961  1.00  0.00     0.274 HD
ATOM     12  H12 UNL     1       6.708  12.950   2.417  1.00  0.00     0.274 HD
ATOM     13  H11 UNL     1       7.141  13.505   3.967  1.00  0.00     0.274 HD
ENDBRANCH   9  10
ENDBRANCH   8   9
ENDBRANCH   5   8
ENDBRANCH   4   5
ENDBRANCH   3   4
ENDBRANCH   1   3
BRANCH   1  14
HETATM   14  C5  UNL     1      10.059   8.780   0.878  1.00  0.00     0.133 A
HETATM   15  N4  UNL     1      10.039   7.763   1.772  1.00  0.00    -0.337 N
HETATM   16  C6  UNL     1      10.782   6.656   1.597  1.00  0.00     0.183 A
ATOM     17  H4  UNL     1       9.446   7.839   2.599  1.00  0.00     0.168 HD
HETATM   18  N5  UNL     1      11.559   6.562   0.513  1.00  0.00    -0.337 N
HETATM   19  C7  UNL     1      11.613   7.541  -0.397  1.00  0.00     0.138 A
ATOM     20  H5  UNL     1      12.124   5.724   0.377  1.00  0.00     0.168 HD
HETATM   21  C8  UNL     1      10.838   8.725  -0.241  1.00  0.00     0.122 A
HETATM   22  N6  UNL     1      11.696   8.533  -1.363  1.00  0.00    -0.334 N
ATOM     23  H6  UNL     1      12.086   8.877  -2.240  1.00  0.00     0.168 HD
ENDBRANCH   1  14
TORSDOF 7
ENDMDL