MODEL 4
REMARK VINA RESULT: -3.475870736      1.504      2.715
REMARK  6 active torsions:
REMARK  status: ('A' for Active; 'I' for Inactive)
REMARK    1  A    between atoms: C2_2  and  C3_3
REMARK    2  A    between atoms: C3_3  and  N1_4
REMARK    3  A    between atoms: N1_4  and  C4_6
REMARK    4  A    between atoms: C4_6  and  C5_7
REMARK    5  A    between atoms: C5_7  and  C6_8
REMARK    6  A    between atoms: C6_8  and  N2_9
ROOT
HETATM    1  C1  UNL     1      11.142  10.862  -0.398  1.00  0.00     0.024 C
HETATM    2  C2  UNL     1      10.033  10.183  -1.143  1.00  0.00     0.027 C
HETATM    3  C7  UNL     1       8.986   9.620  -0.188  1.00  0.00     0.250 C
HETATM    4  N3  UNL     1       8.782  10.677   0.808  1.00  0.00    -0.059 N
ATOM      5  H31 UNL     1       9.649  10.909   1.293  1.00  0.00     0.279 HD
ATOM      6  H32 UNL     1       8.244  10.341   1.608  1.00  0.00     0.279 HD
HETATM    7  C8  UNL     1       8.183  11.828   0.214  1.00  0.00     0.349 C
HETATM    8  N4  UNL     1       8.929  12.282  -0.909  1.00  0.00    -0.399 N
ATOM      9  H4  UNL     1       9.201  13.260  -1.012  1.00  0.00     0.154 HD
HETATM   10  C9  UNL     1       9.277  11.303  -1.882  1.00  0.00     0.131 C
ENDROOT
BRANCH   2  11
HETATM   11  C3  UNL     1      10.446   9.209  -2.183  1.00  0.00     0.072 C
BRANCH  11  12
HETATM   12  N1  UNL     1      11.712   8.633  -2.130  1.00  0.00    -0.382 N
ATOM     13  H1  UNL     1      12.518   9.208  -2.374  1.00  0.00     0.164 HD
BRANCH  12  14
HETATM   14  C4  UNL     1      11.930   7.308  -1.759  1.00  0.00     0.061 C
BRANCH  14  15
HETATM   15  C5  UNL     1      12.667   7.047  -0.475  1.00  0.00     0.072 C
BRANCH  15  16
HETATM   16  C6  UNL     1      11.932   7.415   0.766  1.00  0.00     0.234 C
BRANCH  16  17
HETATM   17  N2  UNL     1      10.915   6.442   1.061  1.00  0.00    -0.079 N
ATOM     18  H23 UNL     1       9.994   6.872   1.146  1.00  0.00     0.274 HD
ATOM     19  H22 UNL     1      10.728   5.836   0.262  1.00  0.00     0.274 HD
ATOM     20  H21 UNL     1      11.160   5.906   1.893  1.00  0.00     0.274 HD
ENDBRANCH  16  17
ENDBRANCH  15  16
ENDBRANCH  14  15
ENDBRANCH  12  14
ENDBRANCH  11  12
ENDBRANCH   2  11
TORSDOF 6
ENDMDL