MODEL 2
REMARK VINA RESULT: -3.617818668      0.915      1.223
REMARK  7 active torsions:
REMARK  status: ('A' for Active; 'I' for Inactive)
REMARK    1  A    between atoms: N1_2  and  C2_5
REMARK    2  A    between atoms: C2_5  and  C3_6
REMARK    3  A    between atoms: C3_6  and  C4_7
REMARK    4  A    between atoms: C4_7  and  N2_8
REMARK    5  A    between atoms: N2_8  and  C5_10
REMARK    6  A    between atoms: C7_14  and  C8_15
REMARK    7  A    between atoms: C8_15  and  N4_16
ROOT
HETATM    1  C5  UNL     1       9.805   9.128   1.198  1.00  0.00     0.171 C
HETATM    2  N3  UNL     1       9.735   7.994   1.778  1.00  0.00    -0.360 N
ATOM      3  H3  UNL     1       8.869   7.542   2.072  1.00  0.00     0.162 HD
HETATM    4  C6  UNL     1      11.056   7.441   1.959  1.00  0.00     0.149 C
HETATM    5  C7  UNL     1      11.950   8.309   1.130  1.00  0.00     0.127 C
HETATM    6  N5  UNL     1      11.152   9.491   0.902  1.00  0.00    -0.355 N
ATOM      7  H5  UNL     1      11.485  10.404   0.590  1.00  0.00     0.163 HD
ENDROOT
BRANCH   1   8
HETATM    8  N2  UNL     1       8.644   9.936   0.880  1.00  0.00    -0.362 N
ATOM      9  H2  UNL     1       8.136  10.472   1.583  1.00  0.00     0.162 HD
BRANCH   8  10
HETATM   10  C4  UNL     1       8.260   9.924  -0.520  1.00  0.00     0.124 C
BRANCH  10  11
HETATM   11  C3  UNL     1       8.284  11.373  -0.959  1.00  0.00     0.047 C
BRANCH  11  12
HETATM   12  C2  UNL     1       9.385  11.636  -1.935  1.00  0.00     0.233 C
BRANCH  12  13
HETATM   13  N1  UNL     1      10.012  10.411  -2.317  1.00  0.00    -0.079 N
HETATM   14  C1  UNL     1      11.395  10.629  -2.610  1.00  0.00     0.266 C
ATOM     15  H12 UNL     1       9.525   9.961  -3.092  1.00  0.00     0.276 HD
ATOM     16  H11 UNL     1       9.882   9.683  -1.613  1.00  0.00     0.276 HD
ENDBRANCH  12  13
ENDBRANCH  11  12
ENDBRANCH  10  11
ENDBRANCH   8  10
ENDBRANCH   1   8
BRANCH   5  17
HETATM   17  C8  UNL     1      12.319   7.631  -0.168  1.00  0.00     0.256 C
BRANCH  17  18
HETATM   18  N4  UNL     1      12.087   6.228  -0.075  1.00  0.00    -0.077 N
ATOM     19  H43 UNL     1      11.469   5.995   0.702  1.00  0.00     0.274 HD
ATOM     20  H42 UNL     1      11.503   5.887  -0.839  1.00  0.00     0.274 HD
ATOM     21  H41 UNL     1      12.974   5.726  -0.019  1.00  0.00     0.274 HD
ENDBRANCH  17  18
ENDBRANCH   5  17
TORSDOF 7
ENDMDL