MODEL 5
REMARK VINA RESULT: -3.456765971      2.053      4.851
REMARK  8 active torsions:
REMARK  status: ('A' for Active; 'I' for Inactive)
REMARK    1  A    between atoms: C2_2  and  N1_3
REMARK    2  A    between atoms: N1_3  and  C3_6
REMARK    3  A    between atoms: C3_6  and  C4_7
REMARK    4  A    between atoms: C4_7  and  N2_8
REMARK    5  A    between atoms: C4_7  and  C5_12
REMARK    6  A    between atoms: C5_12  and  C6_13
REMARK    7  A    between atoms: C8_15  and  N3_16
REMARK    8  A    between atoms: C10_21  and  N4_22
ROOT
HETATM    1  C6  UNL     1      10.103  10.024   0.178  1.00  0.00     0.020 C
HETATM    2  C7  UNL     1       9.728   8.731   0.915  1.00  0.00     0.039 C
HETATM    3  C8  UNL     1      11.037   7.988   0.832  1.00  0.00     0.185 C
HETATM    4  C9  UNL     1      11.396   8.170  -0.633  1.00  0.00     0.066 C
HETATM    5  C10 UNL     1      10.802   9.503  -1.028  1.00  0.00     0.189 C
ENDROOT
BRANCH   1   6
HETATM    6  C5  UNL     1       8.832  10.770  -0.139  1.00  0.00     0.041 C
BRANCH   6   7
HETATM    7  C4  UNL     1       8.935  12.212   0.227  1.00  0.00     0.209 C
BRANCH   7   8
HETATM    8  C3  UNL     1      10.279  12.548   0.825  1.00  0.00     0.264 C
BRANCH   8   9
HETATM    9  N1  UNL     1      10.114  13.328   2.047  1.00  0.00    -0.073 N
ATOM     10  H12 UNL     1       9.341  13.000   2.626  1.00  0.00     0.277 HD
ATOM     11  H11 UNL     1       9.761  14.269   1.874  1.00  0.00     0.277 HD
BRANCH   9  12
HETATM   12  C2  UNL     1      11.396  13.320   2.750  1.00  0.00     0.228 C
HETATM   13  C1  UNL     1      12.190  12.081   2.345  1.00  0.00     0.034 C
ENDBRANCH   9  12
ENDBRANCH   8   9
ENDBRANCH   7   8
BRANCH   7  14
HETATM   14  N2  UNL     1       7.890  12.579   1.183  1.00  0.00    -0.073 N
ATOM     15  H23 UNL     1       7.812  11.912   1.950  1.00  0.00     0.274 HD
ATOM     16  H22 UNL     1       8.137  13.401   1.734  1.00  0.00     0.274 HD
ATOM     17  H21 UNL     1       7.011  12.696   0.679  1.00  0.00     0.274 HD
ENDBRANCH   7  14
ENDBRANCH   6   7
ENDBRANCH   1   6
BRANCH   5  18
HETATM   18  N4  UNL     1       9.886   9.294  -2.157  1.00  0.00    -0.075 N
ATOM     19  H43 UNL     1       9.338   8.443  -2.034  1.00  0.00     0.274 HD
ATOM     20  H42 UNL     1       9.129   9.977  -2.148  1.00  0.00     0.274 HD
ATOM     21  H41 UNL     1      10.371   9.293  -3.054  1.00  0.00     0.274 HD
ENDBRANCH   5  18
BRANCH   3  22
HETATM   22  N3  UNL     1      10.899   6.579   1.097  1.00  0.00    -0.075 N
ATOM     23  H33 UNL     1      11.204   6.354   2.044  1.00  0.00     0.274 HD
ATOM     24  H32 UNL     1       9.916   6.317   1.173  1.00  0.00     0.274 HD
ATOM     25  H31 UNL     1      11.380   5.998   0.411  1.00  0.00     0.274 HD
ENDBRANCH   3  22
TORSDOF 8
ENDMDL