MODEL 3
REMARK VINA RESULT: -3.739969660      1.267      1.827
REMARK  6 active torsions:
REMARK  status: ('A' for Active; 'I' for Inactive)
REMARK    1  A    between atoms: N1_1  and  C1_5
REMARK    2  A    between atoms: C3_10  and  C4_11
REMARK    3  A    between atoms: C4_11  and  C5_12
REMARK    4  A    between atoms: C5_12  and  N3_13
REMARK    5  A    between atoms: N3_13  and  C6_16
REMARK    6  A    between atoms: C6_16  and  C7_17
ROOT
HETATM    1  C5  UNL     1       8.445  10.388   0.337  1.00  0.00     0.235 C
ENDROOT
BRANCH   1   2
HETATM    2  C4  UNL     1       8.314  11.846   0.080  1.00  0.00     0.062 C
BRANCH   2   3
HETATM    3  C3  UNL     1       9.558  12.472  -0.496  1.00  0.00     0.219 C
HETATM    4  C1  UNL     1       9.612  12.463  -2.011  1.00  0.00     0.239 C
HETATM    5  C2  UNL     1      10.347  13.783  -1.788  1.00  0.00     0.267 C
HETATM    6  N2  UNL     1       9.486  13.936  -0.602  1.00  0.00    -0.067 N
ATOM      7  H22 UNL     1       9.743  14.546   0.174  1.00  0.00     0.277 HD
ATOM      8  H21 UNL     1       8.595  14.430  -0.643  1.00  0.00     0.277 HD
BRANCH   4   9
HETATM    9  N1  UNL     1      10.397  11.404  -2.544  1.00  0.00    -0.071 N
ATOM     10  H13 UNL     1      10.932  10.958  -1.798  1.00  0.00     0.274 HD
ATOM     11  H12 UNL     1       9.794  10.630  -2.823  1.00  0.00     0.274 HD
ATOM     12  H11 UNL     1      11.017  11.657  -3.314  1.00  0.00     0.274 HD
ENDBRANCH   4   9
ENDBRANCH   2   3
ENDBRANCH   1   2
BRANCH   1  13
HETATM   13  N3  UNL     1       9.711  10.126   0.984  1.00  0.00    -0.070 N
ATOM     14  H32 UNL     1      10.485  10.293   0.341  1.00  0.00     0.277 HD
ATOM     15  H31 UNL     1       9.913  10.841   1.684  1.00  0.00     0.277 HD
BRANCH  13  16
HETATM   16  C6  UNL     1       9.803   8.808   1.561  1.00  0.00     0.290 C
BRANCH  16  17
HETATM   17  C7  UNL     1      10.704   8.006   0.699  1.00  0.00     0.051 A
HETATM   18  C8  UNL     1      11.174   6.749   0.976  1.00  0.00     0.115 A
HETATM   19  N4  UNL     1      11.956   6.379  -0.071  1.00  0.00    -0.360 N
HETATM   20  C9  UNL     1      11.980   7.362  -0.974  1.00  0.00     0.180 A
ATOM     21  H4  UNL     1      12.449   5.489  -0.155  1.00  0.00     0.166 HD
HETATM   22  N5  UNL     1      11.199   8.360  -0.483  1.00  0.00    -0.353 N
ATOM     23  H5  UNL     1      11.021   9.249  -0.951  1.00  0.00     0.166 HD
ENDBRANCH  16  17
ENDBRANCH  13  16
ENDBRANCH   1  13
TORSDOF 6
ENDMDL