MODEL 3
REMARK VINA RESULT: -3.492121070      2.124      4.841
REMARK  6 active torsions:
REMARK  status: ('A' for Active; 'I' for Inactive)
REMARK    1  A    between atoms: C2_5  and  N3_6
REMARK    2  A    between atoms: N3_6  and  C3_8
REMARK    3  A    between atoms: C3_8  and  C4_9
REMARK    4  A    between atoms: C4_9  and  C5_10
REMARK    5  A    between atoms: C5_10  and  C6_11
REMARK    6  A    between atoms: C6_11  and  N4_12
ROOT
HETATM    1  C1  UNL     1       9.263  14.832   0.103  1.00  0.00     0.198 C
HETATM    2  N1  UNL     1       9.272  13.392  -0.037  1.00  0.00    -0.114 N
HETATM    3  N2  UNL     1       8.914  12.498   0.869  1.00  0.00    -0.116 N
ATOM      4  H2  UNL     1       8.577  12.708   1.808  1.00  0.00     0.206 HD
HETATM    5  C2  UNL     1       9.065  11.278   0.356  1.00  0.00     0.707 A
HETATM    6  N5  UNL     1       9.531  11.444  -0.901  1.00  0.00    -0.020 N
ATOM      7  H5  UNL     1       9.750  10.693  -1.555  1.00  0.00     0.203 HD
HETATM    8  C7  UNL     1       9.660  12.740  -1.148  1.00  0.00     0.707 A
HETATM    9  N6  UNL     1      10.086  13.269  -2.266  1.00  0.00    -0.233 N
ATOM     10  H61 UNL     1      10.379  12.775  -3.108  1.00  0.00     0.174 HD
ATOM     11  H62 UNL     1      10.184  14.267  -2.455  1.00  0.00     0.174 HD
ENDROOT
BRANCH   5  12
HETATM   12  N3  UNL     1       8.848  10.118   0.856  1.00  0.00    -0.224 N
ATOM     13  H3  UNL     1       8.021  10.005   1.442  1.00  0.00     0.177 HD
BRANCH  12  14
HETATM   14  C3  UNL     1       9.676   8.969   0.654  1.00  0.00     0.138 C
BRANCH  14  15
HETATM   15  C4  UNL     1       9.654   8.052   1.847  1.00  0.00     0.022 C
BRANCH  15  16
HETATM   16  C5  UNL     1      10.758   7.035   1.812  1.00  0.00     0.029 C
BRANCH  16  17
HETATM   17  C6  UNL     1      11.799   7.344   0.765  1.00  0.00     0.229 C
BRANCH  17  18
HETATM   18  N4  UNL     1      12.018   6.263  -0.150  1.00  0.00    -0.079 N
ATOM     19  H43 UNL     1      12.793   5.676   0.159  1.00  0.00     0.274 HD
ATOM     20  H42 UNL     1      11.260   5.583  -0.095  1.00  0.00     0.274 HD
ATOM     21  H41 UNL     1      12.159   6.573  -1.112  1.00  0.00     0.274 HD
ENDBRANCH  17  18
ENDBRANCH  16  17
ENDBRANCH  15  16
ENDBRANCH  14  15
ENDBRANCH  12  14
ENDBRANCH   5  12
TORSDOF 6
ENDMDL