MODEL 4
REMARK VINA RESULT: -3.333877065      1.910      4.675
REMARK  6 active torsions:
REMARK  status: ('A' for Active; 'I' for Inactive)
REMARK    1  A    between atoms: C2_2  and  N1_3
REMARK    2  A    between atoms: C2_2  and  C4_9
REMARK    3  A    between atoms: N1_3  and  C3_6
REMARK    4  A    between atoms: C3_6  and  O1_7
REMARK    5  A    between atoms: C4_9  and  N2_11
REMARK    6  A    between atoms: N2_11  and  C6_13
ROOT
HETATM    1  C4  UNL     1      10.643  10.788  -1.632  1.00  0.00     0.110 C
HETATM    2  C5  UNL     1      11.779  11.099  -2.611  1.00  0.00     0.034 C
ENDROOT
BRANCH   1   3
HETATM    3  C2  UNL     1       9.484  11.656  -1.880  1.00  0.00     0.206 C
HETATM    4  C1  UNL     1       9.740  13.123  -1.557  1.00  0.00     0.042 C
BRANCH   3   5
HETATM    5  N1  UNL     1       8.237  11.360  -1.244  1.00  0.00    -0.049 N
ATOM      6  H12 UNL     1       7.448  11.779  -1.736  1.00  0.00     0.280 HD
ATOM      7  H11 UNL     1       7.976  10.380  -1.351  1.00  0.00     0.280 HD
BRANCH   5   8
HETATM    8  C3  UNL     1       8.284  11.754   0.123  1.00  0.00     0.396 C
BRANCH   8   9
HETATM    9  O1  UNL     1       8.229  10.733   1.038  1.00  0.00    -0.375 OA
ATOM     10  H1  UNL     1       7.520  10.783   1.668  1.00  0.00     0.211 HD
ENDBRANCH   8   9
ENDBRANCH   5   8
ENDBRANCH   3   5
ENDBRANCH   1   3
BRANCH   1  11
HETATM   11  N2  UNL     1      10.391   9.360  -1.789  1.00  0.00    -0.356 N
ATOM     12  H2  UNL     1       9.968   8.980  -2.636  1.00  0.00     0.163 HD
BRANCH  11  13
HETATM   13  C6  UNL     1      10.770   8.518  -0.693  1.00  0.00     0.171 C
HETATM   14  N3  UNL     1      11.630   7.551  -0.645  1.00  0.00    -0.361 N
HETATM   15  C7  UNL     1      11.708   6.946   0.662  1.00  0.00     0.142 C
ATOM     16  H3  UNL     1      12.190   7.250  -1.442  1.00  0.00     0.162 HD
HETATM   17  C8  UNL     1      10.483   7.508   1.388  1.00  0.00     0.142 C
HETATM   18  N4  UNL     1      10.142   8.629   0.581  1.00  0.00    -0.361 N
ATOM     19  H4  UNL     1       9.537   9.397   0.872  1.00  0.00     0.162 HD
ENDBRANCH  11  13
ENDBRANCH   1  11
TORSDOF 6
ENDMDL