MODEL 4
REMARK VINA RESULT: -3.354677439      1.254      1.778
REMARK  7 active torsions:
REMARK  status: ('A' for Active; 'I' for Inactive)
REMARK    1  A    between atoms: C2_2  and  O1_3
REMARK    2  A    between atoms: O1_3  and  C3_4
REMARK    3  A    between atoms: C3_4  and  C4_5
REMARK    4  A    between atoms: C4_5  and  C5_6
REMARK    5  A    between atoms: C5_6  and  N1_7
REMARK    6  A    between atoms: N1_7  and  C6_9
REMARK    7  A    between atoms: C7_14  and  N4_15
ROOT
HETATM    1  C6  UNL     1      10.352   9.746   0.729  1.00  0.00     0.707 A
HETATM    2  N2  UNL     1      11.425   9.486  -0.039  1.00  0.00    -0.117 N
ATOM      3  H2  UNL     1      11.914  10.179  -0.607  1.00  0.00     0.206 HD
HETATM    4  N3  UNL     1      11.755   8.218   0.043  1.00  0.00    -0.118 N
ATOM      5  H3  UNL     1      12.528   7.756  -0.437  1.00  0.00     0.206 HD
HETATM    6  C7  UNL     1      10.876   7.650   0.881  1.00  0.00     0.705 A
HETATM    7  N5  UNL     1      10.010   8.581   1.309  1.00  0.00    -0.020 N
ATOM      8  H5  UNL     1       9.234   8.432   1.954  1.00  0.00     0.203 HD
ENDROOT
BRANCH   1   9
HETATM    9  N1  UNL     1       9.759  10.906   0.882  1.00  0.00    -0.224 N
ATOM     10  H1  UNL     1      10.249  11.669   1.348  1.00  0.00     0.177 HD
BRANCH   9  11
HETATM   11  C5  UNL     1       8.411  11.107   0.390  1.00  0.00     0.140 C
BRANCH  11  12
HETATM   12  C4  UNL     1       8.323  10.818  -1.088  1.00  0.00     0.046 C
BRANCH  12  13
HETATM   13  C3  UNL     1       9.024  11.845  -1.922  1.00  0.00     0.169 C
BRANCH  13  14
HETATM   14  O1  UNL     1      10.337  11.545  -2.133  1.00  0.00    -0.391 OA
BRANCH  14  15
HETATM   15  C2  UNL     1      11.228  12.573  -2.055  1.00  0.00     0.163 C
HETATM   16  C1  UNL     1      10.446  13.884  -2.091  1.00  0.00     0.033 C
ENDBRANCH  14  15
ENDBRANCH  13  14
ENDBRANCH  12  13
ENDBRANCH  11  12
ENDBRANCH   9  11
ENDBRANCH   1   9
BRANCH   6  17
HETATM   17  N4  UNL     1      10.879   6.414   1.210  1.00  0.00    -0.233 N
ATOM     18  H42 UNL     1      11.271   6.019   2.065  1.00  0.00     0.174 HD
ATOM     19  H41 UNL     1      10.483   5.663   0.646  1.00  0.00     0.174 HD
ENDBRANCH   6  17
TORSDOF 7
ENDMDL