MODEL 2
REMARK VINA RESULT: -3.777314503      0.951      1.064
REMARK  8 active torsions:
REMARK  status: ('A' for Active; 'I' for Inactive)
REMARK    1  A    between atoms: N1_1  and  C1_4
REMARK    2  A    between atoms: C4_7  and  N2_8
REMARK    3  A    between atoms: N2_8  and  C5_10
REMARK    4  A    between atoms: C5_10  and  C6_11
REMARK    5  A    between atoms: C6_11  and  N3_12
REMARK    6  A    between atoms: N3_12  and  C7_15
REMARK    7  A    between atoms: C7_15  and  C8_16
REMARK    8  A    between atoms: C8_16  and  N4_17
ROOT
HETATM    1  N2  UNL     1       8.752  10.047   1.008  1.00  0.00    -0.367 N
ATOM      2  H2  UNL     1       7.960   9.889   1.631  1.00  0.00     0.161 HD
ENDROOT
BRANCH   1   3
HETATM    3  C4  UNL     1       9.607   9.115   0.772  1.00  0.00     0.166 A
HETATM    4  C3  UNL     1       9.743   8.065   1.655  1.00  0.00     0.062 A
HETATM    5  C2  UNL     1      10.662   7.039   1.427  1.00  0.00     0.054 A
HETATM    6  C1  UNL     1      11.412   7.154   0.268  1.00  0.00     0.119 A
HETATM    7  N5  UNL     1      11.238   8.196  -0.557  1.00  0.00    -0.244 N
HETATM    8  O1  UNL     1      10.367   9.146  -0.315  1.00  0.00    -0.218 OA
ATOM      9  H5  UNL     1      11.804   8.253  -1.403  1.00  0.00     0.196 HD
BRANCH   6  10
HETATM   10  N1  UNL     1      12.296   6.226   0.009  1.00  0.00    -0.384 N
ATOM     11  H12 UNL     1      13.235   6.264   0.407  1.00  0.00     0.157 HD
ATOM     12  H11 UNL     1      12.021   5.453  -0.598  1.00  0.00     0.157 HD
ENDBRANCH   6  10
ENDBRANCH   1   3
BRANCH   1  13
HETATM   13  C5  UNL     1       8.951  11.333   0.358  1.00  0.00     0.149 C
BRANCH  13  14
HETATM   14  C6  UNL     1       8.201  11.381  -0.947  1.00  0.00     0.251 C
BRANCH  14  15
HETATM   15  N3  UNL     1       9.111  11.448  -2.036  1.00  0.00    -0.072 N
ATOM     16  H32 UNL     1       9.556  10.544  -2.192  1.00  0.00     0.277 HD
ATOM     17  H31 UNL     1       8.611  11.545  -2.920  1.00  0.00     0.277 HD
BRANCH  15  18
HETATM   18  C7  UNL     1      10.092  12.478  -1.893  1.00  0.00     0.259 C
BRANCH  18  19
HETATM   19  C8  UNL     1      11.458  11.937  -2.299  1.00  0.00     0.257 C
BRANCH  19  20
HETATM   20  N4  UNL     1      12.219  11.535  -1.108  1.00  0.00    -0.078 N
ATOM     21  H43 UNL     1      12.110  12.201  -0.344  1.00  0.00     0.274 HD
ATOM     22  H42 UNL     1      11.812  10.717  -0.654  1.00  0.00     0.274 HD
ATOM     23  H41 UNL     1      13.199  11.387  -1.349  1.00  0.00     0.274 HD
ENDBRANCH  19  20
ENDBRANCH  18  19
ENDBRANCH  15  18
ENDBRANCH  14  15
ENDBRANCH  13  14
ENDBRANCH   1  13
TORSDOF 8
ENDMDL