MODEL 1
REMARK VINA RESULT: -6.411399932      0.000      0.000
REMARK  3 active torsions:
REMARK  status: ('A' for Active; 'I' for Inactive)
REMARK    1  A    between atoms: C4_6  and  C5_7
REMARK    2  A    between atoms: C5_7  and  N2_8
REMARK    3  A    between atoms: N2_8  and  C6_11
ROOT
HETATM    1  N2  UNL     1       4.322 -71.947 -14.826  1.00  0.00    -0.067 N
ATOM      2  H21 UNL     1       3.650 -72.221 -15.543  1.00  0.00     0.277 HD
ATOM      3  H22 UNL     1       3.709 -71.384 -14.235  1.00  0.00     0.277 HD
ENDROOT
BRANCH   1   4
HETATM    4  C5  UNL     1       5.375 -71.151 -15.383  1.00  0.00     0.257 C
BRANCH   4   5
HETATM    5  C4  UNL     1       5.311 -69.748 -14.776  1.00  0.00     0.102 C
HETATM    6  N1  UNL     1       6.585 -69.425 -14.267  1.00  0.00    -0.415 N
HETATM    7  C3  UNL     1       7.102 -68.136 -14.619  1.00  0.00     0.114 C
ATOM      8  H1  UNL     1       7.110 -70.073 -13.681  1.00  0.00     0.153 HD
HETATM    9  C2  UNL     1       6.283 -66.988 -14.118  1.00  0.00     0.019 C
HETATM   10  C1  UNL     1       5.362 -66.564 -15.252  1.00  0.00     0.002 C
HETATM   11  C12 UNL     1       4.206 -67.546 -15.239  1.00  0.00     0.002 C
HETATM   12  C11 UNL     1       4.745 -68.845 -15.801  1.00  0.00     0.026 C
ENDBRANCH   4   5
ENDBRANCH   1   4
BRANCH   1  13
HETATM   13  C6  UNL     1       4.814 -73.087 -14.119  1.00  0.00     0.211 C
HETATM   14  C7  UNL     1       6.077 -73.655 -14.707  1.00  0.00     0.036 C
HETATM   15  C8  UNL     1       6.553 -74.759 -13.754  1.00  0.00     0.029 C
HETATM   16  C9  UNL     1       7.096 -74.075 -12.530  1.00  0.00     0.232 C
HETATM   17  N3  UNL     1       6.468 -72.791 -12.355  1.00  0.00    -0.073 N
HETATM   18  C10 UNL     1       5.046 -72.814 -12.662  1.00  0.00     0.265 C
ATOM     19  H32 UNL     1       6.634 -72.428 -11.417  1.00  0.00     0.277 HD
ATOM     20  H31 UNL     1       6.948 -72.073 -12.898  1.00  0.00     0.277 HD
ENDBRANCH   1  13
TORSDOF 3
ENDMDL