MODEL 4
REMARK VINA RESULT: -6.270149767      1.544      2.384
REMARK  3 active torsions:
REMARK  status: ('A' for Active; 'I' for Inactive)
REMARK       I    between atoms: C1_4  and  N2_5
REMARK       I    between atoms: C1_4  and  N3_12
REMARK    1  A    between atoms: N2_5  and  C2_7
REMARK    2  A    between atoms: C2_7  and  C3_8
REMARK    3  A    between atoms: N3_12  and  C6_14
ROOT
HETATM    1  N1  UNL     1       4.222 -71.843 -14.067  1.00  0.00    -0.235 N
ATOM      2  H11 UNL     1       3.834 -70.917 -13.886  1.00  0.00     0.174 HD
ATOM      3  H12 UNL     1       3.783 -72.678 -13.678  1.00  0.00     0.174 HD
HETATM    4  C1  UNL     1       5.274 -71.918 -14.797  1.00  0.00     0.667 C
HETATM    5  N2  UNL     1       5.814 -73.212 -15.049  1.00  0.00    -0.224 N
ATOM      6  H2  UNL     1       6.039 -73.466 -16.011  1.00  0.00     0.177 HD
HETATM    7  N3  UNL     1       5.889 -70.748 -15.341  1.00  0.00    -0.222 N
ATOM      8  H3  UNL     1       6.480 -70.857 -16.165  1.00  0.00     0.178 HD
ENDROOT
BRANCH   5   9
HETATM    9  C2  UNL     1       6.059 -74.177 -14.012  1.00  0.00     0.170 C
BRANCH   9  10
HETATM   10  C3  UNL     1       6.964 -73.647 -12.950  1.00  0.00     0.141 C
HETATM   11  C4  UNL     1       7.427 -74.740 -12.015  1.00  0.00     0.060 C
HETATM   12  C5  UNL     1       7.413 -73.530 -11.075  1.00  0.00     0.170 C
HETATM   13  O1  UNL     1       6.366 -73.024 -11.878  1.00  0.00    -0.384 OA
ENDBRANCH   9  10
ENDBRANCH   5   9
BRANCH   7  14
HETATM   14  C6  UNL     1       5.728 -69.442 -14.804  1.00  0.00     0.099 C
HETATM   15  C7  UNL     1       4.728 -68.594 -15.556  1.00  0.00     0.026 C
HETATM   16  C8  UNL     1       5.146 -67.147 -15.390  1.00  0.00     0.002 C
HETATM   17  C9  UNL     1       5.718 -66.874 -14.016  1.00  0.00     0.000 C
HETATM   18  C10 UNL     1       7.069 -67.514 -13.944  1.00  0.00     0.002 C
HETATM   19  C11 UNL     1       7.054 -68.719 -14.869  1.00  0.00     0.026 C
ENDBRANCH   7  14
TORSDOF 3
ENDMDL