MODEL 4
REMARK VINA RESULT: -6.526532081      1.372      1.947
REMARK  3 active torsions:
REMARK  status: ('A' for Active; 'I' for Inactive)
REMARK       I    between atoms: C1_4  and  N2_5
REMARK       I    between atoms: C1_4  and  N3_13
REMARK    1  A    between atoms: N2_5  and  C2_7
REMARK    2  A    between atoms: C2_7  and  C3_8
REMARK    3  A    between atoms: N3_13  and  C7_15
ROOT
HETATM    1  N1  UNL     1       5.929 -72.289 -15.821  1.00  0.00    -0.235 N
ATOM      2  H11 UNL     1       6.673 -71.881 -16.386  1.00  0.00     0.174 HD
ATOM      3  H12 UNL     1       5.429 -73.132 -16.100  1.00  0.00     0.174 HD
HETATM    4  C1  UNL     1       5.633 -71.691 -14.717  1.00  0.00     0.667 C
HETATM    5  N2  UNL     1       4.597 -72.259 -13.930  1.00  0.00    -0.224 N
ATOM      6  H2  UNL     1       4.068 -71.665 -13.293  1.00  0.00     0.177 HD
HETATM    7  N3  UNL     1       6.327 -70.519 -14.329  1.00  0.00    -0.222 N
ATOM      8  H3  UNL     1       7.085 -70.605 -13.653  1.00  0.00     0.178 HD
ENDROOT
BRANCH   5   9
HETATM    9  C2  UNL     1       4.274 -73.690 -14.019  1.00  0.00     0.170 C
BRANCH   9  10
HETATM   10  C3  UNL     1       4.828 -74.393 -12.803  1.00  0.00     0.139 C
HETATM   11  C4  UNL     1       5.774 -75.453 -13.253  1.00  0.00     0.035 C
HETATM   12  C5  UNL     1       7.130 -74.835 -12.914  1.00  0.00     0.029 C
HETATM   13  C6  UNL     1       6.744 -73.960 -11.729  1.00  0.00     0.168 C
HETATM   14  O1  UNL     1       5.503 -73.474 -12.045  1.00  0.00    -0.384 OA
ENDBRANCH   9  10
ENDBRANCH   5   9
BRANCH   7  15
HETATM   15  C7  UNL     1       6.010 -69.208 -14.847  1.00  0.00     0.099 C
HETATM   16  C8  UNL     1       6.135 -68.165 -13.779  1.00  0.00     0.026 C
HETATM   17  C9  UNL     1       5.576 -66.847 -14.172  1.00  0.00     0.002 C
HETATM   18  C10 UNL     1       5.098 -66.732 -15.565  1.00  0.00     0.000 C
HETATM   19  C11 UNL     1       4.357 -67.922 -16.087  1.00  0.00     0.002 C
HETATM   20  C12 UNL     1       4.544 -69.168 -15.299  1.00  0.00     0.026 C
ENDBRANCH   7  15
TORSDOF 3
ENDMDL