MODEL 4
REMARK VINA RESULT: -5.641677592      1.501      1.684
REMARK  3 active torsions:
REMARK  status: ('A' for Active; 'I' for Inactive)
REMARK       I    between atoms: C1_4  and  N3_6
REMARK    1  A    between atoms: N3_6  and  O1_8
REMARK    2  A    between atoms: O1_8  and  C2_9
REMARK    3  A    between atoms: C2_9  and  C3_10
ROOT
HETATM    1  C3  UNL     1       5.650 -72.052 -13.655  1.00  0.00     0.020 C
HETATM    2  C4  UNL     1       4.440 -72.637 -13.001  1.00  0.00    -0.007 C
HETATM    3  C5  UNL     1       4.747 -73.097 -11.586  1.00  0.00     0.010 C
HETATM    4  C6  UNL     1       5.867 -74.113 -11.627  1.00  0.00    -0.013 C
HETATM    5  C7  UNL     1       5.382 -75.298 -12.436  1.00  0.00     0.009 C
HETATM    6  C8  UNL     1       5.005 -74.876 -13.837  1.00  0.00    -0.013 C
HETATM    7  C9  UNL     1       3.926 -73.841 -13.752  1.00  0.00     0.010 C
HETATM    8  C10 UNL     1       6.235 -74.318 -14.494  1.00  0.00     0.010 C
HETATM    9  C11 UNL     1       6.730 -73.105 -13.721  1.00  0.00    -0.007 C
HETATM   10  C12 UNL     1       7.091 -73.561 -12.345  1.00  0.00     0.010 C
ENDROOT
BRANCH   1  11
HETATM   11  C2  UNL     1       5.264 -71.612 -15.048  1.00  0.00     0.206 C
BRANCH  11  12
HETATM   12  O1  UNL     1       6.175 -70.662 -15.459  1.00  0.00    -0.278 OA
BRANCH  12  13
HETATM   13  N3  UNL     1       6.480 -69.767 -14.514  1.00  0.00    -0.239 N
HETATM   14  C1  UNL     1       6.991 -68.508 -14.885  1.00  0.00     0.205 C
HETATM   15  N1  UNL     1       6.327 -67.424 -14.665  1.00  0.00    -0.372 N
HETATM   16  N2  UNL     1       8.262 -68.367 -15.519  1.00  0.00    -0.062 NA
ATOM     17  H12 UNL     1       6.697 -66.512 -14.934  1.00  0.00     0.158 HD
ATOM     18  H11 UNL     1       5.418 -67.524 -14.212  1.00  0.00     0.158 HD
ATOM     19  H3  UNL     1       6.342 -69.994 -13.530  1.00  0.00     0.197 HD
ENDBRANCH  12  13
ENDBRANCH  11  12
ENDBRANCH   1  11
TORSDOF 3
ENDMDL