MODEL 4
REMARK VINA RESULT: -5.908306583      1.007      2.229
REMARK  3 active torsions:
REMARK  status: ('A' for Active; 'I' for Inactive)
REMARK    1  A    between atoms: C3_3  and  N1_4
REMARK    2  A    between atoms: N1_4  and  C4_6
REMARK    3  A    between atoms: C4_6  and  C5_7
ROOT
HETATM    1  N1  UNL     1       4.698 -70.274 -15.199  1.00  0.00    -0.416 N
ATOM      2  H1  UNL     1       3.694 -70.456 -15.222  1.00  0.00     0.153 HD
ENDROOT
BRANCH   1   3
HETATM    3  C3  UNL     1       5.194 -68.991 -14.941  1.00  0.00     0.079 C
HETATM    4  C2  UNL     1       4.616 -67.896 -15.816  1.00  0.00     0.052 C
HETATM    5  C1  UNL     1       5.022 -66.580 -15.188  1.00  0.00     0.234 C
HETATM    6  N2  UNL     1       5.798 -66.797 -13.986  1.00  0.00    -0.075 N
HETATM    7  C14 UNL     1       6.994 -67.547 -14.189  1.00  0.00     0.234 C
ATOM      8  H22 UNL     1       6.007 -65.909 -13.532  1.00  0.00     0.277 HD
ATOM      9  H21 UNL     1       5.223 -67.231 -13.263  1.00  0.00     0.277 HD
HETATM   10  C13 UNL     1       6.689 -68.814 -14.987  1.00  0.00     0.052 C
ENDBRANCH   1   3
BRANCH   1  11
HETATM   11  C4  UNL     1       5.657 -71.332 -15.433  1.00  0.00     0.124 C
BRANCH  11  12
HETATM   12  C5  UNL     1       5.483 -72.280 -14.307  1.00  0.00    -0.017 C
HETATM   13  C6  UNL     1       4.927 -71.667 -13.029  1.00  0.00     0.016 C
HETATM   14  C7  UNL     1       4.976 -72.935 -12.181  1.00  0.00    -0.013 C
HETATM   15  C8  UNL     1       4.221 -73.884 -13.049  1.00  0.00     0.010 C
HETATM   16  C12 UNL     1       6.452 -73.241 -12.302  1.00  0.00     0.010 C
HETATM   17  C9  UNL     1       4.759 -73.550 -14.453  1.00  0.00    -0.003 C
HETATM   18  C10 UNL     1       6.130 -74.241 -14.596  1.00  0.00     0.011 C
HETATM   19  C11 UNL     1       6.672 -73.043 -13.804  1.00  0.00    -0.003 C
ENDBRANCH  11  12
ENDBRANCH   1  11
TORSDOF 3
ENDMDL