MODEL 1
REMARK VINA RESULT: -6.051181983      0.000      0.000
REMARK  3 active torsions:
REMARK  status: ('A' for Active; 'I' for Inactive)
REMARK    1  A    between atoms: C5_5  and  N1_6
REMARK    2  A    between atoms: N1_6  and  C6_8
REMARK    3  A    between atoms: C6_8  and  C7_9
ROOT
HETATM    1  N1  UNL     1       4.578 -71.112 -14.683  1.00  0.00    -0.397 N
ATOM      2  H1  UNL     1       4.495 -70.827 -13.707  1.00  0.00     0.159 HD
ENDROOT
BRANCH   1   3
HETATM    3  C5  UNL     1       4.858 -72.439 -14.906  1.00  0.00     0.080 C
HETATM    4  C4  UNL     1       6.224 -72.975 -15.052  1.00  0.00     0.025 C
HETATM    5  C3  UNL     1       6.957 -73.247 -13.756  1.00  0.00     0.002 C
HETATM    6  C2  UNL     1       6.859 -74.717 -13.395  1.00  0.00     0.000 C
HETATM    7  C1  UNL     1       5.495 -75.145 -12.994  1.00  0.00     0.000 C
HETATM    8  C13 UNL     1       4.384 -74.696 -13.924  1.00  0.00     0.002 C
HETATM    9  C12 UNL     1       4.176 -73.231 -13.760  1.00  0.00     0.025 C
ENDBRANCH   1   3
BRANCH   1  10
HETATM   10  C6  UNL     1       4.394 -70.114 -15.632  1.00  0.00     0.060 C
BRANCH  10  11
HETATM   11  C7  UNL     1       5.321 -68.959 -15.503  1.00  0.00     0.027 C
HETATM   12  C8  UNL     1       4.407 -67.721 -15.289  1.00  0.00     0.037 C
HETATM   13  C9  UNL     1       5.354 -66.555 -15.191  1.00  0.00     0.233 C
HETATM   14  N2  UNL     1       6.042 -66.618 -13.931  1.00  0.00    -0.075 N
HETATM   15  C10 UNL     1       5.987 -67.917 -13.315  1.00  0.00     0.233 C
ATOM     16  H22 UNL     1       7.007 -66.305 -14.030  1.00  0.00     0.277 HD
ATOM     17  H21 UNL     1       5.696 -65.901 -13.294  1.00  0.00     0.277 HD
HETATM   18  C11 UNL     1       6.194 -69.049 -14.262  1.00  0.00     0.037 C
ENDBRANCH  10  11
ENDBRANCH   1  10
TORSDOF 3
ENDMDL