MODEL 1
REMARK VINA RESULT: -6.044360505      0.000      0.000
REMARK  5 active torsions:
REMARK  status: ('A' for Active; 'I' for Inactive)
REMARK    1  A    between atoms: N1_2  and  C2_4
REMARK    2  A    between atoms: N2_5  and  N3_7
REMARK    3  A    between atoms: N3_7  and  C3_9
REMARK    4  A    between atoms: C3_9  and  N4_11
REMARK    5  A    between atoms: N4_11  and  C4_13
ROOT
HETATM    1  C3  UNL     1       6.435 -71.600 -14.565  1.00  0.00     0.186 C
HETATM    2  S1  UNL     1       5.358 -72.346 -15.528  1.00  0.00    -0.040 SA
ENDROOT
BRANCH   1   3
HETATM    3  N3  UNL     1       7.553 -72.324 -14.104  1.00  0.00    -0.276 N
ATOM      4  H3  UNL     1       8.343 -72.514 -14.721  1.00  0.00     0.189 HD
BRANCH   3   5
HETATM    5  N2  UNL     1       7.552 -72.776 -12.775  1.00  0.00    -0.294 N
HETATM    6  C2  UNL     1       6.800 -73.774 -12.487  1.00  0.00     0.192 C
ATOM      7  H2  UNL     1       8.129 -72.326 -12.064  1.00  0.00     0.187 HD
BRANCH   6   8
HETATM    8  N1  UNL     1       6.760 -74.273 -11.159  1.00  0.00    -0.389 N
HETATM    9  C1  UNL     1       7.848 -73.873 -10.275  1.00  0.00     0.147 C
ATOM     10  H1  UNL     1       6.006 -74.881 -10.839  1.00  0.00     0.159 HD
ENDBRANCH   6   8
ENDBRANCH   3   5
ENDBRANCH   1   3
BRANCH   1  11
HETATM   11  N4  UNL     1       6.282 -70.251 -14.174  1.00  0.00    -0.361 N
ATOM     12  H4  UNL     1       6.293 -70.056 -13.173  1.00  0.00     0.162 HD
BRANCH  11  13
HETATM   13  C4  UNL     1       6.112 -69.129 -15.055  1.00  0.00     0.083 C
HETATM   14  C5  UNL     1       6.762 -67.893 -14.488  1.00  0.00     0.025 C
HETATM   15  C6  UNL     1       5.700 -66.935 -14.031  1.00  0.00     0.002 C
HETATM   16  C7  UNL     1       5.036 -66.357 -15.272  1.00  0.00     0.000 C
HETATM   17  C8  UNL     1       4.427 -67.518 -16.008  1.00  0.00     0.002 C
HETATM   18  C9  UNL     1       4.652 -68.842 -15.314  1.00  0.00     0.025 C
ENDBRANCH  11  13
ENDBRANCH   1  11
TORSDOF 5
ENDMDL