MODEL 5
REMARK VINA RESULT: -6.185072255      1.411      6.584
REMARK  3 active torsions:
REMARK  status: ('A' for Active; 'I' for Inactive)
REMARK       I    between atoms: C1_2  and  N3_10
REMARK    1  A    between atoms: N2_3  and  C2_5
REMARK    2  A    between atoms: N3_10  and  N4_12
REMARK    3  A    between atoms: N4_12  and  C7_14
ROOT
HETATM    1  N1  UNL     1       6.040 -72.822 -15.820  1.00  0.00    -0.062 NA
HETATM    2  C1  UNL     1       5.750 -72.231 -14.570  1.00  0.00     0.203 C
HETATM    3  N2  UNL     1       6.043 -72.908 -13.516  1.00  0.00    -0.359 N
ATOM      4  H2  UNL     1       5.836 -72.489 -12.610  1.00  0.00     0.162 HD
HETATM    5  N3  UNL     1       5.162 -70.951 -14.430  1.00  0.00    -0.278 N
ATOM      6  H3  UNL     1       4.181 -70.817 -14.672  1.00  0.00     0.189 HD
ENDROOT
BRANCH   3   7
HETATM    7  C2  UNL     1       6.639 -74.211 -13.528  1.00  0.00     0.084 C
HETATM    8  C3  UNL     1       5.631 -75.331 -13.457  1.00  0.00     0.025 C
HETATM    9  C4  UNL     1       6.520 -76.525 -13.171  1.00  0.00     0.002 C
HETATM   10  C5  UNL     1       7.749 -75.974 -12.475  1.00  0.00     0.002 C
HETATM   11  C6  UNL     1       7.478 -74.492 -12.304  1.00  0.00     0.025 C
ENDBRANCH   3   7
BRANCH   5  12
HETATM   12  N4  UNL     1       5.899 -69.892 -13.971  1.00  0.00    -0.329 N
ATOM     13  H4  UNL     1       6.450 -69.941 -13.114  1.00  0.00     0.180 HD
BRANCH  12  14
HETATM   14  C7  UNL     1       5.842 -68.714 -14.775  1.00  0.00     0.099 C
HETATM   15  C8  UNL     1       4.704 -68.674 -15.747  1.00  0.00     0.026 C
HETATM   16  C9  UNL     1       4.211 -67.249 -15.816  1.00  0.00     0.002 C
HETATM   17  C10 UNL     1       5.325 -66.480 -15.142  1.00  0.00     0.002 C
HETATM   18  C11 UNL     1       5.636 -67.441 -13.984  1.00  0.00     0.026 C
ENDBRANCH  12  14
ENDBRANCH   5  12
TORSDOF 3
ENDMDL