MODEL 2
REMARK VINA RESULT: -5.458910772      1.935      3.224
REMARK  3 active torsions:
REMARK  status: ('A' for Active; 'I' for Inactive)
REMARK    1  A    between atoms: C1_4  and  C2_6
REMARK    2  A    between atoms: C2_6  and  N3_7
REMARK    3  A    between atoms: N3_7  and  C3_10
ROOT
HETATM    1  C3  UNL     1       6.156 -72.504 -13.636  1.00  0.00     0.127 C
HETATM    2  C4  UNL     1       4.934 -71.803 -13.104  1.00  0.00     0.039 C
HETATM    3  C5  UNL     1       4.001 -72.599 -12.293  1.00  0.00     0.007 C
HETATM    4  C6  UNL     1       4.097 -74.084 -12.335  1.00  0.00    -0.014 C
HETATM    5  C7  UNL     1       4.021 -74.704 -13.691  1.00  0.00     0.009 C
HETATM    6  C8  UNL     1       5.353 -74.775 -14.388  1.00  0.00    -0.012 C
HETATM    7  C9  UNL     1       6.396 -75.404 -13.531  1.00  0.00     0.009 C
HETATM    8  C10 UNL     1       6.552 -74.583 -12.282  1.00  0.00    -0.012 C
HETATM    9  C11 UNL     1       5.278 -74.624 -11.516  1.00  0.00     0.009 C
HETATM   10  C12 UNL     1       6.928 -73.152 -12.563  1.00  0.00     0.043 C
HETATM   11  C13 UNL     1       5.742 -73.400 -14.790  1.00  0.00     0.043 C
ENDROOT
BRANCH   1  12
HETATM   12  N3  UNL     1       6.972 -71.462 -14.262  1.00  0.00    -0.060 N
ATOM     13  H32 UNL     1       7.636 -71.869 -14.921  1.00  0.00     0.278 HD
ATOM     14  H31 UNL     1       7.626 -71.062 -13.588  1.00  0.00     0.278 HD
BRANCH  12  15
HETATM   15  C2  UNL     1       6.200 -70.431 -14.892  1.00  0.00     0.305 C
BRANCH  15  16
HETATM   16  C1  UNL     1       6.860 -69.101 -14.657  1.00  0.00     0.112 C
HETATM   17  N1  UNL     1       6.488 -68.311 -13.718  1.00  0.00    -0.390 N
ATOM     18  H12 UNL     1       6.935 -67.408 -13.558  1.00  0.00     0.157 HD
ATOM     19  H11 UNL     1       5.730 -68.615 -13.108  1.00  0.00     0.157 HD
HETATM   20  N2  UNL     1       7.921 -68.674 -15.511  1.00  0.00    -0.086 NA
ENDBRANCH  15  16
ENDBRANCH  12  15
ENDBRANCH   1  12
TORSDOF 3
ENDMDL