MODEL 4
REMARK VINA RESULT: -5.531225217      1.304      6.304
REMARK  4 active torsions:
REMARK  status: ('A' for Active; 'I' for Inactive)
REMARK    1  A    between atoms: C2_2  and  N1_3
REMARK    2  A    between atoms: C2_2  and  N2_7
REMARK    3  A    between atoms: N2_7  and  C3_9
REMARK    4  A    between atoms: C6_12  and  C7_13
ROOT
HETATM    1  C3  UNL     1       6.245 -69.872 -14.749  1.00  0.00     0.078 C
HETATM    2  C4  UNL     1       7.395 -70.696 -15.254  1.00  0.00     0.025 C
HETATM    3  C5  UNL     1       7.353 -72.008 -14.458  1.00  0.00     0.009 C
HETATM    4  C6  UNL     1       6.066 -72.691 -14.799  1.00  0.00     0.016 C
HETATM    5  C11 UNL     1       4.904 -71.912 -14.223  1.00  0.00     0.009 C
HETATM    6  C12 UNL     1       4.920 -70.550 -14.897  1.00  0.00     0.025 C
ENDROOT
BRANCH   1   7
HETATM    7  N2  UNL     1       6.179 -68.535 -15.183  1.00  0.00    -0.392 N
ATOM      8  H2  UNL     1       6.602 -68.263 -16.070  1.00  0.00     0.155 HD
BRANCH   7   9
HETATM    9  C2  UNL     1       5.525 -67.572 -14.383  1.00  0.00     0.273 C
HETATM   10  C1  UNL     1       4.932 -66.531 -15.356  1.00  0.00     0.062 C
BRANCH   9  11
HETATM   11  N1  UNL     1       6.397 -66.771 -13.533  1.00  0.00    -0.059 N
ATOM     12  H13 UNL     1       5.908 -66.144 -12.895  1.00  0.00     0.276 HD
ATOM     13  H12 UNL     1       6.884 -67.298 -12.809  1.00  0.00     0.276 HD
ATOM     14  H11 UNL     1       7.008 -66.304 -14.203  1.00  0.00     0.276 HD
ENDBRANCH   9  11
ENDBRANCH   7   9
ENDBRANCH   1   7
BRANCH   4  15
HETATM   15  C7  UNL     1       6.011 -74.144 -14.447  1.00  0.00     0.190 C
HETATM   16  C8  UNL     1       4.753 -74.542 -13.706  1.00  0.00     0.035 C
HETATM   17  C9  UNL     1       5.122 -75.958 -13.266  1.00  0.00     0.029 C
HETATM   18  C10 UNL     1       6.617 -75.941 -13.217  1.00  0.00     0.233 C
HETATM   19  N3  UNL     1       7.041 -74.589 -13.553  1.00  0.00    -0.070 N
ATOM     20  H32 UNL     1       7.988 -74.518 -13.924  1.00  0.00     0.277 HD
ATOM     21  H31 UNL     1       7.201 -73.979 -12.750  1.00  0.00     0.277 HD
ENDBRANCH   4  15
TORSDOF 4
ENDMDL