MODEL 4
REMARK VINA RESULT: -3.661832316      2.608      5.003
REMARK  2 active torsions:
REMARK  status: ('A' for Active; 'I' for Inactive)
REMARK    1  A    between atoms: N1_1  and  C1_4
REMARK    2  A    between atoms: N4_14  and  N5_15
ROOT
HETATM    1  C1  UNL     1      19.636  17.469  23.305  1.00  0.00     0.680 A
HETATM    2  N2  UNL     1      20.870  17.063  22.941  1.00  0.00    -0.154 N
ATOM      3  H2  UNL     1      21.116  16.083  23.078  1.00  0.00     0.187 HD
HETATM    4  C2  UNL     1      21.791  17.879  22.409  1.00  0.00     0.290 A
HETATM    5  O1  UNL     1      22.944  17.489  22.073  1.00  0.00    -0.265 OA
HETATM    6  C3  UNL     1      21.468  19.201  22.221  1.00  0.00     0.152 A
HETATM    7  N3  UNL     1      22.119  20.280  21.728  1.00  0.00    -0.299 N
ATOM      8  H3  UNL     1      23.074  20.300  21.368  1.00  0.00     0.171 HD
HETATM    9  C4  UNL     1      21.261  21.330  21.800  1.00  0.00     0.347 A
HETATM   10  O2  UNL     1      21.501  22.511  21.436  1.00  0.00    -0.245 OA
HETATM   11  N4  UNL     1      20.093  20.937  22.325  1.00  0.00    -0.192 N
HETATM   12  C5  UNL     1      20.204  19.617  22.593  1.00  0.00     0.179 A
HETATM   13  N6  UNL     1      19.303  18.755  23.128  1.00  0.00    -0.172 N
ATOM     14  H6  UNL     1      18.375  19.084  23.395  1.00  0.00     0.186 HD
ENDROOT
BRANCH   1  15
HETATM   15  N1  UNL     1      18.815  16.607  23.810  1.00  0.00    -0.234 N
ATOM     16  H12 UNL     1      17.907  16.410  23.388  1.00  0.00     0.174 HD
ATOM     17  H11 UNL     1      19.081  16.106  24.658  1.00  0.00     0.174 HD
ENDBRANCH   1  15
BRANCH  11  18
HETATM   18  N5  UNL     1      18.993  21.740  22.546  1.00  0.00    -0.333 N
ATOM     19  H52 UNL     1      18.132  21.482  23.028  1.00  0.00     0.177 HD
ATOM     20  H51 UNL     1      18.893  22.713  22.255  1.00  0.00     0.177 HD
ENDBRANCH  11  18
TORSDOF 2
ENDMDL