MODEL 2
REMARK VINA RESULT: -4.012672026      0.074      3.688
REMARK  4 active torsions:
REMARK  status: ('A' for Active; 'I' for Inactive)
REMARK    1  A    between atoms: N1_1  and  N2_4
REMARK       I    between atoms: N2_4  and  C1_6
REMARK    2  A    between atoms: C1_6  and  C2_8
REMARK    3  A    between atoms: C3_15  and  C4_16
REMARK       I    between atoms: C4_16  and  N6_18
REMARK    4  A    between atoms: N6_18  and  N7_20
ROOT
HETATM    1  C2  UNL     1      18.843  18.585  27.062  1.00  0.00     0.152 A
HETATM    2  N3  UNL     1      18.972  19.920  27.387  1.00  0.00    -0.279 N
ATOM      3  H3  UNL     1      18.885  20.294  28.332  1.00  0.00     0.189 HD
HETATM    4  N4  UNL     1      19.221  20.637  26.330  1.00  0.00    -0.241 N
ATOM      5  H4  UNL     1      19.358  21.648  26.301  1.00  0.00     0.208 HD
HETATM    6  N5  UNL     1      19.260  19.818  25.315  1.00  0.00    -0.279 N
ATOM      7  H5  UNL     1      19.438  20.100  24.352  1.00  0.00     0.189 HD
HETATM    8  C3  UNL     1      19.030  18.526  25.718  1.00  0.00     0.152 A
ENDROOT
BRANCH   1   9
HETATM    9  C1  UNL     1      18.564  17.529  28.014  1.00  0.00     0.290 C
HETATM   10  N2  UNL     1      17.508  16.610  27.712  1.00  0.00    -0.271 N
ATOM     11  H2  UNL     1      16.988  16.723  26.842  1.00  0.00     0.189 HD
HETATM   12  O1  UNL     1      19.152  17.330  29.085  1.00  0.00    -0.264 OA
BRANCH  10  13
HETATM   13  N1  UNL     1      17.173  15.569  28.569  1.00  0.00    -0.342 N
ATOM     14  H12 UNL     1      16.395  15.709  29.212  1.00  0.00     0.176 HD
ATOM     15  H11 UNL     1      17.681  14.685  28.567  1.00  0.00     0.176 HD
ENDBRANCH  10  13
ENDBRANCH   1   9
BRANCH   8  16
HETATM   16  C4  UNL     1      19.015  17.403  24.803  1.00  0.00     0.290 C
HETATM   17  O2  UNL     1      18.152  17.246  23.932  1.00  0.00    -0.264 OA
HETATM   18  N6  UNL     1      20.034  16.393  24.870  1.00  0.00    -0.271 N
ATOM     19  H6  UNL     1      20.780  16.454  25.563  1.00  0.00     0.189 HD
BRANCH  18  20
HETATM   20  N7  UNL     1      19.987  15.333  23.978  1.00  0.00    -0.342 N
ATOM     21  H72 UNL     1      20.302  15.469  23.017  1.00  0.00     0.176 HD
ATOM     22  H71 UNL     1      19.635  14.432  24.301  1.00  0.00     0.176 HD
ENDBRANCH  18  20
ENDBRANCH   8  16
TORSDOF 4
ENDMDL