MODEL 1
REMARK VINA RESULT: -3.743736585      0.000      0.000
REMARK  2 active torsions:
REMARK  status: ('A' for Active; 'I' for Inactive)
REMARK    1  A    between atoms: C1_4  and  C2_5
REMARK       I    between atoms: C2_5  and  N2_7
REMARK    2  A    between atoms: C3_8  and  N3_9
ROOT
HETATM    1  C2  UNL     1      20.819  19.003  22.237  1.00  0.00     0.285 C
HETATM    2  O1  UNL     1      21.840  19.271  21.491  1.00  0.00    -0.265 OA
HETATM    3  N2  UNL     1      20.778  17.714  22.774  1.00  0.00    -0.058 N
HETATM    4  C3  UNL     1      19.829  17.207  23.570  1.00  0.00     0.693 A
HETATM    5  N4  UNL     1      19.834  15.941  24.069  1.00  0.00    -0.141 N
ATOM      6  H4  UNL     1      19.082  15.606  24.672  1.00  0.00     0.189 HD
HETATM    7  C4  UNL     1      20.862  15.150  23.738  1.00  0.00     0.342 A
HETATM    8  O2  UNL     1      20.920  13.962  24.174  1.00  0.00    -0.246 OA
HETATM    9  N5  UNL     1      21.838  15.613  22.943  1.00  0.00    -0.259 N
ATOM     10  H5  UNL     1      22.618  15.005  22.694  1.00  0.00     0.175 HD
HETATM   11  C5  UNL     1      21.797  16.850  22.478  1.00  0.00     0.352 A
HETATM   12  O3  UNL     1      22.749  17.231  21.729  1.00  0.00    -0.245 OA
ENDROOT
BRANCH   1  13
HETATM   13  C1  UNL     1      19.862  20.042  22.425  1.00  0.00     0.157 C
HETATM   14  N1  UNL     1      19.050  20.330  21.435  1.00  0.00    -0.404 N
ATOM     15  H12 UNL     1      19.116  19.814  20.558  1.00  0.00     0.155 HD
ATOM     16  H11 UNL     1      18.365  21.074  21.570  1.00  0.00     0.155 HD
ENDBRANCH   1  13
BRANCH   4  17
HETATM   17  N3  UNL     1      18.832  17.917  23.914  1.00  0.00    -0.234 N
ATOM     18  H32 UNL     1      18.002  17.806  23.331  1.00  0.00     0.174 HD
ATOM     19  H31 UNL     1      18.896  18.539  24.719  1.00  0.00     0.174 HD
ENDBRANCH   4  17
TORSDOF 2
ENDMDL