MODEL 3
REMARK VINA RESULT: -3.892364258      1.792      2.662
REMARK  3 active torsions:
REMARK  status: ('A' for Active; 'I' for Inactive)
REMARK    1  A    between atoms: C3_6  and  N2_7
REMARK    2  A    between atoms: N2_7  and  N3_9
REMARK    3  A    between atoms: N3_9  and  C4_11
ROOT
HETATM    1  N2  UNL     1      19.221  18.418  23.152  1.00  0.00    -0.268 N
ATOM      2  H2  UNL     1      18.625  18.735  23.918  1.00  0.00     0.190 HD
ENDROOT
BRANCH   1   3
HETATM    3  C3  UNL     1      20.013  17.249  23.322  1.00  0.00     0.197 A
HETATM    4  N1  UNL     1      21.224  17.099  22.924  1.00  0.00    -0.352 N
HETATM    5  C2  UNL     1      21.779  15.822  23.229  1.00  0.00     0.225 A
ATOM      6  H1  UNL     1      21.743  17.829  22.434  1.00  0.00     0.163 HD
HETATM    7  C1  UNL     1      20.674  15.121  23.928  1.00  0.00     0.242 A
HETATM    8  O1  UNL     1      20.738  13.946  24.377  1.00  0.00    -0.271 OA
HETATM    9  N6  UNL     1      19.594  16.051  23.963  1.00  0.00    -0.296 N
ATOM     10  H6  UNL     1      18.677  15.886  24.377  1.00  0.00     0.172 HD
ENDBRANCH   1   3
BRANCH   1  11
HETATM   11  N3  UNL     1      19.242  19.140  21.955  1.00  0.00    -0.269 N
ATOM     12  H3  UNL     1      18.873  18.711  21.107  1.00  0.00     0.190 HD
BRANCH  11  13
HETATM   13  C4  UNL     1      19.776  20.480  21.891  1.00  0.00     0.190 C
HETATM   14  N4  UNL     1      20.960  20.830  21.542  1.00  0.00    -0.360 N
HETATM   15  C5  UNL     1      21.171  22.256  21.588  1.00  0.00     0.142 C
ATOM     16  H4  UNL     1      21.682  20.165  21.261  1.00  0.00     0.162 HD
HETATM   17  C6  UNL     1      19.820  22.840  21.861  1.00  0.00     0.142 C
HETATM   18  N5  UNL     1      19.057  21.657  22.212  1.00  0.00    -0.360 N
ATOM     19  H5  UNL     1      18.129  21.670  22.633  1.00  0.00     0.162 HD
ENDBRANCH  11  13
ENDBRANCH   1  11
TORSDOF 3
ENDMDL