MODEL 4
REMARK VINA RESULT: -3.821702650      2.125      2.859
REMARK  4 active torsions:
REMARK  status: ('A' for Active; 'I' for Inactive)
REMARK    1  A    between atoms: C3_7  and  N3_8
REMARK    2  A    between atoms: C4_13  and  N5_14
REMARK    3  A    between atoms: N5_14  and  N6_16
REMARK    4  A    between atoms: N6_16  and  C5_18
ROOT
HETATM    1  C1  UNL     1      20.941  18.745  22.251  1.00  0.00     0.180 C
HETATM    2  N1  UNL     1      20.893  17.427  22.850  1.00  0.00    -0.135 N
HETATM    3  C2  UNL     1      21.797  16.465  22.611  1.00  0.00     0.354 A
HETATM    4  O1  UNL     1      22.769  16.703  21.810  1.00  0.00    -0.245 OA
HETATM    5  N2  UNL     1      21.691  15.264  23.202  1.00  0.00    -0.140 N
ATOM      6  H2  UNL     1      22.382  14.537  23.015  1.00  0.00     0.189 HD
HETATM    7  C3  UNL     1      20.668  15.024  24.041  1.00  0.00     0.694 A
HETATM    8  N4  UNL     1      19.749  15.975  24.297  1.00  0.00    -0.021 N
ATOM      9  H4  UNL     1      18.972  15.795  24.934  1.00  0.00     0.203 HD
HETATM   10  C4  UNL     1      19.881  17.162  23.691  1.00  0.00     0.717 A
ENDROOT
BRANCH  10  11
HETATM   11  N5  UNL     1      18.973  18.072  23.956  1.00  0.00    -0.130 N
ATOM     12  H5  UNL     1      18.383  18.413  23.198  1.00  0.00     0.205 HD
BRANCH  11  13
HETATM   13  N6  UNL     1      18.790  18.581  25.221  1.00  0.00    -0.282 N
ATOM     14  H6  UNL     1      18.119  18.123  25.837  1.00  0.00     0.188 HD
BRANCH  13  15
HETATM   15  C5  UNL     1      19.500  19.728  25.714  1.00  0.00     0.191 C
HETATM   16  N7  UNL     1      19.087  20.880  25.320  1.00  0.00    -0.394 N
ATOM     17  H72 UNL     1      18.292  20.959  24.686  1.00  0.00     0.156 HD
ATOM     18  H71 UNL     1      19.591  21.694  25.670  1.00  0.00     0.156 HD
ENDBRANCH  13  15
ENDBRANCH  11  13
ENDBRANCH  10  11
BRANCH   7  19
HETATM   19  N3  UNL     1      20.556  13.885  24.611  1.00  0.00    -0.234 N
ATOM     20  H32 UNL     1      19.643  13.432  24.633  1.00  0.00     0.174 HD
ATOM     21  H31 UNL     1      21.370  13.440  25.035  1.00  0.00     0.174 HD
ENDBRANCH   7  19
TORSDOF 4
ENDMDL