MODEL 1
REMARK VINA RESULT: -3.958901683      0.000      0.000
REMARK  2 active torsions:
REMARK  status: ('A' for Active; 'I' for Inactive)
REMARK    1  A    between atoms: N1_1  and  N2_4
REMARK       I    between atoms: N2_4  and  C1_5
REMARK    2  A    between atoms: C1_5  and  C2_7
ROOT
HETATM    1  C2  UNL     1      20.012  16.458  23.625  1.00  0.00     0.151 A
HETATM    2  N3  UNL     1      20.117  15.205  24.061  1.00  0.00    -0.301 N
ATOM      3  H3  UNL     1      19.359  14.792  24.604  1.00  0.00     0.171 HD
HETATM    4  C3  UNL     1      21.236  14.470  23.784  1.00  0.00     0.327 A
HETATM    5  O2  UNL     1      21.360  13.279  24.186  1.00  0.00    -0.247 OA
HETATM    6  N4  UNL     1      22.242  14.987  23.071  1.00  0.00    -0.274 N
ATOM      7  H4  UNL     1      23.073  14.432  22.867  1.00  0.00     0.173 HD
HETATM    8  C4  UNL     1      22.139  16.268  22.623  1.00  0.00     0.276 A
HETATM    9  O3  UNL     1      23.093  16.743  21.959  1.00  0.00    -0.266 OA
HETATM   10  C5  UNL     1      21.026  17.018  22.893  1.00  0.00     0.147 A
HETATM   11  N5  UNL     1      20.940  18.369  22.424  1.00  0.00    -0.094 NA
ENDROOT
BRANCH   1  12
HETATM   12  C1  UNL     1      18.805  17.284  23.891  1.00  0.00     0.363 C
HETATM   13  N2  UNL     1      18.941  18.348  24.758  1.00  0.00    -0.287 NA
HETATM   14  O1  UNL     1      17.732  16.936  23.288  1.00  0.00    -0.247 OA
BRANCH  13  15
HETATM   15  N1  UNL     1      19.070  19.350  25.573  1.00  0.00    -0.276 N
ATOM     16  H12 UNL     1      18.952  18.573  24.923  1.00  0.00     0.191 HD
ATOM     17  H11 UNL     1      19.171  20.137  26.214  1.00  0.00     0.191 HD
ENDBRANCH  13  15
ENDBRANCH   1  12
TORSDOF 2
ENDMDL