MODEL 2
REMARK VINA RESULT: -3.875711720      2.369      3.034
REMARK  3 active torsions:
REMARK  status: ('A' for Active; 'I' for Inactive)
REMARK    1  A    between atoms: N1_1  and  C1_4
REMARK    2  A    between atoms: C2_7  and  C3_8
REMARK       I    between atoms: C3_8  and  N3_10
REMARK    3  A    between atoms: N3_10  and  N4_12
ROOT
HETATM    1  C1  UNL     1      21.581  16.230  22.796  1.00  0.00     0.171 A
HETATM    2  N2  UNL     1      20.918  17.281  23.350  1.00  0.00    -0.319 N
ATOM      3  H2  UNL     1      21.060  18.215  22.965  1.00  0.00     0.169 HD
HETATM    4  C2  UNL     1      20.088  17.127  24.381  1.00  0.00     0.192 A
HETATM    5  N5  UNL     1      19.926  15.865  24.864  1.00  0.00    -0.278 N
ATOM      6  H5  UNL     1      19.294  15.729  25.653  1.00  0.00     0.189 HD
HETATM    7  N6  UNL     1      20.541  14.809  24.368  1.00  0.00    -0.262 N
ATOM      8  H6  UNL     1      20.390  13.879  24.762  1.00  0.00     0.190 HD
HETATM    9  C4  UNL     1      21.370  14.993  23.331  1.00  0.00     0.303 A
HETATM   10  O2  UNL     1      21.978  14.012  22.826  1.00  0.00    -0.263 OA
ENDROOT
BRANCH   4  11
HETATM   11  C3  UNL     1      19.368  18.235  24.991  1.00  0.00     0.304 C
HETATM   12  O1  UNL     1      18.387  18.030  25.768  1.00  0.00    -0.263 OA
HETATM   13  N3  UNL     1      19.734  19.577  24.743  1.00  0.00    -0.270 N
ATOM     14  H3  UNL     1      20.515  19.804  24.127  1.00  0.00     0.189 HD
BRANCH  13  15
HETATM   15  N4  UNL     1      18.988  20.591  25.369  1.00  0.00    -0.342 N
ATOM     16  H42 UNL     1      18.798  20.541  26.370  1.00  0.00     0.176 HD
ATOM     17  H41 UNL     1      18.651  21.364  24.794  1.00  0.00     0.176 HD
ENDBRANCH  13  15
ENDBRANCH   4  11
BRANCH   1  18
HETATM   18  N1  UNL     1      22.372  16.432  21.800  1.00  0.00    -0.381 N
ATOM     19  H12 UNL     1      22.859  17.317  21.652  1.00  0.00     0.157 HD
ATOM     20  H11 UNL     1      22.530  15.686  21.123  1.00  0.00     0.157 HD
ENDBRANCH   1  18
TORSDOF 3
ENDMDL