MODEL 2
REMARK VINA RESULT: -3.962718316      0.759      2.810
REMARK  4 active torsions:
REMARK  status: ('A' for Active; 'I' for Inactive)
REMARK    1  A    between atoms: N1_2  and  C2_4
REMARK    2  A    between atoms: C3_7  and  C4_8
REMARK       I    between atoms: C4_8  and  N3_10
REMARK    3  A    between atoms: N3_10  and  N4_12
REMARK    4  A    between atoms: C5_17  and  N6_18
ROOT
HETATM    1  C2  UNL     1      19.629  17.784  23.831  1.00  0.00     0.694 A
HETATM    2  N2  UNL     1      19.579  19.084  23.507  1.00  0.00    -0.170 N
ATOM      3  H2  UNL     1      18.903  19.670  23.998  1.00  0.00     0.186 HD
HETATM    4  C3  UNL     1      20.351  19.665  22.587  1.00  0.00     0.205 A
HETATM    5  N5  UNL     1      21.241  18.866  21.947  1.00  0.00    -0.170 N
ATOM      6  H5  UNL     1      21.850  19.269  21.236  1.00  0.00     0.186 HD
HETATM    7  C5  UNL     1      21.337  17.556  22.228  1.00  0.00     0.692 A
HETATM    8  N7  UNL     1      20.533  17.027  23.165  1.00  0.00    -0.023 N
ATOM      9  H7  UNL     1      20.605  16.032  23.379  1.00  0.00     0.203 HD
ENDROOT
BRANCH   4  10
HETATM   10  C4  UNL     1      20.257  21.082  22.273  1.00  0.00     0.304 C
HETATM   11  O1  UNL     1      21.247  21.733  21.870  1.00  0.00    -0.263 OA
HETATM   12  N3  UNL     1      19.023  21.742  22.425  1.00  0.00    -0.270 N
ATOM     13  H3  UNL     1      18.218  21.208  22.754  1.00  0.00     0.189 HD
BRANCH  12  14
HETATM   14  N4  UNL     1      18.862  23.094  22.143  1.00  0.00    -0.342 N
ATOM     15  H42 UNL     1      18.791  23.739  22.930  1.00  0.00     0.176 HD
ATOM     16  H41 UNL     1      18.815  23.449  21.187  1.00  0.00     0.176 HD
ENDBRANCH  12  14
ENDBRANCH   4  10
BRANCH   1  17
HETATM   17  N1  UNL     1      18.792  17.210  24.813  1.00  0.00    -0.230 N
HETATM   18  C1  UNL     1      18.765  17.771  26.136  1.00  0.00     0.165 C
ATOM     19  H1  UNL     1      18.212  16.403  24.584  1.00  0.00     0.177 HD
ENDBRANCH   1  17
BRANCH   7  20
HETATM   20  N6  UNL     1      22.178  16.787  21.627  1.00  0.00    -0.234 N
ATOM     21  H62 UNL     1      21.919  16.386  20.726  1.00  0.00     0.174 HD
ATOM     22  H61 UNL     1      23.091  16.568  22.025  1.00  0.00     0.174 HD
ENDBRANCH   7  20
TORSDOF 4
ENDMDL