MODEL 5
REMARK VINA RESULT: -3.626316814      2.051      2.204
REMARK  2 active torsions:
REMARK  status: ('A' for Active; 'I' for Inactive)
REMARK    1  A    between atoms: N1_1  and  C1_4
REMARK    2  A    between atoms: N4_10  and  N5_12
ROOT
HETATM    1  C1  UNL     1      19.559  23.071  23.370  1.00  0.00     0.705 A
HETATM    2  N2  UNL     1      18.736  22.957  24.428  1.00  0.00    -0.117 N
ATOM      3  H2  UNL     1      18.163  23.703  24.822  1.00  0.00     0.206 HD
HETATM    4  N3  UNL     1      18.800  21.711  24.870  1.00  0.00    -0.116 N
ATOM      5  H3  UNL     1      18.276  21.346  25.665  1.00  0.00     0.206 HD
HETATM    6  C2  UNL     1      19.646  21.004  24.126  1.00  0.00     0.727 A
HETATM    7  N4  UNL     1      20.008  19.771  24.195  1.00  0.00    -0.109 N
ATOM      8  H4  UNL     1      20.682  19.429  23.509  1.00  0.00     0.207 HD
HETATM    9  N9  UNL     1      20.118  21.852  23.193  1.00  0.00    -0.019 N
ATOM     10  H9  UNL     1      20.791  21.612  22.466  1.00  0.00     0.203 HD
ENDROOT
BRANCH   7  11
HETATM   11  N5  UNL     1      19.536  18.878  25.150  1.00  0.00    -0.153 N
HETATM   12  N6  UNL     1      19.583  19.092  26.519  1.00  0.00    -0.095 NA
HETATM   13  C3  UNL     1      18.985  17.925  27.140  1.00  0.00     0.261 A
HETATM   14  N7  UNL     1      18.613  17.057  26.039  1.00  0.00    -0.347 N
HETATM   15  C4  UNL     1      18.937  17.624  24.902  1.00  0.00     0.224 A
ATOM     16  H7  UNL     1      18.167  16.144  26.135  1.00  0.00     0.163 HD
HETATM   17  N8  UNL     1      18.735  17.087  23.608  1.00  0.00    -0.061 NA
ENDBRANCH   7  11
BRANCH   1  18
HETATM   18  N1  UNL     1      19.774  24.148  22.656  1.00  0.00    -0.233 N
ATOM     19  H12 UNL     1      19.076  24.716  22.174  1.00  0.00     0.174 HD
ATOM     20  H11 UNL     1      20.676  24.588  22.471  1.00  0.00     0.174 HD
ENDBRANCH   1  18
TORSDOF 2
ENDMDL