MODEL 5
REMARK VINA RESULT: -3.549724132      1.404      4.503
REMARK  2 active torsions:
REMARK  status: ('A' for Active; 'I' for Inactive)
REMARK    1  A    between atoms: N1_1  and  N2_4
REMARK    2  A    between atoms: N2_4  and  C1_6
ROOT
HETATM    1  C1  UNL     1      20.990  15.043  23.671  1.00  0.00     0.192 C
HETATM    2  N3  UNL     1      19.869  15.689  24.043  1.00  0.00    -0.304 N
ATOM      3  H3  UNL     1      19.278  15.190  24.708  1.00  0.00     0.171 HD
HETATM    4  C2  UNL     1      19.409  16.914  23.657  1.00  0.00     0.250 C
HETATM    5  O1  UNL     1      18.228  17.214  23.983  1.00  0.00    -0.268 OA
HETATM    6  C3  UNL     1      20.097  17.889  22.935  1.00  0.00     0.119 C
HETATM    7  C4  UNL     1      21.315  17.751  22.302  1.00  0.00     0.124 C
HETATM    8  N4  UNL     1      21.912  18.968  21.876  1.00  0.00    -0.083 NA
HETATM    9  N5  UNL     1      22.003  16.602  22.039  1.00  0.00    -0.308 N
ATOM     10  H5  UNL     1      22.692  16.644  21.287  1.00  0.00     0.170 HD
HETATM   11  C5  UNL     1      21.867  15.414  22.673  1.00  0.00     0.292 C
HETATM   12  O2  UNL     1      22.656  14.506  22.301  1.00  0.00    -0.264 OA
ENDROOT
BRANCH   1  13
HETATM   13  N2  UNL     1      21.241  13.963  24.346  1.00  0.00    -0.287 N
ATOM     14  H2  UNL     1      22.204  13.628  24.378  1.00  0.00     0.188 HD
BRANCH  13  15
HETATM   15  N1  UNL     1      20.279  13.243  25.020  1.00  0.00    -0.343 N
ATOM     16  H12 UNL     1      19.311  13.550  24.918  1.00  0.00     0.176 HD
ATOM     17  H11 UNL     1      20.486  12.434  25.606  1.00  0.00     0.176 HD
ENDBRANCH  13  15
ENDBRANCH   1  13
TORSDOF 2
ENDMDL