MODEL 5
REMARK VINA RESULT: -6.730060814      1.245      2.409
REMARK  11 active torsions:
REMARK  status: ('A' for Active; 'I' for Inactive)
REMARK    1  A    between atoms: O1_2  and  C2_3
REMARK    2  A    between atoms: C2_3  and  C3_5
REMARK    3  A    between atoms: C5_7  and  C6_8
REMARK    4  A    between atoms: C7_9  and  O3_10
REMARK    5  A    between atoms: C8_12  and  O4_13
REMARK    6  A    between atoms: C10_16  and  O5_17
REMARK    7  A    between atoms: C10_16  and  C11_19
REMARK       I    between atoms: C11_19  and  N1_21
REMARK    8  A    between atoms: N1_21  and  N2_23
REMARK    9  A    between atoms: C16_33  and  C17_34
REMARK   10  A    between atoms: C17_34  and  O8_35
REMARK   11  A    between atoms: C17_34  and  O9_37
ROOT
HETATM    1  N2  UNL     1      -5.109  26.367  40.454  1.00  0.00    -0.292 N
ATOM      2  H2  UNL     1      -5.388  27.331  40.271  1.00  0.00     0.187 HD
HETATM    3  C12 UNL     1      -3.897  25.995  40.245  1.00  0.00     0.101 C
HETATM    4  C13 UNL     1      -3.507  24.587  40.517  1.00  0.00     0.082 C
HETATM    5  C14 UNL     1      -2.912  26.926  39.748  1.00  0.00     0.114 C
HETATM    6  N3  UNL     1      -2.122  27.660  39.335  1.00  0.00    -0.190 NA
ENDROOT
BRANCH   1   7
HETATM    7  N1  UNL     1      -6.031  25.456  40.928  1.00  0.00    -0.263 N
HETATM    8  C11 UNL     1      -6.628  25.695  42.239  1.00  0.00     0.295 C
HETATM    9  O6  UNL     1      -6.228  26.717  42.790  1.00  0.00    -0.264 OA
ATOM     10  H1  UNL     1      -6.289  24.637  40.377  1.00  0.00     0.190 HD
BRANCH   8  11
HETATM   11  C10 UNL     1      -7.582  24.775  42.757  1.00  0.00     0.165 C
HETATM   12  C9  UNL     1      -7.543  23.909  43.884  1.00  0.00     0.110 A
HETATM   13  C8  UNL     1      -6.529  23.741  44.787  1.00  0.00     0.130 A
HETATM   14  N4  UNL     1      -8.661  23.137  44.103  1.00  0.00    -0.318 N
HETATM   15  C7  UNL     1      -6.623  22.851  45.856  1.00  0.00     0.118 A
HETATM   16  C6  UNL     1      -7.763  22.106  46.027  1.00  0.00     0.081 A
HETATM   17  C15 UNL     1      -8.769  22.289  45.109  1.00  0.00     0.260 A
HETATM   18  O7  UNL     1      -9.822  21.613  45.252  1.00  0.00    -0.267 OA
ATOM     19  H4  UNL     1      -9.445  23.225  43.457  1.00  0.00     0.169 HD
BRANCH  13  20
HETATM   20  O4  UNL     1      -5.372  24.465  44.653  1.00  0.00    -0.356 OA
ATOM     21  H4  UNL     1      -5.414  25.288  44.179  1.00  0.00     0.218 HD
ENDBRANCH  13  20
BRANCH  15  22
HETATM   22  O3  UNL     1      -5.606  22.679  46.770  1.00  0.00    -0.357 OA
ATOM     23  H3  UNL     1      -5.100  23.445  47.013  1.00  0.00     0.217 HD
ENDBRANCH  15  22
BRANCH  16  24
HETATM   24  C5  UNL     1      -7.912  21.149  47.118  1.00  0.00     0.020 A
HETATM   25  C4  UNL     1      -8.250  21.396  48.436  1.00  0.00     0.058 A
HETATM   26  C3  UNL     1      -8.263  20.206  49.130  1.00  0.00     0.151 A
HETATM   27  O10 UNL     1      -7.945  19.280  48.263  1.00  0.00    -0.303 OA
HETATM   28  C16 UNL     1      -7.728  19.781  47.061  1.00  0.00     0.119 A
BRANCH  26  29
HETATM   29  C2  UNL     1      -8.572  20.020  50.558  1.00  0.00     0.317 C
HETATM   30  O2  UNL     1      -9.255  20.881  51.161  1.00  0.00    -0.257 OA
BRANCH  29  31
HETATM   31  O1  UNL     1      -8.133  18.923  51.260  1.00  0.00    -0.321 OA
HETATM   32  C1  UNL     1      -6.754  18.646  51.481  1.00  0.00     0.213 C
ENDBRANCH  29  31
ENDBRANCH  26  29
BRANCH  28  33
HETATM   33  C17 UNL     1      -7.355  18.951  45.892  1.00  0.00     0.313 C
BRANCH  33  34
HETATM   34  O8  UNL     1      -6.903  17.719  46.293  1.00  0.00    -0.365 OA
ATOM     35  H8  UNL     1      -6.853  17.122  45.556  1.00  0.00     0.213 HD
ENDBRANCH  33  34
BRANCH  33  36
HETATM   36  O9  UNL     1      -8.472  18.767  45.072  1.00  0.00    -0.365 OA
ATOM     37  H9  UNL     1      -8.247  18.981  44.174  1.00  0.00     0.213 HD
ENDBRANCH  33  36
ENDBRANCH  28  33
ENDBRANCH  16  24
BRANCH  11  38
HETATM   38  O5  UNL     1      -8.683  24.739  42.051  1.00  0.00    -0.354 OA
ATOM     39  H5  UNL     1      -9.247  25.500  42.129  1.00  0.00     0.218 HD
ENDBRANCH  11  38
ENDBRANCH   8  11
ENDBRANCH   1   7
TORSDOF 11
ENDMDL