MODEL 2
REMARK VINA RESULT: -7.213731286      2.934     10.292
REMARK  10 active torsions:
REMARK  status: ('A' for Active; 'I' for Inactive)
REMARK    1  A    between atoms: C2_2  and  O1_4
REMARK    2  A    between atoms: C2_2  and  C4_6
REMARK    3  A    between atoms: C4_6  and  N1_7
REMARK    4  A    between atoms: C5_8  and  N2_9
REMARK    5  A    between atoms: C7_11  and  O2_12
REMARK    6  A    between atoms: N3_14  and  N4_15
REMARK       I    between atoms: N4_15  and  C8_17
REMARK    7  A    between atoms: C8_17  and  C9_19
REMARK    8  A    between atoms: C9_19  and  N6_23
REMARK    9  A    between atoms: N6_23  and  N7_25
REMARK   10  A    between atoms: N7_25  and  C10_27
ROOT
HETATM    1  N2  UNL     1      -8.372  23.196  45.361  1.00  0.00    -0.099 N
HETATM    2  C6  UNL     1      -7.244  23.366  46.055  1.00  0.00     0.178 A
HETATM    3  C7  UNL     1      -6.270  23.876  45.224  1.00  0.00     0.183 A
HETATM    4  N3  UNL     1      -6.792  24.024  44.014  1.00  0.00    -0.177 N
HETATM    5  C16 UNL     1      -8.091  23.597  44.127  1.00  0.00     0.368 A
HETATM    6  O4  UNL     1      -8.918  23.579  43.194  1.00  0.00    -0.243 OA
ENDROOT
BRANCH   4   7
HETATM    7  N4  UNL     1      -6.282  24.486  42.815  1.00  0.00    -0.250 N
HETATM    8  C8  UNL     1      -5.331  25.486  42.636  1.00  0.00     0.305 C
HETATM    9  O3  UNL     1      -4.799  26.115  43.574  1.00  0.00    -0.263 OA
ATOM     10  H4  UNL     1      -6.642  24.046  41.968  1.00  0.00     0.191 HD
BRANCH   8  11
HETATM   11  C9  UNL     1      -4.935  25.813  41.242  1.00  0.00     0.184 C
HETATM   12  N5  UNL     1      -5.743  25.575  40.295  1.00  0.00    -0.380 N
ATOM     13  H52 UNL     1      -6.658  25.162  40.477  1.00  0.00     0.158 HD
ATOM     14  H51 UNL     1      -5.471  25.800  39.338  1.00  0.00     0.158 HD
BRANCH  11  15
HETATM   15  N6  UNL     1      -3.683  26.378  40.993  1.00  0.00    -0.281 N
ATOM     16  H6  UNL     1      -3.210  26.897  41.733  1.00  0.00     0.188 HD
BRANCH  15  17
HETATM   17  N7  UNL     1      -3.067  26.242  39.744  1.00  0.00    -0.299 N
ATOM     18  H7  UNL     1      -2.663  25.355  39.444  1.00  0.00     0.187 HD
BRANCH  17  19
HETATM   19  C10 UNL     1      -3.029  27.402  38.906  1.00  0.00     0.048 A
HETATM   20  C11 UNL     1      -2.217  28.484  39.217  1.00  0.00     0.031 A
HETATM   21  C12 UNL     1      -2.181  29.605  38.406  1.00  0.00     0.002 A
HETATM   22  C13 UNL     1      -2.946  29.689  37.264  1.00  0.00     0.000 A
HETATM   23  C14 UNL     1      -3.758  28.619  36.944  1.00  0.00     0.002 A
HETATM   24  C15 UNL     1      -3.784  27.512  37.759  1.00  0.00     0.031 A
ENDBRANCH  17  19
ENDBRANCH  15  17
ENDBRANCH  11  15
ENDBRANCH   8  11
ENDBRANCH   4   7
BRANCH   3  25
HETATM   25  O2  UNL     1      -5.002  24.147  45.684  1.00  0.00    -0.344 OA
ATOM     26  H2  UNL     1      -4.382  24.645  45.164  1.00  0.00     0.219 HD
ENDBRANCH   3  25
BRANCH   1  27
HETATM   27  C5  UNL     1      -9.578  22.663  45.929  1.00  0.00     0.714 A
HETATM   28  N1  UNL     1     -10.193  21.493  45.744  1.00  0.00    -0.127 N
HETATM   29  C17 UNL     1     -11.310  21.439  46.542  1.00  0.00     0.355 A
HETATM   30  N9  UNL     1     -11.354  22.597  47.207  1.00  0.00    -0.236 N
HETATM   31  O5  UNL     1     -12.146  20.509  46.656  1.00  0.00    -0.244 OA
HETATM   32  N8  UNL     1     -10.331  23.338  46.855  1.00  0.00    -0.127 N
ATOM     33  H9  UNL     1     -12.071  22.863  47.882  1.00  0.00     0.192 HD
ATOM     34  H8  UNL     1     -10.127  24.271  47.214  1.00  0.00     0.205 HD
BRANCH  28  35
HETATM   35  C4  UNL     1      -9.840  20.419  44.869  1.00  0.00     0.189 C
BRANCH  35  36
HETATM   36  C2  UNL     1      -8.662  19.597  45.234  1.00  0.00     0.068 C
HETATM   37  C1  UNL     1      -8.804  18.122  44.986  1.00  0.00     0.047 C
HETATM   38  C3  UNL     1      -8.204  19.765  46.670  1.00  0.00     0.047 C
BRANCH  36  39
HETATM   39  O1  UNL     1      -7.583  20.069  44.437  1.00  0.00    -0.389 OA
ATOM     40  H1  UNL     1      -7.567  21.017  44.502  1.00  0.00     0.210 HD
ENDBRANCH  36  39
ENDBRANCH  35  36
ENDBRANCH  28  35
ENDBRANCH   1  27
TORSDOF 10
ENDMDL