MODEL 4
REMARK VINA RESULT: -6.376197284      3.796      5.401
REMARK  9 active torsions:
REMARK  status: ('A' for Active; 'I' for Inactive)
REMARK    1  A    between atoms: N1_2  and  C2_4
REMARK    2  A    between atoms: C3_7  and  C4_8
REMARK    3  A    between atoms: C6_10  and  N3_11
REMARK    4  A    between atoms: C8_23  and  S1_24
REMARK    5  A    between atoms: S1_24  and  C9_25
REMARK    6  A    between atoms: C9_25  and  C10_26
REMARK    7  A    between atoms: C10_26  and  S2_27
REMARK    8  A    between atoms: S2_27  and  C11_28
REMARK    9  A    between atoms: C12_35  and  N12_36
ROOT
HETATM    1  C4  UNL     1      -9.243  23.224  47.478  1.00  0.00     0.083 A
HETATM    2  C5  UNL     1     -10.199  22.663  46.675  1.00  0.00     0.084 A
HETATM    3  C6  UNL     1      -9.926  22.420  45.322  1.00  0.00     0.150 A
HETATM    4  N8  UNL     1      -8.713  22.755  44.860  1.00  0.00    -0.321 N
ATOM      5  H8  UNL     1      -8.499  22.584  43.877  1.00  0.00     0.169 HD
HETATM    6  C8  UNL     1      -7.785  23.297  45.627  1.00  0.00     0.146 A
HETATM    7  N10 UNL     1      -8.062  23.529  46.943  1.00  0.00    -0.334 N
ATOM      8  H10 UNL     1      -7.343  23.948  47.534  1.00  0.00     0.168 HD
ENDROOT
BRANCH   1   9
HETATM    9  C3  UNL     1      -9.506  23.486  48.885  1.00  0.00     0.163 A
HETATM   10  N2  UNL     1      -9.739  24.765  49.312  1.00  0.00    -0.173 N
HETATM   11  C2  UNL     1      -9.988  25.081  50.586  1.00  0.00     0.694 A
ATOM     12  H2  UNL     1      -9.721  25.516  48.622  1.00  0.00     0.186 HD
HETATM   13  N13 UNL     1     -10.013  24.103  51.496  1.00  0.00    -0.023 N
HETATM   14  C12 UNL     1      -9.791  22.830  51.136  1.00  0.00     0.692 A
ATOM     15  H13 UNL     1     -10.202  24.326  52.473  1.00  0.00     0.203 HD
HETATM   16  N11 UNL     1      -9.539  22.532  49.826  1.00  0.00    -0.174 N
ATOM     17  H11 UNL     1      -9.372  21.562  49.558  1.00  0.00     0.186 HD
BRANCH  11  18
HETATM   18  N1  UNL     1     -10.195  26.322  50.885  1.00  0.00    -0.230 N
HETATM   19  C1  UNL     1     -11.500  26.838  51.227  1.00  0.00     0.165 C
ATOM     20  H1  UNL     1      -9.402  26.963  50.879  1.00  0.00     0.177 HD
ENDBRANCH  11  18
BRANCH  14  21
HETATM   21  N12 UNL     1      -9.813  21.871  52.005  1.00  0.00    -0.234 N
ATOM     22 2H12 UNL     1      -9.001  21.662  52.587  1.00  0.00     0.174 HD
ATOM     23 1H12 UNL     1     -10.662  21.315  52.108  1.00  0.00     0.174 HD
ENDBRANCH  14  21
ENDBRANCH   1   9
BRANCH   3  24
HETATM   24  N3  UNL     1     -10.897  21.836  44.452  1.00  0.00    -0.056 N
HETATM   25  N4  UNL     1     -11.113  20.559  44.226  1.00  0.00    -0.203 N
HETATM   26  N5  UNL     1     -12.100  20.450  43.355  1.00  0.00     0.009 NA
ATOM     27  H4  UNL     1     -10.605  19.784  44.651  1.00  0.00     0.207 HD
HETATM   28  N6  UNL     1     -12.518  21.658  43.023  1.00  0.00    -0.113 N
HETATM   29  C7  UNL     1     -11.767  22.528  43.709  1.00  0.00     0.713 A
ATOM     30  H6  UNL     1     -13.268  21.885  42.370  1.00  0.00     0.203 HD
HETATM   31  N7  UNL     1     -11.896  23.826  43.633  1.00  0.00    -0.232 N
ATOM     32  H72 UNL     1     -11.324  24.489  44.155  1.00  0.00     0.174 HD
ATOM     33  H71 UNL     1     -12.559  24.355  43.066  1.00  0.00     0.174 HD
ENDBRANCH   3  24
BRANCH   6  34
HETATM   34  S1  UNL     1      -6.159  23.757  45.057  1.00  0.00    -0.093 SA
BRANCH  34  35
HETATM   35  C9  UNL     1      -6.365  24.688  43.499  1.00  0.00     0.093 C
BRANCH  35  36
HETATM   36  C10 UNL     1      -5.065  25.372  43.126  1.00  0.00     0.094 C
BRANCH  36  37
HETATM   37  S2  UNL     1      -4.953  25.716  41.359  1.00  0.00    -0.072 SA
BRANCH  37  38
HETATM   38  C11 UNL     1      -3.325  25.279  40.792  1.00  0.00     0.292 C
HETATM   39  N9  UNL     1      -3.116  24.086  40.053  1.00  0.00    -0.051 NA
HETATM   40  O1  UNL     1      -2.343  26.005  41.031  1.00  0.00    -0.264 OA
ENDBRANCH  37  38
ENDBRANCH  36  37
ENDBRANCH  35  36
ENDBRANCH  34  35
ENDBRANCH   6  34
TORSDOF 9
ENDMDL