MODEL 5
REMARK VINA RESULT: -6.691427805      2.126      2.925
REMARK  9 active torsions:
REMARK  status: ('A' for Active; 'I' for Inactive)
REMARK    1  A    between atoms: C3_4  and  N2_5
REMARK       I    between atoms: N2_5  and  C4_7
REMARK    2  A    between atoms: C4_7  and  C5_9
REMARK    3  A    between atoms: C7_11  and  N3_12
REMARK    4  A    between atoms: N3_12  and  C8_14
REMARK    5  A    between atoms: C8_14  and  N4_15
REMARK    6  A    between atoms: N6_21  and  N7_22
REMARK       I    between atoms: N7_22  and  C11_24
REMARK    7  A    between atoms: C11_24  and  C12_26
REMARK    8  A    between atoms: C13_37  and  C14_38
REMARK    9  A    between atoms: C14_38  and  O3_41
ROOT
HETATM    1  C8  UNL     1     -11.386  25.460  51.418  1.00  0.00     0.182 C
HETATM    2  C9  UNL     1     -12.111  26.652  51.008  1.00  0.00     0.136 C
HETATM    3  N5  UNL     1     -12.686  27.606  50.662  1.00  0.00    -0.188 NA
ENDROOT
BRANCH   1   4
HETATM    4  N3  UNL     1     -10.018  25.310  51.088  1.00  0.00    -0.333 N
ATOM      5  H3  UNL     1      -9.302  25.700  51.700  1.00  0.00     0.168 HD
BRANCH   4   6
HETATM    6  C7  UNL     1      -9.640  24.622  49.916  1.00  0.00     0.054 A
HETATM    7  C6  UNL     1      -9.730  23.286  49.636  1.00  0.00     0.068 A
HETATM    8  C5  UNL     1      -9.227  23.043  48.356  1.00  0.00     0.126 A
HETATM    9  N6  UNL     1      -8.828  24.220  47.849  1.00  0.00    -0.257 N
HETATM   10  C10 UNL     1      -9.069  25.193  48.778  1.00  0.00     0.146 A
BRANCH   8  11
HETATM   11  C4  UNL     1      -9.140  21.727  47.764  1.00  0.00     0.275 C
HETATM   12  N2  UNL     1      -8.013  20.881  47.999  1.00  0.00    -0.306 N
ATOM     13  H2  UNL     1      -7.276  21.217  48.619  1.00  0.00     0.170 HD
HETATM   14  O1  UNL     1     -10.060  21.298  47.027  1.00  0.00    -0.266 OA
BRANCH  12  15
HETATM   15  C3  UNL     1      -7.868  19.596  47.411  1.00  0.00     0.125 A
HETATM   16  C2  UNL     1      -7.693  18.367  47.982  1.00  0.00     0.140 A
HETATM   17  N1  UNL     1      -7.585  17.422  46.998  1.00  0.00    -0.345 N
HETATM   18  C1  UNL     1      -7.405  16.012  47.305  1.00  0.00     0.157 C
HETATM   19  C13 UNL     1      -7.687  18.037  45.840  1.00  0.00     0.119 A
HETATM   20  N12 UNL     1      -7.859  19.350  46.073  1.00  0.00    -0.328 N
ATOM     21  H12 UNL     1      -7.968  20.061  45.349  1.00  0.00     0.169 HD
BRANCH  19  22
HETATM   22  C14 UNL     1      -7.625  17.486  44.465  1.00  0.00     0.109 C
HETATM   23  C15 UNL     1      -6.174  16.986  44.323  1.00  0.00     0.054 C
HETATM   24  C16 UNL     1      -8.479  16.312  44.197  1.00  0.00     0.054 C
BRANCH  22  25
HETATM   25  O3  UNL     1      -7.792  18.514  43.524  1.00  0.00    -0.383 OA
ATOM     26  H3  UNL     1      -7.680  18.174  42.644  1.00  0.00     0.211 HD
ENDBRANCH  22  25
ENDBRANCH  19  22
ENDBRANCH  12  15
ENDBRANCH   8  11
BRANCH   9  27
HETATM   27  N7  UNL     1      -8.293  24.451  46.591  1.00  0.00    -0.256 N
HETATM   28  C11 UNL     1      -7.142  23.838  46.077  1.00  0.00     0.307 C
HETATM   29  O2  UNL     1      -6.403  22.997  46.621  1.00  0.00    -0.262 OA
ATOM     30  H7  UNL     1      -8.776  25.120  45.991  1.00  0.00     0.191 HD
BRANCH  28  31
HETATM   31  C12 UNL     1      -6.736  24.237  44.692  1.00  0.00     0.208 A
HETATM   32  N8  UNL     1      -7.515  24.683  43.697  1.00  0.00    -0.264 N
HETATM   33  N9  UNL     1      -6.716  24.901  42.646  1.00  0.00    -0.226 N
ATOM     34  H8  UNL     1      -8.524  24.830  43.733  1.00  0.00     0.190 HD
HETATM   35  N10 UNL     1      -5.470  24.605  42.954  1.00  0.00    -0.226 N
ATOM     36  H9  UNL     1      -7.026  25.246  41.738  1.00  0.00     0.210 HD
HETATM   37  N11 UNL     1      -5.484  24.199  44.206  1.00  0.00    -0.264 N
ATOM     38  H10 UNL     1      -4.656  24.676  42.343  1.00  0.00     0.210 HD
ATOM     39  H11 UNL     1      -4.663  23.899  44.732  1.00  0.00     0.190 HD
ENDBRANCH  28  31
ENDBRANCH   9  27
ENDBRANCH   4   6
ENDBRANCH   1   4
BRANCH   1  40
HETATM   40  N4  UNL     1     -12.039  24.573  52.079  1.00  0.00    -0.377 N
ATOM     41  H42 UNL     1     -11.938  23.602  51.782  1.00  0.00     0.158 HD
ATOM     42  H41 UNL     1     -12.638  24.808  52.870  1.00  0.00     0.158 HD
ENDBRANCH   1  40
TORSDOF 9
ENDMDL