MODEL 5
REMARK VINA RESULT: -6.581972041      1.097      2.386
REMARK  9 active torsions:
REMARK  status: ('A' for Active; 'I' for Inactive)
REMARK    1  A    between atoms: C2_3  and  C3_5
REMARK    2  A    between atoms: C3_5  and  C4_6
REMARK    3  A    between atoms: C3_5  and  N5_26
REMARK       I    between atoms: C4_6  and  N2_8
REMARK    4  A    between atoms: N2_8  and  N3_10
REMARK    5  A    between atoms: C5_12  and  C6_13
REMARK    6  A    between atoms: C8_15  and  N4_16
REMARK    7  A    between atoms: C10_20  and  O5_21
REMARK    8  A    between atoms: C11_23  and  O6_24
REMARK    9  A    between atoms: C15_30  and  C16_31
ROOT
HETATM    1  N1  UNL     1      -6.722  24.239  43.468  1.00  0.00    -0.188 NA
HETATM    2  C1  UNL     1      -6.794  23.587  44.424  1.00  0.00     0.141 C
HETATM    3  C2  UNL     1      -6.885  22.794  45.612  1.00  0.00     0.260 C
HETATM    4  O1  UNL     1      -5.881  22.771  46.400  1.00  0.00    -0.278 OA
ENDROOT
BRANCH   3   5
HETATM    5  C3  UNL     1      -8.126  22.023  45.904  1.00  0.00     0.271 C
BRANCH   5   6
HETATM    6  C4  UNL     1      -8.982  22.749  46.852  1.00  0.00     0.268 C
HETATM    7  O2  UNL     1     -10.245  22.820  46.720  1.00  0.00    -0.269 OA
HETATM    8  N2  UNL     1      -8.386  23.401  47.963  1.00  0.00    -0.268 N
ATOM      9  H2  UNL     1      -7.375  23.358  48.089  1.00  0.00     0.190 HD
BRANCH   8  10
HETATM   10  N3  UNL     1      -9.162  24.096  48.881  1.00  0.00    -0.308 N
HETATM   11  C5  UNL     1      -9.495  23.562  49.997  1.00  0.00     0.121 C
ATOM     12  H3  UNL     1      -9.470  25.045  48.664  1.00  0.00     0.186 HD
BRANCH  11  13
HETATM   13  C6  UNL     1     -10.289  24.146  51.047  1.00  0.00     0.019 A
HETATM   14  C7  UNL     1     -10.938  25.356  50.789  1.00  0.00     0.052 A
HETATM   15  C8  UNL     1     -11.716  26.004  51.703  1.00  0.00     0.106 A
HETATM   16  C9  UNL     1     -11.846  25.402  52.940  1.00  0.00     0.075 A
HETATM   17  C10 UNL     1     -11.247  24.232  53.255  1.00  0.00     0.102 A
HETATM   18  C11 UNL     1     -10.455  23.588  52.300  1.00  0.00     0.110 A
BRANCH  15  19
HETATM   19  N4  UNL     1     -12.366  27.238  51.410  1.00  0.00    -0.116 N
HETATM   20  O3  UNL     1     -12.550  27.625  50.261  1.00  0.00    -0.532 OA
HETATM   21  O4  UNL     1     -12.800  28.022  52.450  1.00  0.00    -0.532 OA
ENDBRANCH  15  19
BRANCH  17  22
HETATM   22  O5  UNL     1     -11.416  23.677  54.514  1.00  0.00    -0.358 OA
ATOM     23  H5  UNL     1     -11.934  22.888  54.625  1.00  0.00     0.217 HD
ENDBRANCH  17  22
BRANCH  18  24
HETATM   24  O6  UNL     1      -9.886  22.427  52.679  1.00  0.00    -0.357 OA
ATOM     25  H6  UNL     1      -8.975  22.347  52.935  1.00  0.00     0.217 HD
ENDBRANCH  18  24
ENDBRANCH  11  13
ENDBRANCH   8  10
ENDBRANCH   5   6
BRANCH   5  26
HETATM   26  N5  UNL     1      -7.848  20.669  46.317  1.00  0.00    -0.302 N
HETATM   27  C12 UNL     1      -7.870  20.364  47.628  1.00  0.00     0.096 A
HETATM   28  C13 UNL     1      -7.614  19.091  48.096  1.00  0.00     0.018 A
HETATM   29  C14 UNL     1      -7.322  18.070  47.218  1.00  0.00     0.022 A
HETATM   30  C15 UNL     1      -7.296  18.369  45.875  1.00  0.00     0.073 A
HETATM   31  C17 UNL     1      -7.564  19.679  45.462  1.00  0.00     0.262 A
HETATM   32  O7  UNL     1      -7.534  19.926  44.226  1.00  0.00    -0.267 OA
BRANCH  30  33
HETATM   33  C16 UNL     1      -6.993  17.319  44.932  1.00  0.00     0.125 C
HETATM   34  N6  UNL     1      -5.802  17.196  44.487  1.00  0.00    -0.387 N
ATOM     35  H62 UNL     1      -5.069  17.835  44.795  1.00  0.00     0.157 HD
ATOM     36  H61 UNL     1      -5.587  16.455  43.820  1.00  0.00     0.157 HD
HETATM   37  N7  UNL     1      -8.004  16.438  44.507  1.00  0.00    -0.082 NA
ENDBRANCH  30  33
ENDBRANCH   5  26
ENDBRANCH   3   5
TORSDOF 9
ENDMDL