MODEL 3
REMARK VINA RESULT: -6.199755651      1.736      2.335
REMARK  9 active torsions:
REMARK  status: ('A' for Active; 'I' for Inactive)
REMARK    1  A    between atoms: C2_2  and  O1_3
REMARK    2  A    between atoms: O1_3  and  C3_4
REMARK    3  A    between atoms: C3_4  and  C4_6
REMARK    4  A    between atoms: C5_7  and  C6_8
REMARK    5  A    between atoms: C6_8  and  N1_9
REMARK    6  A    between atoms: N1_9  and  N2_11
REMARK    7  A    between atoms: C11_19  and  C12_20
REMARK    8  A    between atoms: C15_30  and  N6_31
REMARK    9  A    between atoms: N7_34  and  O6_35
ROOT
HETATM    1  C4  UNL     1     -10.370  24.210  48.657  1.00  0.00     0.125 C
HETATM    2  C5  UNL     1      -9.309  23.450  48.156  1.00  0.00     0.046 C
HETATM    3  C14 UNL     1      -9.335  22.083  47.997  1.00  0.00     0.127 C
HETATM    4  N4  UNL     1      -8.365  21.387  48.350  1.00  0.00    -0.384 N
ATOM      5  H41 UNL     1      -8.385  20.373  48.232  1.00  0.00     0.157 HD
ATOM      6  H42 UNL     1      -7.578  21.911  48.732  1.00  0.00     0.157 HD
HETATM    7  N5  UNL     1     -10.402  21.373  47.480  1.00  0.00    -0.174 N
ATOM      8  H5  UNL     1     -10.187  20.502  46.994  1.00  0.00     0.186 HD
HETATM    9  C15 UNL     1     -11.717  21.731  47.559  1.00  0.00     0.707 C
HETATM   10  N7  UNL     1     -12.330  22.762  48.171  1.00  0.00    -0.012 N
HETATM   11  C16 UNL     1     -11.725  23.873  48.637  1.00  0.00     0.305 C
HETATM   12  O7  UNL     1     -12.490  24.716  49.121  1.00  0.00    -0.264 OA
ENDROOT
BRANCH   2  13
HETATM   13  C6  UNL     1      -8.139  24.217  47.786  1.00  0.00     0.118 C
BRANCH  13  14
HETATM   14  N1  UNL     1      -7.767  24.236  46.424  1.00  0.00    -0.329 N
ATOM     15  H1  UNL     1      -7.469  25.092  45.956  1.00  0.00     0.180 HD
BRANCH  14  16
HETATM   16  N2  UNL     1      -7.831  23.039  45.771  1.00  0.00    -0.226 NA
HETATM   17  C7  UNL     1      -6.475  22.557  45.495  1.00  0.00     0.118 C
HETATM   18  C8  UNL     1      -5.639  23.578  44.790  1.00  0.00     0.060 C
HETATM   19  C9  UNL     1      -6.457  24.310  43.821  1.00  0.00     0.012 A
HETATM   20  C10 UNL     1      -7.820  24.077  43.659  1.00  0.00     0.056 A
HETATM   21  C11 UNL     1      -6.099  25.303  42.936  1.00  0.00     0.183 A
HETATM   22  N3  UNL     1      -8.199  24.935  42.697  1.00  0.00    -0.263 N
HETATM   23  C13 UNL     1      -8.504  23.035  44.496  1.00  0.00     0.173 C
HETATM   24  O3  UNL     1      -7.204  25.630  42.291  1.00  0.00    -0.230 OA
ATOM     25  H3  UNL     1      -9.150  25.020  42.339  1.00  0.00     0.194 HD
BRANCH  21  26
HETATM   26  C12 UNL     1      -4.772  25.898  42.725  1.00  0.00     0.237 C
HETATM   27  O4  UNL     1      -4.086  25.432  41.785  1.00  0.00    -0.642 OA
HETATM   28  O5  UNL     1      -4.289  26.918  43.510  1.00  0.00    -0.642 OA
ENDBRANCH  21  26
ENDBRANCH  14  16
ENDBRANCH  13  14
ENDBRANCH   2  13
BRANCH   1  29
HETATM   29  C3  UNL     1      -9.971  25.473  49.237  1.00  0.00     0.300 C
HETATM   30  O2  UNL     1      -9.859  26.552  48.600  1.00  0.00    -0.259 OA
BRANCH  29  31
HETATM   31  O1  UNL     1      -9.687  25.507  50.595  1.00  0.00    -0.318 OA
BRANCH  31  32
HETATM   32  C2  UNL     1     -10.627  25.912  51.568  1.00  0.00     0.174 C
HETATM   33  C1  UNL     1     -10.972  24.679  52.403  1.00  0.00     0.034 C
ENDBRANCH  31  32
ENDBRANCH  29  31
ENDBRANCH   1  29
BRANCH  10  34
HETATM   34  O6  UNL     1     -13.693  22.711  48.352  1.00  0.00    -0.266 OA
ATOM     35  H6  UNL     1     -14.234  22.352  47.658  1.00  0.00     0.246 HD
ENDBRANCH  10  34
BRANCH   9  36
HETATM   36  N6  UNL     1     -12.558  20.965  46.947  1.00  0.00    -0.232 N
ATOM     37  H62 UNL     1     -12.202  20.015  46.844  1.00  0.00     0.174 HD
ATOM     38  H61 UNL     1     -13.436  21.396  46.659  1.00  0.00     0.174 HD
ENDBRANCH   9  36
TORSDOF 9
ENDMDL