MODEL 2
REMARK VINA RESULT: -7.074032222      2.160      4.565
REMARK  14 active torsions:
REMARK  status: ('A' for Active; 'I' for Inactive)
REMARK    1  A    between atoms: O1_2  and  C2_3
REMARK    2  A    between atoms: C2_3  and  C3_5
REMARK    3  A    between atoms: C3_5  and  O3_6
REMARK    4  A    between atoms: C3_5  and  C9_25
REMARK    5  A    between atoms: O3_6  and  C4_7
REMARK    6  A    between atoms: C4_7  and  C5_9
REMARK    7  A    between atoms: C6_12  and  N2_13
REMARK    8  A    between atoms: N2_13  and  N3_15
REMARK    9  A    between atoms: C8_22  and  O6_23
REMARK   10  A    between atoms: C9_25  and  O7_26
REMARK   11  A    between atoms: C9_25  and  C10_28
REMARK   12  A    between atoms: C13_31  and  O8_32
REMARK   13  A    between atoms: C15_35  and  O9_36
REMARK   14  A    between atoms: C17_38  and  O10_39
ROOT
HETATM    1  C3  UNL     1      -7.728  23.000  47.218  1.00  0.00     0.288 C
ENDROOT
BRANCH   1   2
HETATM    2  C2  UNL     1      -8.763  23.614  48.184  1.00  0.00     0.294 C
HETATM    3  O2  UNL     1      -8.942  23.007  49.255  1.00  0.00    -0.262 OA
BRANCH   2   4
HETATM    4  O1  UNL     1      -9.449  24.758  47.889  1.00  0.00    -0.324 OA
HETATM    5  C1  UNL     1      -9.393  25.866  48.767  1.00  0.00     0.213 C
ENDBRANCH   2   4
ENDBRANCH   1   2
BRANCH   1   6
HETATM    6  O3  UNL     1      -7.447  24.007  46.340  1.00  0.00    -0.294 OA
BRANCH   6   7
HETATM    7  C4  UNL     1      -6.580  23.863  45.260  1.00  0.00     0.314 C
HETATM    8  O4  UNL     1      -5.459  23.340  45.521  1.00  0.00    -0.257 OA
BRANCH   7   9
HETATM    9  C5  UNL     1      -6.910  24.271  43.920  1.00  0.00     0.163 A
HETATM   10  N1  UNL     1      -5.994  24.970  43.168  1.00  0.00    -0.181 N
HETATM   11  C6  UNL     1      -6.246  25.341  41.913  1.00  0.00     0.700 A
ATOM     12  H1  UNL     1      -5.095  25.211  43.584  1.00  0.00     0.184 HD
HETATM   13  N4  UNL     1      -7.396  25.071  41.276  1.00  0.00    -0.152 N
HETATM   14  C7  UNL     1      -8.334  24.395  41.949  1.00  0.00     0.295 A
ATOM     15  H4  UNL     1      -7.550  25.371  40.313  1.00  0.00     0.187 HD
HETATM   16  O5  UNL     1      -9.417  24.131  41.378  1.00  0.00    -0.264 OA
HETATM   17  C8  UNL     1      -8.082  24.001  43.262  1.00  0.00     0.168 A
BRANCH  11  18
HETATM   18  N2  UNL     1      -5.346  25.997  41.255  1.00  0.00    -0.138 N
ATOM     19  H2  UNL     1      -4.767  26.667  41.762  1.00  0.00     0.205 HD
BRANCH  18  20
HETATM   20  N3  UNL     1      -5.129  25.835  39.900  1.00  0.00    -0.331 N
ATOM     21  H32 UNL     1      -4.195  25.551  39.606  1.00  0.00     0.177 HD
ATOM     22  H31 UNL     1      -5.851  25.986  39.196  1.00  0.00     0.177 HD
ENDBRANCH  18  20
ENDBRANCH  11  18
BRANCH  17  23
HETATM   23  O6  UNL     1      -9.073  23.311  43.922  1.00  0.00    -0.354 OA
ATOM     24  H6  UNL     1      -9.437  22.532  43.520  1.00  0.00     0.218 HD
ENDBRANCH  17  23
ENDBRANCH   7   9
ENDBRANCH   6   7
ENDBRANCH   1   6
BRANCH   1  25
HETATM   25  C9  UNL     1      -8.180  21.713  46.921  1.00  0.00     0.096 C
BRANCH  25  26
HETATM   26  O7  UNL     1      -9.566  21.853  46.713  1.00  0.00    -0.361 OA
ATOM     27  H7  UNL     1      -9.663  22.679  46.253  1.00  0.00     0.217 HD
ENDBRANCH  25  26
BRANCH  25  28
HETATM   28  C10 UNL     1      -7.865  20.333  46.735  1.00  0.00     0.041 A
HETATM   29  C11 UNL     1      -7.658  19.406  47.714  1.00  0.00    -0.013 A
HETATM   30  C12 UNL     1      -7.751  19.781  49.143  1.00  0.00     0.052 C
HETATM   31  C13 UNL     1      -7.362  18.061  47.480  1.00  0.00     0.075 A
HETATM   32  C14 UNL     1      -7.267  17.609  46.192  1.00  0.00     0.076 A
HETATM   33  C15 UNL     1      -7.465  18.489  45.153  1.00  0.00     0.104 A
HETATM   34  C17 UNL     1      -7.754  19.804  45.420  1.00  0.00     0.112 A
BRANCH  31  35
HETATM   35  O8  UNL     1      -7.164  17.181  48.529  1.00  0.00    -0.360 OA
ATOM     36  H8  UNL     1      -6.301  17.051  48.903  1.00  0.00     0.217 HD
ENDBRANCH  31  35
BRANCH  33  37
HETATM   37  O9  UNL     1      -7.366  18.024  43.838  1.00  0.00    -0.353 OA
HETATM   38  C16 UNL     1      -7.755  16.698  43.559  1.00  0.00     0.210 C
ENDBRANCH  33  37
BRANCH  34  39
HETATM   39  O10 UNL     1      -7.944  20.652  44.360  1.00  0.00    -0.357 OA
ATOM     40  H10 UNL     1      -7.603  20.396  43.510  1.00  0.00     0.217 HD
ENDBRANCH  34  39
ENDBRANCH  25  28
ENDBRANCH   1  25
TORSDOF 14
ENDMDL