MODEL 1
REMARK VINA RESULT: -6.925556543      0.000      0.000
REMARK  11 active torsions:
REMARK  status: ('A' for Active; 'I' for Inactive)
REMARK    1  A    between atoms: C1_2  and  C2_3
REMARK    2  A    between atoms: C1_2  and  O9_31
REMARK    3  A    between atoms: N1_4  and  N2_6
REMARK    4  A    between atoms: N2_6  and  C3_8
REMARK    5  A    between atoms: C3_8  and  N3_10
REMARK    6  A    between atoms: N3_10  and  N4_12
REMARK    7  A    between atoms: N4_12  and  C4_14
REMARK    8  A    between atoms: C5_15  and  O2_16
REMARK    9  A    between atoms: C6_18  and  N5_19
REMARK   10  A    between atoms: C8_23  and  S2_24
REMARK   11  A    between atoms: C9_28  and  O8_29
ROOT
HETATM    1  C4  UNL     1      -7.078  23.756  44.301  1.00  0.00     0.118 A
HETATM    2  C5  UNL     1      -8.230  23.850  43.548  1.00  0.00     0.130 A
HETATM    3  C6  UNL     1      -8.276  24.710  42.451  1.00  0.00     0.140 A
HETATM    4  C7  UNL     1      -7.196  25.478  42.091  1.00  0.00     0.068 A
HETATM    5  C8  UNL     1      -6.044  25.383  42.845  1.00  0.00     0.118 A
HETATM    6  C9  UNL     1      -5.995  24.521  43.946  1.00  0.00     0.121 A
ENDROOT
BRANCH   1   7
HETATM    7  N4  UNL     1      -6.966  22.910  45.418  1.00  0.00    -0.293 N
ATOM      8  H4  UNL     1      -6.740  21.930  45.249  1.00  0.00     0.187 HD
BRANCH   7   9
HETATM    9  N3  UNL     1      -7.141  23.310  46.732  1.00  0.00    -0.274 N
ATOM     10  H3  UNL     1      -6.368  23.747  47.235  1.00  0.00     0.189 HD
BRANCH   9  11
HETATM   11  C3  UNL     1      -8.394  23.116  47.391  1.00  0.00     0.205 C
HETATM   12  S1  UNL     1      -9.119  21.657  47.305  1.00  0.00    -0.038 SA
BRANCH  11  13
HETATM   13  N2  UNL     1      -9.018  24.168  48.116  1.00  0.00    -0.275 N
ATOM     14  H2  UNL     1      -9.231  25.036  47.623  1.00  0.00     0.189 HD
BRANCH  13  15
HETATM   15  N1  UNL     1      -9.353  24.076  49.464  1.00  0.00    -0.304 N
HETATM   16  C2  UNL     1      -9.713  25.123  50.095  1.00  0.00     0.190 C
ATOM     17  H1  UNL     1      -9.311  23.177  49.943  1.00  0.00     0.186 HD
BRANCH  16  18
HETATM   18  C1  UNL     1      -9.778  26.405  49.434  1.00  0.00     0.312 C
HETATM   19  O1  UNL     1      -8.847  26.893  48.756  1.00  0.00    -0.258 OA
BRANCH  18  20
HETATM   20  O9  UNL     1     -10.943  27.184  49.534  1.00  0.00    -0.226 OA
HETATM   21  S3  UNL     1     -12.093  26.823  50.728  1.00  0.00     0.103 SA
ENDBRANCH  18  20
ENDBRANCH  16  18
ENDBRANCH  13  15
ENDBRANCH  11  13
ENDBRANCH   9  11
ENDBRANCH   7   9
ENDBRANCH   1   7
BRANCH   2  22
HETATM   22  O2  UNL     1      -9.329  23.088  43.889  1.00  0.00    -0.356 OA
ATOM     23  H2  UNL     1     -10.059  23.024  43.285  1.00  0.00     0.218 HD
ENDBRANCH   2  22
BRANCH   6  24
HETATM   24  O8  UNL     1      -4.831  24.438  44.692  1.00  0.00    -0.357 OA
ATOM     25  H8  UNL     1      -4.106  25.020  44.492  1.00  0.00     0.218 HD
ENDBRANCH   6  24
BRANCH   3  26
HETATM   26  N5  UNL     1      -9.461  24.814  41.667  1.00  0.00    -0.113 N
HETATM   27  O3  UNL     1     -10.415  25.445  42.109  1.00  0.00    -0.532 OA
HETATM   28  O4  UNL     1      -9.485  24.197  40.440  1.00  0.00    -0.532 OA
ENDBRANCH   3  26
BRANCH   5  29
HETATM   29  S2  UNL     1      -4.644  26.337  42.433  1.00  0.00     0.140 S
HETATM   30  O5  UNL     1      -5.082  27.416  41.467  1.00  0.00    -0.591 OA
HETATM   31  O6  UNL     1      -3.983  26.922  43.630  1.00  0.00    -0.591 OA
HETATM   32  O7  UNL     1      -3.545  25.379  41.606  1.00  0.00    -0.591 OA
ENDBRANCH   5  29
TORSDOF 11
ENDMDL