MODEL 4
REMARK VINA RESULT: -7.443106025      1.573      2.032
REMARK  11 active torsions:
REMARK  status: ('A' for Active; 'I' for Inactive)
REMARK       I    between atoms: N1_2  and  C2_4
REMARK    1  A    between atoms: C2_4  and  C3_6
REMARK       I    between atoms: C3_6  and  N2_8
REMARK    2  A    between atoms: N2_8  and  C4_10
REMARK    3  A    between atoms: C4_10  and  N3_11
REMARK    4  A    between atoms: N3_11  and  N4_13
REMARK    5  A    between atoms: N4_13  and  C5_15
REMARK    6  A    between atoms: C8_18  and  N5_19
REMARK    7  A    between atoms: C10_23  and  N6_24
REMARK    8  A    between atoms: C11_27  and  O7_28
REMARK    9  A    between atoms: C11_27  and  N7_30
REMARK   10  A    between atoms: N7_30  and  C12_32
REMARK   11  A    between atoms: C13_38  and  N10_39
ROOT
HETATM    1  C4  UNL     1      -7.831  22.286  46.559  1.00  0.00     0.175 C
HETATM    2  C11 UNL     1      -7.638  21.069  45.894  1.00  0.00     0.188 C
ENDROOT
BRANCH   1   3
HETATM    3  N2  UNL     1      -8.397  22.686  47.745  1.00  0.00    -0.300 N
HETATM    4  C3  UNL     1      -8.787  23.928  48.232  1.00  0.00     0.315 C
HETATM    5  O2  UNL     1      -8.715  25.029  47.691  1.00  0.00    -0.262 OA
ATOM      6  H2  UNL     1      -8.563  21.920  48.397  1.00  0.00     0.171 HD
BRANCH   4   7
HETATM    7  C2  UNL     1      -9.386  23.943  49.614  1.00  0.00     0.309 C
HETATM    8  N1  UNL     1      -9.889  25.155  50.120  1.00  0.00    -0.357 N
HETATM    9  C1  UNL     1     -10.467  25.189  51.437  1.00  0.00     0.149 C
ATOM     10  H1  UNL     1      -9.845  26.005  49.557  1.00  0.00     0.162 HD
HETATM   11  O1  UNL     1      -9.431  22.906  50.288  1.00  0.00    -0.262 OA
ENDBRANCH   4   7
ENDBRANCH   1   3
BRANCH   1  12
HETATM   12  N3  UNL     1      -7.319  23.338  45.854  1.00  0.00    -0.281 N
ATOM     13  H3  UNL     1      -6.434  23.737  46.167  1.00  0.00     0.188 HD
BRANCH  12  14
HETATM   14  N4  UNL     1      -7.909  23.885  44.764  1.00  0.00    -0.297 N
ATOM     15  H4  UNL     1      -8.927  23.902  44.709  1.00  0.00     0.187 HD
BRANCH  14  16
HETATM   16  C5  UNL     1      -7.141  24.443  43.681  1.00  0.00     0.081 A
HETATM   17  C6  UNL     1      -5.788  24.707  43.895  1.00  0.00     0.036 A
HETATM   18  C7  UNL     1      -5.021  25.217  42.875  1.00  0.00     0.038 A
HETATM   19  C8  UNL     1      -5.598  25.465  41.638  1.00  0.00     0.105 A
HETATM   20  C9  UNL     1      -6.933  25.197  41.456  1.00  0.00     0.074 A
HETATM   21  C10 UNL     1      -7.746  24.679  42.468  1.00  0.00     0.133 A
BRANCH  19  22
HETATM   22  N5  UNL     1      -4.795  25.999  40.563  1.00  0.00    -0.116 N
HETATM   23  O3  UNL     1      -4.820  25.503  39.421  1.00  0.00    -0.532 OA
HETATM   24  O4  UNL     1      -3.980  27.079  40.801  1.00  0.00    -0.532 OA
ENDBRANCH  19  22
BRANCH  21  25
HETATM   25  N6  UNL     1      -9.121  24.427  42.214  1.00  0.00    -0.113 N
HETATM   26  O5  UNL     1      -9.538  23.273  42.182  1.00  0.00    -0.532 OA
HETATM   27  O6  UNL     1      -9.972  25.477  42.034  1.00  0.00    -0.532 OA
ENDBRANCH  21  25
ENDBRANCH  14  16
ENDBRANCH  12  14
ENDBRANCH   1  12
BRANCH   2  28
HETATM   28  O7  UNL     1      -7.018  21.224  44.706  1.00  0.00    -0.343 OA
ATOM     29  H7  UNL     1      -6.258  21.790  44.764  1.00  0.00     0.219 HD
ENDBRANCH   2  28
BRANCH   2  30
HETATM   30  N7  UNL     1      -7.953  19.766  46.208  1.00  0.00    -0.316 N
ATOM     31  H7  UNL     1      -8.425  19.534  47.082  1.00  0.00     0.169 HD
BRANCH  30  32
HETATM   32  C12 UNL     1      -7.589  18.722  45.244  1.00  0.00     0.175 A
HETATM   33  N8  UNL     1      -7.963  18.615  43.970  1.00  0.00    -0.222 N
HETATM   34  O8  UNL     1      -7.449  17.542  43.441  1.00  0.00    -0.153 OA
ATOM     35  H8  UNL     1      -8.563  19.278  43.480  1.00  0.00     0.198 HD
HETATM   36  N9  UNL     1      -6.739  16.920  44.322  1.00  0.00    -0.222 N
HETATM   37  C13 UNL     1      -6.793  17.626  45.484  1.00  0.00     0.167 A
ATOM     38  H9  UNL     1      -6.227  16.050  44.173  1.00  0.00     0.198 HD
BRANCH  37  39
HETATM   39  N10 UNL     1      -6.220  17.356  46.613  1.00  0.00    -0.381 N
ATOM     40 2H10 UNL     1      -6.004  16.441  47.009  1.00  0.00     0.157 HD
ATOM     41 1H10 UNL     1      -5.892  18.051  47.284  1.00  0.00     0.157 HD
ENDBRANCH  37  39
ENDBRANCH  30  32
ENDBRANCH   2  30
TORSDOF 11
ENDMDL