MODEL 1
REMARK VINA RESULT: -6.123398607      0.000      0.000
REMARK  12 active torsions:
REMARK  status: ('A' for Active; 'I' for Inactive)
REMARK    1  A    between atoms: O1_2  and  C2_3
REMARK    2  A    between atoms: C6_7  and  C7_8
REMARK    3  A    between atoms: N3_13  and  C8_14
REMARK    4  A    between atoms: C9_15  and  C10_16
REMARK    5  A    between atoms: C10_16  and  O2_18
REMARK    6  A    between atoms: C12_22  and  N5_23
REMARK    7  A    between atoms: N5_23  and  N6_25
REMARK    8  A    between atoms: C13_30  and  N8_31
REMARK    9  A    between atoms: N8_31  and  N9_33
REMARK   10  A    between atoms: C14_35  and  C16_37
REMARK   11  A    between atoms: C16_37  and  N10_38
REMARK   12  A    between atoms: C16_37  and  N11_42
ROOT
HETATM    1  C8  UNL     1     -13.275  26.149  52.804  1.00  0.00     0.147 A
HETATM    2  C9  UNL     1     -13.869  26.769  53.866  1.00  0.00     0.089 A
HETATM    3  N4  UNL     1     -14.469  27.981  53.656  1.00  0.00    -0.189 N
ATOM      4  H4  UNL     1     -14.911  28.445  54.449  1.00  0.00     0.184 HD
HETATM    5  C12 UNL     1     -14.506  28.590  52.464  1.00  0.00     0.698 A
HETATM    6  N7  UNL     1     -13.915  27.972  51.409  1.00  0.00    -0.171 N
ATOM      7  H7  UNL     1     -13.929  28.417  50.490  1.00  0.00     0.186 HD
HETATM    8  C13 UNL     1     -13.311  26.780  51.562  1.00  0.00     0.168 A
ENDROOT
BRANCH   1   9
HETATM    9  N3  UNL     1     -12.650  24.880  52.922  1.00  0.00    -0.175 N
HETATM   10  N2  UNL     1     -13.262  23.711  52.625  1.00  0.00    -0.219 N
HETATM   11  N1  UNL     1     -12.459  22.696  52.824  1.00  0.00    -0.268 N
ATOM     12  H2  UNL     1     -14.222  23.631  52.290  1.00  0.00     0.210 HD
HETATM   13  C7  UNL     1     -11.296  23.203  53.261  1.00  0.00     0.148 A
ATOM     14  H1  UNL     1     -12.675  21.710  52.675  1.00  0.00     0.190 HD
HETATM   15  N12 UNL     1     -11.448  24.520  53.308  1.00  0.00    -0.261 N
ATOM     16  H12 UNL     1     -10.721  25.172  53.606  1.00  0.00     0.191 HD
BRANCH  13  17
HETATM   17  C6  UNL     1     -10.100  22.403  53.613  1.00  0.00     0.013 A
HETATM   18  C5  UNL     1      -9.300  22.721  54.687  1.00  0.00     0.015 A
HETATM   19  C4  UNL     1      -8.179  21.968  55.017  1.00  0.00     0.004 A
HETATM   20  C3  UNL     1      -7.834  20.866  54.268  1.00  0.00     0.037 A
HETATM   21  C2  UNL     1      -8.627  20.537  53.190  1.00  0.00     0.069 A
HETATM   22  C17 UNL     1      -9.752  21.301  52.867  1.00  0.00     0.052 A
BRANCH  21  23
HETATM   23  O1  UNL     1      -8.314  19.435  52.410  1.00  0.00    -0.356 OA
HETATM   24  C1  UNL     1      -7.036  18.867  52.471  1.00  0.00     0.210 C
ENDBRANCH  21  23
ENDBRANCH  13  17
ENDBRANCH   1   9
BRANCH   2  25
HETATM   25  C10 UNL     1     -13.884  26.230  55.228  1.00  0.00     0.167 C
HETATM   26  C11 UNL     1     -15.262  26.454  55.874  1.00  0.00     0.046 C
BRANCH  25  27
HETATM   27  O2  UNL     1     -12.952  26.957  56.021  1.00  0.00    -0.390 OA
ATOM     28  H2  UNL     1     -12.674  26.410  56.746  1.00  0.00     0.210 HD
ENDBRANCH  25  27
ENDBRANCH   2  25
BRANCH   8  29
HETATM   29  N8  UNL     1     -12.740  26.166  50.586  1.00  0.00    -0.283 N
ATOM     30  H8  UNL     1     -13.298  25.480  50.077  1.00  0.00     0.188 HD
BRANCH  29  31
HETATM   31  N9  UNL     1     -11.443  26.353  50.170  1.00  0.00    -0.304 N
HETATM   32  C14 UNL     1     -10.801  25.393  49.606  1.00  0.00     0.057 C
HETATM   33  C15 UNL     1     -11.492  24.092  49.417  1.00  0.00     0.069 C
ATOM     34  H9  UNL     1     -10.989  27.256  50.309  1.00  0.00     0.186 HD
BRANCH  32  35
HETATM   35  C16 UNL     1      -9.395  25.542  49.136  1.00  0.00     0.424 C
BRANCH  35  36
HETATM   36  N10 UNL     1      -9.164  26.935  48.814  1.00  0.00    -0.045 N
ATOM     37 3H10 UNL     1      -9.424  27.164  47.854  1.00  0.00     0.277 HD
ATOM     38 2H10 UNL     1      -9.818  27.560  49.287  1.00  0.00     0.277 HD
ATOM     39 1H10 UNL     1      -8.190  27.158  49.021  1.00  0.00     0.277 HD
ENDBRANCH  35  36
BRANCH  35  40
HETATM   40  N11 UNL     1      -9.226  24.764  47.938  1.00  0.00    -0.045 N
ATOM     41 3H11 UNL     1      -8.869  25.318  47.159  1.00  0.00     0.277 HD
ATOM     42 2H11 UNL     1      -8.452  24.104  48.008  1.00  0.00     0.277 HD
ATOM     43 1H11 UNL     1     -10.111  24.307  47.719  1.00  0.00     0.277 HD
ENDBRANCH  35  40
ENDBRANCH  32  35
ENDBRANCH  29  31
ENDBRANCH   8  29
BRANCH   5  44
HETATM   44  N5  UNL     1     -15.090  29.734  52.331  1.00  0.00    -0.138 N
ATOM     45  H5  UNL     1     -14.869  30.510  52.955  1.00  0.00     0.205 HD
BRANCH  44  46
HETATM   46  N6  UNL     1     -16.031  29.882  51.314  1.00  0.00    -0.331 N
ATOM     47  H62 UNL     1     -15.770  29.685  50.348  1.00  0.00     0.177 HD
ATOM     48  H61 UNL     1     -16.971  30.188  51.566  1.00  0.00     0.177 HD
ENDBRANCH  44  46
ENDBRANCH   5  44
TORSDOF 12
ENDMDL