MODEL 2
REMARK VINA RESULT: -6.757946083      1.306      1.988
REMARK  7 active torsions:
REMARK  status: ('A' for Active; 'I' for Inactive)
REMARK    1  A    between atoms: C4_5  and  C5_6
REMARK    2  A    between atoms: C5_6  and  O1_7
REMARK    3  A    between atoms: O1_7  and  C6_8
REMARK    4  A    between atoms: C6_8  and  C7_10
REMARK    5  A    between atoms: C7_10  and  O3_11
REMARK    6  A    between atoms: O3_11  and  C8_12
REMARK    7  A    between atoms: C8_12  and  C9_14
ROOT
HETATM    1  C6  UNL     1      33.412  18.023  96.377  1.00  0.00     0.283 C
HETATM    2  O2  UNL     1      33.138  18.660  95.328  1.00  0.00    -0.263 OA
ENDROOT
BRANCH   1   3
HETATM    3  O1  UNL     1      32.453  17.125  96.849  1.00  0.00    -0.315 OA
BRANCH   3   4
HETATM    4  C5  UNL     1      31.522  17.570  97.781  1.00  0.00     0.221 C
BRANCH   4   5
HETATM    5  C4  UNL     1      30.158  17.689  97.268  1.00  0.00     0.008 A
HETATM    6  C3  UNL     1      29.612  18.858  96.781  1.00  0.00     0.043 A
HETATM    7  C2  UNL     1      28.306  18.630  96.378  1.00  0.00     0.025 A
HETATM    8 BR1  UNL     1      30.436  20.577  96.639  1.00  0.00    -0.048 Br
HETATM    9  C1  UNL     1      27.359  19.607  95.797  1.00  0.00     0.070 C
HETATM   10  N1  UNL     1      28.056  17.335  96.616  1.00  0.00    -0.357 N
HETATM   11  C14 UNL     1      29.156  16.745  97.153  1.00  0.00     0.017 A
HETATM   12  C16 UNL     1      26.793  16.684  96.334  1.00  0.00     0.156 C
HETATM   13  C15 UNL     1      29.310  15.344  97.560  1.00  0.00     0.069 C
ENDBRANCH   4   5
ENDBRANCH   3   4
ENDBRANCH   1   3
BRANCH   1  14
HETATM   14  C7  UNL     1      34.692  18.245  97.045  1.00  0.00     0.289 C
BRANCH  14  15
HETATM   15  O3  UNL     1      35.717  18.393  96.098  1.00  0.00    -0.310 OA
BRANCH  15  16
HETATM   16  C8  UNL     1      36.489  17.386  95.587  1.00  0.00     0.288 C
HETATM   17  O4  UNL     1      35.967  16.440  94.973  1.00  0.00    -0.262 OA
BRANCH  16  18
HETATM   18  C9  UNL     1      37.978  17.392  95.753  1.00  0.00     0.221 C
HETATM   19  C10 UNL     1      38.422  18.238  96.902  1.00  0.00     0.045 C
HETATM   20  C11 UNL     1      38.636  17.231  97.992  1.00  0.00     0.034 C
HETATM   21  C12 UNL     1      38.695  15.926  97.279  1.00  0.00     0.118 C
HETATM   22  C13 UNL     1      40.099  15.349  97.422  1.00  0.00     0.039 C
HETATM   23  O5  UNL     1      38.452  16.126  95.945  1.00  0.00    -0.371 OA
ENDBRANCH  16  18
ENDBRANCH  15  16
ENDBRANCH  14  15
ENDBRANCH   1  14
TORSDOF 7
ENDMDL