MODEL 5
REMARK VINA RESULT: -6.170579725      2.120      3.991
REMARK  5 active torsions:
REMARK  status: ('A' for Active; 'I' for Inactive)
REMARK    1  A    between atoms: O1_2  and  C2_3
REMARK    2  A    between atoms: C4_5  and  O2_6
REMARK    3  A    between atoms: C9_13  and  C10_14
REMARK    4  A    between atoms: C10_14  and  N1_15
REMARK    5  A    between atoms: N1_15  and  C12_17
ROOT
HETATM    1  C2  UNL     1      32.639  19.854  98.859  1.00  0.00     0.089 A
HETATM    2  C3  UNL     1      33.134  20.979  98.289  1.00  0.00     0.077 A
HETATM    3  C4  UNL     1      32.674  21.479  97.090  1.00  0.00     0.105 A
HETATM    4  C6  UNL     1      31.664  20.770  96.480  1.00  0.00     0.125 A
HETATM    5  O3  UNL     1      31.243  21.255  95.358  1.00  0.00    -0.272 OA
HETATM    6  C7  UNL     1      30.302  20.701  94.675  1.00  0.00     0.288 A
HETATM    7  O4  UNL     1      29.876  21.162  93.574  1.00  0.00    -0.260 OA
HETATM    8  C8  UNL     1      29.707  19.544  95.144  1.00  0.00     0.092 A
HETATM    9  C9  UNL     1      30.077  18.933  96.332  1.00  0.00    -0.010 A
HETATM   10  C15 UNL     1      31.102  19.601  97.007  1.00  0.00     0.029 A
HETATM   11  C16 UNL     1      31.610  19.177  98.189  1.00  0.00     0.058 A
HETATM   12 BR1  UNL     1      30.905  17.628  98.991  1.00  0.00    -0.047 Br
ENDROOT
BRANCH   9  13
HETATM   13  C10 UNL     1      29.438  17.725  96.856  1.00  0.00     0.312 C
BRANCH  13  14
HETATM   14  N1  UNL     1      28.207  17.506  96.030  1.00  0.00     0.097 N
HETATM   15  C11 UNL     1      27.943  16.079  95.840  1.00  0.00     0.310 C
BRANCH  14  16
HETATM   16  C12 UNL     1      27.052  18.037  96.731  1.00  0.00     0.270 C
HETATM   17  C13 UNL     1      26.166  18.935  95.931  1.00  0.00     0.205 C
HETATM   18  O5  UNL     1      25.061  18.258  96.437  1.00  0.00    -0.387 OA
HETATM   19  C14 UNL     1      25.870  17.119  96.509  1.00  0.00     0.205 C
ENDBRANCH  14  16
ENDBRANCH  13  14
ENDBRANCH   9  13
BRANCH   3  20
HETATM   20  O2  UNL     1      33.229  22.615  96.590  1.00  0.00    -0.353 OA
HETATM   21  C5  UNL     1      32.892  23.924  96.891  1.00  0.00     0.210 C
ENDBRANCH   3  20
BRANCH   1  22
HETATM   22  O1  UNL     1      33.075  19.323 100.060  1.00  0.00    -0.354 OA
HETATM   23  C1  UNL     1      34.388  18.941 100.321  1.00  0.00     0.210 C
ENDBRANCH   1  22
TORSDOF 5
ENDMDL