MODEL 2
REMARK VINA RESULT: -5.766950583      4.580      6.870
REMARK  6 active torsions:
REMARK  status: ('A' for Active; 'I' for Inactive)
REMARK    1  A    between atoms: C3_3  and  O1_4
REMARK    2  A    between atoms: O1_4  and  C4_5
REMARK    3  A    between atoms: C4_5  and  C5_6
REMARK    4  A    between atoms: C11_18  and  C12_19
REMARK    5  A    between atoms: C11_18  and  N3_25
REMARK    6  A    between atoms: C12_19  and  C14_21
ROOT
HETATM    1  C1  UNL     1      36.188  16.750  95.062  1.00  0.00     0.055 C
HETATM    2  C2  UNL     1      36.607  17.521  96.291  1.00  0.00     0.024 C
HETATM    3  C3  UNL     1      35.698  18.338  96.784  1.00  0.00     0.126 C
HETATM    4  C9  UNL     1      36.076  19.083  97.950  1.00  0.00     0.204 C
HETATM    5  O2  UNL     1      35.296  20.048  98.280  1.00  0.00    -0.288 OA
HETATM    6  C10 UNL     1      37.271  18.777  98.726  1.00  0.00     0.195 C
HETATM    7 CL1  UNL     1      36.649  17.629  99.977  1.00  0.00    -0.113 Cl
HETATM    8  C11 UNL     1      38.466  18.200  97.983  1.00  0.00     0.121 C
HETATM    9  C20 UNL     1      37.926  17.356  96.894  1.00  0.00     0.188 C
HETATM   10  O3  UNL     1      38.576  16.382  96.367  1.00  0.00    -0.290 OA
ENDROOT
BRANCH   3  11
HETATM   11  O1  UNL     1      34.423  18.474  96.195  1.00  0.00    -0.341 OA
BRANCH  11  12
HETATM   12  C4  UNL     1      33.290  17.958  96.870  1.00  0.00     0.234 C
BRANCH  12  13
HETATM   13  C5  UNL     1      32.048  18.194  96.126  1.00  0.00     0.049 A
HETATM   14  C6  UNL     1      32.020  18.970  94.989  1.00  0.00     0.114 A
HETATM   15  N1  UNL     1      30.826  19.125  94.380  1.00  0.00    -0.372 N
HETATM   16  C7  UNL     1      29.688  18.559  94.838  1.00  0.00     0.104 A
ATOM     17  H1  UNL     1      30.780  19.696  93.536  1.00  0.00     0.164 HD
HETATM   18  C8  UNL     1      29.728  17.793  95.965  1.00  0.00     0.105 A
HETATM   19  N2  UNL     1      30.914  17.627  96.587  1.00  0.00    -0.365 N
ATOM     20  H2  UNL     1      30.954  17.056  97.431  1.00  0.00     0.165 HD
ENDBRANCH  12  13
ENDBRANCH  11  12
ENDBRANCH   3  11
BRANCH   8  21
HETATM   21  C12 UNL     1      39.344  19.313  97.557  1.00  0.00     0.027 C
HETATM   22  C13 UNL     1      38.706  20.659  97.974  1.00  0.00     0.014 C
BRANCH  21  23
HETATM   23  C14 UNL     1      39.802  19.535  96.199  1.00  0.00    -0.045 C
HETATM   24  C15 UNL     1      38.770  19.755  95.118  1.00  0.00     0.015 C
HETATM   25  C16 UNL     1      40.713  20.765  96.204  1.00  0.00     0.015 C
HETATM   26  C17 UNL     1      40.704  18.479  95.584  1.00  0.00     0.015 C
ENDBRANCH  21  23
ENDBRANCH   8  21
BRANCH   8  27
HETATM   27  N3  UNL     1      39.096  17.311  98.931  1.00  0.00    -0.404 N
HETATM   28  C18 UNL     1      39.121  15.936  98.704  1.00  0.00     0.144 C
HETATM   29  C19 UNL     1      40.199  17.774  99.664  1.00  0.00     0.144 C
ENDBRANCH   8  27
TORSDOF 6
ENDMDL