MODEL 3
REMARK VINA RESULT: -6.863771109      5.271      7.919
REMARK  5 active torsions:
REMARK  status: ('A' for Active; 'I' for Inactive)
REMARK    1  A    between atoms: N2_7  and  C5_8
REMARK    2  A    between atoms: C5_8  and  C6_9
REMARK    3  A    between atoms: C6_9  and  C7_10
REMARK    4  A    between atoms: C7_10  and  C8_11
REMARK    5  A    between atoms: C8_11  and  N3_12
ROOT
HETATM    1  N3  UNL     1      33.277  18.637  96.434  1.00  0.00    -0.276 N
HETATM    2  N4  UNL     1      32.786  19.174  97.538  1.00  0.00    -0.297 N
ATOM      3  H4  UNL     1      31.825  19.518  97.534  1.00  0.00     0.187 HD
HETATM    4  C9  UNL     1      33.510  19.284  98.665  1.00  0.00     0.073 A
HETATM    5  C10 UNL     1      32.992  19.880  99.922  1.00  0.00     0.074 C
HETATM    6  C11 UNL     1      34.799  18.815  98.639  1.00  0.00     0.209 A
HETATM    7  O1  UNL     1      35.542  18.877  99.640  1.00  0.00    -0.285 OA
HETATM    8  C12 UNL     1      35.359  18.240  97.492  1.00  0.00     0.063 A
HETATM    9  C13 UNL     1      36.657  17.770  97.473  1.00  0.00     0.040 A
HETATM   10  C14 UNL     1      37.172  17.210  96.326  1.00  0.00     0.027 A
HETATM   11 BR1  UNL     1      38.960  16.561  96.293  1.00  0.00    -0.050 Br
HETATM   12  C15 UNL     1      36.330  17.152  95.228  1.00  0.00     0.109 A
HETATM   13  N5  UNL     1      35.066  17.615  95.264  1.00  0.00    -0.349 N
ATOM     14  H5  UNL     1      34.493  17.545  94.423  1.00  0.00     0.167 HD
HETATM   15  C16 UNL     1      34.533  18.166  96.366  1.00  0.00     0.136 A
ENDROOT
BRANCH   1  16
HETATM   16  C8  UNL     1      32.473  18.523  95.207  1.00  0.00     0.151 C
BRANCH  16  17
HETATM   17  C7  UNL     1      31.537  19.689  95.160  1.00  0.00     0.023 C
BRANCH  17  18
HETATM   18  C6  UNL     1      30.178  19.226  94.704  1.00  0.00     0.023 C
BRANCH  18  19
HETATM   19  C5  UNL     1      29.106  19.391  95.756  1.00  0.00     0.150 C
BRANCH  19  20
HETATM   20  N2  UNL     1      28.791  18.074  96.336  1.00  0.00    -0.279 N
HETATM   21  C3  UNL     1      27.565  17.549  96.509  1.00  0.00     0.095 A
HETATM   22  N1  UNL     1      27.698  16.329  97.067  1.00  0.00    -0.334 N
HETATM   23  C4  UNL     1      26.290  18.203  96.147  1.00  0.00     0.091 C
HETATM   24  C2  UNL     1      29.009  16.085  97.246  1.00  0.00     0.093 A
ATOM     25  H1  UNL     1      26.935  15.699  97.313  1.00  0.00     0.168 HD
HETATM   26  C1  UNL     1      29.632  14.848  97.839  1.00  0.00     0.090 C
HETATM   27  N6  UNL     1      29.648  17.174  96.787  1.00  0.00    -0.286 N
ATOM     28  H6  UNL     1      30.661  17.291  96.787  1.00  0.00     0.188 HD
ENDBRANCH  19  20
ENDBRANCH  18  19
ENDBRANCH  17  18
ENDBRANCH  16  17
ENDBRANCH   1  16
TORSDOF 5
ENDMDL