MODEL 4
REMARK VINA RESULT: -6.018980529      1.034      1.034
REMARK  5 active torsions:
REMARK  status: ('A' for Active; 'I' for Inactive)
REMARK    1  A    between atoms: O1_2  and  C2_3
REMARK    2  A    between atoms: C6_7  and  O2_8
REMARK    3  A    between atoms: C8_10  and  O3_11
REMARK    4  A    between atoms: C11_14  and  C12_15
REMARK    5  A    between atoms: C12_15  and  C13_16
ROOT
HETATM    1  C2  UNL     1      35.360  19.592  99.452  1.00  0.00     0.105 A
HETATM    2  C3  UNL     1      35.041  18.866  98.323  1.00  0.00     0.055 A
HETATM    3  C4  UNL     1      33.876  19.067  97.620  1.00  0.00     0.022 A
HETATM    4  C5  UNL     1      32.999  20.032  98.066  1.00  0.00    -0.007 A
HETATM    5  C6  UNL     1      33.267  20.793  99.197  1.00  0.00     0.111 A
HETATM    6  C8  UNL     1      34.447  20.544  99.855  1.00  0.00     0.135 A
HETATM    7  C10 UNL     1      31.815  20.078  97.154  1.00  0.00     0.055 C
HETATM    8  C11 UNL     1      31.835  18.694  96.554  1.00  0.00     0.070 C
HETATM    9  C17 UNL     1      33.286  18.455  96.410  1.00  0.00     0.165 C
HETATM   10  O4  UNL     1      33.946  17.878  95.511  1.00  0.00    -0.292 OA
ENDROOT
BRANCH   8  11
HETATM   11  C12 UNL     1      31.095  18.637  95.240  1.00  0.00     0.071 C
BRANCH  11  12
HETATM   12  C13 UNL     1      29.664  18.339  95.561  1.00  0.00     0.025 A
HETATM   13  C14 UNL     1      28.693  19.325  95.538  1.00  0.00     0.114 A
HETATM   14  N1  UNL     1      27.401  19.031  95.833  1.00  0.00    -0.357 N
HETATM   15  C15 UNL     1      27.044  17.779  96.152  1.00  0.00     0.095 A
ATOM     16  H1  UNL     1      26.696  19.768  95.812  1.00  0.00     0.166 HD
HETATM   17 BR1  UNL     1      25.252  17.293  96.577  1.00  0.00    -0.030 Br
HETATM   18  C16 UNL     1      28.002  16.790  96.179  1.00  0.00     0.125 A
HETATM   19  N2  UNL     1      29.255  17.099  95.888  1.00  0.00    -0.365 N
ATOM     20  H2  UNL     1      29.952  16.355  95.912  1.00  0.00     0.165 HD
ENDBRANCH  11  12
ENDBRANCH   8  11
BRANCH   5  21
HETATM   21  O2  UNL     1      32.352  21.736  99.589  1.00  0.00    -0.352 OA
HETATM   22  C7  UNL     1      31.206  21.512 100.350  1.00  0.00     0.210 C
ENDBRANCH   5  21
BRANCH   6  23
HETATM   23  O3  UNL     1      34.754  21.277 100.984  1.00  0.00    -0.351 OA
HETATM   24  C9  UNL     1      34.305  20.934 102.281  1.00  0.00     0.210 C
ENDBRANCH   6  23
BRANCH   1  25
HETATM   25  O1  UNL     1      36.542  19.370 100.144  1.00  0.00    -0.353 OA
HETATM   26  C1  UNL     1      36.684  18.145 100.837  1.00  0.00     0.210 C
ENDBRANCH   1  25
TORSDOF 5
ENDMDL