MODEL 3
REMARK VINA RESULT: -5.426366518      2.478      6.465
REMARK  5 active torsions:
REMARK  status: ('A' for Active; 'I' for Inactive)
REMARK    1  A    between atoms: C2_2  and  N1_3
REMARK    2  A    between atoms: N2_11  and  C8_12
REMARK    3  A    between atoms: C8_12  and  C9_13
REMARK    4  A    between atoms: N3_17  and  C13_18
REMARK    5  A    between atoms: C13_18  and  C14_19
ROOT
HETATM    1  C14 UNL     1      27.665  17.903  96.355  1.00  0.00     0.128 C
HETATM    2  C15 UNL     1      26.855  16.611  96.477  1.00  0.00     0.031 C
HETATM    3  C16 UNL     1      26.788  18.954  95.999  1.00  0.00     0.069 C
HETATM    4  N4  UNL     1      26.084  19.817  95.689  1.00  0.00    -0.197 NA
ENDROOT
BRANCH   1   5
HETATM    5  C13 UNL     1      28.926  17.700  95.532  1.00  0.00     0.094 C
BRANCH   5   6
HETATM    6  N3  UNL     1      29.983  18.464  96.062  1.00  0.00    -0.273 N
HETATM    7  C5  UNL     1      30.879  18.121  97.002  1.00  0.00     0.094 A
HETATM    8  C4  UNL     1      31.956  18.952  97.367  1.00  0.00     0.132 A
HETATM    9  C6  UNL     1      30.968  17.017  97.779  1.00  0.00     0.056 A
HETATM   10  C3  UNL     1      32.106  20.167  96.743  1.00  0.00     0.281 A
HETATM   11  N2  UNL     1      32.675  18.366  98.334  1.00  0.00    -0.346 N
HETATM   12  N1  UNL     1      31.200  20.501  95.806  1.00  0.00    -0.264 N
HETATM   13  O1  UNL     1      33.060  20.899  97.065  1.00  0.00    -0.265 OA
HETATM   14  C17 UNL     1      30.184  19.689  95.477  1.00  0.00     0.336 A
HETATM   15  O2  UNL     1      29.405  20.119  94.584  1.00  0.00    -0.246 OA
HETATM   16  C7  UNL     1      32.058  17.166  98.583  1.00  0.00     0.113 A
HETATM   17 BR1  UNL     1      29.795  15.546  97.826  1.00  0.00    -0.047 Br
BRANCH  12  18
HETATM   18  C2  UNL     1      31.371  21.792  95.155  1.00  0.00     0.133 C
HETATM   19  C1  UNL     1      31.455  22.921  96.147  1.00  0.00     0.027 C
ENDBRANCH  12  18
BRANCH  11  20
HETATM   20  C8  UNL     1      33.823  18.757  99.083  1.00  0.00     0.156 C
BRANCH  20  21
HETATM   21  C9  UNL     1      35.048  18.305  98.367  1.00  0.00    -0.005 C
HETATM   22  C10 UNL     1      36.091  19.018  98.041  1.00  0.00    -0.090 C
HETATM   23  C11 UNL     1      37.206  18.297  97.314  1.00  0.00     0.042 C
HETATM   24  C12 UNL     1      36.288  20.444  98.275  1.00  0.00     0.042 C
ENDBRANCH  20  21
ENDBRANCH  11  20
ENDBRANCH   5   6
ENDBRANCH   1   5
TORSDOF 5
ENDMDL