MODEL 5
REMARK VINA RESULT: -6.740175643      1.928      2.286
REMARK  5 active torsions:
REMARK  status: ('A' for Active; 'I' for Inactive)
REMARK    1  A    between atoms: O1_2  and  C2_3
REMARK    2  A    between atoms: C4_5  and  C5_6
REMARK    3  A    between atoms: C8_9  and  N1_10
REMARK    4  A    between atoms: N1_10  and  S1_12
REMARK    5  A    between atoms: S1_12  and  C10_15
ROOT
HETATM    1  N1  UNL     1      30.970  18.733  97.737  1.00  0.00    -0.274 N
HETATM    2  C9  UNL     1      31.178  18.700  99.222  1.00  0.00     0.170 C
ENDROOT
BRANCH   1   3
HETATM    3  C8  UNL     1      29.771  18.199  97.312  1.00  0.00     0.052 A
HETATM    4  C4  UNL     1      29.363  16.916  97.367  1.00  0.00    -0.025 A
HETATM    5  C3  UNL     1      28.115  16.497  96.873  1.00  0.00     0.047 A
HETATM    6  C2  UNL     1      27.274  17.398  96.316  1.00  0.00     0.074 A
HETATM    7  C15 UNL     1      27.635  18.715  96.234  1.00  0.00    -0.026 A
HETATM    8  C14 UNL     1      28.850  19.099  96.719  1.00  0.00     0.040 A
HETATM    9  C16 UNL     1      26.735  19.714  95.631  1.00  0.00     0.051 C
BRANCH   4  10
HETATM   10  C5  UNL     1      30.174  15.855  97.988  1.00  0.00     0.013 C
HETATM   11  C6  UNL     1      29.767  14.508  97.380  1.00  0.00     0.015 C
HETATM   12  C7  UNL     1      29.599  15.754  99.435  1.00  0.00     0.015 C
ENDBRANCH   4  10
BRANCH   6  13
HETATM   13  O1  UNL     1      26.034  17.015  95.819  1.00  0.00    -0.355 OA
HETATM   14  C1  UNL     1      24.921  17.045  96.684  1.00  0.00     0.210 C
ENDBRANCH   6  13
ENDBRANCH   1   3
BRANCH   1  15
HETATM   15  S1  UNL     1      32.286  19.349  96.870  1.00  0.00     0.284 S
HETATM   16  O2  UNL     1      32.419  18.549  95.566  1.00  0.00    -0.198 OA
HETATM   17  O3  UNL     1      33.597  19.083  97.649  1.00  0.00    -0.198 OA
BRANCH  15  18
HETATM   18  C10 UNL     1      32.302  21.053  96.566  1.00  0.00     0.202 A
HETATM   19  C11 UNL     1      31.533  21.665  95.562  1.00  0.00     0.190 A
HETATM   20 CL1  UNL     1      30.465  20.941  94.379  1.00  0.00    -0.053 Cl
HETATM   21  O4  UNL     1      31.736  22.969  95.634  1.00  0.00    -0.245 OA
HETATM   22  C12 UNL     1      32.559  23.233  96.592  1.00  0.00     0.373 A
HETATM   23  O5  UNL     1      32.962  24.370  96.927  1.00  0.00    -0.237 OA
HETATM   24  N2  UNL     1      32.929  22.055  97.194  1.00  0.00    -0.283 N
HETATM   25  C13 UNL     1      33.815  22.034  98.354  1.00  0.00     0.163 C
ENDBRANCH  15  18
ENDBRANCH   1  15
TORSDOF 5
ENDMDL