MODEL 1
REMARK VINA RESULT: -5.962612276      0.000      0.000
REMARK  6 active torsions:
REMARK  status: ('A' for Active; 'I' for Inactive)
REMARK    1  A    between atoms: O1_2  and  C2_3
REMARK    2  A    between atoms: C3_4  and  C4_5
REMARK    3  A    between atoms: C4_5  and  N1_6
REMARK    4  A    between atoms: C7_10  and  C8_11
REMARK    5  A    between atoms: C8_11  and  N2_12
REMARK    6  A    between atoms: C15_22  and  N4_23
ROOT
HETATM    1  N2  UNL     1      33.208  19.526  96.719  1.00  0.00    -0.143 N
HETATM    2  C9  UNL     1      34.374  18.779  96.969  1.00  0.00     0.267 A
HETATM    3  O3  UNL     1      34.799  17.727  96.352  1.00  0.00    -0.270 OA
HETATM    4  C10 UNL     1      35.079  19.425  98.093  1.00  0.00     0.129 A
HETATM    5  C11 UNL     1      36.499  19.789  97.755  1.00  0.00     0.041 C
HETATM    6  C12 UNL     1      37.314  18.612  98.216  1.00  0.00     0.003 C
HETATM    7  C13 UNL     1      36.529  17.808  99.178  1.00  0.00     0.003 C
HETATM    8  C14 UNL     1      35.196  18.516  99.312  1.00  0.00     0.041 C
HETATM    9  N3  UNL     1      34.200  20.492  98.447  1.00  0.00    -0.208 N
ATOM     10  H3  UNL     1      34.401  21.130  99.217  1.00  0.00     0.179 HD
HETATM   11  C15 UNL     1      33.141  20.595  97.731  1.00  0.00     0.681 A
ENDROOT
BRANCH   1  12
HETATM   12  C8  UNL     1      32.150  19.224  95.814  1.00  0.00     0.217 C
BRANCH  12  13
HETATM   13  C7  UNL     1      31.011  18.413  96.272  1.00  0.00     0.097 A
HETATM   14  O2  UNL     1      29.829  18.360  95.538  1.00  0.00    -0.307 OA
HETATM   15  C3  UNL     1      29.002  17.544  96.062  1.00  0.00     0.126 A
HETATM   16  C2  UNL     1      29.584  17.029  97.184  1.00  0.00     0.127 A
HETATM   17  C18 UNL     1      30.835  17.576  97.313  1.00  0.00     0.101 A
HETATM   18 CL1  UNL     1      31.833  17.263  98.729  1.00  0.00    -0.079 Cl
BRANCH  15  19
HETATM   19  C4  UNL     1      27.624  17.067  95.666  1.00  0.00     0.125 C
BRANCH  19  20
HETATM   20  N1  UNL     1      26.642  17.938  96.117  1.00  0.00    -0.396 N
HETATM   21  C5  UNL     1      25.468  17.307  96.622  1.00  0.00     0.148 C
HETATM   22  C6  UNL     1      26.670  19.301  95.911  1.00  0.00     0.148 C
ENDBRANCH  19  20
ENDBRANCH  15  19
BRANCH  16  23
HETATM   23  O1  UNL     1      29.062  16.095  98.117  1.00  0.00    -0.351 OA
HETATM   24  C1  UNL     1      29.519  14.775  97.907  1.00  0.00     0.210 C
ENDBRANCH  16  23
ENDBRANCH  12  13
ENDBRANCH   1  12
BRANCH  11  25
HETATM   25  N4  UNL     1      32.086  21.495  98.028  1.00  0.00    -0.226 N
HETATM   26  C16 UNL     1      31.149  20.962  99.065  1.00  0.00     0.168 C
HETATM   27  C17 UNL     1      31.677  22.727  97.512  1.00  0.00     0.168 C
ENDBRANCH  11  25
TORSDOF 6
ENDMDL