MODEL 1
REMARK VINA RESULT: -6.329223701      0.000      0.000
REMARK  7 active torsions:
REMARK  status: ('A' for Active; 'I' for Inactive)
REMARK    1  A    between atoms: C2_2  and  C3_3
REMARK    2  A    between atoms: C4_4  and  C5_5
REMARK    3  A    between atoms: C7_9  and  N2_10
REMARK    4  A    between atoms: N2_10  and  C8_11
REMARK    5  A    between atoms: N2_10  and  S1_15
REMARK    6  A    between atoms: C8_11  and  C9_12
REMARK    7  A    between atoms: S1_15  and  C11_18
ROOT
HETATM    1  C9  UNL     1      30.794  16.036  98.397  1.00  0.00     0.144 C
HETATM    2  C10 UNL     1      29.820  15.084  97.797  1.00  0.00     0.060 C
HETATM    3  N3  UNL     1      29.068  14.347  97.311  1.00  0.00    -0.197 NA
ENDROOT
BRANCH   1   4
HETATM    4  C8  UNL     1      30.176  17.386  98.276  1.00  0.00     0.155 C
BRANCH   4   5
HETATM    5  N2  UNL     1      30.812  18.300  97.381  1.00  0.00    -0.278 N
BRANCH   5   6
HETATM    6  C7  UNL     1      32.239  18.393  97.441  1.00  0.00     0.137 A
HETATM    7  N1  UNL     1      32.961  17.788  96.455  1.00  0.00    -0.349 N
HETATM    8  C6  UNL     1      34.304  17.798  96.422  1.00  0.00     0.110 A
ATOM      9  H1  UNL     1      32.459  17.306  95.709  1.00  0.00     0.167 HD
HETATM   10  C5  UNL     1      35.054  18.428  97.391  1.00  0.00     0.034 A
HETATM   11  C16 UNL     1      34.357  19.050  98.402  1.00  0.00     0.049 A
HETATM   12  C15 UNL     1      32.956  19.027  98.418  1.00  0.00     0.080 A
HETATM   13 CL1  UNL     1      32.078  19.846  99.703  1.00  0.00    -0.080 Cl
BRANCH  10  14
HETATM   14  C4  UNL     1      36.501  18.428  97.340  1.00  0.00    -0.066 C
HETATM   15  C3  UNL     1      37.707  18.416  97.285  1.00  0.00    -0.101 C
BRANCH  15  16
HETATM   16  C2  UNL     1      39.180  18.401  97.196  1.00  0.00     0.090 C
HETATM   17  C1  UNL     1      39.636  17.467  96.080  1.00  0.00     0.018 C
ENDBRANCH  15  16
ENDBRANCH  10  14
ENDBRANCH   5   6
BRANCH   5  18
HETATM   18  S1  UNL     1      29.973  19.306  96.243  1.00  0.00     0.129 S
HETATM   19  O1  UNL     1      30.187  20.757  96.535  1.00  0.00    -0.232 OA
HETATM   20  S2  UNL     1      30.708  18.994  94.710  1.00  0.00     0.035 SA
BRANCH  18  21
HETATM   21  C11 UNL     1      28.274  18.913  96.180  1.00  0.00     0.084 A
HETATM   22  C12 UNL     1      27.243  19.774  95.874  1.00  0.00     0.131 A
HETATM   23  N4  UNL     1      26.078  19.062  95.938  1.00  0.00    -0.309 N
HETATM   24  N5  UNL     1      26.331  17.826  96.262  1.00  0.00    -0.307 N
ATOM     25  H4  UNL     1      25.149  19.443  95.758  1.00  0.00     0.186 HD
HETATM   26  C13 UNL     1      25.310  16.795  96.418  1.00  0.00     0.177 C
HETATM   27  C14 UNL     1      27.669  17.697  96.419  1.00  0.00     0.133 A
ENDBRANCH  18  21
ENDBRANCH   5  18
ENDBRANCH   4   5
ENDBRANCH   1   4
TORSDOF 7
ENDMDL