MODEL 2
REMARK VINA RESULT: -6.498791364      3.287      4.474
REMARK  9 active torsions:
REMARK  status: ('A' for Active; 'I' for Inactive)
REMARK    1  A    between atoms: C2_2  and  O1_3
REMARK    2  A    between atoms: C2_2  and  C3_5
REMARK    3  A    between atoms: C3_5  and  N1_6
REMARK    4  A    between atoms: C3_5  and  C6_12
REMARK       I    between atoms: N1_6  and  C4_8
REMARK    5  A    between atoms: C4_8  and  C5_10
REMARK    6  A    between atoms: C9_17  and  C10_18
REMARK    7  A    between atoms: C11_19  and  C12_20
REMARK    8  A    between atoms: C12_20  and  N3_21
REMARK    9  A    between atoms: C12_20  and  O3_25
ROOT
HETATM    1  C12 UNL     1      38.412  -8.763  62.621  1.00  0.00     0.377 C
HETATM    2  C13 UNL     1      37.000  -8.934  62.206  1.00  0.00     0.142 C
HETATM    3  N4  UNL     1      35.908  -9.063  61.888  1.00  0.00    -0.191 NA
ENDROOT
BRANCH   1   4
HETATM    4  C11 UNL     1      38.490  -8.359  64.024  1.00  0.00    -0.016 C
HETATM    5  C10 UNL     1      38.533  -8.021  65.190  1.00  0.00    -0.041 C
BRANCH   5   6
HETATM    6  C9  UNL     1      38.561  -7.636  66.579  1.00  0.00     0.102 A
HETATM    7  C8  UNL     1      37.991  -8.453  67.547  1.00  0.00     0.126 A
HETATM    8  N2  UNL     1      38.046  -8.088  68.818  1.00  0.00    -0.371 N
HETATM    9  C7  UNL     1      38.664  -6.919  69.123  1.00  0.00     0.115 A
ATOM     10  H2  UNL     1      37.635  -8.670  69.548  1.00  0.00     0.164 HD
HETATM   11  C6  UNL     1      39.235  -6.093  68.170  1.00  0.00     0.051 A
HETATM   12  N5  UNL     1      39.183  -6.454  66.889  1.00  0.00    -0.349 N
ATOM     13  H5  UNL     1      39.594  -5.870  66.160  1.00  0.00     0.166 HD
BRANCH  11  14
HETATM   14  C3  UNL     1      39.910  -4.833  68.650  1.00  0.00     0.164 C
BRANCH  14  15
HETATM   15  C2  UNL     1      41.294  -4.746  68.074  1.00  0.00     0.142 C
HETATM   16  C1  UNL     1      42.247  -3.924  68.891  1.00  0.00     0.042 C
BRANCH  15  17
HETATM   17  O1  UNL     1      41.829  -6.022  67.783  1.00  0.00    -0.394 OA
ATOM     18  H1  UNL     1      41.928  -6.152  66.847  1.00  0.00     0.210 HD
ENDBRANCH  15  17
ENDBRANCH  14  15
BRANCH  14  19
HETATM   19  N1  UNL     1      39.128  -3.702  68.141  1.00  0.00    -0.348 N
HETATM   20  C4  UNL     1      38.243  -2.932  68.923  1.00  0.00     0.232 C
HETATM   21  O2  UNL     1      38.116  -3.264  70.149  1.00  0.00    -0.272 OA
ATOM     22  H1  UNL     1      39.231  -3.455  67.156  1.00  0.00     0.163 HD
BRANCH  20  23
HETATM   23  C5  UNL     1      37.477  -1.797  68.399  1.00  0.00     0.217 C
HETATM   24 CL1  UNL     1      37.650  -0.465  69.563  1.00  0.00    -0.121 Cl
ENDBRANCH  20  23
ENDBRANCH  14  19
ENDBRANCH  11  14
ENDBRANCH   5   6
ENDBRANCH   1   4
BRANCH   1  25
HETATM   25  N3  UNL     1      39.093  -9.984  62.318  1.00  0.00    -0.021 N
ATOM     26  H33 UNL     1      40.092  -9.887  62.498  1.00  0.00     0.280 HD
ATOM     27  H32 UNL     1      38.860 -10.701  63.005  1.00  0.00     0.280 HD
ATOM     28  H31 UNL     1      38.934 -10.332  61.372  1.00  0.00     0.280 HD
ENDBRANCH   1  25
BRANCH   1  29
HETATM   29  O3  UNL     1      38.939  -7.700  61.890  1.00  0.00    -0.344 OA
ATOM     30  H3  UNL     1      39.860  -7.662  62.117  1.00  0.00     0.214 HD
ENDBRANCH   1  29
TORSDOF 9
ENDMDL