MODEL 3
REMARK VINA RESULT: -6.514077630      0.990      1.160
REMARK  6 active torsions:
REMARK  status: ('A' for Active; 'I' for Inactive)
REMARK    1  A    between atoms: C2_2  and  C3_4
REMARK    2  A    between atoms: C2_2  and  C11_24
REMARK       I    between atoms: C3_4  and  N1_6
REMARK    3  A    between atoms: N1_6  and  C4_8
REMARK    4  A    between atoms: C5_11  and  C6_12
REMARK       I    between atoms: C6_12  and  N3_14
REMARK    5  A    between atoms: C11_24  and  N6_25
REMARK    6  A    between atoms: C11_24  and  N7_29
ROOT
HETATM    1  C4  UNL     1      31.507  -8.159  68.588  1.00  0.00     0.701 A
HETATM    2  N2  UNL     1      32.808  -8.104  69.023  1.00  0.00    -0.168 N
ATOM      3  H2  UNL     1      33.099  -7.787  69.948  1.00  0.00     0.186 HD
HETATM    4  C5  UNL     1      33.638  -8.522  68.067  1.00  0.00     0.204 A
HETATM    5  N4  UNL     1      32.877  -8.848  67.016  1.00  0.00    -0.266 N
ATOM      6  H4  UNL     1      33.214  -9.205  66.122  1.00  0.00     0.189 HD
HETATM    7  N5  UNL     1      31.609  -8.628  67.335  1.00  0.00    -0.130 N
ATOM      8  H5  UNL     1      30.818  -8.793  66.713  1.00  0.00     0.205 HD
ENDROOT
BRANCH   1   9
HETATM    9  N1  UNL     1      30.369  -7.793  69.335  1.00  0.00    -0.156 N
HETATM   10  C3  UNL     1      29.146  -8.474  69.315  1.00  0.00     0.263 C
HETATM   11  O1  UNL     1      28.986  -9.487  68.605  1.00  0.00    -0.270 OA
ATOM     12  H1  UNL     1      30.442  -6.972  69.934  1.00  0.00     0.187 HD
BRANCH  10  13
HETATM   13  C2  UNL     1      27.984  -8.036  70.127  1.00  0.00     0.168 C
HETATM   14  C1  UNL     1      27.254  -6.871  69.542  1.00  0.00     0.047 C
HETATM   15 CL1  UNL     1      28.642  -7.595  71.741  1.00  0.00    -0.105 Cl
BRANCH  13  16
HETATM   16  C11 UNL     1      27.006  -9.156  70.358  1.00  0.00     0.410 C
BRANCH  16  17
HETATM   17  N6  UNL     1      25.747  -8.689  70.894  1.00  0.00    -0.048 N
ATOM     18  H63 UNL     1      25.266  -9.430  71.404  1.00  0.00     0.276 HD
ATOM     19  H62 UNL     1      25.895  -8.033  71.661  1.00  0.00     0.276 HD
ATOM     20  H61 UNL     1      25.144  -8.286  70.177  1.00  0.00     0.276 HD
ENDBRANCH  16  17
BRANCH  16  21
HETATM   21  N7  UNL     1      27.528 -10.202  71.189  1.00  0.00    -0.048 N
ATOM     22  H73 UNL     1      28.252  -9.843  71.812  1.00  0.00     0.276 HD
ATOM     23  H72 UNL     1      26.839 -10.492  71.883  1.00  0.00     0.276 HD
ATOM     24  H71 UNL     1      27.870 -11.005  70.661  1.00  0.00     0.276 HD
ENDBRANCH  16  21
ENDBRANCH  13  16
ENDBRANCH  10  13
ENDBRANCH   1   9
BRANCH   4  25
HETATM   25  C6  UNL     1      35.087  -8.628  68.092  1.00  0.00     0.289 C
HETATM   26  O2  UNL     1      35.640  -9.564  68.726  1.00  0.00    -0.264 OA
HETATM   27  N3  UNL     1      35.910  -7.700  67.418  1.00  0.00    -0.341 N
HETATM   28  C7  UNL     1      35.439  -6.570  66.645  1.00  0.00     0.152 C
HETATM   29  C10 UNL     1      37.374  -7.835  67.462  1.00  0.00     0.152 C
HETATM   30  C8  UNL     1      36.676  -5.913  66.039  1.00  0.00     0.187 C
HETATM   31  O3  UNL     1      37.586  -5.500  66.980  1.00  0.00    -0.388 OA
HETATM   32  C9  UNL     1      37.914  -6.491  67.899  1.00  0.00     0.187 C
ENDBRANCH   4  25
TORSDOF 6
ENDMDL