MODEL 1
REMARK VINA RESULT: -6.550476299      0.000      0.000
REMARK  7 active torsions:
REMARK  status: ('A' for Active; 'I' for Inactive)
REMARK       I    between atoms: N1_2  and  C2_4
REMARK    1  A    between atoms: C2_4  and  C3_6
REMARK    2  A    between atoms: C4_12  and  N5_13
REMARK    3  A    between atoms: N5_13  and  C5_15
REMARK    4  A    between atoms: C5_15  and  C6_16
REMARK    5  A    between atoms: C6_16  and  N6_17
REMARK    6  A    between atoms: C11_23  and  N7_24
REMARK    7  A    between atoms: N7_24  and  N8_26
ROOT
HETATM    1  C3  UNL     1      31.658  -8.357  68.237  1.00  0.00     0.192 A
HETATM    2  N2  UNL     1      32.803  -8.376  68.946  1.00  0.00    -0.259 N
ATOM      3  H2  UNL     1      32.746  -8.248  69.956  1.00  0.00     0.191 HD
HETATM    4  N3  UNL     1      34.005  -8.552  68.403  1.00  0.00    -0.188 N
HETATM    5  N4  UNL     1      35.198  -8.595  68.939  1.00  0.00    -0.262 N
ATOM      6  H4  UNL     1      35.411  -8.494  69.931  1.00  0.00     0.191 HD
HETATM    7  C4  UNL     1      36.118  -8.801  67.932  1.00  0.00     0.142 A
HETATM    8  C9  UNL     1      35.424  -8.884  66.740  1.00  0.00     0.113 A
HETATM    9 CL1  UNL     1      36.064  -9.138  65.127  1.00  0.00    -0.077 Cl
HETATM   10  C10 UNL     1      34.081  -8.720  67.074  1.00  0.00     0.145 A
HETATM   11  C11 UNL     1      32.956  -8.712  66.306  1.00  0.00     0.154 A
HETATM   12  N9  UNL     1      31.759  -8.532  66.885  1.00  0.00    -0.320 N
ATOM     13  H9  UNL     1      30.916  -8.526  66.310  1.00  0.00     0.169 HD
ENDROOT
BRANCH   7  14
HETATM   14  N5  UNL     1      37.354  -8.880  68.177  1.00  0.00    -0.372 N
ATOM     15  H5  UNL     1      37.625  -9.682  68.746  1.00  0.00     0.161 HD
BRANCH  14  16
HETATM   16  C5  UNL     1      38.418  -8.043  67.793  1.00  0.00     0.151 C
BRANCH  16  17
HETATM   17  C6  UNL     1      38.663  -6.951  68.839  1.00  0.00     0.290 C
BRANCH  17  18
HETATM   18  N6  UNL     1      38.666  -5.634  68.287  1.00  0.00     0.081 N
HETATM   19  C7  UNL     1      37.549  -5.337  67.443  1.00  0.00     0.309 C
HETATM   20  C8  UNL     1      38.981  -4.609  69.233  1.00  0.00     0.309 C
ENDBRANCH  17  18
ENDBRANCH  16  17
ENDBRANCH  14  16
ENDBRANCH   7  14
BRANCH  11  21
HETATM   21  N7  UNL     1      33.000  -8.875  65.012  1.00  0.00    -0.290 N
ATOM     22  H7  UNL     1      33.853  -9.226  64.578  1.00  0.00     0.188 HD
BRANCH  21  23
HETATM   23  N8  UNL     1      31.895  -8.576  64.218  1.00  0.00    -0.344 N
ATOM     24  H82 UNL     1      31.048  -9.134  64.328  1.00  0.00     0.176 HD
ATOM     25  H81 UNL     1      31.930  -7.815  63.540  1.00  0.00     0.176 HD
ENDBRANCH  21  23
ENDBRANCH  11  21
BRANCH   1  26
HETATM   26  C2  UNL     1      30.354  -8.164  68.855  1.00  0.00     0.286 C
HETATM   27  N1  UNL     1      30.123  -7.124  69.771  1.00  0.00    -0.359 N
HETATM   28  C1  UNL     1      28.837  -6.910  70.391  1.00  0.00     0.149 C
ATOM     29  H1  UNL     1      30.893  -6.497  70.006  1.00  0.00     0.162 HD
HETATM   30  O1  UNL     1      29.421  -8.946  68.557  1.00  0.00    -0.264 OA
ENDBRANCH   1  26
TORSDOF 7
ENDMDL