MODEL 4
REMARK VINA RESULT: -6.107889539      6.032      8.821
REMARK  6 active torsions:
REMARK  status: ('A' for Active; 'I' for Inactive)
REMARK    1  A    between atoms: C5_11  and  N4_12
REMARK    2  A    between atoms: C7_16  and  C8_17
REMARK    3  A    between atoms: C9_18  and  C10_19
REMARK    4  A    between atoms: C10_19  and  N5_20
REMARK    5  A    between atoms: N5_20  and  C11_22
REMARK    6  A    between atoms: C11_22  and  C12_23
ROOT
HETATM    1  C1  UNL     1      33.545  -3.746  66.825  1.00  0.00     0.148 C
HETATM    2  N1  UNL     1      34.637  -3.172  67.546  1.00  0.00    -0.377 N
ATOM      3  H1  UNL     1      34.465  -2.236  67.912  1.00  0.00     0.160 HD
HETATM    4  C2  UNL     1      35.784  -3.641  67.803  1.00  0.00     0.154 A
HETATM    5  C3  UNL     1      36.260  -4.874  67.425  1.00  0.00     0.094 A
HETATM    6  N2  UNL     1      35.416  -5.678  66.791  1.00  0.00    -0.348 N
ATOM      7  H2  UNL     1      34.480  -5.340  66.569  1.00  0.00     0.167 HD
HETATM    8  C4  UNL     1      35.760  -6.924  66.434  1.00  0.00     0.182 A
HETATM    9  N3  UNL     1      36.993  -7.372  66.726  1.00  0.00    -0.338 N
ATOM     10  H3  UNL     1      37.252  -8.321  66.455  1.00  0.00     0.168 HD
HETATM   11  C5  UNL     1      37.904  -6.602  67.371  1.00  0.00     0.113 A
HETATM   12  C6  UNL     1      37.556  -5.324  67.731  1.00  0.00     0.052 A
HETATM   13  C7  UNL     1      38.431  -4.551  68.423  1.00  0.00     0.028 A
HETATM   14  C13 UNL     1      37.868  -3.272  68.796  1.00  0.00     0.157 A
HETATM   15  N6  UNL     1      38.034  -2.106  69.402  1.00  0.00    -0.268 N
ATOM     16  H6  UNL     1      38.811  -1.678  69.905  1.00  0.00     0.190 HD
HETATM   17  N7  UNL     1      36.813  -1.709  69.106  1.00  0.00    -0.231 N
ATOM     18  H7  UNL     1      36.248  -0.876  69.269  1.00  0.00     0.209 HD
HETATM   19  N8  UNL     1      36.650  -2.882  68.497  1.00  0.00    -0.205 N
ENDROOT
BRANCH  13  20
HETATM   20  C8  UNL     1      39.686  -4.673  68.558  1.00  0.00     0.018 C
HETATM   21  C9  UNL     1      41.039  -4.368  68.258  1.00  0.00     0.018 C
BRANCH  21  22
HETATM   22  C10 UNL     1      41.856  -5.508  67.688  1.00  0.00     0.083 C
BRANCH  22  23
HETATM   23  N5  UNL     1      42.236  -5.516  66.492  1.00  0.00    -0.398 N
ATOM     24  H5  UNL     1      43.233  -5.474  66.281  1.00  0.00     0.158 HD
BRANCH  23  25
HETATM   25  C11 UNL     1      41.297  -5.585  65.426  1.00  0.00     0.134 C
BRANCH  25  26
HETATM   26  C12 UNL     1      41.227  -6.957  64.801  1.00  0.00     0.134 C
HETATM   27 CL1  UNL     1      41.964  -6.945  63.187  1.00  0.00    -0.129 Cl
ENDBRANCH  25  26
ENDBRANCH  23  25
ENDBRANCH  22  23
ENDBRANCH  21  22
ENDBRANCH  13  20
BRANCH  11  28
HETATM   28  N4  UNL     1      38.974  -7.160  67.683  1.00  0.00    -0.385 N
ATOM     29  H42 UNL     1      39.326  -7.247  68.637  1.00  0.00     0.157 HD
ATOM     30  H41 UNL     1      39.475  -7.628  66.929  1.00  0.00     0.157 HD
ENDBRANCH  11  28
TORSDOF 6
ENDMDL