MODEL 4
REMARK VINA RESULT: -7.231276077      5.833      9.698
REMARK  5 active torsions:
REMARK  status: ('A' for Active; 'I' for Inactive)
REMARK       I    between atoms: N2_3  and  C2_5
REMARK       I    between atoms: C2_5  and  N5_20
REMARK    1  A    between atoms: N3_6  and  N4_8
REMARK    2  A    between atoms: N4_8  and  S1_10
REMARK    3  A    between atoms: S1_10  and  C3_13
REMARK    4  A    between atoms: N5_20  and  O3_22
REMARK    5  A    between atoms: O3_22  and  C9_23
ROOT
HETATM    1  N1  UNL     1      36.632  -9.744  64.409  1.00  0.00    -0.171 NA
HETATM    2  C1  UNL     1      36.300  -8.682  64.743  1.00  0.00     0.196 C
HETATM    3  N2  UNL     1      35.893  -7.399  65.158  1.00  0.00    -0.123 N
ATOM      4  H2  UNL     1      35.675  -6.698  64.450  1.00  0.00     0.197 HD
HETATM    5  C2  UNL     1      35.776  -7.051  66.526  1.00  0.00     0.726 C
HETATM    6  N3  UNL     1      36.779  -6.512  67.107  1.00  0.00    -0.120 N
ATOM      7  H3  UNL     1      36.721  -6.252  68.092  1.00  0.00     0.206 HD
HETATM    8  N5  UNL     1      34.595  -7.280  67.266  1.00  0.00    -0.085 N
ATOM      9  H5  UNL     1      34.364  -6.695  68.069  1.00  0.00     0.214 HD
ENDROOT
BRANCH   6  10
HETATM   10  N4  UNL     1      37.947  -6.281  66.393  1.00  0.00    -0.208 N
ATOM     11  H4  UNL     1      37.991  -5.558  65.675  1.00  0.00     0.201 HD
BRANCH  10  12
HETATM   12  S1  UNL     1      39.322  -7.257  66.761  1.00  0.00     0.278 S
HETATM   13  O1  UNL     1      40.115  -6.562  67.833  1.00  0.00    -0.199 OA
HETATM   14  O2  UNL     1      38.944  -8.600  67.270  1.00  0.00    -0.199 OA
BRANCH  12  15
HETATM   15  C3  UNL     1      40.248  -7.424  65.287  1.00  0.00     0.102 A
HETATM   16  C4  UNL     1      40.330  -8.619  64.612  1.00  0.00     0.027 A
HETATM   17  C5  UNL     1      41.069  -8.697  63.461  1.00  0.00     0.002 A
HETATM   18  C6  UNL     1      41.754  -7.636  62.918  1.00  0.00     0.002 A
HETATM   19  C7  UNL     1      41.657  -6.442  63.615  1.00  0.00     0.025 A
HETATM   20  C8  UNL     1      40.922  -6.341  64.773  1.00  0.00     0.057 A
HETATM   21 CL1  UNL     1      40.847  -4.788  65.600  1.00  0.00    -0.083 Cl
ENDBRANCH  12  15
ENDBRANCH  10  12
ENDBRANCH   6  10
BRANCH   8  22
HETATM   22  O3  UNL     1      33.768  -8.295  66.886  1.00  0.00    -0.169 OA
BRANCH  22  23
HETATM   23  C9  UNL     1      32.963  -8.912  67.809  1.00  0.00     0.395 C
HETATM   24  N6  UNL     1      33.385  -9.316  69.099  1.00  0.00    -0.031 NA
HETATM   25  O4  UNL     1      31.753  -9.126  67.456  1.00  0.00    -0.240 OA
ENDBRANCH  22  23
ENDBRANCH   8  22
TORSDOF 5
ENDMDL