MODEL 5
REMARK VINA RESULT: -5.939848022      1.317      1.391
REMARK  6 active torsions:
REMARK  status: ('A' for Active; 'I' for Inactive)
REMARK    1  A    between atoms: N1_1  and  C1_4
REMARK    2  A    between atoms: C2_5  and  C3_6
REMARK    3  A    between atoms: N5_13  and  C4_14
REMARK    4  A    between atoms: C4_14  and  C5_15
REMARK    5  A    between atoms: C5_15  and  N6_16
REMARK    6  A    between atoms: N6_16  and  C6_18
ROOT
HETATM    1  C1  UNL     1      28.578  -8.246  69.556  1.00  0.00     0.151 A
HETATM    2  C2  UNL     1      28.125  -8.830  70.700  1.00  0.00     0.159 A
HETATM    3  N3  UNL     1      28.676  -8.092  71.716  1.00  0.00    -0.278 N
ATOM      4  H3  UNL     1      28.543  -8.258  72.714  1.00  0.00     0.189 HD
HETATM    5  N4  UNL     1      29.409  -7.131  71.187  1.00  0.00    -0.238 N
ATOM      6  H4  UNL     1      29.929  -6.439  71.726  1.00  0.00     0.208 HD
HETATM    7  N5  UNL     1      29.382  -7.181  69.882  1.00  0.00    -0.259 N
ENDROOT
BRANCH   7   8
HETATM    8  C4  UNL     1      30.038  -6.327  68.916  1.00  0.00     0.172 C
BRANCH   8   9
HETATM    9  C5  UNL     1      31.540  -6.448  68.945  1.00  0.00     0.143 C
BRANCH   9  10
HETATM   10  N6  UNL     1      32.003  -7.797  68.761  1.00  0.00    -0.368 N
ATOM     11  H6  UNL     1      31.327  -8.561  68.739  1.00  0.00     0.161 HD
BRANCH  10  12
HETATM   12  C6  UNL     1      33.277  -8.061  68.621  1.00  0.00     0.161 A
HETATM   13  N7  UNL     1      34.037  -8.871  69.367  1.00  0.00    -0.279 N
HETATM   14  N8  UNL     1      35.272  -8.995  69.066  1.00  0.00    -0.286 N
ATOM     15  H7  UNL     1      33.640  -9.379  70.158  1.00  0.00     0.189 HD
HETATM   16  C7  UNL     1      35.779  -8.337  68.041  1.00  0.00     0.139 A
ATOM     17  H8  UNL     1      35.870  -9.608  69.621  1.00  0.00     0.188 HD
HETATM   18 BR1  UNL     1      37.579  -8.349  67.385  1.00  0.00    -0.021 Br
HETATM   19  S1  UNL     1      34.407  -7.491  67.477  1.00  0.00    -0.026 SA
ENDBRANCH  10  12
ENDBRANCH   9  10
ENDBRANCH   8   9
ENDBRANCH   7   8
BRANCH   1  20
HETATM   20  N1  UNL     1      28.328  -8.590  68.366  1.00  0.00    -0.382 N
ATOM     21  H12 UNL     1      27.822  -7.999  67.706  1.00  0.00     0.157 HD
ATOM     22  H11 UNL     1      28.580  -9.465  67.907  1.00  0.00     0.157 HD
ENDBRANCH   1  20
BRANCH   2  23
HETATM   23  C3  UNL     1      27.249  -9.983  70.923  1.00  0.00     0.286 C
HETATM   24  N2  UNL     1      27.484 -11.280  70.437  1.00  0.00    -0.056 NA
HETATM   25  O1  UNL     1      26.189  -9.769  71.618  1.00  0.00    -0.269 OA
ENDBRANCH   2  23
TORSDOF 6
ENDMDL