MODEL 1
REMARK VINA RESULT: -6.966573463      0.000      0.000
REMARK  6 active torsions:
REMARK  status: ('A' for Active; 'I' for Inactive)
REMARK    1  A    between atoms: C3_3  and  N1_4
REMARK    2  A    between atoms: N2_6  and  C5_8
REMARK    3  A    between atoms: C5_8  and  C6_9
REMARK    4  A    between atoms: C6_9  and  C7_10
REMARK       I    between atoms: C7_10  and  N3_12
REMARK    5  A    between atoms: N3_12  and  N4_14
REMARK    6  A    between atoms: N6_22  and  O2_23
ROOT
HETATM    1  C1  UNL     1      40.642  -8.453  64.614  1.00  0.00     0.014 C
HETATM    2  C2  UNL     1      40.386  -7.752  65.561  1.00  0.00    -0.097 C
HETATM    3  C3  UNL     1      40.088  -6.890  66.732  1.00  0.00     0.242 C
ENDROOT
BRANCH   3   4
HETATM    4  N1  UNL     1      38.685  -6.578  66.788  1.00  0.00    -0.155 N
HETATM    5  C4  UNL     1      38.033  -5.492  66.364  1.00  0.00     0.683 A
HETATM    6  N2  UNL     1      38.423  -4.424  65.765  1.00  0.00    -0.225 N
HETATM    7  N5  UNL     1      36.696  -5.670  66.669  1.00  0.00    -0.185 N
ATOM      8  H2  UNL     1      37.686  -3.747  65.563  1.00  0.00     0.177 HD
HETATM    9  C8  UNL     1      36.540  -6.839  67.264  1.00  0.00     0.135 A
ATOM     10  H5  UNL     1      35.949  -5.004  66.468  1.00  0.00     0.184 HD
HETATM   11  C9  UNL     1      35.434  -7.502  67.767  1.00  0.00     0.166 A
HETATM   12  C11 UNL     1      37.768  -7.428  67.351  1.00  0.00     0.158 A
HETATM   13 CL1  UNL     1      33.826  -6.788  67.681  1.00  0.00    -0.059 Cl
HETATM   14  N6  UNL     1      35.618  -8.704  68.324  1.00  0.00    -0.181 N
HETATM   15  C10 UNL     1      36.829  -9.295  68.413  1.00  0.00     0.222 A
HETATM   16  N7  UNL     1      37.018 -10.564  69.001  1.00  0.00    -0.061 NA
HETATM   17  N8  UNL     1      37.902  -8.647  67.922  1.00  0.00    -0.312 N
ATOM     18  H8  UNL     1      38.824  -9.079  67.982  1.00  0.00     0.170 HD
BRANCH   6  19
HETATM   19  C5  UNL     1      39.709  -4.047  65.347  1.00  0.00     0.147 C
BRANCH  19  20
HETATM   20  C6  UNL     1      39.564  -2.709  64.580  1.00  0.00     0.124 C
BRANCH  20  21
HETATM   21  C7  UNL     1      38.645  -2.919  63.441  1.00  0.00     0.237 C
HETATM   22  O1  UNL     1      38.727  -3.994  62.797  1.00  0.00    -0.272 OA
HETATM   23  N3  UNL     1      37.677  -1.972  63.042  1.00  0.00    -0.277 N
ATOM     24  H3  UNL     1      37.593  -1.093  63.552  1.00  0.00     0.189 HD
BRANCH  23  25
HETATM   25  N4  UNL     1      36.835  -2.222  61.960  1.00  0.00    -0.343 N
ATOM     26  H42 UNL     1      37.228  -2.192  61.019  1.00  0.00     0.176 HD
ATOM     27  H41 UNL     1      35.847  -2.430  62.103  1.00  0.00     0.176 HD
ENDBRANCH  23  25
ENDBRANCH  20  21
ENDBRANCH  19  20
ENDBRANCH   6  19
BRANCH  14  28
HETATM   28  O2  UNL     1      34.558  -9.436  68.852  1.00  0.00    -0.279 OA
ATOM     29  H2  UNL     1      34.508  -9.647  69.778  1.00  0.00     0.245 HD
ENDBRANCH  14  28
ENDBRANCH   3   4
TORSDOF 6
ENDMDL