MODEL 1
REMARK VINA RESULT: -6.381122593      0.000      0.000
REMARK  6 active torsions:
REMARK  status: ('A' for Active; 'I' for Inactive)
REMARK    1  A    between atoms: O1_2  and  N1_3
REMARK    2  A    between atoms: N1_3  and  C2_5
REMARK    3  A    between atoms: C5_12  and  N4_13
REMARK    4  A    between atoms: N4_13  and  C6_15
REMARK    5  A    between atoms: C6_15  and  C7_16
REMARK    6  A    between atoms: C7_16  and  N5_17
ROOT
HETATM    1  C2  UNL     1      38.047  -2.978  68.650  1.00  0.00     0.155 A
HETATM    2  N2  UNL     1      38.502  -3.780  69.631  1.00  0.00    -0.335 N
ATOM      3  H2  UNL     1      38.059  -3.739  70.548  1.00  0.00     0.168 HD
HETATM    4  C3  UNL     1      39.525  -4.636  69.437  1.00  0.00     0.182 A
HETATM    5  N3  UNL     1      40.147  -4.732  68.245  1.00  0.00    -0.347 N
ATOM      6  H3  UNL     1      40.919  -5.387  68.120  1.00  0.00     0.167 HD
HETATM    7  C4  UNL     1      39.745  -3.966  67.233  1.00  0.00     0.108 A
HETATM    8  C5  UNL     1      40.383  -4.067  66.015  1.00  0.00     0.133 A
HETATM    9  N8  UNL     1      39.940  -3.272  65.023  1.00  0.00    -0.317 N
ATOM     10  H8  UNL     1      40.397  -3.329  64.113  1.00  0.00     0.170 HD
HETATM   11  C11 UNL     1      38.928  -2.410  65.177  1.00  0.00     0.181 A
HETATM   12 CL1  UNL     1      38.360  -1.374  63.863  1.00  0.00    -0.045 Cl
HETATM   13  N9  UNL     1      38.320  -2.327  66.371  1.00  0.00    -0.328 N
ATOM     14  H9  UNL     1      37.549  -1.669  66.481  1.00  0.00     0.168 HD
HETATM   15  C12 UNL     1      38.684  -3.076  67.428  1.00  0.00     0.111 A
ENDROOT
BRANCH   8  16
HETATM   16  N4  UNL     1      41.359  -4.898  65.867  1.00  0.00    -0.373 N
ATOM     17  H4  UNL     1      42.203  -4.793  66.429  1.00  0.00     0.161 HD
BRANCH  16  18
HETATM   18  C6  UNL     1      41.268  -5.967  64.920  1.00  0.00     0.141 C
BRANCH  18  19
HETATM   19  C7  UNL     1      40.798  -7.204  65.672  1.00  0.00     0.142 C
BRANCH  19  20
HETATM   20  N5  UNL     1      39.427  -7.475  65.380  1.00  0.00    -0.361 N
HETATM   21  C8  UNL     1      38.572  -7.802  66.283  1.00  0.00     0.171 C
HETATM   22  N6  UNL     1      38.878  -7.933  67.661  1.00  0.00    -0.361 N
HETATM   23  N7  UNL     1      37.196  -8.094  66.122  1.00  0.00    -0.361 N
HETATM   24  C9  UNL     1      37.636  -8.007  68.410  1.00  0.00     0.142 C
ATOM     25  H6  UNL     1      39.816  -7.969  68.061  1.00  0.00     0.162 HD
HETATM   26  C10 UNL     1      36.561  -7.831  67.383  1.00  0.00     0.142 C
ATOM     27  H7  UNL     1      36.742  -8.428  65.272  1.00  0.00     0.162 HD
ATOM     28  H5  UNL     1      39.112  -7.406  64.412  1.00  0.00     0.162 HD
ENDBRANCH  19  20
ENDBRANCH  18  19
ENDBRANCH  16  18
ENDBRANCH   8  16
BRANCH   1  29
HETATM   29  N1  UNL     1      37.076  -2.149  68.792  1.00  0.00    -0.249 N
ATOM     30  H1  UNL     1      36.149  -2.522  68.994  1.00  0.00     0.196 HD
BRANCH  29  31
HETATM   31  O1  UNL     1      37.219  -0.805  68.690  1.00  0.00    -0.284 OA
HETATM   32  C1  UNL     1      37.768  -0.081  69.765  1.00  0.00     0.237 C
ENDBRANCH  29  31
ENDBRANCH   1  29
TORSDOF 6
ENDMDL