MODEL 3
REMARK VINA RESULT: -6.703847530      2.895      6.909
REMARK  8 active torsions:
REMARK  status: ('A' for Active; 'I' for Inactive)
REMARK    1  A    between atoms: N1_2  and  C2_5
REMARK    2  A    between atoms: C2_5  and  C3_6
REMARK    3  A    between atoms: C2_5  and  C12_22
REMARK    4  A    between atoms: C3_6  and  C4_7
REMARK    5  A    between atoms: C4_7  and  C5_8
REMARK    6  A    between atoms: C4_7  and  N2_10
REMARK    7  A    between atoms: N2_10  and  N3_12
REMARK    8  A    between atoms: C6_14  and  C7_15
ROOT
HETATM    1  C4  UNL     1     -10.726  36.142 -26.511  1.00  0.00     0.163 C
ENDROOT
BRANCH   1   2
HETATM    2  C3  UNL     1      -9.732  35.147 -26.988  1.00  0.00     0.076 C
BRANCH   2   3
HETATM    3  C2  UNL     1      -9.080  34.287 -25.962  1.00  0.00     0.276 C
BRANCH   3   4
HETATM    4  N1  UNL     1      -9.089  32.919 -26.480  1.00  0.00    -0.067 N
HETATM    5  C1  UNL     1      -9.994  32.749 -27.574  1.00  0.00     0.267 C
ATOM      6  H12 UNL     1      -9.283  32.247 -25.737  1.00  0.00     0.277 HD
ATOM      7  H11 UNL     1      -8.148  32.617 -26.733  1.00  0.00     0.277 HD
ENDBRANCH   3   4
BRANCH   3   8
HETATM    8  C12 UNL     1      -7.691  34.620 -25.640  1.00  0.00     0.262 C
HETATM    9  N5  UNL     1      -6.684  33.634 -25.664  1.00  0.00    -0.060 NA
HETATM   10  O2  UNL     1      -7.376  35.793 -25.340  1.00  0.00    -0.275 OA
ENDBRANCH   3   8
ENDBRANCH   2   3
ENDBRANCH   1   2
BRANCH   1  11
HETATM   11  C5  UNL     1     -11.961  36.191 -27.306  1.00  0.00     0.257 C
HETATM   12  O1  UNL     1     -12.538  35.185 -27.658  1.00  0.00    -0.305 OA
ENDBRANCH   1  11
BRANCH   1  13
HETATM   13  N2  UNL     1     -10.043  37.454 -26.580  1.00  0.00    -0.325 N
ATOM     14  H2  UNL     1      -9.586  37.715 -27.454  1.00  0.00     0.181 HD
BRANCH  13  15
HETATM   15  N3  UNL     1      -9.993  38.339 -25.528  1.00  0.00    -0.315 N
HETATM   16  C6  UNL     1     -11.015  38.952 -25.055  1.00  0.00     0.119 C
ATOM     17  H3  UNL     1      -9.086  38.519 -25.098  1.00  0.00     0.185 HD
BRANCH  16  18
HETATM   18  C7  UNL     1     -10.866  39.868 -23.945  1.00  0.00    -0.004 A
HETATM   19  C8  UNL     1     -10.349  39.400 -22.760  1.00  0.00     0.015 A
HETATM   20  C9  UNL     1     -10.197  40.258 -21.676  1.00  0.00     0.018 A
HETATM   21  C10 UNL     1     -10.568  41.576 -21.808  1.00  0.00     0.087 A
HETATM   22  N4  UNL     1     -11.068  41.992 -22.985  1.00  0.00    -0.374 N
HETATM   23  C11 UNL     1     -11.224  41.178 -24.045  1.00  0.00     0.100 A
ATOM     24  H4  UNL     1     -11.341  42.971 -23.078  1.00  0.00     0.164 HD
ENDBRANCH  16  18
ENDBRANCH  13  15
ENDBRANCH   1  13
TORSDOF 8
ENDMDL