MODEL 1
REMARK VINA RESULT: -6.013265101      0.000      0.000
REMARK  11 active torsions:
REMARK  status: ('A' for Active; 'I' for Inactive)
REMARK    1  A    between atoms: N1_1  and  C1_5
REMARK    2  A    between atoms: C1_5  and  C2_6
REMARK    3  A    between atoms: C2_6  and  C3_7
REMARK    4  A    between atoms: C3_7  and  C4_8
REMARK    5  A    between atoms: C4_8  and  N2_9
REMARK    6  A    between atoms: N2_9  and  C5_11
REMARK    7  A    between atoms: C5_11  and  N3_13
REMARK    8  A    between atoms: N3_13  and  C6_15
REMARK    9  A    between atoms: C6_15  and  C7_16
REMARK   10  A    between atoms: C7_16  and  C8_17
REMARK   11  A    between atoms: C8_17  and  N4_18
ROOT
HETATM    1  C5  UNL     1     -11.405  38.647 -26.145  1.00  0.00     0.167 C
HETATM    2  S1  UNL     1     -10.048  39.360 -26.641  1.00  0.00    -0.041 SA
ENDROOT
BRANCH   1   3
HETATM    3  N2  UNL     1     -11.647  38.680 -24.721  1.00  0.00    -0.367 N
ATOM      4  H2  UNL     1     -12.159  37.920 -24.275  1.00  0.00     0.161 HD
BRANCH   3   5
HETATM    5  C4  UNL     1     -11.169  39.779 -23.930  1.00  0.00     0.122 C
BRANCH   5   6
HETATM    6  C3  UNL     1     -10.165  39.299 -22.871  1.00  0.00     0.021 C
BRANCH   6   7
HETATM    7  C2  UNL     1     -10.213  40.353 -21.789  1.00  0.00     0.029 C
BRANCH   7   8
HETATM    8  C1  UNL     1     -10.551  41.727 -22.259  1.00  0.00     0.229 C
BRANCH   8   9
HETATM    9  N1  UNL     1     -10.725  42.626 -21.149  1.00  0.00    -0.079 N
ATOM     10  H13 UNL     1     -11.176  42.164 -20.359  1.00  0.00     0.274 HD
ATOM     11  H12 UNL     1      -9.834  42.854 -20.708  1.00  0.00     0.274 HD
ATOM     12  H11 UNL     1     -11.230  43.466 -21.433  1.00  0.00     0.274 HD
ENDBRANCH   8   9
ENDBRANCH   7   8
ENDBRANCH   6   7
ENDBRANCH   5   6
ENDBRANCH   3   5
ENDBRANCH   1   3
BRANCH   1  13
HETATM   13  N3  UNL     1     -12.311  37.933 -26.948  1.00  0.00    -0.367 N
ATOM     14  H3  UNL     1     -12.819  38.454 -27.663  1.00  0.00     0.161 HD
BRANCH  13  15
HETATM   15  C6  UNL     1     -12.571  36.538 -26.839  1.00  0.00     0.123 C
BRANCH  15  16
HETATM   16  C7  UNL     1     -11.910  35.587 -27.732  1.00  0.00     0.041 C
BRANCH  16  17
HETATM   17  C8  UNL     1     -10.471  35.696 -28.059  1.00  0.00     0.151 C
BRANCH  17  18
HETATM   18  N4  UNL     1      -9.725  34.697 -27.236  1.00  0.00    -0.287 N
HETATM   19  C9  UNL     1      -9.679  33.388 -27.501  1.00  0.00     0.201 A
HETATM   20  N5  UNL     1      -8.906  32.855 -26.519  1.00  0.00    -0.346 N
HETATM   21  C10 UNL     1      -8.501  33.842 -25.689  1.00  0.00     0.198 A
ATOM     22  H5  UNL     1      -8.668  31.868 -26.424  1.00  0.00     0.167 HD
HETATM   23  N6  UNL     1      -9.017  34.991 -26.144  1.00  0.00    -0.293 N
ATOM     24  H6  UNL     1      -8.892  35.917 -25.733  1.00  0.00     0.188 HD
ENDBRANCH  17  18
ENDBRANCH  16  17
ENDBRANCH  15  16
ENDBRANCH  13  15
ENDBRANCH   1  13
TORSDOF 11
ENDMDL