MODEL 1
REMARK VINA RESULT: -7.144793008      0.000      0.000
REMARK  9 active torsions:
REMARK  status: ('A' for Active; 'I' for Inactive)
REMARK    1  A    between atoms: C1_2  and  N1_3
REMARK    2  A    between atoms: N1_3  and  C2_5
REMARK    3  A    between atoms: C2_5  and  C3_6
REMARK    4  A    between atoms: C3_6  and  C4_7
REMARK    5  A    between atoms: C4_7  and  N2_8
REMARK    6  A    between atoms: N2_8  and  C5_10
REMARK    7  A    between atoms: C5_10  and  C6_11
REMARK       I    between atoms: C6_11  and  N3_13
REMARK    8  A    between atoms: N3_13  and  N4_15
REMARK    9  A    between atoms: C7_17  and  C8_18
ROOT
HETATM    1  C6  UNL     1     -12.109  36.628 -26.710  1.00  0.00     0.253 C
HETATM    2  O2  UNL     1     -12.757  36.254 -25.714  1.00  0.00    -0.270 OA
HETATM    3  N3  UNL     1     -11.462  37.879 -26.712  1.00  0.00    -0.269 N
ATOM      4  H3  UNL     1     -10.955  38.122 -27.564  1.00  0.00     0.190 HD
ENDROOT
BRANCH   1   5
HETATM    5  C5  UNL     1     -12.002  35.761 -27.911  1.00  0.00     0.218 C
BRANCH   5   6
HETATM    6  N2  UNL     1     -10.740  35.130 -27.969  1.00  0.00    -0.413 N
ATOM      7  H2  UNL     1      -9.904  35.652 -28.227  1.00  0.00     0.153 HD
BRANCH   6   8
HETATM    8  C4  UNL     1     -10.672  33.746 -27.659  1.00  0.00     0.115 C
BRANCH   8   9
HETATM    9  C3  UNL     1      -9.189  33.455 -27.314  1.00  0.00     0.039 C
BRANCH   9  10
HETATM   10  C2  UNL     1      -8.991  33.743 -25.845  1.00  0.00     0.123 C
BRANCH  10  11
HETATM   11  N1  UNL     1      -7.709  33.301 -25.406  1.00  0.00    -0.368 N
ATOM     12  H1  UNL     1      -7.641  32.388 -24.956  1.00  0.00     0.161 HD
BRANCH  11  13
HETATM   13  C1  UNL     1      -6.546  34.050 -25.560  1.00  0.00     0.348 C
HETATM   14  O1  UNL     1      -5.478  33.591 -26.066  1.00  0.00    -0.284 OA
ENDBRANCH  11  13
ENDBRANCH  10  11
ENDBRANCH   9  10
ENDBRANCH   8   9
ENDBRANCH   6   8
ENDBRANCH   5   6
ENDBRANCH   1   5
BRANCH   3  15
HETATM   15  N4  UNL     1     -11.433  38.810 -25.704  1.00  0.00    -0.308 N
HETATM   16  C7  UNL     1     -10.560  38.833 -24.769  1.00  0.00     0.120 C
ATOM     17  H4  UNL     1     -12.155  39.530 -25.699  1.00  0.00     0.186 HD
BRANCH  16  18
HETATM   18  C8  UNL     1     -10.634  39.894 -23.732  1.00  0.00    -0.004 A
HETATM   19  C9  UNL     1     -10.273  39.642 -22.426  1.00  0.00     0.015 A
HETATM   20  C10 UNL     1     -10.359  40.656 -21.469  1.00  0.00     0.018 A
HETATM   21  C11 UNL     1     -10.802  41.921 -21.801  1.00  0.00     0.087 A
HETATM   22  N5  UNL     1     -11.147  42.138 -23.082  1.00  0.00    -0.374 N
HETATM   23  C12 UNL     1     -11.071  41.170 -24.022  1.00  0.00     0.100 A
ATOM     24  H5  UNL     1     -11.478  43.064 -23.354  1.00  0.00     0.164 HD
ENDBRANCH  16  18
ENDBRANCH   3  15
TORSDOF 9
ENDMDL