MODEL 5
REMARK VINA RESULT: -6.926108022      1.763      3.711
REMARK  9 active torsions:
REMARK  status: ('A' for Active; 'I' for Inactive)
REMARK    1  A    between atoms: N1_1  and  C1_4
REMARK    2  A    between atoms: N5_9  and  C2_10
REMARK    3  A    between atoms: C2_10  and  C3_11
REMARK    4  A    between atoms: C3_11  and  N6_12
REMARK    5  A    between atoms: N6_12  and  C4_15
REMARK    6  A    between atoms: C4_15  and  C5_16
REMARK    7  A    between atoms: C5_16  and  C6_17
REMARK    8  A    between atoms: C6_17  and  C7_18
REMARK    9  A    between atoms: C7_18  and  N7_19
ROOT
HETATM    1  N6  UNL     1      -5.519  36.181 -25.304  1.00  0.00    -0.074 N
ATOM      2  H61 UNL     1      -5.998  36.613 -26.094  1.00  0.00     0.277 HD
ATOM      3  H62 UNL     1      -4.581  36.520 -25.519  1.00  0.00     0.277 HD
ENDROOT
BRANCH   1   4
HETATM    4  C3  UNL     1      -5.615  34.733 -25.299  1.00  0.00     0.254 C
BRANCH   4   5
HETATM    5  C2  UNL     1      -4.829  34.122 -26.439  1.00  0.00     0.193 C
BRANCH   5   6
HETATM    6  N5  UNL     1      -3.405  34.173 -26.204  1.00  0.00    -0.107 N
HETATM    7  C1  UNL     1      -2.458  33.963 -27.125  1.00  0.00     0.703 A
HETATM    8  N2  UNL     1      -1.276  34.101 -26.506  1.00  0.00    -0.117 N
HETATM    9  N3  UNL     1      -1.503  34.389 -25.235  1.00  0.00     0.007 NA
ATOM     10  H2  UNL     1      -0.360  34.002 -26.941  1.00  0.00     0.202 HD
HETATM   11  N4  UNL     1      -2.809  34.436 -25.035  1.00  0.00     0.009 NA
BRANCH   7  12
HETATM   12  N1  UNL     1      -2.578  33.680 -28.381  1.00  0.00    -0.232 N
ATOM     13  H12 UNL     1      -2.070  32.999 -28.945  1.00  0.00     0.174 HD
ATOM     14  H11 UNL     1      -3.245  34.139 -29.002  1.00  0.00     0.174 HD
ENDBRANCH   7  12
ENDBRANCH   5   6
ENDBRANCH   4   5
ENDBRANCH   1   4
BRANCH   1  15
HETATM   15  C4  UNL     1      -6.012  36.641 -24.013  1.00  0.00     0.232 C
BRANCH  15  16
HETATM   16  C5  UNL     1      -7.070  37.712 -24.176  1.00  0.00     0.029 C
BRANCH  16  17
HETATM   17  C6  UNL     1      -7.478  37.853 -25.637  1.00  0.00     0.022 C
BRANCH  17  18
HETATM   18  C7  UNL     1      -8.989  37.910 -25.664  1.00  0.00     0.128 C
BRANCH  18  19
HETATM   19  N7  UNL     1      -9.558  36.797 -26.398  1.00  0.00    -0.366 N
HETATM   20  C8  UNL     1      -9.112  35.538 -26.226  1.00  0.00     0.090 A
HETATM   21  C9  UNL     1      -9.616  34.457 -26.895  1.00  0.00     0.017 A
HETATM   22  C10 UNL     1     -10.639  34.629 -27.804  1.00  0.00     0.003 A
HETATM   23  C11 UNL     1     -11.103  35.924 -27.987  1.00  0.00     0.017 A
HETATM   24  C12 UNL     1     -10.556  36.979 -27.283  1.00  0.00     0.090 A
ENDBRANCH  18  19
ENDBRANCH  17  18
ENDBRANCH  16  17
ENDBRANCH  15  16
ENDBRANCH   1  15
TORSDOF 9
ENDMDL