MODEL 5
REMARK VINA RESULT: -6.814257258      1.816      5.025
REMARK  9 active torsions:
REMARK  status: ('A' for Active; 'I' for Inactive)
REMARK    1  A    between atoms: C1_2  and  C2_3
REMARK       I    between atoms: C1_2  and  N2_11
REMARK    2  A    between atoms: C2_3  and  N1_4
REMARK    3  A    between atoms: N1_4  and  C3_7
REMARK    4  A    between atoms: C3_7  and  C4_8
REMARK    5  A    between atoms: N2_11  and  C7_13
REMARK    6  A    between atoms: C7_13  and  C8_14
REMARK    7  A    between atoms: C8_14  and  C9_15
REMARK    8  A    between atoms: C9_15  and  N3_16
REMARK    9  A    between atoms: N3_16  and  C10_18
ROOT
HETATM    1  C7  UNL     1     -10.773  34.939 -27.927  1.00  0.00     0.124 C
ENDROOT
BRANCH   1   2
HETATM    2  N2  UNL     1      -9.979  34.638 -26.785  1.00  0.00    -0.360 N
HETATM    3  C1  UNL     1      -8.939  33.702 -26.670  1.00  0.00     0.243 C
HETATM    4  O1  UNL     1      -8.552  32.963 -27.606  1.00  0.00    -0.272 OA
ATOM      5  H2  UNL     1     -10.194  35.170 -25.942  1.00  0.00     0.162 HD
BRANCH   3   6
HETATM    6  C2  UNL     1      -8.203  33.527 -25.397  1.00  0.00     0.334 C
BRANCH   6   7
HETATM    7  N1  UNL     1      -6.896  34.070 -25.393  1.00  0.00    -0.067 N
ATOM      8  H12 UNL     1      -6.283  33.565 -24.753  1.00  0.00     0.277 HD
ATOM      9  H11 UNL     1      -6.407  33.874 -26.266  1.00  0.00     0.277 HD
BRANCH   7  10
HETATM   10  C3  UNL     1      -6.918  35.490 -25.101  1.00  0.00     0.237 C
BRANCH  10  11
HETATM   11  C4  UNL     1      -5.617  35.921 -24.477  1.00  0.00     0.011 A
HETATM   12  C5  UNL     1      -5.406  37.356 -24.139  1.00  0.00     0.007 A
HETATM   13  C6  UNL     1      -5.608  36.296 -23.064  1.00  0.00     0.007 A
ENDBRANCH  10  11
ENDBRANCH   7  10
ENDBRANCH   6   7
ENDBRANCH   3   6
ENDBRANCH   1   2
BRANCH   1  14
HETATM   14  C8  UNL     1     -11.970  35.773 -27.783  1.00  0.00     0.040 C
BRANCH  14  15
HETATM   15  C9  UNL     1     -12.382  36.315 -26.472  1.00  0.00     0.139 C
BRANCH  15  16
HETATM   16  N3  UNL     1     -11.996  37.745 -26.412  1.00  0.00    -0.226 N
ATOM     17  H3  UNL     1     -12.430  38.397 -27.065  1.00  0.00     0.177 HD
BRANCH  16  18
HETATM   18  C10 UNL     1     -11.145  38.193 -25.578  1.00  0.00     0.677 A
HETATM   19  N4  UNL     1     -11.664  38.893 -24.531  1.00  0.00    -0.202 N
HETATM   20  C11 UNL     1     -10.926  39.433 -23.566  1.00  0.00     0.107 A
ATOM     21  H4  UNL     1     -12.676  39.011 -24.485  1.00  0.00     0.183 HD
HETATM   22  C12 UNL     1      -9.554  39.271 -23.638  1.00  0.00     0.035 A
HETATM   23  C13 UNL     1      -9.023  38.557 -24.706  1.00  0.00     0.107 A
HETATM   24  N5  UNL     1      -9.815  38.029 -25.658  1.00  0.00    -0.202 N
ATOM     25  H5  UNL     1      -9.406  37.509 -26.435  1.00  0.00     0.183 HD
ENDBRANCH  16  18
ENDBRANCH  15  16
ENDBRANCH  14  15
ENDBRANCH   1  14
TORSDOF 9
ENDMDL