MODEL 2
REMARK VINA RESULT: -6.099399941      2.096      5.362
REMARK  8 active torsions:
REMARK  status: ('A' for Active; 'I' for Inactive)
REMARK    1  A    between atoms: C3_6  and  C4_7
REMARK    2  A    between atoms: C4_7  and  N2_8
REMARK    3  A    between atoms: N2_8  and  C5_10
REMARK    4  A    between atoms: C5_10  and  C6_11
REMARK    5  A    between atoms: C6_11  and  N3_12
REMARK    6  A    between atoms: N3_12  and  C7_15
REMARK    7  A    between atoms: C7_15  and  C8_16
REMARK    8  A    between atoms: C8_16  and  N4_17
ROOT
HETATM    1  C6  UNL     1     -10.002  33.627 -25.764  1.00  0.00     0.251 C
ENDROOT
BRANCH   1   2
HETATM    2  C5  UNL     1     -10.055  33.415 -27.241  1.00  0.00     0.141 C
BRANCH   2   3
HETATM    3  N2  UNL     1     -10.419  34.581 -27.957  1.00  0.00    -0.418 N
ATOM      4  H2  UNL     1      -9.804  35.006 -28.651  1.00  0.00     0.153 HD
BRANCH   3   5
HETATM    5  C4  UNL     1     -11.708  35.127 -27.644  1.00  0.00     0.146 C
BRANCH   5   6
HETATM    6  C3  UNL     1     -11.555  36.640 -27.398  1.00  0.00     0.203 C
HETATM    7  N1  UNL     1     -12.036  37.058 -26.115  1.00  0.00    -0.069 N
HETATM    8  C2  UNL     1     -11.251  38.175 -25.701  1.00  0.00     0.233 C
ATOM      9  H12 UNL     1     -12.044  36.303 -25.429  1.00  0.00     0.277 HD
ATOM     10  H11 UNL     1     -13.037  37.255 -26.111  1.00  0.00     0.277 HD
HETATM   11  C1  UNL     1     -10.203  38.400 -26.735  1.00  0.00     0.029 C
HETATM   12  C13 UNL     1     -10.087  37.028 -27.412  1.00  0.00     0.036 C
ENDBRANCH   5   6
ENDBRANCH   3   5
ENDBRANCH   2   3
ENDBRANCH   1   2
BRANCH   1  13
HETATM   13  N3  UNL     1      -8.628  33.283 -25.346  1.00  0.00    -0.069 N
ATOM     14  H32 UNL     1      -8.503  33.403 -24.341  1.00  0.00     0.277 HD
ATOM     15  H31 UNL     1      -8.460  32.279 -25.408  1.00  0.00     0.277 HD
BRANCH  13  16
HETATM   16  C7  UNL     1      -7.651  34.022 -26.087  1.00  0.00     0.276 C
BRANCH  16  17
HETATM   17  C8  UNL     1      -6.385  34.293 -25.337  1.00  0.00     0.085 C
BRANCH  17  18
HETATM   18  N4  UNL     1      -6.363  35.527 -24.686  1.00  0.00    -0.388 N
HETATM   19  C9  UNL     1      -7.167  36.590 -25.111  1.00  0.00     0.148 C
HETATM   20  C10 UNL     1      -6.265  37.824 -25.313  1.00  0.00     0.187 C
HETATM   21  O1  UNL     1      -5.695  38.204 -24.138  1.00  0.00    -0.388 OA
HETATM   22  C11 UNL     1      -5.238  37.144 -23.357  1.00  0.00     0.187 C
HETATM   23  C12 UNL     1      -5.037  35.921 -24.231  1.00  0.00     0.148 C
ENDBRANCH  17  18
ENDBRANCH  16  17
ENDBRANCH  13  16
ENDBRANCH   1  13
TORSDOF 8
ENDMDL