MODEL 5
REMARK VINA RESULT: -5.981245165      2.503      4.672
REMARK  11 active torsions:
REMARK  status: ('A' for Active; 'I' for Inactive)
REMARK    1  A    between atoms: N1_1  and  C1_5
REMARK    2  A    between atoms: C1_5  and  C2_6
REMARK    3  A    between atoms: C2_6  and  C3_7
REMARK    4  A    between atoms: C3_7  and  N2_8
REMARK    5  A    between atoms: N3_11  and  C6_12
REMARK    6  A    between atoms: C6_12  and  C7_13
REMARK    7  A    between atoms: C7_13  and  C8_14
REMARK    8  A    between atoms: C8_14  and  C9_15
REMARK    9  A    between atoms: C9_15  and  C10_16
REMARK   10  A    between atoms: C10_16  and  N5_18
REMARK   11  A    between atoms: N5_18  and  N6_19
ROOT
HETATM    1  N2  UNL     1      -5.844  37.946 -24.293  1.00  0.00     0.091 N
HETATM    2  C4  UNL     1      -5.966  38.479 -25.618  1.00  0.00     0.302 C
HETATM    3  C5  UNL     1      -7.352  38.466 -26.167  1.00  0.00     0.302 C
HETATM    4  N3  UNL     1      -8.302  39.202 -25.336  1.00  0.00     0.091 N
HETATM    5  C11 UNL     1      -7.884  39.116 -23.946  1.00  0.00     0.302 C
HETATM    6  C12 UNL     1      -7.199  37.773 -23.775  1.00  0.00     0.302 C
ENDROOT
BRANCH   4   7
HETATM    7  C6  UNL     1      -9.599  38.585 -25.454  1.00  0.00     0.272 C
BRANCH   7   8
HETATM    8  C7  UNL     1      -9.503  37.333 -26.276  1.00  0.00     0.031 C
BRANCH   8   9
HETATM    9  C8  UNL     1     -10.659  37.356 -27.285  1.00  0.00     0.010 C
BRANCH   9  10
HETATM   10  C9  UNL     1     -10.459  36.209 -28.226  1.00  0.00     0.091 C
BRANCH  10  11
HETATM   11  C10 UNL     1     -11.247  35.004 -27.766  1.00  0.00     0.189 C
HETATM   12  N4  UNL     1     -12.640  35.202 -27.475  1.00  0.00    -0.070 NA
BRANCH  11  13
HETATM   13  N5  UNL     1     -10.730  33.931 -27.685  1.00  0.00    -0.322 NA
BRANCH  13  14
HETATM   14  N6  UNL     1     -10.215  32.773 -27.512  1.00  0.00    -0.279 N
ATOM     15  H62 UNL     1     -10.448  33.059 -26.561  1.00  0.00     0.191 HD
ATOM     16  H61 UNL     1      -9.795  31.845 -27.449  1.00  0.00     0.191 HD
ENDBRANCH  13  14
ENDBRANCH  11  13
ENDBRANCH  10  11
ENDBRANCH   9  10
ENDBRANCH   8   9
ENDBRANCH   7   8
ENDBRANCH   4   7
BRANCH   1  17
HETATM   17  C3  UNL     1      -5.232  36.624 -24.281  1.00  0.00     0.274 C
BRANCH  17  18
HETATM   18  C2  UNL     1      -6.243  35.525 -24.246  1.00  0.00     0.057 C
BRANCH  18  19
HETATM   19  C1  UNL     1      -6.072  34.646 -25.454  1.00  0.00     0.231 C
BRANCH  19  20
HETATM   20  N1  UNL     1      -4.729  34.561 -25.946  1.00  0.00    -0.079 N
ATOM     21  H13 UNL     1      -4.467  33.586 -26.092  1.00  0.00     0.274 HD
ATOM     22  H12 UNL     1      -4.682  34.901 -26.907  1.00  0.00     0.274 HD
ATOM     23  H11 UNL     1      -4.033  35.032 -25.369  1.00  0.00     0.274 HD
ENDBRANCH  19  20
ENDBRANCH  18  19
ENDBRANCH  17  18
ENDBRANCH   1  17
TORSDOF 11
ENDMDL