MODEL 1
REMARK VINA RESULT: -6.770978296      0.000      0.000
REMARK  8 active torsions:
REMARK  status: ('A' for Active; 'I' for Inactive)
REMARK    1  A    between atoms: N2_7  and  C4_8
REMARK    2  A    between atoms: C4_8  and  C5_9
REMARK    3  A    between atoms: C5_9  and  C6_10
REMARK    4  A    between atoms: C6_10  and  N3_11
REMARK    5  A    between atoms: N3_11  and  C7_14
REMARK    6  A    between atoms: C7_14  and  C8_15
REMARK    7  A    between atoms: C8_15  and  C9_16
REMARK    8  A    between atoms: C9_16  and  N4_17
ROOT
HETATM    1  N3  UNL     1      -8.596  33.326 -25.308  1.00  0.00    -0.075 N
ATOM      2  H31 UNL     1      -8.314  32.348 -25.252  1.00  0.00     0.277 HD
ATOM      3  H32 UNL     1      -8.658  33.544 -24.313  1.00  0.00     0.277 HD
ENDROOT
BRANCH   1   4
HETATM    4  C6  UNL     1      -9.882  33.447 -25.932  1.00  0.00     0.234 C
BRANCH   4   5
HETATM    5  C5  UNL     1      -9.784  33.854 -27.378  1.00  0.00     0.047 C
BRANCH   5   6
HETATM    6  C4  UNL     1     -10.861  34.752 -27.857  1.00  0.00     0.129 C
BRANCH   6   7
HETATM    7  N2  UNL     1     -10.980  36.033 -27.243  1.00  0.00    -0.333 N
HETATM    8  C1  UNL     1     -12.232  36.631 -26.817  1.00  0.00     0.318 C
HETATM    9  O1  UNL     1     -13.374  36.233 -27.141  1.00  0.00    -0.247 OA
HETATM   10  N1  UNL     1     -11.879  37.723 -25.982  1.00  0.00    -0.341 N
HETATM   11  C2  UNL     1     -10.529  38.159 -26.316  1.00  0.00     0.144 C
ATOM     12  H1  UNL     1     -12.474  38.136 -25.264  1.00  0.00     0.164 HD
HETATM   13  C3  UNL     1      -9.899  36.950 -26.978  1.00  0.00     0.147 C
ENDBRANCH   6   7
ENDBRANCH   5   6
ENDBRANCH   4   5
ENDBRANCH   1   4
BRANCH   1  14
HETATM   14  C7  UNL     1      -7.579  34.106 -25.928  1.00  0.00     0.237 C
BRANCH  14  15
HETATM   15  C8  UNL     1      -6.675  34.835 -24.965  1.00  0.00     0.072 C
BRANCH  15  16
HETATM   16  C9  UNL     1      -7.051  36.262 -24.760  1.00  0.00     0.070 C
BRANCH  16  17
HETATM   17  N4  UNL     1      -6.017  37.201 -24.777  1.00  0.00    -0.344 N
HETATM   18  C10 UNL     1      -6.119  38.322 -25.605  1.00  0.00     0.112 C
HETATM   19  C11 UNL     1      -5.270  39.497 -25.220  1.00  0.00     0.105 C
HETATM   20  N5  UNL     1      -4.236  39.236 -24.306  1.00  0.00    -0.373 N
HETATM   21  C12 UNL     1      -3.840  37.920 -24.030  1.00  0.00     0.105 C
ATOM     22  H5  UNL     1      -3.768  40.012 -23.838  1.00  0.00     0.164 HD
HETATM   23  C13 UNL     1      -4.728  36.802 -24.389  1.00  0.00     0.112 C
ENDBRANCH  16  17
ENDBRANCH  15  16
ENDBRANCH  14  15
ENDBRANCH   1  14
TORSDOF 8
ENDMDL