MODEL 4
REMARK VINA RESULT: -6.610353550      1.837      5.519
REMARK  9 active torsions:
REMARK  status: ('A' for Active; 'I' for Inactive)
REMARK    1  A    between atoms: N1_1  and  C1_5
REMARK    2  A    between atoms: N2_7  and  C3_8
REMARK    3  A    between atoms: C3_8  and  C4_9
REMARK    4  A    between atoms: C4_9  and  C5_10
REMARK    5  A    between atoms: C5_10  and  C6_11
REMARK    6  A    between atoms: C6_11  and  N3_12
REMARK    7  A    between atoms: N3_12  and  C7_15
REMARK    8  A    between atoms: C7_15  and  C8_16
REMARK    9  A    between atoms: C8_16  and  C9_17
ROOT
HETATM    1  C5  UNL     1     -10.596  33.978 -27.617  1.00  0.00     0.029 C
ENDROOT
BRANCH   1   2
HETATM    2  C4  UNL     1     -10.386  35.425 -27.991  1.00  0.00     0.032 C
BRANCH   2   3
HETATM    3  C3  UNL     1     -11.590  36.227 -27.537  1.00  0.00     0.273 C
BRANCH   3   4
HETATM    4  N2  UNL     1     -11.169  37.156 -26.556  1.00  0.00     0.098 N
HETATM    5  C2  UNL     1     -11.639  38.488 -26.704  1.00  0.00     0.313 C
HETATM    6  C1  UNL     1     -10.986  39.182 -25.530  1.00  0.00     0.282 C
HETATM    7  C13 UNL     1      -9.724  38.418 -25.367  1.00  0.00     0.187 C
HETATM    8  C12 UNL     1      -9.756  37.304 -26.391  1.00  0.00     0.352 C
HETATM    9  O1  UNL     1      -8.854  38.654 -24.567  1.00  0.00    -0.294 OA
BRANCH   6  10
HETATM   10  N1  UNL     1     -11.852  38.971 -24.388  1.00  0.00    -0.067 N
ATOM     11  H13 UNL     1     -12.055  39.828 -23.872  1.00  0.00     0.275 HD
ATOM     12  H12 UNL     1     -12.813  38.748 -24.646  1.00  0.00     0.275 HD
ATOM     13  H11 UNL     1     -11.411  38.251 -23.815  1.00  0.00     0.275 HD
ENDBRANCH   6  10
ENDBRANCH   3   4
ENDBRANCH   2   3
ENDBRANCH   1   2
BRANCH   1  14
HETATM   14  C6  UNL     1      -9.306  33.294 -27.280  1.00  0.00     0.232 C
BRANCH  14  15
HETATM   15  N3  UNL     1      -8.944  33.340 -25.893  1.00  0.00    -0.075 N
ATOM     16  H32 UNL     1      -9.475  34.051 -25.390  1.00  0.00     0.277 HD
ATOM     17  H31 UNL     1      -9.273  32.515 -25.392  1.00  0.00     0.277 HD
BRANCH  15  18
HETATM   18  C7  UNL     1      -7.534  33.526 -25.732  1.00  0.00     0.238 C
BRANCH  18  19
HETATM   19  C8  UNL     1      -7.225  34.974 -25.352  1.00  0.00     0.086 C
BRANCH  19  20
HETATM   20  C9  UNL     1      -5.744  35.069 -25.255  1.00  0.00     0.027 A
HETATM   21  C10 UNL     1      -5.007  35.900 -24.433  1.00  0.00     0.114 A
HETATM   22  N4  UNL     1      -3.702  35.665 -24.664  1.00  0.00    -0.360 N
HETATM   23  C11 UNL     1      -3.576  34.715 -25.603  1.00  0.00     0.180 A
ATOM     24  H4  UNL     1      -2.928  36.138 -24.197  1.00  0.00     0.166 HD
HETATM   25  N5  UNL     1      -4.844  34.358 -25.956  1.00  0.00    -0.355 N
ATOM     26  H5  UNL     1      -5.077  33.651 -26.654  1.00  0.00     0.166 HD
ENDBRANCH  19  20
ENDBRANCH  18  19
ENDBRANCH  15  18
ENDBRANCH  14  15
ENDBRANCH   1  14
TORSDOF 9
ENDMDL