MODEL 3
REMARK VINA RESULT: -6.001884862      2.531      3.259
REMARK  11 active torsions:
REMARK  status: ('A' for Active; 'I' for Inactive)
REMARK    1  A    between atoms: N1_1  and  C1_5
REMARK    2  A    between atoms: C1_5  and  C2_6
REMARK    3  A    between atoms: C2_6  and  C3_7
REMARK    4  A    between atoms: C3_7  and  C4_8
REMARK    5  A    between atoms: C5_9  and  C6_10
REMARK    6  A    between atoms: C5_9  and  C7_15
REMARK    7  A    between atoms: C6_10  and  N2_11
REMARK    8  A    between atoms: C7_15  and  N3_16
REMARK    9  A    between atoms: N4_19  and  C10_20
REMARK   10  A    between atoms: C10_20  and  C11_21
REMARK   11  A    between atoms: C11_21  and  N5_22
ROOT
HETATM    1  C4  UNL     1     -10.226  35.595 -27.793  1.00  0.00    -0.021 C
HETATM    2  C5  UNL     1     -10.788  36.569 -27.149  1.00  0.00    -0.041 C
ENDROOT
BRANCH   2   3
HETATM    3  C6  UNL     1     -12.012  36.384 -26.343  1.00  0.00     0.265 C
BRANCH   3   4
HETATM    4  N2  UNL     1     -13.216  36.476 -27.167  1.00  0.00    -0.076 N
ATOM      5  H23 UNL     1     -13.949  37.009 -26.699  1.00  0.00     0.274 HD
ATOM      6  H22 UNL     1     -13.070  37.083 -27.974  1.00  0.00     0.274 HD
ATOM      7  H21 UNL     1     -13.548  35.554 -27.450  1.00  0.00     0.274 HD
ENDBRANCH   3   4
ENDBRANCH   2   3
BRANCH   2   8
HETATM    8  C7  UNL     1     -10.190  37.960 -27.207  1.00  0.00     0.153 C
BRANCH   8   9
HETATM    9  N3  UNL     1      -9.194  38.176 -26.207  1.00  0.00    -0.403 N
HETATM   10  C8  UNL     1      -8.500  37.020 -25.787  1.00  0.00     0.137 C
HETATM   11  C9  UNL     1      -7.187  37.245 -25.111  1.00  0.00     0.146 C
HETATM   12  N4  UNL     1      -6.455  38.384 -25.537  1.00  0.00    -0.369 N
HETATM   13  C12 UNL     1      -6.970  39.179 -26.546  1.00  0.00     0.082 C
HETATM   14  C13 UNL     1      -8.450  39.373 -26.347  1.00  0.00     0.162 C
BRANCH  12  15
HETATM   15  C10 UNL     1      -5.469  38.872 -24.669  1.00  0.00     0.090 C
BRANCH  15  16
HETATM   16  C11 UNL     1      -4.383  37.920 -24.273  1.00  0.00     0.274 C
BRANCH  16  17
HETATM   17  N5  UNL     1      -3.186  38.693 -23.976  1.00  0.00    -0.075 N
ATOM     18  H53 UNL     1      -2.336  38.131 -24.014  1.00  0.00     0.274 HD
ATOM     19  H52 UNL     1      -2.949  39.351 -24.718  1.00  0.00     0.274 HD
ATOM     20  H51 UNL     1      -3.318  39.148 -23.073  1.00  0.00     0.274 HD
ENDBRANCH  16  17
ENDBRANCH  15  16
ENDBRANCH  12  15
ENDBRANCH   8   9
ENDBRANCH   2   8
BRANCH   1  21
HETATM   21  C3  UNL     1     -10.649  34.191 -27.863  1.00  0.00     0.029 C
BRANCH  21  22
HETATM   22  C2  UNL     1      -9.515  33.349 -27.298  1.00  0.00     0.031 C
BRANCH  22  23
HETATM   23  C1  UNL     1      -9.432  33.472 -25.794  1.00  0.00     0.230 C
BRANCH  23  24
HETATM   24  N1  UNL     1      -8.066  33.190 -25.401  1.00  0.00    -0.079 N
ATOM     25  H13 UNL     1      -7.457  32.997 -26.196  1.00  0.00     0.274 HD
ATOM     26  H12 UNL     1      -7.577  34.015 -25.053  1.00  0.00     0.274 HD
ATOM     27  H11 UNL     1      -8.086  32.427 -24.724  1.00  0.00     0.274 HD
ENDBRANCH  23  24
ENDBRANCH  22  23
ENDBRANCH  21  22
ENDBRANCH   1  21
TORSDOF 11
ENDMDL