MODEL 4
REMARK VINA RESULT: -5.711838240      3.149      4.562
REMARK  7 active torsions:
REMARK  status: ('A' for Active; 'I' for Inactive)
REMARK    1  A    between atoms: N1_1  and  C1_5
REMARK    2  A    between atoms: C1_5  and  C2_6
REMARK    3  A    between atoms: C2_6  and  C3_7
REMARK    4  A    between atoms: N3_11  and  C5_12
REMARK    5  A    between atoms: C5_12  and  C6_13
REMARK    6  A    between atoms: C6_13  and  C7_14
REMARK    7  A    between atoms: C7_14  and  C8_15
ROOT
HETATM    1  C3  UNL     1       1.948  18.470 -37.919  1.00  0.00     0.047 A
HETATM    2  C4  UNL     1       1.563  19.581 -38.611  1.00  0.00     0.134 A
HETATM    3  N2  UNL     1       2.713  19.613 -39.273  1.00  0.00    -0.308 N
ATOM      4  H2  UNL     1       3.124  20.213 -39.989  1.00  0.00     0.186 HD
HETATM    5  N3  UNL     1       3.099  18.539 -38.612  1.00  0.00    -0.295 N
ENDROOT
BRANCH   5   6
HETATM    6  C5  UNL     1       4.295  17.723 -38.610  1.00  0.00     0.149 C
BRANCH   6   7
HETATM    7  C6  UNL     1       4.341  16.784 -39.801  1.00  0.00     0.028 C
BRANCH   7   8
HETATM    8  C7  UNL     1       3.170  15.830 -39.654  1.00  0.00     0.060 C
BRANCH   8   9
HETATM    9  C8  UNL     1       3.571  14.426 -39.936  1.00  0.00     0.024 A
HETATM   10  C9  UNL     1       4.689  14.172 -40.704  1.00  0.00     0.112 A
HETATM   11  N4  UNL     1       5.083  12.915 -40.980  1.00  0.00    -0.372 N
HETATM   12  C10 UNL     1       4.401  11.851 -40.519  1.00  0.00     0.104 A
ATOM     13  H4  UNL     1       5.915  12.766 -41.550  1.00  0.00     0.164 HD
HETATM   14  C11 UNL     1       3.286  12.090 -39.754  1.00  0.00     0.105 A
HETATM   15  N5  UNL     1       2.889  13.361 -39.475  1.00  0.00    -0.367 N
ATOM     16  H5  UNL     1       2.057  13.511 -38.903  1.00  0.00     0.165 HD
ENDBRANCH   8   9
ENDBRANCH   7   8
ENDBRANCH   6   7
ENDBRANCH   5   6
BRANCH   1  17
HETATM   17  C2  UNL     1       1.340  17.608 -36.881  1.00  0.00     0.087 C
BRANCH  17  18
HETATM   18  C1  UNL     1       0.094  16.954 -37.431  1.00  0.00     0.235 C
BRANCH  18  19
HETATM   19  N1  UNL     1      -0.742  16.409 -36.398  1.00  0.00    -0.079 N
ATOM     20  H13 UNL     1      -0.533  16.832 -35.494  1.00  0.00     0.274 HD
ATOM     21  H12 UNL     1      -1.708  16.719 -36.504  1.00  0.00     0.274 HD
ATOM     22  H11 UNL     1      -0.686  15.392 -36.348  1.00  0.00     0.274 HD
ENDBRANCH  18  19
ENDBRANCH  17  18
ENDBRANCH   1  17
TORSDOF 7
ENDMDL