MODEL 5
REMARK VINA RESULT: -5.737285542      4.983      6.175
REMARK  6 active torsions:
REMARK  status: ('A' for Active; 'I' for Inactive)
REMARK    1  A    between atoms: N2_6  and  C3_7
REMARK    2  A    between atoms: C3_7  and  C4_8
REMARK    3  A    between atoms: C4_8  and  C5_9
REMARK    4  A    between atoms: C5_9  and  N3_10
REMARK    5  A    between atoms: N3_10  and  C6_12
REMARK    6  A    between atoms: C6_12  and  C7_13
ROOT
HETATM    1  N1  UNL     1      -2.320  20.513 -46.209  1.00  0.00    -0.382 N
ATOM      2  H11 UNL     1      -3.126  21.058 -46.516  1.00  0.00     0.158 HD
ATOM      3  H12 UNL     1      -1.375  20.797 -46.465  1.00  0.00     0.158 HD
HETATM    4  C1  UNL     1      -2.506  19.464 -45.496  1.00  0.00     0.129 C
HETATM    5  C2  UNL     1      -1.348  18.682 -45.055  1.00  0.00     0.205 C
HETATM    6  N2  UNL     1      -1.630  17.614 -44.160  1.00  0.00    -0.384 N
HETATM    7  C10 UNL     1      -2.950  17.109 -44.206  1.00  0.00     0.149 C
HETATM    8  C11 UNL     1      -3.948  18.240 -43.998  1.00  0.00     0.197 C
HETATM    9  O1  UNL     1      -3.783  19.081 -45.150  1.00  0.00    -0.337 OA
ENDROOT
BRANCH   6  10
HETATM   10  C3  UNL     1      -1.023  17.839 -42.912  1.00  0.00     0.060 C
BRANCH  10  11
HETATM   11  C4  UNL     1       0.460  17.585 -42.866  1.00  0.00     0.063 C
BRANCH  11  12
HETATM   12  C5  UNL     1       0.911  17.905 -41.459  1.00  0.00     0.118 C
BRANCH  12  13
HETATM   13  N3  UNL     1       2.355  17.803 -41.325  1.00  0.00    -0.420 N
ATOM     14  H3  UNL     1       2.937  18.593 -41.049  1.00  0.00     0.153 HD
BRANCH  13  15
HETATM   15  C6  UNL     1       2.891  16.517 -41.608  1.00  0.00     0.118 C
BRANCH  15  16
HETATM   16  C7  UNL     1       3.585  15.956 -40.389  1.00  0.00     0.003 A
HETATM   17  C8  UNL     1       3.558  14.520 -40.066  1.00  0.00     0.007 A
HETATM   18  C9  UNL     1       4.809  15.111 -40.639  1.00  0.00     0.007 A
ENDBRANCH  15  16
ENDBRANCH  13  15
ENDBRANCH  12  13
ENDBRANCH  11  12
ENDBRANCH  10  11
ENDBRANCH   6  10
TORSDOF 6
ENDMDL