MODEL 4
REMARK VINA RESULT: -6.393363833      5.313      6.042
REMARK  6 active torsions:
REMARK  status: ('A' for Active; 'I' for Inactive)
REMARK    1  A    between atoms: C1_1  and  C2_2
REMARK    2  A    between atoms: C1_1  and  C5_11
REMARK    3  A    between atoms: C2_2  and  C3_3
REMARK    4  A    between atoms: C3_3  and  C4_4
REMARK    5  A    between atoms: C5_11  and  C6_12
REMARK    6  A    between atoms: C6_12  and  C7_13
ROOT
HETATM    1  C1  UNL     1       1.837  17.834 -42.988  1.00  0.00     0.000 C
ENDROOT
BRANCH   1   2
HETATM    2  C2  UNL     1       0.391  17.454 -43.303  1.00  0.00     0.007 C
BRANCH   2   3
HETATM    3  C3  UNL     1      -0.013  17.929 -44.674  1.00  0.00     0.078 C
BRANCH   3   4
HETATM    4  C4  UNL     1      -1.330  18.571 -44.708  1.00  0.00     0.106 A
HETATM    5  N1  UNL     1      -1.865  19.297 -45.696  1.00  0.00    -0.274 N
HETATM    6  N2  UNL     1      -3.073  19.691 -45.321  1.00  0.00    -0.007 NA
ATOM      7  H1  UNL     1      -1.419  19.510 -46.588  1.00  0.00     0.185 HD
HETATM    8  N3  UNL     1      -3.308  19.222 -44.107  1.00  0.00    -0.007 NA
HETATM    9  N4  UNL     1      -2.240  18.533 -43.726  1.00  0.00    -0.274 N
ATOM     10  H4  UNL     1      -2.131  18.054 -42.833  1.00  0.00     0.185 HD
ENDBRANCH   3   4
ENDBRANCH   2   3
ENDBRANCH   1   2
BRANCH   1  11
HETATM   11  C5  UNL     1       2.576  16.535 -42.880  1.00  0.00     0.000 C
BRANCH  11  12
HETATM   12  C6  UNL     1       3.077  16.128 -41.559  1.00  0.00     0.006 C
BRANCH  12  13
HETATM   13  C7  UNL     1       3.825  14.906 -41.343  1.00  0.00     0.013 C
HETATM   14  C8  UNL     1       3.231  13.866 -40.419  1.00  0.00     0.034 C
HETATM   15  C9  UNL     1       4.387  12.854 -40.398  1.00  0.00     0.232 C
HETATM   16  N5  UNL     1       5.540  13.507 -40.993  1.00  0.00    -0.075 N
HETATM   17  C10 UNL     1       5.221  14.960 -40.789  1.00  0.00     0.237 C
ATOM     18  H52 UNL     1       6.443  13.208 -40.625  1.00  0.00     0.277 HD
ATOM     19  H51 UNL     1       5.735  13.241 -41.958  1.00  0.00     0.277 HD
ENDBRANCH  12  13
ENDBRANCH  11  12
ENDBRANCH   1  11
TORSDOF 6
ENDMDL