MODEL 1
REMARK VINA RESULT: -6.148246119      0.000      0.000
REMARK  7 active torsions:
REMARK  status: ('A' for Active; 'I' for Inactive)
REMARK    1  A    between atoms: N1_1  and  C1_5
REMARK    2  A    between atoms: C1_5  and  C2_6
REMARK    3  A    between atoms: C2_6  and  C3_7
REMARK    4  A    between atoms: C3_7  and  C4_8
REMARK    5  A    between atoms: C4_8  and  N2_9
REMARK    6  A    between atoms: N2_9  and  C5_12
REMARK    7  A    between atoms: C5_12  and  C6_13
ROOT
HETATM    1  N2  UNL     1       3.357  18.276 -41.213  1.00  0.00    -0.075 N
ATOM      2  H21 UNL     1       3.357  19.253 -40.918  1.00  0.00     0.277 HD
ATOM      3  H22 UNL     1       4.158  18.288 -41.846  1.00  0.00     0.277 HD
ENDROOT
BRANCH   1   4
HETATM    4  C4  UNL     1       2.160  17.965 -41.923  1.00  0.00     0.232 C
BRANCH   4   5
HETATM    5  C3  UNL     1       2.262  18.027 -43.417  1.00  0.00     0.029 C
BRANCH   5   6
HETATM    6  C2  UNL     1       2.900  16.769 -43.957  1.00  0.00     0.029 C
BRANCH   6   7
HETATM    7  C1  UNL     1       3.480  17.116 -45.321  1.00  0.00     0.229 C
BRANCH   7   8
HETATM    8  N1  UNL     1       4.873  16.697 -45.293  1.00  0.00    -0.079 N
ATOM      9  H13 UNL     1       5.425  17.177 -44.582  1.00  0.00     0.274 HD
ATOM     10  H12 UNL     1       5.003  15.750 -44.938  1.00  0.00     0.274 HD
ATOM     11  H11 UNL     1       5.231  16.827 -46.239  1.00  0.00     0.274 HD
ENDBRANCH   7   8
ENDBRANCH   6   7
ENDBRANCH   5   6
ENDBRANCH   4   5
ENDBRANCH   1   4
BRANCH   1  12
HETATM   12  C5  UNL     1       3.607  17.414 -40.102  1.00  0.00     0.238 C
BRANCH  12  13
HETATM   13  C6  UNL     1       3.581  15.960 -40.435  1.00  0.00     0.036 C
HETATM   14  C7  UNL     1       4.952  15.359 -40.606  1.00  0.00     0.084 C
HETATM   15  C8  UNL     1       4.600  13.899 -40.556  1.00  0.00     0.083 A
HETATM   16  N3  UNL     1       4.988  12.675 -40.949  1.00  0.00    -0.354 N
HETATM   17  N4  UNL     1       3.447  13.757 -39.838  1.00  0.00    -0.345 N
HETATM   18  C9  UNL     1       4.136  11.748 -40.520  1.00  0.00     0.106 A
ATOM     19  H3  UNL     1       5.823  12.482 -41.503  1.00  0.00     0.166 HD
HETATM   20  C10 UNL     1       3.154  12.442 -39.810  1.00  0.00     0.109 A
HETATM   21  C11 UNL     1       2.987  15.072 -39.385  1.00  0.00     0.136 C
ENDBRANCH  12  13
ENDBRANCH   1  12
TORSDOF 7
ENDMDL