MODEL 4
REMARK VINA RESULT: -6.041752827      3.334      5.200
REMARK  6 active torsions:
REMARK  status: ('A' for Active; 'I' for Inactive)
REMARK    1  A    between atoms: N2_5  and  C3_6
REMARK    2  A    between atoms: C3_6  and  C4_7
REMARK    3  A    between atoms: C4_7  and  C5_8
REMARK    4  A    between atoms: C5_8  and  N3_9
REMARK    5  A    between atoms: N3_9  and  C6_12
REMARK    6  A    between atoms: C6_12  and  C7_13
ROOT
HETATM    1  C5  UNL     1       4.434  17.867 -39.070  1.00  0.00     0.234 C
ENDROOT
BRANCH   1   2
HETATM    2  C4  UNL     1       3.478  19.021 -39.223  1.00  0.00     0.049 C
BRANCH   2   3
HETATM    3  C3  UNL     1       2.607  19.261 -38.028  1.00  0.00     0.151 C
BRANCH   3   4
HETATM    4  N2  UNL     1       1.566  18.297 -37.843  1.00  0.00    -0.287 N
HETATM    5  C2  UNL     1       1.460  17.427 -36.834  1.00  0.00     0.201 A
HETATM    6  N1  UNL     1       0.347  16.692 -37.020  1.00  0.00    -0.346 N
HETATM    7  C1  UNL     1      -0.241  17.097 -38.140  1.00  0.00     0.198 A
ATOM      8  H1  UNL     1       0.013  15.950 -36.406  1.00  0.00     0.167 HD
HETATM    9  N5  UNL     1       0.528  18.087 -38.630  1.00  0.00    -0.293 N
ATOM     10  H5  UNL     1       0.335  18.602 -39.489  1.00  0.00     0.188 HD
ENDBRANCH   3   4
ENDBRANCH   2   3
ENDBRANCH   1   2
BRANCH   1  11
HETATM   11  N3  UNL     1       4.286  16.865 -40.084  1.00  0.00    -0.071 N
ATOM     12  H32 UNL     1       4.080  17.289 -40.989  1.00  0.00     0.277 HD
ATOM     13  H31 UNL     1       5.182  16.432 -40.303  1.00  0.00     0.277 HD
BRANCH  11  14
HETATM   14  C6  UNL     1       3.295  15.864 -39.744  1.00  0.00     0.272 C
BRANCH  14  15
HETATM   15  C7  UNL     1       3.876  14.531 -40.124  1.00  0.00    -0.016 A
HETATM   16  C8  UNL     1       3.301  13.295 -39.877  1.00  0.00     0.027 A
HETATM   17  C9  UNL     1       4.153  12.335 -40.392  1.00  0.00     0.088 A
HETATM   18  N4  UNL     1       5.230  12.944 -40.947  1.00  0.00    -0.375 N
HETATM   19  C10 UNL     1       5.065  14.282 -40.786  1.00  0.00     0.096 A
ATOM     20  H4  UNL     1       6.018  12.482 -41.401  1.00  0.00     0.164 HD
ENDBRANCH  14  15
ENDBRANCH  11  14
ENDBRANCH   1  11
TORSDOF 6
ENDMDL