MODEL 4
REMARK VINA RESULT: -5.973095454      1.902      5.547
REMARK  7 active torsions:
REMARK  status: ('A' for Active; 'I' for Inactive)
REMARK    1  A    between atoms: N1_1  and  C1_5
REMARK    2  A    between atoms: C1_5  and  C2_6
REMARK    3  A    between atoms: C2_6  and  C3_7
REMARK    4  A    between atoms: C3_7  and  C4_8
REMARK    5  A    between atoms: C4_8  and  C5_9
REMARK    6  A    between atoms: C5_9  and  C6_10
REMARK    7  A    between atoms: C6_10  and  N2_11
ROOT
HETATM    1  N2  UNL     1       3.552  15.153 -39.942  1.00  0.00    -0.326 N
HETATM    2  C7  UNL     1       4.670  15.580 -40.556  1.00  0.00     0.186 A
HETATM    3  N3  UNL     1       5.394  14.507 -40.971  1.00  0.00    -0.335 N
ATOM      4  H3  UNL     1       6.285  14.548 -41.464  1.00  0.00     0.168 HD
HETATM    5  C8  UNL     1       4.741  13.377 -40.622  1.00  0.00     0.152 A
HETATM    6  N4  UNL     1       4.704  12.027 -40.618  1.00  0.00    -0.335 N
ATOM      7  H4  UNL     1       5.420  11.423 -41.023  1.00  0.00     0.168 HD
HETATM    8  C9  UNL     1       3.593  11.593 -40.007  1.00  0.00     0.183 A
HETATM    9  N5  UNL     1       2.921  12.682 -39.622  1.00  0.00    -0.335 N
ATOM     10  H5  UNL     1       2.028  12.673 -39.128  1.00  0.00     0.168 HD
HETATM   11  C10 UNL     1       3.597  13.803 -39.984  1.00  0.00     0.154 A
ENDROOT
BRANCH   1  12
HETATM   12  C6  UNL     1       2.483  15.950 -39.340  1.00  0.00     0.131 C
BRANCH  12  13
HETATM   13  C5  UNL     1       2.577  17.324 -39.938  1.00  0.00     0.020 C
BRANCH  13  14
HETATM   14  C4  UNL     1       1.536  17.590 -40.986  1.00  0.00     0.002 C
BRANCH  14  15
HETATM   15  C3  UNL     1       2.233  17.864 -42.281  1.00  0.00     0.002 C
BRANCH  15  16
HETATM   16  C2  UNL     1       2.367  16.656 -43.164  1.00  0.00     0.027 C
BRANCH  16  17
HETATM   17  C1  UNL     1       3.278  16.896 -44.342  1.00  0.00     0.229 C
BRANCH  17  18
HETATM   18  N1  UNL     1       4.409  15.996 -44.225  1.00  0.00    -0.079 N
ATOM     19  H13 UNL     1       4.613  15.742 -43.259  1.00  0.00     0.274 HD
ATOM     20  H12 UNL     1       4.206  15.059 -44.572  1.00  0.00     0.274 HD
ATOM     21  H11 UNL     1       5.205  16.426 -44.696  1.00  0.00     0.274 HD
ENDBRANCH  17  18
ENDBRANCH  16  17
ENDBRANCH  15  16
ENDBRANCH  14  15
ENDBRANCH  13  14
ENDBRANCH  12  13
ENDBRANCH   1  12
TORSDOF 7
ENDMDL