MODEL 5
REMARK VINA RESULT: -6.244912366      1.796      4.363
REMARK  6 active torsions:
REMARK  status: ('A' for Active; 'I' for Inactive)
REMARK    1  A    between atoms: C2_2  and  C3_3
REMARK    2  A    between atoms: C3_3  and  N1_4
REMARK    3  A    between atoms: N1_4  and  C4_6
REMARK    4  A    between atoms: C4_6  and  C5_7
REMARK    5  A    between atoms: C4_6  and  C7_17
REMARK    6  A    between atoms: C5_7  and  C6_8
ROOT
HETATM    1  C4  UNL     1       3.486  16.389 -40.629  1.00  0.00     0.091 C
ENDROOT
BRANCH   1   2
HETATM    2  N1  UNL     1       3.350  16.964 -41.926  1.00  0.00    -0.413 N
ATOM      3  H1  UNL     1       3.565  17.957 -42.025  1.00  0.00     0.153 HD
BRANCH   2   4
HETATM    4  C3  UNL     1       2.952  16.292 -43.051  1.00  0.00     0.141 C
BRANCH   4   5
HETATM    5  C2  UNL     1       2.832  17.321 -44.182  1.00  0.00    -0.018 C
HETATM    6  C1  UNL     1       3.391  17.093 -45.344  1.00  0.00     0.008 C
ENDBRANCH   4   5
ENDBRANCH   2   4
ENDBRANCH   1   2
BRANCH   1   7
HETATM    7  C5  UNL     1       4.645  15.450 -40.582  1.00  0.00     0.104 C
BRANCH   7   8
HETATM    8  C6  UNL     1       4.410  14.046 -40.445  1.00  0.00     0.114 A
HETATM    9  N2  UNL     1       3.345  13.450 -39.822  1.00  0.00    -0.272 N
HETATM   10  N3  UNL     1       3.434  12.137 -39.919  1.00  0.00    -0.227 N
ATOM     11  H2  UNL     1       2.591  13.949 -39.350  1.00  0.00     0.190 HD
HETATM   12  N4  UNL     1       4.540  11.875 -40.596  1.00  0.00    -0.227 N
ATOM     13  H3  UNL     1       2.776  11.454 -39.544  1.00  0.00     0.210 HD
HETATM   14  N5  UNL     1       5.129  13.013 -40.912  1.00  0.00    -0.272 N
ATOM     15  H4  UNL     1       4.882  10.944 -40.834  1.00  0.00     0.210 HD
ATOM     16  H5  UNL     1       6.001  13.094 -41.435  1.00  0.00     0.190 HD
ENDBRANCH   7   8
ENDBRANCH   1   7
BRANCH   1  17
HETATM   17  C7  UNL     1       3.425  17.470 -39.607  1.00  0.00    -0.031 C
HETATM   18  C8  UNL     1       2.714  16.794 -38.396  1.00  0.00     0.016 C
HETATM   19  C9  UNL     1       2.706  18.712 -39.931  1.00  0.00     0.016 C
HETATM   20  C10 UNL     1       4.794  17.811 -38.993  1.00  0.00     0.016 C
ENDBRANCH   1  17
TORSDOF 6
ENDMDL