MODEL 1
REMARK VINA RESULT: -5.722512928      0.000      0.000
REMARK  6 active torsions:
REMARK  status: ('A' for Active; 'I' for Inactive)
REMARK    1  A    between atoms: C2_2  and  C4_4
REMARK    2  A    between atoms: C4_4  and  N1_5
REMARK    3  A    between atoms: C4_4  and  O3_14
REMARK    4  A    between atoms: N1_5  and  C5_7
REMARK    5  A    between atoms: C5_7  and  C6_8
REMARK    6  A    between atoms: O3_14  and  C10_15
ROOT
HETATM    1  C4  UNL     1       3.643  15.178 -40.082  1.00  0.00     0.227 C
ENDROOT
BRANCH   1   2
HETATM    2  C2  UNL     1       3.498  13.705 -40.445  1.00  0.00     0.026 C
HETATM    3  C1  UNL     1       4.906  13.170 -40.702  1.00  0.00     0.014 C
HETATM    4  C3  UNL     1       2.924  12.894 -39.325  1.00  0.00     0.014 C
ENDBRANCH   1   2
BRANCH   1   5
HETATM    5  N1  UNL     1       2.440  15.623 -39.474  1.00  0.00    -0.394 N
ATOM      6  H1  UNL     1       1.543  15.510 -39.946  1.00  0.00     0.155 HD
BRANCH   5   7
HETATM    7  C5  UNL     1       2.513  16.227 -38.197  1.00  0.00     0.151 C
BRANCH   7   8
HETATM    8  C6  UNL     1       2.643  17.728 -38.276  1.00  0.00     0.169 A
HETATM    9  C7  UNL     1       1.860  18.224 -39.456  1.00  0.00     0.208 A
HETATM   10  O1  UNL     1       2.567  18.955 -40.394  1.00  0.00    -0.359 OA
HETATM   11  C8  UNL     1       3.871  19.312 -40.264  1.00  0.00     0.158 A
HETATM   12  C9  UNL     1       4.580  18.917 -39.227  1.00  0.00     0.159 A
HETATM   13  O2  UNL     1       3.974  18.133 -38.276  1.00  0.00    -0.352 OA
ENDBRANCH   7   8
ENDBRANCH   5   7
ENDBRANCH   1   5
BRANCH   1  14
HETATM   14  O3  UNL     1       4.045  15.948 -41.174  1.00  0.00    -0.322 OA
BRANCH  14  15
HETATM   15  C10 UNL     1       3.434  15.929 -42.410  1.00  0.00     0.222 C
HETATM   16  N2  UNL     1       4.164  15.693 -43.434  1.00  0.00    -0.390 N
ATOM     17  H22 UNL     1       5.164  15.526 -43.323  1.00  0.00     0.157 HD
ATOM     18  H21 UNL     1       3.712  15.679 -44.349  1.00  0.00     0.157 HD
ENDBRANCH  14  15
ENDBRANCH   1  14
TORSDOF 6
ENDMDL