MODEL 2
REMARK VINA RESULT: -7.663585804      0.089      1.197
REMARK  6 active torsions:
REMARK  status: ('A' for Active; 'I' for Inactive)
REMARK    1  A    between atoms: C4_4  and  C5_5
REMARK    2  A    between atoms: C5_5  and  N1_6
REMARK    3  A    between atoms: N1_6  and  C6_9
REMARK    4  A    between atoms: C6_9  and  C7_10
REMARK    5  A    between atoms: C7_10  and  C8_11
REMARK    6  A    between atoms: C8_11  and  C9_12
ROOT
HETATM    1  C6  UNL     1       2.332  17.955 -41.208  1.00  0.00     0.233 C
ENDROOT
BRANCH   1   2
HETATM    2  N1  UNL     1       3.732  17.825 -40.842  1.00  0.00    -0.071 N
ATOM      3  H12 UNL     1       4.213  18.723 -40.787  1.00  0.00     0.277 HD
ATOM      4  H11 UNL     1       4.300  17.415 -41.584  1.00  0.00     0.277 HD
BRANCH   2   5
HETATM    5  C5  UNL     1       3.793  17.082 -39.614  1.00  0.00     0.270 C
BRANCH   5   6
HETATM    6  C4  UNL     1       3.811  15.622 -39.818  1.00  0.00    -0.033 A
HETATM    7  C3  UNL     1       4.824  15.100 -40.596  1.00  0.00     0.009 A
HETATM    8  C2  UNL     1       4.944  13.754 -40.859  1.00  0.00     0.001 A
HETATM    9  C1  UNL     1       4.003  12.908 -40.311  1.00  0.00     0.000 A
HETATM   10  C11 UNL     1       2.971  13.395 -39.524  1.00  0.00     0.001 A
HETATM   11  C10 UNL     1       2.885  14.757 -39.284  1.00  0.00     0.009 A
ENDBRANCH   5   6
ENDBRANCH   2   5
ENDBRANCH   1   2
BRANCH   1  12
HETATM   12  C7  UNL     1       2.121  17.891 -42.700  1.00  0.00     0.035 C
BRANCH  12  13
HETATM   13  C8  UNL     1       2.646  16.572 -43.184  1.00  0.00     0.081 C
BRANCH  13  14
HETATM   14  C9  UNL     1       3.399  16.691 -44.461  1.00  0.00     0.113 A
HETATM   15  N2  UNL     1       4.602  16.155 -44.716  1.00  0.00    -0.272 N
HETATM   16  N3  UNL     1       4.936  16.473 -45.936  1.00  0.00    -0.227 N
ATOM     17  H2  UNL     1       5.160  15.598 -44.069  1.00  0.00     0.190 HD
HETATM   18  N4  UNL     1       3.986  17.196 -46.478  1.00  0.00    -0.227 N
ATOM     19  H3  UNL     1       5.803  16.200 -46.399  1.00  0.00     0.210 HD
HETATM   20  N5  UNL     1       3.031  17.336 -45.571  1.00  0.00    -0.272 N
ATOM     21  H4  UNL     1       3.982  17.581 -47.422  1.00  0.00     0.210 HD
ATOM     22  H5  UNL     1       2.160  17.850 -45.699  1.00  0.00     0.190 HD
ENDBRANCH  13  14
ENDBRANCH  12  13
ENDBRANCH   1  12
TORSDOF 6
ENDMDL