MODEL 4
REMARK VINA RESULT: -5.888839060      2.056      2.778
REMARK  6 active torsions:
REMARK  status: ('A' for Active; 'I' for Inactive)
REMARK    1  A    between atoms: C2_2  and  C3_3
REMARK    2  A    between atoms: C3_3  and  N1_4
REMARK    3  A    between atoms: N1_4  and  C4_7
REMARK    4  A    between atoms: C4_7  and  C5_8
REMARK    5  A    between atoms: C5_8  and  C6_9
REMARK    6  A    between atoms: C6_9  and  N2_10
ROOT
HETATM    1  N2  UNL     1       3.287  15.343 -39.653  1.00  0.00    -0.326 N
HETATM    2  C7  UNL     1       4.180  16.148 -40.278  1.00  0.00     0.186 A
HETATM    3  N3  UNL     1       5.043  15.364 -40.943  1.00  0.00    -0.335 N
ATOM      4  H3  UNL     1       5.825  15.701 -41.504  1.00  0.00     0.168 HD
HETATM    5  C8  UNL     1       4.721  14.056 -40.759  1.00  0.00     0.152 A
HETATM    6  N4  UNL     1       5.027  12.774 -41.034  1.00  0.00    -0.335 N
ATOM      7  H4  UNL     1       5.801  12.454 -41.615  1.00  0.00     0.168 HD
HETATM    8  C9  UNL     1       4.131  11.989 -40.407  1.00  0.00     0.183 A
HETATM    9  N5  UNL     1       3.265  12.768 -39.740  1.00  0.00    -0.335 N
ATOM     10  H5  UNL     1       2.481  12.441 -39.176  1.00  0.00     0.168 HD
HETATM   11  C10 UNL     1       3.610  14.061 -39.942  1.00  0.00     0.154 A
ENDROOT
BRANCH   1  12
HETATM   12  C6  UNL     1       2.192  15.748 -38.832  1.00  0.00     0.133 C
BRANCH  12  13
HETATM   13  C5  UNL     1       2.514  16.900 -37.915  1.00  0.00     0.048 C
BRANCH  13  14
HETATM   14  C4  UNL     1       1.373  17.888 -38.030  1.00  0.00     0.234 C
BRANCH  14  15
HETATM   15  N1  UNL     1       1.504  18.717 -39.211  1.00  0.00    -0.072 N
ATOM     16  H12 UNL     1       2.239  18.370 -39.827  1.00  0.00     0.277 HD
ATOM     17  H11 UNL     1       1.902  19.628 -38.981  1.00  0.00     0.277 HD
BRANCH  15  18
HETATM   18  C3  UNL     1       0.258  18.855 -39.912  1.00  0.00     0.259 C
BRANCH  18  19
HETATM   19  C2  UNL     1       0.177  17.876 -41.026  1.00  0.00    -0.010 C
HETATM   20  C1  UNL     1       1.146  17.693 -41.900  1.00  0.00     0.008 C
ENDBRANCH  18  19
ENDBRANCH  15  18
ENDBRANCH  14  15
ENDBRANCH  13  14
ENDBRANCH  12  13
ENDBRANCH   1  12
TORSDOF 6
ENDMDL