MODEL 2
REMARK VINA RESULT: -5.575962432      1.599      2.854
REMARK  14 active torsions:
REMARK  status: ('A' for Active; 'I' for Inactive)
REMARK    1  A    between atoms: C2_2  and  C3_3
REMARK    2  A    between atoms: C3_3  and  C10_10
REMARK    3  A    between atoms: C4_4  and  C5_5
REMARK    4  A    between atoms: C5_5  and  C6_6
REMARK    5  A    between atoms: C6_6  and  C7_7
REMARK    6  A    between atoms: C10_10  and  C11_11
REMARK    7  A    between atoms: C11_11  and  C12_12
REMARK    8  A    between atoms: C12_12  and  C13_14
REMARK    9  A    between atoms: C14_15  and  C15_16
REMARK   10  A    between atoms: N1_21  and  C20_22
REMARK   11  A    between atoms: C20_22  and  C21_23
REMARK   12  A    between atoms: C21_23  and  C22_24
REMARK   13  A    between atoms: C22_24  and  C23_25
REMARK   14  A    between atoms: C23_25  and  C24_26
ROOT
HETATM    1  C15 UNL     1       1.477  -6.580  33.019  1.00  0.00     0.246 C
HETATM    2  C16 UNL     1       1.804  -8.005  33.434  1.00  0.00     0.040 C
HETATM    3  C17 UNL     1       3.233  -7.946  33.950  1.00  0.00     0.004 C
HETATM    4  C18 UNL     1       4.121  -7.494  32.845  1.00  0.00     0.030 C
HETATM    5  C19 UNL     1       3.667  -6.334  32.046  1.00  0.00     0.273 C
HETATM    6  N1  UNL     1       2.254  -6.200  31.849  1.00  0.00     0.096 N
ENDROOT
BRANCH   1   7
HETATM    7  C14 UNL     1       1.930  -5.702  34.126  1.00  0.00     0.012 C
HETATM    8  C13 UNL     1       1.241  -5.155  35.059  1.00  0.00     0.048 C
BRANCH   8   9
HETATM    9  C12 UNL     1      -0.198  -5.237  35.304  1.00  0.00     0.149 C
HETATM   10  O1  UNL     1      -0.928  -4.330  34.877  1.00  0.00    -0.293 OA
BRANCH   9  11
HETATM   11  C11 UNL     1      -0.800  -6.348  36.030  1.00  0.00     0.087 C
BRANCH  11  12
HETATM   12  C10 UNL     1       0.050  -7.403  36.603  1.00  0.00     0.041 C
BRANCH  12  13
HETATM   13  C3  UNL     1       0.297  -7.396  38.062  1.00  0.00    -0.084 C
HETATM   14  C4  UNL     1      -0.335  -8.352  38.772  1.00  0.00    -0.024 C
BRANCH  13  15
HETATM   15  C2  UNL     1       1.157  -6.403  38.717  1.00  0.00     0.029 C
HETATM   16  C1  UNL     1       2.591  -6.602  38.215  1.00  0.00     0.010 C
ENDBRANCH  13  15
BRANCH  14  17
HETATM   17  C5  UNL     1      -0.280  -8.556  40.212  1.00  0.00     0.028 C
BRANCH  17  18
HETATM   18  C6  UNL     1      -1.615  -8.161  40.828  1.00  0.00     0.007 C
BRANCH  18  19
HETATM   19  C7  UNL     1      -1.390  -7.268  42.034  1.00  0.00    -0.023 C
HETATM   20  C8  UNL     1      -0.257  -7.826  42.885  1.00  0.00     0.009 C
HETATM   21  C9  UNL     1      -1.145  -5.843  41.650  1.00  0.00     0.009 C
ENDBRANCH  18  19
ENDBRANCH  17  18
ENDBRANCH  14  17
ENDBRANCH  12  13
ENDBRANCH  11  12
ENDBRANCH   9  11
ENDBRANCH   8   9
ENDBRANCH   1   7
BRANCH   6  22
HETATM   22  C20 UNL     1       1.805  -6.857  30.642  1.00  0.00     0.273 C
BRANCH  22  23
HETATM   23  C21 UNL     1       0.378  -6.631  30.301  1.00  0.00     0.030 C
BRANCH  23  24
HETATM   24  C22 UNL     1      -0.308  -7.949  30.025  1.00  0.00     0.004 C
BRANCH  24  25
HETATM   25  C23 UNL     1      -1.234  -7.912  28.862  1.00  0.00     0.027 C
BRANCH  25  26
HETATM   26  C24 UNL     1      -2.613  -8.373  29.288  1.00  0.00     0.102 A
HETATM   27  C25 UNL     1      -3.205  -9.378  28.337  1.00  0.00     0.147 A
HETATM   28  N2  UNL     1      -3.533 -10.550  29.132  1.00  0.00    -0.363 N
HETATM   29  C26 UNL     1      -3.157 -10.389  30.351  1.00  0.00     0.184 A
ATOM     30  H2  UNL     1      -3.997 -11.385  28.773  1.00  0.00     0.162 HD
HETATM   31  N3  UNL     1      -3.371 -11.413  31.334  1.00  0.00    -0.064 NA
HETATM   32  N4  UNL     1      -2.547  -9.124  30.524  1.00  0.00    -0.358 N
ATOM     33  H4  UNL     1      -2.125  -8.790  31.390  1.00  0.00     0.162 HD
ENDBRANCH  25  26
ENDBRANCH  24  25
ENDBRANCH  23  24
ENDBRANCH  22  23
ENDBRANCH   6  22
TORSDOF 14
ENDMDL