MODEL 1
REMARK VINA RESULT: -4.433372002      0.000      0.000
REMARK  15 active torsions:
REMARK  status: ('A' for Active; 'I' for Inactive)
REMARK    1  A    between atoms: C2_2  and  C3_3
REMARK    2  A    between atoms: C3_3  and  O1_4
REMARK    3  A    between atoms: O1_4  and  C4_5
REMARK    4  A    between atoms: C7_8  and  C8_9
REMARK    5  A    between atoms: C8_9  and  C9_10
REMARK    6  A    between atoms: C10_11  and  O2_12
REMARK    7  A    between atoms: C11_14  and  N1_15
REMARK    8  A    between atoms: N1_15  and  C12_17
REMARK    9  A    between atoms: C12_17  and  C14_19
REMARK   10  A    between atoms: N2_22  and  C17_23
REMARK   11  A    between atoms: C17_23  and  C18_24
REMARK   12  A    between atoms: C18_24  and  C19_25
REMARK   13  A    between atoms: C18_24  and  C21_27
REMARK   14  A    between atoms: C21_27  and  C22_28
REMARK   15  A    between atoms: C25_31  and  O3_32
ROOT
HETATM    1  C9  UNL     1      -3.296  -8.269  42.389  1.00  0.00     0.257 C
HETATM    2  C10 UNL     1      -4.674  -8.825  42.691  1.00  0.00     0.175 C
HETATM    3  C11 UNL     1      -5.568  -7.859  41.938  1.00  0.00     0.136 C
HETATM    4  C16 UNL     1      -4.689  -7.359  40.854  1.00  0.00     0.300 C
HETATM    5  N2  UNL     1      -3.415  -8.037  40.989  1.00  0.00     0.098 N
ENDROOT
BRANCH   1   6
HETATM    6  C8  UNL     1      -2.920  -7.056  43.156  1.00  0.00     0.077 C
BRANCH   6   7
HETATM    7  C7  UNL     1      -1.760  -7.220  44.052  1.00  0.00    -0.053 A
HETATM    8  C6  UNL     1      -0.528  -7.499  43.514  1.00  0.00     0.010 A
HETATM    9  C5  UNL     1       0.545  -7.645  44.364  1.00  0.00     0.040 A
HETATM   10  C4  UNL     1       0.386  -7.515  45.728  1.00  0.00     0.102 A
HETATM   11  C25 UNL     1      -0.830  -7.237  46.309  1.00  0.00     0.102 A
HETATM   12  C24 UNL     1      -1.887  -7.095  45.436  1.00  0.00     0.046 A
BRANCH  10  13
HETATM   13  O1  UNL     1       1.473  -7.663  46.579  1.00  0.00    -0.345 OA
BRANCH  13  14
HETATM   14  C3  UNL     1       2.647  -8.315  46.158  1.00  0.00     0.202 C
BRANCH  14  15
HETATM   15  C2  UNL     1       3.779  -7.928  47.035  1.00  0.00    -0.011 C
HETATM   16  C1  UNL     1       5.056  -8.021  46.629  1.00  0.00     0.009 C
ENDBRANCH  14  15
ENDBRANCH  13  14
ENDBRANCH  10  13
BRANCH  11  17
HETATM   17  O3  UNL     1      -0.985  -7.106  47.686  1.00  0.00    -0.353 OA
HETATM   18  C26 UNL     1      -2.132  -7.540  48.354  1.00  0.00     0.210 C
ENDBRANCH  11  17
ENDBRANCH   6   7
ENDBRANCH   1   6
BRANCH   2  19
HETATM   19  O2  UNL     1      -4.720 -10.079  42.055  1.00  0.00    -0.391 OA
ATOM     20  H2  UNL     1      -5.549 -10.098  41.591  1.00  0.00     0.210 HD
ENDBRANCH   2  19
BRANCH   5  21
HETATM   21  C17 UNL     1      -2.337  -7.330  40.380  1.00  0.00     0.281 C
BRANCH  21  22
HETATM   22  C18 UNL     1      -2.085  -7.875  38.999  1.00  0.00     0.036 C
BRANCH  22  23
HETATM   23  C19 UNL     1      -0.960  -8.844  39.070  1.00  0.00    -0.030 C
HETATM   24  C20 UNL     1       0.086  -8.608  39.840  1.00  0.00     0.007 C
ENDBRANCH  22  23
BRANCH  22  25
HETATM   25  C21 UNL     1      -1.752  -6.763  38.024  1.00  0.00     0.010 C
BRANCH  25  26
HETATM   26  C22 UNL     1      -2.717  -6.680  36.887  1.00  0.00    -0.004 C
HETATM   27  C23 UNL     1      -4.019  -7.415  37.146  1.00  0.00     0.005 C
ENDBRANCH  25  26
ENDBRANCH  22  25
ENDBRANCH  21  22
ENDBRANCH   5  21
BRANCH   3  28
HETATM   28  N1  UNL     1      -6.878  -8.215  41.717  1.00  0.00    -0.409 N
ATOM     29  H1  UNL     1      -7.501  -8.184  42.523  1.00  0.00     0.154 HD
BRANCH  28  30
HETATM   30  C12 UNL     1      -7.444  -8.612  40.512  1.00  0.00     0.072 C
HETATM   31  C13 UNL     1      -8.056  -7.527  39.693  1.00  0.00     0.031 C
BRANCH  30  32
HETATM   32  C14 UNL     1      -8.488  -9.700  40.845  1.00  0.00     0.020 C
HETATM   33  C15 UNL     1      -8.541 -10.031  42.298  1.00  0.00     0.007 C
ENDBRANCH  30  32
ENDBRANCH  28  30
ENDBRANCH   3  28
TORSDOF 15
ENDMDL