MODEL 2
REMARK VINA RESULT: -4.388160654      1.198      1.461
REMARK  16 active torsions:
REMARK  status: ('A' for Active; 'I' for Inactive)
REMARK    1  A    between atoms: C2_2  and  C3_3
REMARK    2  A    between atoms: C3_3  and  C4_4
REMARK    3  A    between atoms: C4_4  and  C5_5
REMARK    4  A    between atoms: C5_5  and  C6_6
REMARK    5  A    between atoms: C11_13  and  C12_14
REMARK    6  A    between atoms: C12_14  and  C13_15
REMARK    7  A    between atoms: C14_16  and  C15_17
REMARK    8  A    between atoms: C15_17  and  C17_19
REMARK    9  A    between atoms: C19_21  and  C20_22
REMARK   10  A    between atoms: C20_22  and  C21_23
REMARK   11  A    between atoms: C21_23  and  O2_24
REMARK   12  A    between atoms: C21_23  and  C22_26
REMARK   13  A    between atoms: C22_26  and  C26_31
REMARK   14  A    between atoms: C23_27  and  C24_28
REMARK   15  A    between atoms: C24_28  and  O3_29
REMARK   16  A    between atoms: C26_31  and  O4_32
ROOT
HETATM    1  C5  UNL     1      -0.282  -7.062  29.054  1.00  0.00    -0.020 C
HETATM    2  C8  UNL     1      -1.428  -6.122  28.835  1.00  0.00     0.135 C
HETATM    3  N1  UNL     1      -1.634  -5.202  29.955  1.00  0.00    -0.355 N
HETATM    4  C9  UNL     1      -2.311  -3.923  29.809  1.00  0.00     0.152 C
HETATM    5  C10 UNL     1      -1.096  -5.663  31.172  1.00  0.00     0.224 C
HETATM    6  O1  UNL     1      -0.633  -4.804  32.004  1.00  0.00    -0.273 OA
HETATM    7  C11 UNL     1      -1.090  -7.130  31.420  1.00  0.00     0.086 C
HETATM    8  C19 UNL     1      -0.382  -7.893  30.335  1.00  0.00     0.012 C
ENDROOT
BRANCH   8   9
HETATM    9  C20 UNL     1      -1.081  -9.191  30.011  1.00  0.00     0.042 C
BRANCH   9  10
HETATM   10  C21 UNL     1      -2.336  -9.516  30.762  1.00  0.00     0.149 C
BRANCH  10  11
HETATM   11  O2  UNL     1      -2.478 -10.803  31.130  1.00  0.00    -0.391 OA
ATOM     12  H2  UNL     1      -2.584 -10.955  32.063  1.00  0.00     0.210 HD
ENDBRANCH  10  11
BRANCH  10  13
HETATM   13  C22 UNL     1      -3.500  -9.055  29.947  1.00  0.00    -0.030 C
HETATM   14  C23 UNL     1      -4.483  -8.317  30.361  1.00  0.00     0.006 C
BRANCH  14  15
HETATM   15  C24 UNL     1      -4.820  -7.707  31.643  1.00  0.00     0.194 C
BRANCH  15  16
HETATM   16  O3  UNL     1      -5.179  -8.715  32.566  1.00  0.00    -0.392 OA
HETATM   17  C25 UNL     1      -5.942  -8.141  33.589  1.00  0.00     0.201 C
ENDBRANCH  15  16
ENDBRANCH  14  15
BRANCH  13  18
HETATM   18  C26 UNL     1      -3.562  -9.509  28.496  1.00  0.00     0.200 C
BRANCH  18  19
HETATM   19  O4  UNL     1      -3.985 -10.830  28.521  1.00  0.00    -0.397 OA
ATOM     20  H4  UNL     1      -4.917 -10.814  28.339  1.00  0.00     0.209 HD
ENDBRANCH  18  19
ENDBRANCH  13  18
ENDBRANCH  10  13
ENDBRANCH   9  10
ENDBRANCH   8   9
BRANCH   1  21
HETATM   21  C4  UNL     1      -0.388  -8.020  27.839  1.00  0.00     0.011 C
BRANCH  21  22
HETATM   22  C3  UNL     1       0.278  -7.429  26.629  1.00  0.00     0.000 C
BRANCH  22  23
HETATM   23  C2  UNL     1       1.151  -8.520  26.012  1.00  0.00    -0.005 C
HETATM   24  C1  UNL     1       1.235  -9.729  26.892  1.00  0.00     0.005 C
ENDBRANCH  22  23
ENDBRANCH  21  22
ENDBRANCH   1  21
BRANCH   1  25
HETATM   25  C6  UNL     1       0.996  -6.306  29.003  1.00  0.00     0.007 C
HETATM   26  C7  UNL     1       2.203  -7.064  29.504  1.00  0.00     0.006 C
ENDBRANCH   1  25
BRANCH   7  27
HETATM   27  C12 UNL     1      -0.584  -7.316  32.805  1.00  0.00     0.041 C
BRANCH  27  28
HETATM   28  C13 UNL     1       0.814  -7.834  32.872  1.00  0.00    -0.029 C
HETATM   29  C14 UNL     1       1.871  -7.239  33.350  1.00  0.00    -0.026 C
BRANCH  29  30
HETATM   30  C15 UNL     1       3.228  -7.798  33.393  1.00  0.00     0.003 C
HETATM   31  C16 UNL     1       4.132  -7.093  32.389  1.00  0.00     0.014 C
BRANCH  30  32
HETATM   32  C17 UNL     1       3.884  -7.843  34.721  1.00  0.00     0.003 C
HETATM   33  C18 UNL     1       4.692  -6.647  35.103  1.00  0.00     0.006 C
ENDBRANCH  30  32
ENDBRANCH  29  30
ENDBRANCH  27  28
ENDBRANCH   7  27
TORSDOF 16
ENDMDL