MODEL 5
REMARK VINA RESULT: -3.885387171      1.466      2.130
REMARK  16 active torsions:
REMARK  status: ('A' for Active; 'I' for Inactive)
REMARK    1  A    between atoms: C2_2  and  C3_3
REMARK    2  A    between atoms: C3_3  and  C4_4
REMARK    3  A    between atoms: C4_4  and  N1_5
REMARK       I    between atoms: N1_5  and  C5_7
REMARK    4  A    between atoms: C5_7  and  C6_9
REMARK    5  A    between atoms: C6_9  and  C7_10
REMARK    6  A    between atoms: C6_9  and  C14_17
REMARK    7  A    between atoms: C7_10  and  C8_11
REMARK    8  A    between atoms: C14_17  and  C15_18
REMARK    9  A    between atoms: C14_17  and  N2_22
REMARK   10  A    between atoms: C15_18  and  C16_19
REMARK   11  A    between atoms: C19_24  and  C21_26
REMARK   12  A    between atoms: C21_26  and  C22_27
REMARK   13  A    between atoms: C22_27  and  C23_28
REMARK   14  A    between atoms: C23_28  and  N3_29
REMARK   15  A    between atoms: C23_28  and  C24_33
REMARK   16  A    between atoms: C24_33  and  O3_35
ROOT
HETATM    1  C14 UNL     1      -0.320  -6.428  32.034  1.00  0.00     0.094 C
ENDROOT
BRANCH   1   2
HETATM    2  C6  UNL     1      -0.926  -6.371  33.413  1.00  0.00     0.101 C
BRANCH   2   3
HETATM    3  C5  UNL     1      -2.394  -5.991  33.229  1.00  0.00     0.223 C
HETATM    4  N1  UNL     1      -3.381  -6.373  34.141  1.00  0.00    -0.361 N
ATOM      5  H1  UNL     1      -3.063  -6.924  34.938  1.00  0.00     0.162 HD
HETATM    6  O1  UNL     1      -2.689  -5.319  32.224  1.00  0.00    -0.273 OA
BRANCH   4   7
HETATM    7  C4  UNL     1      -4.770  -6.093  34.100  1.00  0.00     0.122 C
BRANCH   7   8
HETATM    8  C3  UNL     1      -5.459  -6.774  35.261  1.00  0.00     0.019 C
BRANCH   8   9
HETATM    9  C2  UNL     1      -4.413  -7.350  36.216  1.00  0.00    -0.003 C
HETATM   10  C1  UNL     1      -4.859  -7.007  37.619  1.00  0.00     0.005 C
ENDBRANCH   8   9
ENDBRANCH   7   8
ENDBRANCH   4   7
ENDBRANCH   2   3
BRANCH   2  11
HETATM   11  C7  UNL     1      -0.370  -5.354  34.326  1.00  0.00     0.020 C
BRANCH  11  12
HETATM   12  C8  UNL     1       0.286  -5.834  35.587  1.00  0.00    -0.014 C
HETATM   13  C9  UNL     1      -0.145  -7.219  36.002  1.00  0.00     0.005 C
HETATM   14  C10 UNL     1      -0.021  -7.278  37.520  1.00  0.00     0.000 C
HETATM   15  C11 UNL     1      -1.153  -6.531  38.165  1.00  0.00     0.000 C
HETATM   16  C12 UNL     1      -1.473  -5.367  37.222  1.00  0.00     0.000 C
HETATM   17  C13 UNL     1      -0.171  -4.863  36.697  1.00  0.00     0.005 C
ENDBRANCH  11  12
ENDBRANCH   2  11
ENDBRANCH   1   2
BRANCH   1  18
HETATM   18  C15 UNL     1       1.127  -6.179  31.985  1.00  0.00     0.029 C
BRANCH  18  19
HETATM   19  C16 UNL     1       2.038  -7.374  31.972  1.00  0.00    -0.021 C
HETATM   20  C17 UNL     1       3.369  -6.917  31.320  1.00  0.00     0.009 C
HETATM   21  C18 UNL     1       2.464  -7.843  33.347  1.00  0.00     0.009 C
ENDBRANCH  18  19
ENDBRANCH   1  18
BRANCH   1  22
HETATM   22  N2  UNL     1      -0.691  -7.600  31.357  1.00  0.00    -0.391 N
HETATM   23  C19 UNL     1      -1.067  -7.677  30.145  1.00  0.00    -0.022 C
HETATM   24  C20 UNL     1      -1.162  -6.485  29.266  1.00  0.00     0.062 C
ATOM     25  H2  UNL     1      -0.655  -8.471  31.886  1.00  0.00     0.159 HD
BRANCH  23  26
HETATM   26  C21 UNL     1      -1.403  -9.004  29.582  1.00  0.00     0.054 C
BRANCH  26  27
HETATM   27  C22 UNL     1      -1.981  -9.897  30.624  1.00  0.00     0.049 C
BRANCH  27  28
HETATM   28  C23 UNL     1      -3.405 -10.277  30.283  1.00  0.00     0.282 C
BRANCH  28  29
HETATM   29  N3  UNL     1      -3.467 -10.617  28.891  1.00  0.00    -0.066 N
ATOM     30  H33 UNL     1      -3.307 -11.610  28.724  1.00  0.00     0.275 HD
ATOM     31  H32 UNL     1      -4.415 -10.562  28.517  1.00  0.00     0.275 HD
ATOM     32  H31 UNL     1      -2.811 -10.024  28.382  1.00  0.00     0.275 HD
ENDBRANCH  28  29
BRANCH  28  33
HETATM   33  C24 UNL     1      -4.249  -9.070  30.593  1.00  0.00     0.289 C
HETATM   34  O2  UNL     1      -4.166  -8.573  31.743  1.00  0.00    -0.263 OA
BRANCH  33  35
HETATM   35  O3  UNL     1      -5.070  -8.560  29.618  1.00  0.00    -0.325 OA
HETATM   36  C25 UNL     1      -4.808  -7.243  29.121  1.00  0.00     0.213 C
ENDBRANCH  33  35
ENDBRANCH  28  33
ENDBRANCH  27  28
ENDBRANCH  26  27
ENDBRANCH  23  26
ENDBRANCH   1  22
TORSDOF 16
ENDMDL