MODEL 2
REMARK VINA RESULT: -4.814866496      2.883      6.053
REMARK  14 active torsions:
REMARK  status: ('A' for Active; 'I' for Inactive)
REMARK    1  A    between atoms: C2_2  and  C3_3
REMARK    2  A    between atoms: C2_2  and  C21_26
REMARK    3  A    between atoms: C4_4  and  C5_5
REMARK    4  A    between atoms: C11_12  and  C12_13
REMARK    5  A    between atoms: C12_13  and  C13_14
REMARK    6  A    between atoms: C14_15  and  C15_16
REMARK    7  A    between atoms: C15_16  and  C16_17
REMARK    8  A    between atoms: C16_17  and  C17_18
REMARK    9  A    between atoms: C17_18  and  C18_19
REMARK       I    between atoms: C18_19  and  N1_21
REMARK   10  A    between atoms: N1_21  and  C19_23
REMARK   11  A    between atoms: C21_26  and  C22_27
REMARK   12  A    between atoms: C22_27  and  C23_28
REMARK   13  A    between atoms: C23_28  and  O3_29
REMARK   14  A    between atoms: C23_28  and  C24_31
ROOT
HETATM    1  C19 UNL     1      -4.368  -9.385  29.990  1.00  0.00     0.247 C
HETATM    2  C20 UNL     1      -3.135 -10.008  30.439  1.00  0.00     0.078 C
HETATM    3  N2  UNL     1      -2.151 -10.508  30.806  1.00  0.00    -0.196 NA
ENDROOT
BRANCH   1   4
HETATM    4  N1  UNL     1      -4.677  -8.204  30.766  1.00  0.00    -0.349 N
HETATM    5  C18 UNL     1      -5.153  -8.409  32.110  1.00  0.00     0.218 C
HETATM    6  O2  UNL     1      -5.282  -9.578  32.556  1.00  0.00    -0.274 OA
ATOM      7  H1  UNL     1      -4.563  -7.267  30.379  1.00  0.00     0.163 HD
BRANCH   5   8
HETATM    8  C17 UNL     1      -5.461  -7.188  32.881  1.00  0.00     0.103 C
BRANCH   8   9
HETATM    9  C16 UNL     1      -5.574  -7.485  34.339  1.00  0.00     0.013 C
BRANCH   9  10
HETATM   10  C15 UNL     1      -4.614  -6.566  35.109  1.00  0.00     0.027 C
BRANCH  10  11
HETATM   11  C14 UNL     1      -4.553  -6.985  36.530  1.00  0.00    -0.031 C
HETATM   12  C13 UNL     1      -3.462  -7.001  37.225  1.00  0.00    -0.030 C
BRANCH  12  13
HETATM   13  C12 UNL     1      -2.127  -6.607  36.724  1.00  0.00     0.034 C
BRANCH  13  14
HETATM   14  C11 UNL     1      -1.166  -6.716  37.885  1.00  0.00     0.026 C
HETATM   15  C5  UNL     1       0.231  -7.223  37.403  1.00  0.00     0.021 C
HETATM   16  C6  UNL     1       1.000  -7.235  38.673  1.00  0.00     0.019 C
HETATM   17  C7  UNL     1       1.012  -5.845  39.323  1.00  0.00     0.013 C
HETATM   18  C8  UNL     1       0.185  -8.079  39.656  1.00  0.00     0.128 C
HETATM   19  C9  UNL     1      -0.859  -8.938  39.070  1.00  0.00     0.064 C
HETATM   20  O1  UNL     1      -0.879  -7.260  40.138  1.00  0.00    -0.380 OA
HETATM   21  C10 UNL     1      -1.592  -7.637  38.969  1.00  0.00     0.129 C
BRANCH  15  22
HETATM   22  C4  UNL     1       0.710  -6.523  36.235  1.00  0.00    -0.025 C
HETATM   23  C3  UNL     1       1.177  -6.735  35.076  1.00  0.00    -0.026 C
BRANCH  23  24
HETATM   24  C2  UNL     1       1.450  -7.958  34.351  1.00  0.00     0.004 C
HETATM   25  C1  UNL     1       2.777  -7.837  33.633  1.00  0.00     0.014 C
BRANCH  24  26
HETATM   26  C21 UNL     1       0.337  -8.305  33.316  1.00  0.00     0.010 C
BRANCH  26  27
HETATM   27  C22 UNL     1       0.465  -7.533  32.073  1.00  0.00     0.033 C
BRANCH  27  28
HETATM   28  C23 UNL     1      -0.749  -6.792  31.649  1.00  0.00     0.121 C
BRANCH  28  29
HETATM   29  O3  UNL     1      -1.865  -7.545  32.142  1.00  0.00    -0.395 OA
ATOM     30  H3  UNL     1      -2.627  -6.988  32.030  1.00  0.00     0.210 HD
ENDBRANCH  28  29
BRANCH  28  31
HETATM   31  C24 UNL     1      -0.915  -5.388  32.053  1.00  0.00     0.006 C
HETATM   32  C25 UNL     1      -1.618  -5.078  33.319  1.00  0.00     0.012 C
HETATM   33  C26 UNL     1       0.492  -4.745  32.074  1.00  0.00     0.012 C
ENDBRANCH  28  31
ENDBRANCH  27  28
ENDBRANCH  26  27
ENDBRANCH  24  26
ENDBRANCH  23  24
ENDBRANCH  15  22
ENDBRANCH  13  14
ENDBRANCH  12  13
ENDBRANCH  10  11
ENDBRANCH   9  10
ENDBRANCH   8   9
ENDBRANCH   5   8
ENDBRANCH   1   4
TORSDOF 14
ENDMDL