MODEL 4
REMARK VINA RESULT: -4.579790790      2.280      5.701
REMARK  14 active torsions:
REMARK  status: ('A' for Active; 'I' for Inactive)
REMARK    1  A    between atoms: C1_2  and  N1_3
REMARK    2  A    between atoms: N1_3  and  C2_5
REMARK    3  A    between atoms: C2_5  and  C3_6
REMARK    4  A    between atoms: C2_5  and  C10_13
REMARK    5  A    between atoms: C3_6  and  C4_7
REMARK       I    between atoms: C10_13  and  N2_15
REMARK    6  A    between atoms: N2_15  and  C11_17
REMARK    7  A    between atoms: C15_21  and  O3_22
REMARK    8  A    between atoms: O3_22  and  C16_23
REMARK    9  A    between atoms: C16_23  and  C17_24
REMARK   10  A    between atoms: C17_24  and  C18_25
REMARK   11  A    between atoms: C18_25  and  C19_26
REMARK   12  A    between atoms: C19_26  and  C20_27
REMARK   13  A    between atoms: C20_27  and  C21_28
REMARK   14  A    between atoms: C21_28  and  C22_29
ROOT
HETATM    1  C11 UNL     1      -5.712  -7.692  32.129  1.00  0.00     0.113 C
HETATM    2  C12 UNL     1      -6.387  -6.357  31.826  1.00  0.00     0.028 C
HETATM    3  C13 UNL     1      -7.468  -6.309  32.876  1.00  0.00     0.005 C
HETATM    4  C14 UNL     1      -6.721  -6.807  34.094  1.00  0.00     0.034 C
HETATM    5  C15 UNL     1      -5.632  -7.703  33.622  1.00  0.00     0.144 C
ENDROOT
BRANCH   1   6
HETATM    6  N2  UNL     1      -4.464  -7.806  31.438  1.00  0.00    -0.352 N
HETATM    7  C10 UNL     1      -4.343  -8.730  30.366  1.00  0.00     0.240 C
HETATM    8  O2  UNL     1      -5.268  -9.455  29.988  1.00  0.00    -0.271 OA
ATOM      9  H2  UNL     1      -3.668  -7.229  31.713  1.00  0.00     0.163 HD
BRANCH   7  10
HETATM   10  C2  UNL     1      -3.022  -8.831  29.653  1.00  0.00     0.176 C
BRANCH  10  11
HETATM   11  N1  UNL     1      -3.193  -9.680  28.479  1.00  0.00    -0.355 N
ATOM     12  H1  UNL     1      -3.429 -10.665  28.608  1.00  0.00     0.162 HD
BRANCH  11  13
HETATM   13  C1  UNL     1      -3.042  -9.183  27.183  1.00  0.00     0.349 C
HETATM   14  O1  UNL     1      -3.792  -9.414  26.202  1.00  0.00    -0.284 OA
ENDBRANCH  11  13
ENDBRANCH  10  11
BRANCH  10  15
HETATM   15  C3  UNL     1      -2.629  -7.435  29.247  1.00  0.00     0.039 C
BRANCH  15  16
HETATM   16  C4  UNL     1      -1.315  -7.085  29.900  1.00  0.00    -0.012 C
HETATM   17  C5  UNL     1      -0.760  -8.226  30.706  1.00  0.00     0.005 C
HETATM   18  C6  UNL     1       0.048  -7.706  31.842  1.00  0.00     0.000 C
HETATM   19  C7  UNL     1       0.882  -6.485  31.507  1.00  0.00     0.000 C
HETATM   20  C8  UNL     1      -0.001  -5.355  31.020  1.00  0.00     0.000 C
HETATM   21  C9  UNL     1      -1.409  -5.858  30.756  1.00  0.00     0.005 C
ENDBRANCH  15  16
ENDBRANCH  10  15
ENDBRANCH   7  10
ENDBRANCH   1   6
BRANCH   5  22
HETATM   22  O3  UNL     1      -4.395  -7.470  34.076  1.00  0.00    -0.384 OA
BRANCH  22  23
HETATM   23  C16 UNL     1      -4.097  -6.278  34.640  1.00  0.00     0.168 C
BRANCH  23  24
HETATM   24  C17 UNL     1      -2.753  -5.704  34.280  1.00  0.00     0.026 C
BRANCH  24  25
HETATM   25  C18 UNL     1      -1.611  -6.339  34.985  1.00  0.00     0.002 C
BRANCH  25  26
HETATM   26  C19 UNL     1      -0.308  -5.632  34.909  1.00  0.00     0.000 C
BRANCH  26  27
HETATM   27  C20 UNL     1       0.804  -6.532  35.366  1.00  0.00     0.001 C
BRANCH  27  28
HETATM   28  C21 UNL     1       2.142  -6.024  34.872  1.00  0.00     0.015 C
BRANCH  28  29
HETATM   29  C22 UNL     1       3.236  -7.047  35.041  1.00  0.00     0.048 C
HETATM   30  C23 UNL     1       3.303  -8.021  33.877  1.00  0.00     0.025 C
HETATM   31  C24 UNL     1       4.194  -7.089  33.088  1.00  0.00     0.075 C
HETATM   32  S1  UNL     1       4.842  -6.354  34.602  1.00  0.00    -0.164 SA
ENDBRANCH  28  29
ENDBRANCH  27  28
ENDBRANCH  26  27
ENDBRANCH  25  26
ENDBRANCH  24  25
ENDBRANCH  23  24
ENDBRANCH  22  23
ENDBRANCH   5  22
TORSDOF 14
ENDMDL