MODEL 1
REMARK VINA RESULT: -3.940340840      0.000      0.000
REMARK  17 active torsions:
REMARK  status: ('A' for Active; 'I' for Inactive)
REMARK    1  A    between atoms: C2_2  and  C3_3
REMARK    2  A    between atoms: C3_3  and  C4_4
REMARK    3  A    between atoms: C4_4  and  C5_5
REMARK    4  A    between atoms: C5_5  and  N1_6
REMARK    5  A    between atoms: N1_6  and  C7_8
REMARK    6  A    between atoms: C7_8  and  C8_9
REMARK    7  A    between atoms: C7_8  and  C25_29
REMARK    8  A    between atoms: C8_9  and  C9_10
REMARK    9  A    between atoms: C9_10  and  C10_11
REMARK   10  A    between atoms: C10_11  and  C12_13
REMARK   11  A    between atoms: C13_14  and  C14_15
REMARK   12  A    between atoms: C14_15  and  C16_17
REMARK   13  A    between atoms: C16_17  and  C17_18
REMARK   14  A    between atoms: C17_18  and  C18_19
REMARK   15  A    between atoms: C21_22  and  C22_23
REMARK   16  A    between atoms: C22_23  and  O1_24
REMARK   17  A    between atoms: C25_29  and  O3_32
ROOT
HETATM    1  C10 UNL     1      -1.932  -6.145  31.382  1.00  0.00     0.007 C
HETATM    2  C11 UNL     1      -1.190  -4.853  31.683  1.00  0.00     0.014 C
ENDROOT
BRANCH   1   3
HETATM    3  C9  UNL     1      -1.968  -6.355  29.871  1.00  0.00     0.036 C
BRANCH   3   4
HETATM    4  C8  UNL     1      -2.928  -7.296  29.340  1.00  0.00    -0.004 C
BRANCH   4   5
HETATM    5  C7  UNL     1      -2.641  -8.609  28.800  1.00  0.00     0.017 C
BRANCH   5   6
HETATM    6  N1  UNL     1      -2.566  -8.883  27.411  1.00  0.00    -0.289 NA
HETATM    7  C6  UNL     1      -3.113  -7.804  26.592  1.00  0.00     0.116 C
BRANCH   6   8
HETATM    8  C5  UNL     1      -1.206  -9.031  26.956  1.00  0.00     0.095 C
BRANCH   8   9
HETATM    9  C4  UNL     1      -0.152  -8.935  28.007  1.00  0.00     0.015 C
BRANCH   9  10
HETATM   10  C3  UNL     1       0.851  -7.843  27.900  1.00  0.00     0.001 C
BRANCH  10  11
HETATM   11  C2  UNL     1       1.550  -7.425  29.136  1.00  0.00    -0.005 C
HETATM   12  C1  UNL     1       1.662  -5.919  29.306  1.00  0.00     0.005 C
ENDBRANCH  10  11
ENDBRANCH   9  10
ENDBRANCH   8   9
ENDBRANCH   6   8
ENDBRANCH   5   6
BRANCH   5  13
HETATM   13  C25 UNL     1      -3.345  -9.677  29.614  1.00  0.00     0.087 C
HETATM   14  C26 UNL     1      -2.457 -10.466  30.502  1.00  0.00     0.051 C
HETATM   15  C27 UNL     1      -4.550  -9.118  30.344  1.00  0.00     0.051 C
BRANCH  13  16
HETATM   16  O3  UNL     1      -3.916 -10.588  28.673  1.00  0.00    -0.385 OA
ATOM     17  H3  UNL     1      -4.479 -11.169  29.172  1.00  0.00     0.211 HD
ENDBRANCH  13  16
ENDBRANCH   5  13
ENDBRANCH   4   5
ENDBRANCH   3   4
ENDBRANCH   1   3
BRANCH   1  18
HETATM   18  C12 UNL     1      -1.009  -7.257  31.821  1.00  0.00    -0.026 C
HETATM   19  C13 UNL     1       0.036  -7.017  32.551  1.00  0.00    -0.025 C
BRANCH  19  20
HETATM   20  C14 UNL     1       0.950  -8.043  32.986  1.00  0.00     0.014 C
HETATM   21  C15 UNL     1       0.791  -8.581  34.337  1.00  0.00     0.015 C
BRANCH  20  22
HETATM   22  C16 UNL     1       2.397  -7.519  32.721  1.00  0.00     0.088 C
BRANCH  22  23
HETATM   23  C17 UNL     1       2.637  -6.403  33.278  1.00  0.00    -0.177 C
BRANCH  23  24
HETATM   24  C18 UNL     1       2.908  -5.150  33.903  1.00  0.00     0.059 C
HETATM   25  C19 UNL     1       1.915  -4.541  34.826  1.00  0.00     0.017 C
HETATM   26  C20 UNL     1       2.268  -4.605  36.291  1.00  0.00     0.015 C
HETATM   27  C21 UNL     1       2.696  -5.979  36.684  1.00  0.00     0.079 C
HETATM   28  C23 UNL     1       3.821  -6.373  35.764  1.00  0.00     0.134 C
HETATM   29  O2  UNL     1       4.376  -7.463  35.849  1.00  0.00    -0.297 OA
HETATM   30  C24 UNL     1       4.202  -5.350  34.759  1.00  0.00     0.095 C
BRANCH  27  31
HETATM   31  C22 UNL     1       3.202  -6.019  38.105  1.00  0.00     0.176 C
BRANCH  31  32
HETATM   32  O1  UNL     1       3.218  -7.305  38.627  1.00  0.00    -0.400 OA
ATOM     33  H1  UNL     1       3.263  -7.312  39.576  1.00  0.00     0.209 HD
ENDBRANCH  31  32
ENDBRANCH  27  31
ENDBRANCH  23  24
ENDBRANCH  22  23
ENDBRANCH  20  22
ENDBRANCH  19  20
ENDBRANCH   1  18
TORSDOF 17
ENDMDL