MODEL 3
REMARK VINA RESULT: -4.495363882      1.411      1.739
REMARK  15 active torsions:
REMARK  status: ('A' for Active; 'I' for Inactive)
REMARK    1  A    between atoms: C2_2  and  O1_3
REMARK    2  A    between atoms: O1_3  and  C3_4
REMARK       I    between atoms: C3_4  and  N1_6
REMARK    3  A    between atoms: N1_6  and  C4_8
REMARK    4  A    between atoms: C4_8  and  C5_9
REMARK    5  A    between atoms: C5_9  and  C6_10
REMARK    6  A    between atoms: C5_9  and  C14_19
REMARK    7  A    between atoms: C6_10  and  C7_11
REMARK    8  A    between atoms: C7_11  and  C8_12
REMARK    9  A    between atoms: C8_12  and  C9_13
REMARK   10  A    between atoms: C9_13  and  N2_14
REMARK   11  A    between atoms: C14_19  and  C15_20
REMARK       I    between atoms: C15_20  and  N3_22
REMARK   12  A    between atoms: N3_22  and  C16_24
REMARK   13  A    between atoms: C16_24  and  C18_26
REMARK   14  A    between atoms: C18_26  and  C19_27
REMARK   15  A    between atoms: C19_27  and  C20_28
ROOT
HETATM    1  C5  UNL     1      -4.884  -7.398  34.033  1.00  0.00     0.012 C
ENDROOT
BRANCH   1   2
HETATM    2  C4  UNL     1      -5.857  -8.091  33.042  1.00  0.00     0.130 C
BRANCH   2   3
HETATM    3  N1  UNL     1      -5.172  -8.338  31.819  1.00  0.00    -0.337 N
HETATM    4  C3  UNL     1      -4.824  -9.692  31.454  1.00  0.00     0.360 C
HETATM    5  O2  UNL     1      -5.133 -10.641  32.223  1.00  0.00    -0.239 OA
ATOM      6  H1  UNL     1      -4.927  -7.563  31.203  1.00  0.00     0.164 HD
BRANCH   4   7
HETATM    7  O1  UNL     1      -4.154  -9.999  30.283  1.00  0.00    -0.304 OA
BRANCH   7   8
HETATM    8  C2  UNL     1      -2.819 -10.487  30.367  1.00  0.00     0.176 C
HETATM    9  C1  UNL     1      -1.931  -9.603  29.523  1.00  0.00     0.034 C
ENDBRANCH   7   8
ENDBRANCH   4   7
ENDBRANCH   2   3
ENDBRANCH   1   2
BRANCH   1  10
HETATM   10  C6  UNL     1      -5.701  -7.058  35.252  1.00  0.00     0.007 C
BRANCH  10  11
HETATM   11  C7  UNL     1      -4.899  -6.346  36.298  1.00  0.00     0.002 C
BRANCH  11  12
HETATM   12  C8  UNL     1      -3.918  -7.304  36.942  1.00  0.00     0.030 C
BRANCH  12  13
HETATM   13  C9  UNL     1      -3.911  -7.097  38.426  1.00  0.00     0.272 C
BRANCH  13  14
HETATM   14  N2  UNL     1      -2.533  -7.018  38.933  1.00  0.00     0.088 N
HETATM   15  C10 UNL     1      -1.591  -7.008  37.824  1.00  0.00     0.272 C
HETATM   16  C11 UNL     1      -0.390  -7.782  38.327  1.00  0.00     0.032 C
HETATM   17  C12 UNL     1      -1.067  -8.841  39.159  1.00  0.00     0.032 C
HETATM   18  C13 UNL     1      -2.256  -8.145  39.749  1.00  0.00     0.272 C
ENDBRANCH  13  14
ENDBRANCH  12  13
ENDBRANCH  11  12
ENDBRANCH  10  11
ENDBRANCH   1  10
BRANCH   1  19
HETATM   19  C14 UNL     1      -4.276  -6.217  33.396  1.00  0.00     0.109 C
BRANCH  19  20
HETATM   20  C15 UNL     1      -2.839  -6.350  33.102  1.00  0.00     0.218 C
HETATM   21  O3  UNL     1      -2.455  -6.987  32.102  1.00  0.00    -0.274 OA
HETATM   22  N3  UNL     1      -1.926  -5.739  33.988  1.00  0.00    -0.357 N
ATOM     23  H3  UNL     1      -2.314  -5.210  34.769  1.00  0.00     0.162 HD
BRANCH  22  24
HETATM   24  C16 UNL     1      -0.511  -5.800  33.878  1.00  0.00     0.080 C
HETATM   25  C17 UNL     1       0.145  -4.507  34.332  1.00  0.00     0.032 C
BRANCH  24  26
HETATM   26  C18 UNL     1       0.096  -6.999  34.516  1.00  0.00     0.025 C
BRANCH  26  27
HETATM   27  C19 UNL     1       0.615  -7.999  33.510  1.00  0.00     0.006 C
BRANCH  27  28
HETATM   28  C20 UNL     1       2.121  -8.052  33.609  1.00  0.00    -0.014 C
HETATM   29  C21 UNL     1       2.627  -7.396  34.864  1.00  0.00     0.004 C
HETATM   30  C22 UNL     1       3.363  -6.108  34.647  1.00  0.00     0.000 C
HETATM   31  C23 UNL     1       4.524  -6.263  33.688  1.00  0.00     0.000 C
HETATM   32  C24 UNL     1       4.218  -7.291  32.620  1.00  0.00     0.000 C
HETATM   33  C25 UNL     1       2.721  -7.413  32.393  1.00  0.00     0.004 C
ENDBRANCH  27  28
ENDBRANCH  26  27
ENDBRANCH  24  26
ENDBRANCH  22  24
ENDBRANCH  19  20
ENDBRANCH   1  19
TORSDOF 15
ENDMDL