MODEL 5
REMARK VINA RESULT: -5.509923800      4.782      9.410
REMARK  14 active torsions:
REMARK  status: ('A' for Active; 'I' for Inactive)
REMARK    1  A    between atoms: C2_2  and  C15_18
REMARK    2  A    between atoms: C3_3  and  C4_4
REMARK    3  A    between atoms: C4_4  and  C5_5
REMARK    4  A    between atoms: C6_7  and  C7_8
REMARK    5  A    between atoms: C8_9  and  C9_10
REMARK    6  A    between atoms: C10_11  and  C11_12
REMARK    7  A    between atoms: C15_18  and  C16_19
REMARK    8  A    between atoms: C16_19  and  C17_20
REMARK    9  A    between atoms: C17_20  and  C18_21
REMARK   10  A    between atoms: C18_21  and  C20_23
REMARK   11  A    between atoms: C20_23  and  C21_24
REMARK   12  A    between atoms: C22_25  and  C23_26
REMARK   13  A    between atoms: C23_26  and  C24_28
REMARK   14  A    between atoms: C24_28  and  C25_29
ROOT
HETATM    1  C1  UNL     1       1.923  -4.702  35.345  1.00  0.00     0.043 C
HETATM    2  C2  UNL     1       2.040  -6.013  36.034  1.00  0.00    -0.087 C
HETATM    3  C3  UNL     1       2.869  -6.915  35.565  1.00  0.00    -0.022 C
ENDROOT
BRANCH   2   4
HETATM    4  C15 UNL     1       1.181  -6.243  37.260  1.00  0.00     0.033 C
BRANCH   4   5
HETATM    5  C16 UNL     1       0.052  -7.132  36.929  1.00  0.00     0.005 C
BRANCH   5   6
HETATM    6  C17 UNL     1      -1.311  -6.635  36.818  1.00  0.00     0.005 C
BRANCH   6   7
HETATM    7  C18 UNL     1      -2.310  -6.909  37.917  1.00  0.00    -0.015 C
HETATM    8  C19 UNL     1      -1.759  -7.907  38.913  1.00  0.00     0.010 C
BRANCH   7   9
HETATM    9  C20 UNL     1      -3.612  -7.376  37.326  1.00  0.00     0.031 C
BRANCH   9  10
HETATM   10  C21 UNL     1      -3.976  -6.913  36.011  1.00  0.00    -0.023 C
HETATM   11  C22 UNL     1      -5.082  -7.038  35.361  1.00  0.00     0.046 C
BRANCH  11  12
HETATM   12  C23 UNL     1      -5.297  -6.498  34.000  1.00  0.00     0.159 C
HETATM   13  O4  UNL     1      -6.264  -5.694  33.767  1.00  0.00    -0.293 OA
BRANCH  12  14
HETATM   14  C24 UNL     1      -4.431  -6.845  32.858  1.00  0.00     0.196 C
BRANCH  14  15
HETATM   15  C25 UNL     1      -5.088  -7.902  32.056  1.00  0.00     0.180 C
HETATM   16  O5  UNL     1      -5.232  -9.049  32.538  1.00  0.00    -0.648 OA
HETATM   17  O6  UNL     1      -5.543  -7.632  30.783  1.00  0.00    -0.648 OA
ENDBRANCH  14  15
ENDBRANCH  12  14
ENDBRANCH  11  12
ENDBRANCH   9  10
ENDBRANCH   7   9
ENDBRANCH   6   7
ENDBRANCH   5   6
ENDBRANCH   4   5
ENDBRANCH   2   4
BRANCH   3  18
HETATM   18  C4  UNL     1       3.692  -6.637  34.349  1.00  0.00     0.059 C
BRANCH  18  19
HETATM   19  C5  UNL     1       3.273  -7.658  33.300  1.00  0.00     0.129 C
HETATM   20  O1  UNL     1       1.954  -8.045  33.474  1.00  0.00    -0.376 OA
HETATM   21  C6  UNL     1       1.200  -7.257  32.613  1.00  0.00     0.145 C
HETATM   22  C12 UNL     1       2.035  -6.975  31.416  1.00  0.00     0.042 C
HETATM   23  C13 UNL     1       3.446  -7.134  31.907  1.00  0.00     0.013 C
HETATM   24  C14 UNL     1       4.095  -5.759  31.885  1.00  0.00     0.012 C
BRANCH  21  25
HETATM   25  C7  UNL     1      -0.094  -7.903  32.262  1.00  0.00     0.005 C
HETATM   26  C8  UNL     1      -0.544  -7.907  31.024  1.00  0.00    -0.001 C
BRANCH  26  27
HETATM   27  C9  UNL     1      -1.808  -8.544  30.711  1.00  0.00     0.007 C
HETATM   28  C10 UNL     1      -1.845  -9.847  30.442  1.00  0.00     0.084 C
BRANCH  28  29
HETATM   29  C11 UNL     1      -3.119 -10.504  30.122  1.00  0.00     0.198 C
HETATM   30  O2  UNL     1      -3.519 -11.442  30.890  1.00  0.00    -0.645 OA
HETATM   31  O3  UNL     1      -3.830 -10.091  29.020  1.00  0.00    -0.645 OA
ENDBRANCH  28  29
ENDBRANCH  26  27
ENDBRANCH  21  25
ENDBRANCH  18  19
ENDBRANCH   3  18
TORSDOF 14
ENDMDL