MODEL 2
REMARK VINA RESULT: -4.742210734      7.548     11.005
REMARK  16 active torsions:
REMARK  status: ('A' for Active; 'I' for Inactive)
REMARK    1  A    between atoms: C2_2  and  C3_3
REMARK    2  A    between atoms: C3_3  and  C4_4
REMARK    3  A    between atoms: C4_4  and  C5_5
REMARK    4  A    between atoms: C5_5  and  C6_6
REMARK    5  A    between atoms: C6_6  and  O1_7
REMARK    6  A    between atoms: C6_6  and  C8_11
REMARK    7  A    between atoms: O1_7  and  C7_8
REMARK    8  A    between atoms: C11_14  and  C12_15
REMARK    9  A    between atoms: C12_15  and  C13_16
REMARK   10  A    between atoms: C13_16  and  C14_17
REMARK   11  A    between atoms: C14_17  and  C15_18
REMARK   12  A    between atoms: C16_19  and  C17_20
REMARK   13  A    between atoms: C17_20  and  C18_21
REMARK   14  A    between atoms: C18_21  and  C19_22
REMARK   15  A    between atoms: C19_22  and  C20_23
REMARK       I    between atoms: C20_23  and  N2_25
REMARK   16  A    between atoms: C25_30  and  O4_31
ROOT
HETATM    1  C8  UNL     1       2.566  -6.276  36.630  1.00  0.00     0.044 C
HETATM    2  C9  UNL     1       2.298  -4.815  36.788  1.00  0.00     0.010 C
HETATM    3  C10 UNL     1       1.159  -4.680  37.810  1.00  0.00     0.007 C
HETATM    4  C11 UNL     1       0.525  -6.056  37.719  1.00  0.00     0.015 C
HETATM    5  C25 UNL     1       1.802  -6.915  37.777  1.00  0.00     0.128 C
ENDROOT
BRANCH   4   6
HETATM    6  C12 UNL     1      -0.382  -6.345  38.870  1.00  0.00     0.007 C
BRANCH   6   7
HETATM    7  C13 UNL     1      -0.970  -7.711  38.687  1.00  0.00     0.004 C
BRANCH   7   8
HETATM    8  C14 UNL     1      -0.722  -8.598  39.906  1.00  0.00     0.027 C
BRANCH   8   9
HETATM    9  C15 UNL     1      -0.383  -7.685  41.036  1.00  0.00    -0.031 C
HETATM   10  C16 UNL     1      -0.375  -8.092  42.297  1.00  0.00    -0.031 C
BRANCH  10  11
HETATM   11  C17 UNL     1      -0.028  -7.124  43.364  1.00  0.00     0.027 C
BRANCH  11  12
HETATM   12  C18 UNL     1       0.705  -7.843  44.461  1.00  0.00     0.013 C
BRANCH  12  13
HETATM   13  C19 UNL     1       1.845  -7.032  44.976  1.00  0.00     0.103 C
BRANCH  13  14
HETATM   14  C20 UNL     1       2.009  -7.290  46.430  1.00  0.00     0.219 C
HETATM   15  O3  UNL     1       0.991  -7.350  47.156  1.00  0.00    -0.273 OA
HETATM   16  N2  UNL     1       3.303  -7.463  46.975  1.00  0.00    -0.352 N
HETATM   17  C21 UNL     1       4.551  -7.416  46.243  1.00  0.00     0.126 C
HETATM   18  C24 UNL     1       3.593  -7.724  48.389  1.00  0.00     0.126 C
HETATM   19  C22 UNL     1       5.486  -8.327  47.030  1.00  0.00     0.021 C
HETATM   20  C23 UNL     1       5.025  -8.143  48.446  1.00  0.00     0.021 C
ENDBRANCH  13  14
ENDBRANCH  12  13
ENDBRANCH  11  12
ENDBRANCH  10  11
ENDBRANCH   8   9
ENDBRANCH   7   8
ENDBRANCH   6   7
ENDBRANCH   4   6
BRANCH   5  21
HETATM   21  O4  UNL     1       2.357  -6.678  39.016  1.00  0.00    -0.395 OA
ATOM     22  H4  UNL     1       1.781  -6.888  39.742  1.00  0.00     0.210 HD
ENDBRANCH   5  21
BRANCH   1  23
HETATM   23  C6  UNL     1       4.000  -6.675  36.580  1.00  0.00     0.140 C
BRANCH  23  24
HETATM   24  C5  UNL     1       4.506  -6.837  35.185  1.00  0.00     0.033 C
BRANCH  24  25
HETATM   25  C4  UNL     1       3.776  -7.980  34.524  1.00  0.00     0.006 C
BRANCH  25  26
HETATM   26  C3  UNL     1       3.327  -7.531  33.136  1.00  0.00     0.026 C
BRANCH  26  27
HETATM   27  C2  UNL     1       1.845  -7.492  33.067  1.00  0.00    -0.037 C
HETATM   28  C1  UNL     1       1.059  -8.283  33.782  1.00  0.00     0.007 C
ENDBRANCH  26  27
ENDBRANCH  25  26
ENDBRANCH  24  25
ENDBRANCH  23  24
BRANCH  23  29
HETATM   29  O1  UNL     1       4.847  -5.877  37.385  1.00  0.00    -0.300 OA
BRANCH  29  30
HETATM   30  C7  UNL     1       5.745  -6.395  38.314  1.00  0.00     0.373 C
HETATM   31  N1  UNL     1       5.354  -7.280  39.356  1.00  0.00    -0.032 NA
HETATM   32  O2  UNL     1       6.934  -6.026  38.171  1.00  0.00    -0.242 OA
ENDBRANCH  29  30
ENDBRANCH  23  29
ENDBRANCH   1  23
TORSDOF 16
ENDMDL