MODEL 1
REMARK VINA RESULT: -7.336759548      0.000      0.000
REMARK  10 active torsions:
REMARK  status: ('A' for Active; 'I' for Inactive)
REMARK    1  A    between atoms: C2_2  and  C3_3
REMARK    2  A    between atoms: C3_3  and  C4_4
REMARK    3  A    between atoms: C4_4  and  C5_5
REMARK    4  A    between atoms: C4_4  and  O2_10
REMARK    5  A    between atoms: C5_5  and  N1_6
REMARK    6  A    between atoms: N1_6  and  C6_8
REMARK    7  A    between atoms: O2_10  and  C7_11
REMARK    8  A    between atoms: C11_15  and  C12_16
REMARK    9  A    between atoms: C12_16  and  C13_17
REMARK   10  A    between atoms: C15_21  and  N3_22
ROOT
HETATM    1  C7  UNL     1      92.617  44.922  67.680  1.00  0.00     0.070 A
HETATM    2  C8  UNL     1      93.151  45.583  68.796  1.00  0.00     0.037 A
HETATM    3  C9  UNL     1      92.441  45.549  69.973  1.00  0.00     0.003 A
HETATM    4  C10 UNL     1      91.237  44.895  70.087  1.00  0.00     0.007 A
HETATM    5  C11 UNL     1      90.700  44.239  68.991  1.00  0.00    -0.051 A
HETATM    6  C17 UNL     1      91.413  44.275  67.818  1.00  0.00     0.044 A
ENDROOT
BRANCH   5   7
HETATM    7  C12 UNL     1      89.430  43.508  69.074  1.00  0.00     0.082 C
BRANCH   7   8
HETATM    8  C13 UNL     1      88.297  44.098  68.363  1.00  0.00     0.006 A
HETATM    9  C14 UNL     1      87.634  45.185  68.948  1.00  0.00     0.117 A
HETATM   10  N2  UNL     1      86.611  45.819  68.363  1.00  0.00    -0.202 N
HETATM   11  C15 UNL     1      86.201  45.395  67.158  1.00  0.00     0.677 A
ATOM     12  H2  UNL     1      86.154  46.607  68.822  1.00  0.00     0.183 HD
HETATM   13  N4  UNL     1      86.804  44.360  66.559  1.00  0.00    -0.177 N
HETATM   14  C16 UNL     1      87.852  43.691  67.135  1.00  0.00     0.122 A
ATOM     15  H4  UNL     1      86.471  44.060  65.642  1.00  0.00     0.185 HD
HETATM   16  N5  UNL     1      88.316  42.699  66.487  1.00  0.00    -0.385 N
ATOM     17  H52 UNL     1      89.096  42.201  66.915  1.00  0.00     0.157 HD
ATOM     18  H51 UNL     1      87.985  42.395  65.571  1.00  0.00     0.157 HD
BRANCH  11  19
HETATM   19  N3  UNL     1      85.216  45.986  66.564  1.00  0.00    -0.234 N
ATOM     20  H32 UNL     1      85.311  46.964  66.290  1.00  0.00     0.174 HD
ATOM     21  H31 UNL     1      84.353  45.476  66.375  1.00  0.00     0.174 HD
ENDBRANCH  11  19
ENDBRANCH   7   8
ENDBRANCH   5   7
BRANCH   1  22
HETATM   22  O2  UNL     1      93.314  44.955  66.523  1.00  0.00    -0.344 OA
BRANCH  22  23
HETATM   23  C4  UNL     1      93.188  45.883  65.444  1.00  0.00     0.150 C
BRANCH  23  24
HETATM   24  C3  UNL     1      94.576  46.481  65.325  1.00  0.00     0.060 C
BRANCH  24  25
HETATM   25  C2  UNL     1      94.833  47.711  66.056  1.00  0.00    -0.034 C
HETATM   26  C1  UNL     1      95.875  47.813  66.852  1.00  0.00     0.007 C
ENDBRANCH  24  25
ENDBRANCH  23  24
BRANCH  23  27
HETATM   27  C5  UNL     1      92.798  45.033  64.259  1.00  0.00     0.154 C
BRANCH  27  28
HETATM   28  N1  UNL     1      93.580  45.241  63.080  1.00  0.00    -0.366 N
ATOM     29  H1  UNL     1      94.151  46.082  62.993  1.00  0.00     0.161 HD
BRANCH  28  30
HETATM   30  C6  UNL     1      93.569  44.282  62.024  1.00  0.00     0.348 C
HETATM   31  O1  UNL     1      93.296  43.095  62.316  1.00  0.00    -0.284 OA
ENDBRANCH  28  30
ENDBRANCH  27  28
ENDBRANCH  23  27
ENDBRANCH  22  23
ENDBRANCH   1  22
TORSDOF 10
ENDMDL