MODEL 3
REMARK VINA RESULT: -6.239294764      2.432      6.480
REMARK  10 active torsions:
REMARK  status: ('A' for Active; 'I' for Inactive)
REMARK    1  A    between atoms: C2_2  and  N1_4
REMARK    2  A    between atoms: N1_4  and  C4_7
REMARK    3  A    between atoms: C4_7  and  C6_9
REMARK    4  A    between atoms: C6_9  and  N2_10
REMARK    5  A    between atoms: N2_10  and  C7_12
REMARK    6  A    between atoms: C7_12  and  C8_13
REMARK    7  A    between atoms: C7_12  and  C11_16
REMARK    8  A    between atoms: N3_19  and  C14_20
REMARK    9  A    between atoms: C14_20  and  C15_21
REMARK   10  A    between atoms: C15_21  and  N4_22
REMARK       I    between atoms: N4_22  and  C16_24
ROOT
HETATM    1  C7  UNL     1      91.436  45.691  69.122  1.00  0.00     0.090 C
ENDROOT
BRANCH   1   2
HETATM    2  N2  UNL     1      91.177  44.545  68.366  1.00  0.00    -0.395 N
ATOM      3  H2  UNL     1      91.895  43.822  68.329  1.00  0.00     0.159 HD
BRANCH   2   4
HETATM    4  C6  UNL     1      89.996  44.330  67.661  1.00  0.00     0.088 C
BRANCH   4   5
HETATM    5  C4  UNL     1      89.979  43.811  66.280  1.00  0.00     0.220 C
HETATM    6  C5  UNL     1      89.219  42.488  66.245  1.00  0.00     0.046 C
BRANCH   5   7
HETATM    7  N1  UNL     1      91.232  43.790  65.635  1.00  0.00    -0.063 N
ATOM      8  H12 UNL     1      91.625  42.848  65.656  1.00  0.00     0.278 HD
ATOM      9  H11 UNL     1      91.927  44.284  66.195  1.00  0.00     0.278 HD
BRANCH   7  10
HETATM   10  C2  UNL     1      91.227  44.300  64.280  1.00  0.00     0.178 C
HETATM   11  C1  UNL     1      92.671  44.406  63.839  1.00  0.00     0.039 C
HETATM   12  C3  UNL     1      90.601  45.655  64.150  1.00  0.00     0.039 C
ENDBRANCH   7  10
ENDBRANCH   5   7
ENDBRANCH   4   5
ENDBRANCH   2   4
ENDBRANCH   1   2
BRANCH   1  13
HETATM   13  C8  UNL     1      91.392  45.552  70.594  1.00  0.00     0.009 A
HETATM   14  C9  UNL     1      90.249  45.993  71.415  1.00  0.00     0.007 A
HETATM   15  C10 UNL     1      90.468  44.507  71.173  1.00  0.00     0.007 A
ENDBRANCH   1  13
BRANCH   1  16
HETATM   16  C11 UNL     1      92.734  46.323  68.595  1.00  0.00     0.038 C
HETATM   17  C12 UNL     1      92.297  47.287  67.490  1.00  0.00     0.038 C
HETATM   18  C13 UNL     1      93.236  47.029  66.339  1.00  0.00     0.273 C
HETATM   19  N3  UNL     1      94.207  46.086  66.794  1.00  0.00     0.090 N
HETATM   20  C17 UNL     1      93.607  45.370  67.868  1.00  0.00     0.279 C
BRANCH  19  21
HETATM   21  C14 UNL     1      95.434  46.757  67.075  1.00  0.00     0.292 C
BRANCH  21  22
HETATM   22  C15 UNL     1      95.704  47.982  66.271  1.00  0.00     0.152 C
BRANCH  22  23
HETATM   23  N4  UNL     1      96.564  48.869  67.021  1.00  0.00    -0.363 N
HETATM   24  C16 UNL     1      97.909  49.165  66.706  1.00  0.00     0.181 C
HETATM   25  N5  UNL     1      98.824  48.791  67.562  1.00  0.00    -0.374 N
HETATM   26  N6  UNL     1      98.359  49.834  65.547  1.00  0.00    -0.064 NA
ATOM     27  H52 UNL     1      98.499  48.308  68.399  1.00  0.00     0.158 HD
ATOM     28  H51 UNL     1      99.795  49.006  67.335  1.00  0.00     0.158 HD
ATOM     29  H4  UNL     1      96.166  49.319  67.846  1.00  0.00     0.162 HD
ENDBRANCH  22  23
ENDBRANCH  21  22
ENDBRANCH  19  21
ENDBRANCH   1  16
TORSDOF 10
ENDMDL