MODEL 2
REMARK VINA RESULT: -7.695641606      1.666      2.685
REMARK  9 active torsions:
REMARK  status: ('A' for Active; 'I' for Inactive)
REMARK    1  A    between atoms: N1_2  and  C2_4
REMARK    2  A    between atoms: C2_4  and  C3_5
REMARK    3  A    between atoms: C2_4  and  C4_10
REMARK       I    between atoms: C4_10  and  N4_12
REMARK    4  A    between atoms: N4_12  and  C5_14
REMARK    5  A    between atoms: C5_14  and  C6_15
REMARK    6  A    between atoms: C5_14  and  C14_23
REMARK    7  A    between atoms: C6_15  and  C7_16
REMARK    8  A    between atoms: C7_16  and  C8_17
REMARK    9  A    between atoms: C14_23  and  C15_24
ROOT
HETATM    1  C5  UNL     1      91.676  45.551  67.468  1.00  0.00    -0.005 C
ENDROOT
BRANCH   1   2
HETATM    2  N4  UNL     1      91.395  45.355  66.071  1.00  0.00    -0.332 N
HETATM    3  C4  UNL     1      92.092  44.698  65.076  1.00  0.00     0.251 C
HETATM    4  O1  UNL     1      93.183  44.139  65.230  1.00  0.00    -0.270 OA
ATOM      5  H4  UNL     1      90.522  45.779  65.757  1.00  0.00     0.168 HD
BRANCH   3   6
HETATM    6  C2  UNL     1      91.529  44.628  63.679  1.00  0.00     0.234 C
BRANCH   6   7
HETATM    7  N1  UNL     1      90.955  45.886  63.312  1.00  0.00    -0.408 N
HETATM    8  C1  UNL     1      90.024  45.897  62.282  1.00  0.00     0.141 C
ATOM      9  H1  UNL     1      91.220  46.747  63.791  1.00  0.00     0.153 HD
ENDBRANCH   6   7
BRANCH   6  10
HETATM   10  C3  UNL     1      92.575  44.330  62.683  1.00  0.00     0.118 C
HETATM   11  N2  UNL     1      93.548  45.147  62.520  1.00  0.00    -0.389 N
ATOM     12  H22 UNL     1      93.587  46.000  63.079  1.00  0.00     0.157 HD
ATOM     13  H21 UNL     1      94.272  44.941  61.832  1.00  0.00     0.157 HD
HETATM   14  N3  UNL     1      92.521  43.153  61.913  1.00  0.00    -0.085 NA
ENDBRANCH   6  10
ENDBRANCH   3   6
ENDBRANCH   1   2
BRANCH   1  15
HETATM   15  C6  UNL     1      90.640  44.985  68.346  1.00  0.00     0.057 C
BRANCH  15  16
HETATM   16  C7  UNL     1      91.029  44.693  69.750  1.00  0.00     0.044 C
BRANCH  16  17
HETATM   17  C8  UNL     1      89.880  44.992  70.671  1.00  0.00    -0.058 A
HETATM   18  C9  UNL     1      90.082  45.481  71.957  1.00  0.00     0.007 A
HETATM   19  C10 UNL     1      89.026  45.753  72.800  1.00  0.00     0.001 A
HETATM   20  C11 UNL     1      87.724  45.552  72.403  1.00  0.00     0.000 A
HETATM   21  C12 UNL     1      87.518  45.064  71.123  1.00  0.00     0.001 A
HETATM   22  C13 UNL     1      88.573  44.793  70.283  1.00  0.00     0.007 A
ENDBRANCH  16  17
ENDBRANCH  15  16
ENDBRANCH   1  15
BRANCH   1  23
HETATM   23  C14 UNL     1      92.197  46.907  67.801  1.00  0.00     0.111 C
BRANCH  23  24
HETATM   24  C15 UNL     1      93.567  47.131  67.270  1.00  0.00     0.030 A
HETATM   25  C16 UNL     1      94.654  46.293  67.460  1.00  0.00     0.114 A
HETATM   26  N5  UNL     1      95.724  46.788  66.811  1.00  0.00    -0.360 N
HETATM   27  C17 UNL     1      95.341  47.921  66.213  1.00  0.00     0.180 A
ATOM     28  H5  UNL     1      96.656  46.375  66.781  1.00  0.00     0.166 HD
HETATM   29  N6  UNL     1      94.041  48.128  66.490  1.00  0.00    -0.354 N
ATOM     30  H6  UNL     1      93.492  48.922  66.159  1.00  0.00     0.166 HD
ENDBRANCH  23  24
ENDBRANCH   1  23
TORSDOF 9
ENDMDL