MODEL 3
REMARK VINA RESULT: -7.112269406      2.188      4.193
REMARK  10 active torsions:
REMARK  status: ('A' for Active; 'I' for Inactive)
REMARK    1  A    between atoms: C2_2  and  C3_3
REMARK    2  A    between atoms: C2_2  and  C4_6
REMARK    3  A    between atoms: C4_6  and  N2_9
REMARK    4  A    between atoms: N2_9  and  C6_11
REMARK    5  A    between atoms: C6_11  and  C7_12
REMARK    6  A    between atoms: C6_11  and  C8_15
REMARK    7  A    between atoms: C8_15  and  C9_16
REMARK    8  A    between atoms: C8_15  and  C10_21
REMARK    9  A    between atoms: C9_16  and  N4_17
REMARK   10  A    between atoms: C10_21  and  C11_22
ROOT
HETATM    1  C4  UNL     1      90.906  44.130  63.149  1.00  0.00     0.225 C
HETATM    2  C5  UNL     1      92.188  43.607  62.608  1.00  0.00     0.089 C
HETATM    3  N1  UNL     1      93.198  43.216  62.191  1.00  0.00    -0.195 NA
ENDROOT
BRANCH   1   4
HETATM    4  C2  UNL     1      90.391  45.047  62.099  1.00  0.00     0.045 C
HETATM    5  C1  UNL     1      89.323  44.702  61.419  1.00  0.00     0.029 C
BRANCH   4   6
HETATM    6  C3  UNL     1      91.039  46.322  61.807  1.00  0.00     0.207 C
HETATM    7  O1  UNL     1      91.366  46.622  60.643  1.00  0.00    -0.644 OA
HETATM    8  O2  UNL     1      91.278  47.183  62.864  1.00  0.00    -0.644 OA
ENDBRANCH   4   6
ENDBRANCH   1   4
BRANCH   1   9
HETATM    9  N2  UNL     1      91.099  44.770  64.381  1.00  0.00    -0.390 N
ATOM     10  H2  UNL     1      91.865  45.433  64.501  1.00  0.00     0.155 HD
BRANCH   9  11
HETATM   11  C6  UNL     1      90.223  44.488  65.457  1.00  0.00     0.173 C
BRANCH  11  12
HETATM   12  C7  UNL     1      89.290  45.610  65.573  1.00  0.00     0.254 C
HETATM   13  N3  UNL     1      89.462  46.729  66.422  1.00  0.00    -0.060 NA
HETATM   14  O3  UNL     1      88.241  45.617  64.879  1.00  0.00    -0.275 OA
ENDBRANCH  11  12
BRANCH  11  15
HETATM   15  C8  UNL     1      90.982  44.210  66.767  1.00  0.00     0.042 C
BRANCH  15  16
HETATM   16  C9  UNL     1      90.232  43.322  67.668  1.00  0.00     0.236 C
BRANCH  16  17
HETATM   17  N4  UNL     1      89.676  42.168  66.934  1.00  0.00    -0.079 N
ATOM     18  H43 UNL     1      88.676  42.278  66.763  1.00  0.00     0.274 HD
ATOM     19  H42 UNL     1      89.998  42.148  65.967  1.00  0.00     0.274 HD
ATOM     20  H41 UNL     1      89.880  41.293  67.417  1.00  0.00     0.274 HD
ENDBRANCH  16  17
ENDBRANCH  15  16
BRANCH  15  21
HETATM   21  C10 UNL     1      92.434  44.088  66.609  1.00  0.00     0.013 C
BRANCH  21  22
HETATM   22  C11 UNL     1      93.321  45.249  66.747  1.00  0.00    -0.014 C
HETATM   23  C12 UNL     1      94.099  45.606  65.481  1.00  0.00     0.005 C
HETATM   24  C13 UNL     1      94.726  46.983  65.732  1.00  0.00     0.000 C
HETATM   25  C14 UNL     1      95.224  47.049  67.167  1.00  0.00     0.000 C
HETATM   26  C15 UNL     1      94.076  47.130  68.149  1.00  0.00     0.000 C
HETATM   27  C16 UNL     1      92.854  46.441  67.502  1.00  0.00     0.005 C
ENDBRANCH  21  22
ENDBRANCH  15  21
ENDBRANCH  11  15
ENDBRANCH   9  11
ENDBRANCH   1   9
TORSDOF 10
ENDMDL