MODEL 1
REMARK VINA RESULT: -7.321474474      0.000      0.000
REMARK  9 active torsions:
REMARK  status: ('A' for Active; 'I' for Inactive)
REMARK    1  A    between atoms: C2_2  and  C3_3
REMARK    2  A    between atoms: C3_3  and  N1_4
REMARK    3  A    between atoms: N1_4  and  C4_6
REMARK    4  A    between atoms: C4_6  and  C5_7
REMARK    5  A    between atoms: C5_7  and  C6_8
REMARK    6  A    between atoms: C5_7  and  C13_15
REMARK    7  A    between atoms: C6_8  and  C7_9
REMARK       I    between atoms: C13_15  and  N2_17
REMARK    8  A    between atoms: N2_17  and  C14_19
REMARK    9  A    between atoms: C14_19  and  C15_20
ROOT
HETATM    1  C5  UNL     1      91.226  44.612  69.036  1.00  0.00     0.048 C
ENDROOT
BRANCH   1   2
HETATM    2  C4  UNL     1      92.272  45.528  69.528  1.00  0.00     0.104 C
BRANCH   2   3
HETATM    3  N1  UNL     1      93.514  45.592  68.932  1.00  0.00    -0.374 N
ATOM      4  H1  UNL     1      94.150  44.829  69.166  1.00  0.00     0.164 HD
BRANCH   3   5
HETATM    5  C3  UNL     1      94.020  46.536  68.066  1.00  0.00     0.087 C
BRANCH   5   6
HETATM    6  C2  UNL     1      94.129  45.939  66.680  1.00  0.00     0.007 C
HETATM    7  C1  UNL     1      94.585  46.696  65.713  1.00  0.00     0.012 C
ENDBRANCH   5   6
ENDBRANCH   3   5
ENDBRANCH   2   3
ENDBRANCH   1   2
BRANCH   1   8
HETATM    8  C6  UNL     1      90.257  43.949  69.893  1.00  0.00     0.029 C
BRANCH   8   9
HETATM    9  C7  UNL     1      89.506  44.661  70.903  1.00  0.00    -0.035 A
HETATM   10  C8  UNL     1      88.120  44.800  70.746  1.00  0.00     0.011 A
HETATM   11  C9  UNL     1      87.328  45.471  71.656  1.00  0.00     0.001 A
HETATM   12  C10 UNL     1      87.909  46.035  72.777  1.00  0.00     0.000 A
HETATM   13  C11 UNL     1      89.266  45.916  72.964  1.00  0.00     0.001 A
HETATM   14  C12 UNL     1      90.029  45.229  72.016  1.00  0.00     0.011 A
ENDBRANCH   8   9
ENDBRANCH   1   8
BRANCH   1  15
HETATM   15  C13 UNL     1      90.686  45.118  67.698  1.00  0.00     0.256 C
HETATM   16  O1  UNL     1      90.522  46.333  67.616  1.00  0.00    -0.267 OA
HETATM   17  N2  UNL     1      90.413  44.236  66.663  1.00  0.00    -0.334 N
ATOM     18  H2  UNL     1      90.610  43.255  66.864  1.00  0.00     0.168 HD
BRANCH  17  19
HETATM   19  C14 UNL     1      89.912  44.491  65.391  1.00  0.00     0.098 C
BRANCH  19  20
HETATM   20  C15 UNL     1      90.758  44.832  64.240  1.00  0.00     0.241 C
HETATM   21  C16 UNL     1      91.134  46.226  63.976  1.00  0.00     0.152 C
HETATM   22  N3  UNL     1      92.163  46.356  62.958  1.00  0.00    -0.417 N
HETATM   23  C17 UNL     1      92.379  45.205  62.147  1.00  0.00     0.141 C
ATOM     24  H3  UNL     1      92.696  47.216  62.833  1.00  0.00     0.153 HD
HETATM   25  C18 UNL     1      92.423  43.910  62.898  1.00  0.00     0.252 C
HETATM   26  N4  UNL     1      92.032  44.060  64.282  1.00  0.00    -0.063 N
ATOM     27  H42 UNL     1      92.751  44.480  64.871  1.00  0.00     0.278 HD
ATOM     28  H41 UNL     1      91.964  43.179  64.790  1.00  0.00     0.278 HD
ENDBRANCH  19  20
ENDBRANCH  17  19
ENDBRANCH   1  15
TORSDOF 9
ENDMDL