MODEL 5
REMARK VINA RESULT: -7.551295507      1.355      1.392
REMARK  8 active torsions:
REMARK  status: ('A' for Active; 'I' for Inactive)
REMARK       I    between atoms: C1_4  and  N3_6
REMARK    1  A    between atoms: N3_6  and  C2_8
REMARK    2  A    between atoms: C2_8  and  C3_9
REMARK    3  A    between atoms: N4_10  and  C4_12
REMARK    4  A    between atoms: C4_12  and  C5_13
REMARK    5  A    between atoms: C4_12  and  C6_15
REMARK    6  A    between atoms: C6_15  and  C7_16
REMARK    7  A    between atoms: C10_19  and  C11_20
REMARK    8  A    between atoms: C11_20  and  C12_21
ROOT
HETATM    1  C6  UNL     1      90.414  44.115  64.915  1.00  0.00     0.070 C
ENDROOT
BRANCH   1   2
HETATM    2  C4  UNL     1      90.999  45.387  64.350  1.00  0.00     0.146 C
BRANCH   2   3
HETATM    3  N4  UNL     1      92.315  45.344  63.946  1.00  0.00    -0.390 N
HETATM    4  C3  UNL     1      93.430  44.840  64.542  1.00  0.00     0.076 C
ATOM      5  H4  UNL     1      92.485  45.768  63.034  1.00  0.00     0.159 HD
BRANCH   4   6
HETATM    6  C2  UNL     1      94.026  45.540  65.752  1.00  0.00     0.166 C
BRANCH   6   7
HETATM    7  N3  UNL     1      95.007  46.544  65.303  1.00  0.00    -0.360 N
HETATM    8  C1  UNL     1      95.160  47.743  66.030  1.00  0.00     0.182 C
HETATM    9  N1  UNL     1      94.225  48.659  66.006  1.00  0.00    -0.374 N
HETATM   10  N2  UNL     1      96.344  47.939  66.786  1.00  0.00    -0.064 NA
ATOM     11  H12 UNL     1      94.335  49.525  66.532  1.00  0.00     0.158 HD
ATOM     12  H11 UNL     1      93.373  48.518  65.463  1.00  0.00     0.158 HD
ATOM     13  H3  UNL     1      95.572  46.372  64.471  1.00  0.00     0.162 HD
ENDBRANCH   6   7
ENDBRANCH   4   6
ENDBRANCH   2   3
BRANCH   2  14
HETATM   14  C5  UNL     1      90.072  45.989  63.336  1.00  0.00     0.256 C
HETATM   15  O1  UNL     1      90.540  46.745  62.515  1.00  0.00    -0.305 OA
ENDBRANCH   2  14
ENDBRANCH   1   2
BRANCH   1  16
HETATM   16  C7  UNL     1      90.159  44.214  66.394  1.00  0.00    -0.056 A
HETATM   17  C8  UNL     1      90.536  45.330  67.096  1.00  0.00     0.007 A
HETATM   18  C9  UNL     1      90.328  45.436  68.477  1.00  0.00     0.007 A
HETATM   19  C10 UNL     1      89.732  44.394  69.147  1.00  0.00    -0.056 A
HETATM   20  C16 UNL     1      89.353  43.273  68.442  1.00  0.00     0.007 A
HETATM   21  C17 UNL     1      89.566  43.183  67.068  1.00  0.00     0.007 A
BRANCH  19  22
HETATM   22  C11 UNL     1      89.487  44.458  70.605  1.00  0.00     0.071 C
BRANCH  22  23
HETATM   23  C12 UNL     1      88.677  45.714  70.865  1.00  0.00     0.190 C
HETATM   24  C13 UNL     1      87.380  45.465  71.563  1.00  0.00     0.035 C
HETATM   25  C14 UNL     1      87.656  45.564  73.047  1.00  0.00     0.029 C
HETATM   26  C15 UNL     1      89.110  45.945  73.099  1.00  0.00     0.233 C
HETATM   27  N5  UNL     1      89.383  46.566  71.807  1.00  0.00    -0.071 N
ATOM     28  H52 UNL     1      90.374  46.694  71.601  1.00  0.00     0.277 HD
ATOM     29  H51 UNL     1      89.135  47.554  71.753  1.00  0.00     0.277 HD
ENDBRANCH  22  23
ENDBRANCH  19  22
ENDBRANCH   1  16
TORSDOF 8
ENDMDL