MODEL 4
REMARK VINA RESULT: -7.093848492      1.981      2.554
REMARK  9 active torsions:
REMARK  status: ('A' for Active; 'I' for Inactive)
REMARK    1  A    between atoms: C2_2  and  C3_3
REMARK    2  A    between atoms: C3_3  and  C4_4
REMARK    3  A    between atoms: C4_4  and  N1_5
REMARK    4  A    between atoms: C4_4  and  C12_14
REMARK    5  A    between atoms: N1_5  and  C5_7
REMARK    6  A    between atoms: C12_14  and  N2_15
REMARK    7  A    between atoms: C12_14  and  C13_19
REMARK    8  A    between atoms: C13_19  and  N3_20
REMARK    9  A    between atoms: C13_19  and  C16_27
REMARK       I    between atoms: N3_20  and  C14_22
REMARK       I    between atoms: C14_22  and  N4_24
ROOT
HETATM    1  C12 UNL     1      93.909  44.918  64.841  1.00  0.00     0.261 C
ENDROOT
BRANCH   1   2
HETATM    2  C4  UNL     1      93.750  46.032  65.784  1.00  0.00     0.019 C
BRANCH   2   3
HETATM    3  C3  UNL     1      94.655  47.210  65.668  1.00  0.00     0.080 C
BRANCH   3   4
HETATM    4  C2  UNL     1      95.472  47.536  66.857  1.00  0.00    -0.031 C
HETATM    5  C1  UNL     1      96.492  48.366  66.769  1.00  0.00     0.007 C
ENDBRANCH   3   4
ENDBRANCH   2   3
BRANCH   2   6
HETATM    6  N1  UNL     1      93.562  45.635  67.131  1.00  0.00    -0.389 N
ATOM      7  H1  UNL     1      94.340  45.142  67.568  1.00  0.00     0.159 HD
BRANCH   6   8
HETATM    8  C5  UNL     1      92.467  45.833  67.911  1.00  0.00     0.085 C
HETATM    9  C6  UNL     1      91.194  46.407  67.347  1.00  0.00     0.030 C
HETATM   10  C7  UNL     1      90.088  45.459  67.865  1.00  0.00    -0.012 C
HETATM   11  C8  UNL     1      90.028  45.441  69.348  1.00  0.00     0.005 C
HETATM   12  C11 UNL     1      90.856  44.151  67.581  1.00  0.00     0.011 C
HETATM   13  C9  UNL     1      91.284  44.695  69.784  1.00  0.00     0.007 C
HETATM   14  C10 UNL     1      92.031  44.474  68.482  1.00  0.00     0.009 C
ENDBRANCH   6   8
ENDBRANCH   2   6
ENDBRANCH   1   2
BRANCH   1  15
HETATM   15  N2  UNL     1      95.027  45.162  63.913  1.00  0.00    -0.067 N
ATOM     16  H23 UNL     1      95.198  46.159  63.785  1.00  0.00     0.275 HD
ATOM     17  H22 UNL     1      95.922  44.902  64.327  1.00  0.00     0.275 HD
ATOM     18  H21 UNL     1      94.875  44.690  63.022  1.00  0.00     0.275 HD
ENDBRANCH   1  15
BRANCH   1  19
HETATM   19  C13 UNL     1      92.767  44.418  64.035  1.00  0.00     0.223 C
BRANCH  19  20
HETATM   20  N3  UNL     1      91.786  45.551  63.969  1.00  0.00    -0.326 N
HETATM   21  C14 UNL     1      90.401  45.319  64.048  1.00  0.00     0.316 C
HETATM   22  O1  UNL     1      89.971  44.155  64.175  1.00  0.00    -0.247 OA
HETATM   23  N4  UNL     1      89.515  46.420  63.981  1.00  0.00    -0.347 N
HETATM   24  C15 UNL     1      88.086  46.184  64.058  1.00  0.00     0.151 C
ATOM     25  H4  UNL     1      89.877  47.368  63.879  1.00  0.00     0.163 HD
ATOM     26  H3  UNL     1      92.130  46.506  63.866  1.00  0.00     0.165 HD
ENDBRANCH  19  20
BRANCH  19  27
HETATM   27  C16 UNL     1      93.065  44.139  62.608  1.00  0.00     0.199 C
HETATM   28  O2  UNL     1      93.003  44.991  61.686  1.00  0.00    -0.646 OA
HETATM   29  O3  UNL     1      93.432  42.864  62.250  1.00  0.00    -0.646 OA
ENDBRANCH  19  27
ENDBRANCH   1  19
TORSDOF 9
ENDMDL