MODEL 5
REMARK VINA RESULT: -6.484867954      1.369      1.619
REMARK  12 active torsions:
REMARK  status: ('A' for Active; 'I' for Inactive)
REMARK    1  A    between atoms: C2_2  and  N1_4
REMARK    2  A    between atoms: N1_4  and  C4_6
REMARK    3  A    between atoms: C4_6  and  C5_7
REMARK    4  A    between atoms: C4_6  and  C6_10
REMARK    5  A    between atoms: C5_7  and  O1_8
REMARK    6  A    between atoms: C6_10  and  N3_14
REMARK    7  A    between atoms: N3_14  and  C7_16
REMARK    8  A    between atoms: C7_16  and  C8_17
REMARK    9  A    between atoms: C7_16  and  C11_20
REMARK   10  A    between atoms: C11_20  and  N4_21
REMARK   11  A    between atoms: C11_20  and  C12_25
REMARK   12  A    between atoms: C12_25  and  C13_26
ROOT
HETATM    1  C7  UNL     1      89.834  44.292  65.642  1.00  0.00     0.117 C
ENDROOT
BRANCH   1   2
HETATM    2  N3  UNL     1      91.253  44.252  65.591  1.00  0.00    -0.371 N
ATOM      3  H3  UNL     1      91.723  44.236  66.497  1.00  0.00     0.161 HD
BRANCH   2   4
HETATM    4  C6  UNL     1      92.107  44.229  64.468  1.00  0.00     0.096 C
HETATM    5  N2  UNL     1      91.594  43.809  63.361  1.00  0.00    -0.387 N
ATOM      6  H22 UNL     1      92.212  43.793  62.548  1.00  0.00     0.157 HD
ATOM      7  H21 UNL     1      90.609  43.547  63.350  1.00  0.00     0.157 HD
BRANCH   4   8
HETATM    8  C4  UNL     1      93.565  44.617  64.483  1.00  0.00     0.168 C
BRANCH   8   9
HETATM    9  N1  UNL     1      93.658  45.911  65.022  1.00  0.00    -0.406 N
ATOM     10  H1  UNL     1      93.000  46.611  64.680  1.00  0.00     0.154 HD
BRANCH   9  11
HETATM   11  C2  UNL     1      94.573  46.315  65.981  1.00  0.00     0.069 C
HETATM   12  C1  UNL     1      94.942  47.773  66.068  1.00  0.00     0.031 C
HETATM   13  C3  UNL     1      94.033  45.920  67.382  1.00  0.00     0.031 C
ENDBRANCH   9  11
ENDBRANCH   8   9
BRANCH   8  14
HETATM   14  C5  UNL     1      94.098  44.573  63.060  1.00  0.00     0.196 C
BRANCH  14  15
HETATM   15  O1  UNL     1      95.511  44.524  63.211  1.00  0.00    -0.398 OA
ATOM     16  H1  UNL     1      95.719  45.284  63.743  1.00  0.00     0.209 HD
ENDBRANCH  14  15
ENDBRANCH   8  14
ENDBRANCH   4   8
ENDBRANCH   2   4
ENDBRANCH   1   2
BRANCH   1  17
HETATM   17  C8  UNL     1      89.395  45.773  65.812  1.00  0.00     0.002 C
HETATM   18  C9  UNL     1      90.441  46.509  66.605  1.00  0.00     0.011 C
HETATM   19  C10 UNL     1      88.023  45.886  66.384  1.00  0.00     0.011 C
ENDBRANCH   1  17
BRANCH   1  20
HETATM   20  C11 UNL     1      89.112  43.476  66.663  1.00  0.00     0.210 C
BRANCH  20  21
HETATM   21  N4  UNL     1      88.563  42.319  65.926  1.00  0.00    -0.073 N
ATOM     22  H43 UNL     1      87.568  42.165  66.088  1.00  0.00     0.274 HD
ATOM     23  H42 UNL     1      88.499  42.467  64.920  1.00  0.00     0.274 HD
ATOM     24  H41 UNL     1      89.149  41.527  66.189  1.00  0.00     0.274 HD
ENDBRANCH  20  21
BRANCH  20  25
HETATM   25  C12 UNL     1      89.958  43.025  67.788  1.00  0.00     0.073 C
BRANCH  25  26
HETATM   26  C13 UNL     1      89.773  43.852  69.017  1.00  0.00    -0.056 A
HETATM   27  C14 UNL     1      88.540  44.055  69.595  1.00  0.00     0.007 A
HETATM   28  C15 UNL     1      88.419  44.842  70.747  1.00  0.00     0.001 A
HETATM   29  C16 UNL     1      89.545  45.416  71.306  1.00  0.00     0.000 A
HETATM   30  C17 UNL     1      90.794  45.217  70.731  1.00  0.00     0.001 A
HETATM   31  C18 UNL     1      90.881  44.428  69.582  1.00  0.00     0.007 A
ENDBRANCH  25  26
ENDBRANCH  20  25
ENDBRANCH   1  20
TORSDOF 12
ENDMDL