MODEL 5
REMARK VINA RESULT: -7.200077540      1.401      3.781
REMARK  10 active torsions:
REMARK  status: ('A' for Active; 'I' for Inactive)
REMARK    1  A    between atoms: C2_2  and  C3_3
REMARK    2  A    between atoms: C4_6  and  C5_7
REMARK    3  A    between atoms: C5_7  and  C6_8
REMARK    4  A    between atoms: C6_8  and  C8_10
REMARK    5  A    between atoms: C8_10  and  N2_11
REMARK    6  A    between atoms: C8_10  and  N3_15
REMARK    7  A    between atoms: N3_15  and  C9_18
REMARK    8  A    between atoms: C9_18  and  C10_19
REMARK    9  A    between atoms: C9_18  and  C14_27
REMARK   10  A    between atoms: C10_19  and  C11_20
ROOT
HETATM    1  C8  UNL     1      93.746  45.455  65.008  1.00  0.00     0.385 C
ENDROOT
BRANCH   1   2
HETATM    2  C6  UNL     1      93.687  46.503  66.125  1.00  0.00     0.045 C
HETATM    3  C7  UNL     1      94.833  47.511  65.905  1.00  0.00     0.014 C
BRANCH   2   4
HETATM    4  C5  UNL     1      93.953  45.845  67.427  1.00  0.00     0.066 C
BRANCH   4   5
HETATM    5  C4  UNL     1      92.757  45.691  68.305  1.00  0.00     0.026 A
HETATM    6  N1  UNL     1      92.741  45.264  69.590  1.00  0.00    -0.345 N
HETATM    7  C3  UNL     1      91.452  45.262  70.002  1.00  0.00     0.104 A
ATOM      8  H1  UNL     1      93.552  44.994  70.146  1.00  0.00     0.167 HD
HETATM    9  N6  UNL     1      90.681  45.690  68.963  1.00  0.00    -0.350 N
HETATM   10  C15 UNL     1      91.472  45.953  67.924  1.00  0.00     0.114 A
ATOM     11  H6  UNL     1      89.667  45.791  68.977  1.00  0.00     0.166 HD
BRANCH   7  12
HETATM   12  C2  UNL     1      90.935  44.880  71.309  1.00  0.00     0.038 C
HETATM   13  C1  UNL     1      90.037  45.610  71.930  1.00  0.00     0.015 C
ENDBRANCH   7  12
ENDBRANCH   4   5
ENDBRANCH   2   4
ENDBRANCH   1   2
BRANCH   1  14
HETATM   14  N2  UNL     1      95.048  45.437  64.419  1.00  0.00    -0.050 N
ATOM     15  H23 UNL     1      95.782  45.320  65.117  1.00  0.00     0.276 HD
ATOM     16  H22 UNL     1      95.214  44.584  63.885  1.00  0.00     0.276 HD
ATOM     17  H21 UNL     1      95.190  46.274  63.853  1.00  0.00     0.276 HD
ENDBRANCH   1  14
BRANCH   1  18
HETATM   18  N3  UNL     1      92.768  45.725  64.002  1.00  0.00    -0.032 N
ATOM     19  H32 UNL     1      92.108  46.443  64.299  1.00  0.00     0.280 HD
ATOM     20  H31 UNL     1      93.173  46.210  63.201  1.00  0.00     0.280 HD
BRANCH  18  21
HETATM   21  C9  UNL     1      92.090  44.506  63.603  1.00  0.00     0.293 C
BRANCH  21  22
HETATM   22  C10 UNL     1      90.626  44.779  63.518  1.00  0.00     0.103 C
BRANCH  22  23
HETATM   23  C11 UNL     1      89.846  44.172  64.617  1.00  0.00     0.028 A
HETATM   24  C12 UNL     1      89.041  44.704  65.592  1.00  0.00     0.114 A
HETATM   25  N4  UNL     1      88.539  43.741  66.375  1.00  0.00    -0.360 N
HETATM   26  C13 UNL     1      89.012  42.582  65.917  1.00  0.00     0.180 A
ATOM     27  H4  UNL     1      87.914  43.869  67.171  1.00  0.00     0.166 HD
HETATM   28  N5  UNL     1      89.808  42.827  64.848  1.00  0.00    -0.355 N
ATOM     29  H5  UNL     1      90.300  42.119  64.303  1.00  0.00     0.166 HD
ENDBRANCH  22  23
ENDBRANCH  21  22
BRANCH  21  30
HETATM   30  C14 UNL     1      92.698  44.082  62.323  1.00  0.00     0.205 C
HETATM   31  O1  UNL     1      92.288  43.003  61.789  1.00  0.00    -0.646 OA
HETATM   32  O2  UNL     1      93.685  44.759  61.638  1.00  0.00    -0.646 OA
ENDBRANCH  21  30
ENDBRANCH  18  21
ENDBRANCH   1  18
TORSDOF 10
ENDMDL