MODEL 4
REMARK VINA RESULT: -8.257684147      2.313      3.878
REMARK  9 active torsions:
REMARK  status: ('A' for Active; 'I' for Inactive)
REMARK    1  A    between atoms: C2_2  and  C3_3
REMARK    2  A    between atoms: C4_4  and  C5_5
REMARK    3  A    between atoms: C5_5  and  N1_6
REMARK    4  A    between atoms: C11_12  and  N2_13
REMARK    5  A    between atoms: N2_13  and  C12_15
REMARK    6  A    between atoms: C16_23  and  O1_24
REMARK    7  A    between atoms: O1_24  and  C17_25
REMARK    8  A    between atoms: C19_27  and  O2_28
REMARK    9  A    between atoms: O2_28  and  C20_29
ROOT
HETATM    1  C12 UNL     1     -31.830  43.844  63.858  1.00  0.00     0.119 A
HETATM    2  N3  UNL     1     -32.218  42.680  63.304  1.00  0.00    -0.338 N
ATOM      3  H3  UNL     1     -32.526  41.907  63.893  1.00  0.00     0.168 HD
HETATM    4  C13 UNL     1     -32.196  42.547  61.965  1.00  0.00     0.182 A
HETATM    5  N4  UNL     1     -31.797  43.545  61.155  1.00  0.00    -0.351 N
ATOM      6  H4  UNL     1     -31.795  43.405  60.145  1.00  0.00     0.166 HD
HETATM    7  C14 UNL     1     -31.402  44.719  61.662  1.00  0.00     0.050 A
HETATM    8  C15 UNL     1     -30.985  45.767  60.859  1.00  0.00     0.070 A
HETATM    9  C16 UNL     1     -30.593  46.947  61.456  1.00  0.00     0.104 A
HETATM   10  C19 UNL     1     -30.607  47.106  62.824  1.00  0.00     0.103 A
HETATM   11  C22 UNL     1     -31.025  46.056  63.643  1.00  0.00     0.057 A
HETATM   12  C23 UNL     1     -31.419  44.870  63.036  1.00  0.00     0.038 A
ENDROOT
BRANCH   1  13
HETATM   13  N2  UNL     1     -31.849  43.977  65.157  1.00  0.00    -0.337 N
ATOM     14  H2  UNL     1     -31.044  44.387  65.630  1.00  0.00     0.167 HD
BRANCH  13  15
HETATM   15  C11 UNL     1     -32.971  43.560  65.923  1.00  0.00     0.108 A
HETATM   16  C9  UNL     1     -34.058  44.381  66.115  1.00  0.00    -0.028 A
HETATM   17  C8  UNL     1     -35.118  43.926  66.867  1.00  0.00     0.034 A
HETATM   18  C10 UNL     1     -34.052  45.744  65.500  1.00  0.00     0.050 C
HETATM   19  C6  UNL     1     -35.134  42.652  67.446  1.00  0.00     0.012 A
HETATM   20  N1  UNL     1     -34.053  41.879  67.235  1.00  0.00    -0.313 N
HETATM   21  C7  UNL     1     -36.299  42.195  68.253  1.00  0.00     0.068 C
HETATM   22  C24 UNL     1     -33.009  42.299  66.507  1.00  0.00     0.275 A
HETATM   23  O3  UNL     1     -32.008  41.564  66.321  1.00  0.00    -0.265 OA
BRANCH  20  24
HETATM   24  C5  UNL     1     -34.015  40.569  67.803  1.00  0.00     0.159 C
BRANCH  24  25
HETATM   25  C4  UNL     1     -34.944  39.608  67.159  1.00  0.00    -0.011 C
HETATM   26  C3  UNL     1     -35.024  38.338  67.514  1.00  0.00    -0.029 C
BRANCH  26  27
HETATM   27  C2  UNL     1     -35.957  37.415  66.855  1.00  0.00     0.022 C
HETATM   28  C1  UNL     1     -35.805  36.002  67.417  1.00  0.00     0.009 C
ENDBRANCH  26  27
ENDBRANCH  24  25
ENDBRANCH  20  24
ENDBRANCH  13  15
ENDBRANCH   1  13
BRANCH  10  29
HETATM   29  O2  UNL     1     -30.198  48.323  63.350  1.00  0.00    -0.349 OA
BRANCH  29  30
HETATM   30  C20 UNL     1     -29.695  48.332  64.673  1.00  0.00     0.171 C
HETATM   31  C21 UNL     1     -30.360  49.387  65.515  1.00  0.00     0.034 C
ENDBRANCH  29  30
ENDBRANCH  10  29
BRANCH   9  32
HETATM   32  O1  UNL     1     -30.173  48.009  60.671  1.00  0.00    -0.349 OA
BRANCH  32  33
HETATM   33  C17 UNL     1     -28.938  47.913  59.949  1.00  0.00     0.171 C
HETATM   34  C18 UNL     1     -27.802  47.560  60.871  1.00  0.00     0.034 C
ENDBRANCH  32  33
ENDBRANCH   9  32
TORSDOF 9
ENDMDL