MODEL 5
REMARK VINA RESULT: -8.606808766      1.876      4.682
REMARK  11 active torsions:
REMARK  status: ('A' for Active; 'I' for Inactive)
REMARK    1  A    between atoms: C2_2  and  C3_3
REMARK    2  A    between atoms: C3_3  and  C4_4
REMARK    3  A    between atoms: C8_10  and  C9_11
REMARK    4  A    between atoms: C13_16  and  O4_17
REMARK    5  A    between atoms: O4_17  and  C14_18
REMARK    6  A    between atoms: C14_18  and  C15_20
REMARK    7  A    between atoms: C15_20  and  C16_21
REMARK    8  A    between atoms: C16_21  and  C17_22
REMARK    9  A    between atoms: C17_22  and  C18_23
REMARK   10  A    between atoms: C19_24  and  C20_25
REMARK   11  A    between atoms: C25_30  and  O6_31
ROOT
HETATM    1  C4  UNL     1     -29.325  46.714  63.955  1.00  0.00     0.120 A
HETATM    2  O1  UNL     1     -29.396  45.994  65.123  1.00  0.00    -0.361 OA
HETATM    3  C5  UNL     1     -28.126  46.117  64.576  1.00  0.00     0.196 A
HETATM    4  C6  UNL     1     -27.599  45.059  63.709  1.00  0.00     0.012 A
HETATM    5  C7  UNL     1     -28.213  43.964  63.132  1.00  0.00     0.066 A
HETATM    6  O2  UNL     1     -27.317  43.294  62.423  1.00  0.00    -0.311 OA
HETATM    7  C8  UNL     1     -26.146  43.866  62.487  1.00  0.00     0.119 A
HETATM    8  C10 UNL     1     -26.290  44.992  63.297  1.00  0.00    -0.014 A
HETATM    9  C11 UNL     1     -25.211  45.941  63.644  1.00  0.00     0.052 C
HETATM   10  C12 UNL     1     -29.626  43.574  63.260  1.00  0.00     0.101 C
HETATM   11  C13 UNL     1     -30.548  44.731  63.052  1.00  0.00     0.169 C
HETATM   12  C25 UNL     1     -29.790  45.979  62.715  1.00  0.00     0.185 C
ENDROOT
BRANCH  11  13
HETATM   13  O4  UNL     1     -31.508  44.410  62.035  1.00  0.00    -0.313 OA
BRANCH  13  14
HETATM   14  C14 UNL     1     -32.098  43.160  61.977  1.00  0.00     0.259 C
HETATM   15  O5  UNL     1     -32.091  42.596  60.862  1.00  0.00    -0.265 OA
BRANCH  14  16
HETATM   16  C15 UNL     1     -32.710  42.501  63.145  1.00  0.00     0.111 C
BRANCH  16  17
HETATM   17  C16 UNL     1     -33.753  41.489  62.856  1.00  0.00     0.013 C
BRANCH  17  18
HETATM   18  C17 UNL     1     -34.695  41.198  63.997  1.00  0.00     0.027 C
BRANCH  18  19
HETATM   19  C18 UNL     1     -34.382  39.853  64.608  1.00  0.00    -0.030 C
HETATM   20  C19 UNL     1     -34.886  39.514  65.789  1.00  0.00    -0.026 C
BRANCH  20  21
HETATM   21  C20 UNL     1     -34.592  38.213  66.395  1.00  0.00     0.013 C
HETATM   22  C21 UNL     1     -34.409  38.274  67.932  1.00  0.00     0.014 C
HETATM   23  C22 UNL     1     -34.710  36.788  67.734  1.00  0.00    -0.009 A
HETATM   24  C23 UNL     1     -35.952  36.181  67.423  1.00  0.00     0.010 A
HETATM   25  C24 UNL     1     -35.852  37.482  66.871  1.00  0.00    -0.002 A
ENDBRANCH  20  21
ENDBRANCH  18  19
ENDBRANCH  17  18
ENDBRANCH  16  17
ENDBRANCH  14  16
ENDBRANCH  13  14
ENDBRANCH  11  13
BRANCH  12  26
HETATM   26  O6  UNL     1     -30.671  46.838  62.041  1.00  0.00    -0.390 OA
ATOM     27  H6  UNL     1     -31.170  46.301  61.438  1.00  0.00     0.210 HD
ENDBRANCH  12  26
BRANCH   1  28
HETATM   28  C3  UNL     1     -29.423  48.204  63.963  1.00  0.00     0.043 C
BRANCH  28  29
HETATM   29  C2  UNL     1     -30.501  48.702  64.917  1.00  0.00    -0.001 C
HETATM   30  C1  UNL     1     -29.938  49.709  65.886  1.00  0.00     0.005 C
ENDBRANCH  28  29
ENDBRANCH   1  28
BRANCH   7  31
HETATM   31  C9  UNL     1     -24.915  43.407  61.829  1.00  0.00     0.296 C
HETATM   32  O3  UNL     1     -24.771  43.384  60.601  1.00  0.00    -0.299 OA
ENDBRANCH   7  31
TORSDOF 11
ENDMDL