MODEL 5
REMARK VINA RESULT: -8.424338062      2.343      5.984
REMARK  8 active torsions:
REMARK  status: ('A' for Active; 'I' for Inactive)
REMARK    1  A    between atoms: C2_2  and  C3_3
REMARK    2  A    between atoms: C3_3  and  N1_4
REMARK       I    between atoms: N1_4  and  C4_6
REMARK    3  A    between atoms: C4_6  and  C5_8
REMARK    4  A    between atoms: C5_8  and  C6_9
REMARK    5  A    between atoms: C6_9  and  C7_10
REMARK    6  A    between atoms: N2_14  and  C11_15
REMARK    7  A    between atoms: C19_26  and  C20_27
REMARK    8  A    between atoms: C20_27  and  C21_28
ROOT
HETATM    1  C7  UNL     1     -32.008  45.538  64.079  1.00  0.00    -0.030 A
HETATM    2  C8  UNL     1     -31.952  46.846  64.615  1.00  0.00     0.024 A
HETATM    3  C9  UNL     1     -31.123  47.927  64.387  1.00  0.00     0.046 A
HETATM    4  C10 UNL     1     -30.004  48.095  63.487  1.00  0.00     0.071 C
HETATM    5  N2  UNL     1     -31.637  48.902  65.218  1.00  0.00    -0.237 N
HETATM    6  N3  UNL     1     -32.672  48.453  65.876  1.00  0.00    -0.291 N
ATOM      7  H3  UNL     1     -33.217  48.991  66.549  1.00  0.00     0.187 HD
HETATM    8  C15 UNL     1     -32.909  47.176  65.533  1.00  0.00     0.068 A
HETATM    9  C16 UNL     1     -33.927  46.357  65.984  1.00  0.00    -0.020 A
HETATM   10  C17 UNL     1     -34.823  46.748  67.054  1.00  0.00     0.052 C
HETATM   11  C18 UNL     1     -34.003  45.100  65.469  1.00  0.00     0.009 A
HETATM   12  C19 UNL     1     -34.998  44.269  65.884  1.00  0.00     0.037 A
HETATM   13  N4  UNL     1     -34.970  43.013  65.299  1.00  0.00    -0.304 N
ATOM     14  H4  UNL     1     -35.687  42.342  65.574  1.00  0.00     0.186 HD
HETATM   15  N5  UNL     1     -34.101  42.642  64.436  1.00  0.00    -0.304 N
ATOM     16  H5  UNL     1     -34.174  41.693  64.069  1.00  0.00     0.186 HD
HETATM   17  C23 UNL     1     -33.078  43.427  63.967  1.00  0.00     0.033 A
HETATM   18  C24 UNL     1     -32.215  42.969  62.918  1.00  0.00     0.070 C
HETATM   19  C25 UNL     1     -33.014  44.687  64.492  1.00  0.00     0.008 A
ENDROOT
BRANCH   1  20
HETATM   20  C6  UNL     1     -30.917  45.090  63.254  1.00  0.00     0.049 C
BRANCH  20  21
HETATM   21  C5  UNL     1     -29.659  44.639  63.968  1.00  0.00     0.107 C
BRANCH  21  22
HETATM   22  C4  UNL     1     -28.543  44.670  62.983  1.00  0.00     0.218 C
HETATM   23  N1  UNL     1     -27.448  45.554  63.108  1.00  0.00    -0.358 N
ATOM     24  H1  UNL     1     -27.403  46.203  63.893  1.00  0.00     0.162 HD
HETATM   25  O1  UNL     1     -28.554  43.883  61.987  1.00  0.00    -0.274 OA
BRANCH  23  26
HETATM   26  C3  UNL     1     -26.397  45.536  62.126  1.00  0.00     0.149 C
BRANCH  26  27
HETATM   27  C2  UNL     1     -26.446  46.675  61.181  1.00  0.00    -0.018 C
HETATM   28  C1  UNL     1     -27.533  47.350  60.876  1.00  0.00     0.008 C
ENDBRANCH  26  27
ENDBRANCH  23  26
ENDBRANCH  21  22
ENDBRANCH  20  21
ENDBRANCH   1  20
BRANCH   5  29
HETATM   29  C11 UNL     1     -31.114  50.209  65.339  1.00  0.00     0.168 A
HETATM   30  C12 UNL     1     -30.204  50.705  66.249  1.00  0.00     0.060 A
HETATM   31  C13 UNL     1     -30.014  52.027  65.958  1.00  0.00     0.029 A
HETATM   32  C14 UNL     1     -30.804  52.311  64.884  1.00  0.00     0.144 A
HETATM   33  O2  UNL     1     -31.431  51.235  64.547  1.00  0.00    -0.304 OA
ENDBRANCH   5  29
BRANCH  12  34
HETATM   34  C20 UNL     1     -36.147  44.614  66.712  1.00  0.00     0.059 C
BRANCH  34  35
HETATM   35  C21 UNL     1     -36.484  43.626  67.804  1.00  0.00     0.002 C
HETATM   36  C22 UNL     1     -35.367  43.508  68.813  1.00  0.00     0.005 C
ENDBRANCH  34  35
ENDBRANCH  12  34
TORSDOF 8
ENDMDL