MODEL 5
REMARK VINA RESULT: -7.673085960      1.963      9.793
REMARK  9 active torsions:
REMARK  status: ('A' for Active; 'I' for Inactive)
REMARK    1  A    between atoms: C2_2  and  N1_3
REMARK    2  A    between atoms: N1_3  and  C3_5
REMARK    3  A    between atoms: C5_7  and  C6_8
REMARK    4  A    between atoms: C7_9  and  C8_10
REMARK    5  A    between atoms: C10_12  and  O1_13
REMARK    6  A    between atoms: C12_15  and  O2_16
REMARK    7  A    between atoms: C14_18  and  O3_19
REMARK    8  A    between atoms: C19_26  and  O4_27
REMARK    9  A    between atoms: C21_29  and  O5_30
ROOT
HETATM    1  C3  UNL     1     -34.382  41.646  66.964  1.00  0.00     0.042 A
HETATM    2  C4  UNL     1     -33.551  42.646  66.489  1.00  0.00     0.059 A
HETATM    3  C5  UNL     1     -32.270  42.389  66.062  1.00  0.00     0.034 A
HETATM    4  N2  UNL     1     -31.871  41.096  66.135  1.00  0.00    -0.355 N
ATOM      5  H2  UNL     1     -30.925  40.872  65.825  1.00  0.00     0.166 HD
HETATM    6  C17 UNL     1     -32.634  40.091  66.586  1.00  0.00     0.048 A
HETATM    7  C18 UNL     1     -32.201  38.787  66.649  1.00  0.00     0.070 A
HETATM    8  C19 UNL     1     -32.992  37.760  67.115  1.00  0.00     0.103 A
HETATM    9  C21 UNL     1     -34.275  38.053  67.536  1.00  0.00     0.102 A
HETATM   10  C23 UNL     1     -34.743  39.349  67.487  1.00  0.00     0.055 A
HETATM   11  C24 UNL     1     -33.920  40.357  67.014  1.00  0.00     0.020 A
ENDROOT
BRANCH   3  12
HETATM   12  C6  UNL     1     -31.356  43.406  65.556  1.00  0.00     0.030 C
HETATM   13  C7  UNL     1     -31.177  43.635  64.269  1.00  0.00     0.014 C
BRANCH  13  14
HETATM   14  C8  UNL     1     -30.276  44.636  63.760  1.00  0.00    -0.031 A
HETATM   15  C9  UNL     1     -29.093  44.237  63.170  1.00  0.00     0.051 A
HETATM   16  C10 UNL     1     -28.205  45.171  62.673  1.00  0.00     0.105 A
HETATM   17  C12 UNL     1     -28.488  46.515  62.759  1.00  0.00     0.135 A
HETATM   18  C14 UNL     1     -29.667  46.944  63.346  1.00  0.00     0.105 A
HETATM   19  C16 UNL     1     -30.542  45.966  63.837  1.00  0.00     0.051 A
BRANCH  16  20
HETATM   20  O1  UNL     1     -27.001  44.818  62.070  1.00  0.00    -0.353 OA
HETATM   21  C11 UNL     1     -26.044  44.157  62.872  1.00  0.00     0.210 C
ENDBRANCH  16  20
BRANCH  17  22
HETATM   22  O2  UNL     1     -27.605  47.483  62.263  1.00  0.00    -0.351 OA
HETATM   23  C13 UNL     1     -27.574  47.678  60.869  1.00  0.00     0.210 C
ENDBRANCH  17  22
BRANCH  18  24
HETATM   24  O3  UNL     1     -29.998  48.262  63.457  1.00  0.00    -0.353 OA
HETATM   25  C15 UNL     1     -30.116  49.019  64.615  1.00  0.00     0.210 C
ENDBRANCH  18  24
ENDBRANCH  13  14
ENDBRANCH   3  12
BRANCH   1  26
HETATM   26  N1  UNL     1     -35.585  41.900  67.362  1.00  0.00    -0.389 N
ATOM     27  H1  UNL     1     -36.386  41.414  66.960  1.00  0.00     0.159 HD
BRANCH  26  28
HETATM   28  C2  UNL     1     -35.759  42.893  68.395  1.00  0.00     0.115 C
HETATM   29  C1  UNL     1     -35.526  42.295  69.775  1.00  0.00     0.026 C
ENDBRANCH  26  28
ENDBRANCH   1  26
BRANCH   8  30
HETATM   30  O4  UNL     1     -32.557  36.449  67.179  1.00  0.00    -0.353 OA
HETATM   31  C20 UNL     1     -32.628  35.541  66.109  1.00  0.00     0.210 C
ENDBRANCH   8  30
BRANCH   9  32
HETATM   32  O5  UNL     1     -35.113  37.060  68.013  1.00  0.00    -0.353 OA
HETATM   33  C22 UNL     1     -36.083  36.425  67.238  1.00  0.00     0.210 C
ENDBRANCH   9  32
TORSDOF 9
ENDMDL