MODEL 5
REMARK VINA RESULT: -7.809048064      2.451      7.074
REMARK  9 active torsions:
REMARK  status: ('A' for Active; 'I' for Inactive)
REMARK    1  A    between atoms: C2_2  and  O1_3
REMARK    2  A    between atoms: C2_2  and  C17_27
REMARK    3  A    between atoms: O1_3  and  C3_4
REMARK    4  A    between atoms: C3_4  and  C4_5
REMARK    5  A    between atoms: C4_5  and  C5_6
REMARK    6  A    between atoms: C4_5  and  S1_14
REMARK    7  A    between atoms: C5_6  and  N1_7
REMARK    8  A    between atoms: S1_14  and  C12_15
REMARK    9  A    between atoms: C12_15  and  C13_16
ROOT
HETATM    1  C4  UNL     1     -33.109  42.361  64.811  1.00  0.00     0.099 C
ENDROOT
BRANCH   1   2
HETATM    2  C3  UNL     1     -34.226  43.377  65.159  1.00  0.00     0.185 C
BRANCH   2   3
HETATM    3  O1  UNL     1     -33.616  44.441  65.787  1.00  0.00    -0.385 OA
BRANCH   3   4
HETATM    4  C2  UNL     1     -34.439  45.527  65.997  1.00  0.00     0.122 C
HETATM    5  C1  UNL     1     -35.834  45.130  65.563  1.00  0.00     0.040 C
BRANCH   4   6
HETATM    6  C17 UNL     1     -33.920  46.717  65.253  1.00  0.00     0.027 A
HETATM    7  C18 UNL     1     -32.552  47.215  65.432  1.00  0.00    -0.003 A
HETATM    8  C19 UNL     1     -31.779  47.844  64.304  1.00  0.00     0.011 C
HETATM    9  C20 UNL     1     -33.748  48.029  65.889  1.00  0.00    -0.038 A
HETATM   10  C21 UNL     1     -34.148  49.262  65.084  1.00  0.00     0.015 C
HETATM   11  C22 UNL     1     -33.817  48.215  67.379  1.00  0.00     0.015 C
ENDBRANCH   4   6
ENDBRANCH   3   4
ENDBRANCH   2   3
ENDBRANCH   1   2
BRANCH   1  12
HETATM   12  C5  UNL     1     -33.642  40.988  64.803  1.00  0.00     0.289 C
BRANCH  12  13
HETATM   13  N1  UNL     1     -34.549  40.581  65.818  1.00  0.00     0.089 N
HETATM   14  C6  UNL     1     -35.218  39.338  65.337  1.00  0.00     0.272 C
HETATM   15  C7  UNL     1     -36.071  38.730  66.391  1.00  0.00     0.030 C
HETATM   16  C8  UNL     1     -35.360  37.574  67.047  1.00  0.00     0.002 C
HETATM   17  C9  UNL     1     -34.165  37.952  67.855  1.00  0.00     0.002 C
HETATM   18  C10 UNL     1     -33.253  38.949  67.134  1.00  0.00     0.030 C
HETATM   19  C11 UNL     1     -34.006  40.274  67.107  1.00  0.00     0.272 C
ENDBRANCH  12  13
ENDBRANCH   1  12
BRANCH   1  20
HETATM   20  S1  UNL     1     -32.373  42.969  63.291  1.00  0.00    -0.154 SA
BRANCH  20  21
HETATM   21  C12 UNL     1     -30.794  43.765  63.696  1.00  0.00     0.133 C
BRANCH  21  22
HETATM   22  C13 UNL     1     -30.487  44.818  62.700  1.00  0.00     0.054 A
HETATM   23  C14 UNL     1     -29.279  45.525  62.627  1.00  0.00     0.161 A
HETATM   24  N2  UNL     1     -29.341  46.391  61.610  1.00  0.00    -0.095 N
HETATM   25  N3  UNL     1     -28.749  47.333  60.898  1.00  0.00    -0.275 N
HETATM   26  C16 UNL     1     -30.547  46.240  61.053  1.00  0.00     0.704 A
HETATM   27  C15 UNL     1     -29.533  47.785  59.913  1.00  0.00     0.215 A
ATOM     28  H3  UNL     1     -27.805  47.676  61.079  1.00  0.00     0.189 HD
HETATM   29  N4  UNL     1     -30.680  47.084  60.015  1.00  0.00    -0.185 N
ATOM     30  H4  UNL     1     -31.501  47.178  59.415  1.00  0.00     0.185 HD
HETATM   31  N5  UNL     1     -31.249  45.288  61.709  1.00  0.00    -0.191 N
ATOM     32  H5  UNL     1     -32.196  44.982  61.486  1.00  0.00     0.184 HD
ENDBRANCH  21  22
ENDBRANCH  20  21
ENDBRANCH   1  20
TORSDOF 9
ENDMDL