MODEL 2
REMARK VINA RESULT: -8.368674523      3.129      7.099
REMARK  9 active torsions:
REMARK  status: ('A' for Active; 'I' for Inactive)
REMARK    1  A    between atoms: C3_3  and  O1_4
REMARK    2  A    between atoms: O1_4  and  C4_5
REMARK    3  A    between atoms: C6_7  and  C7_8
REMARK    4  A    between atoms: C8_9  and  C9_10
REMARK    5  A    between atoms: C9_10  and  C10_11
REMARK    6  A    between atoms: C10_11  and  O2_12
REMARK    7  A    between atoms: C10_11  and  C11_14
REMARK    8  A    between atoms: C22_27  and  O5_28
REMARK    9  A    between atoms: C24_30  and  O6_31
ROOT
HETATM    1  C1  UNL     1     -35.630  39.044  66.287  1.00  0.00     0.099 C
HETATM    2  C2  UNL     1     -34.871  39.997  66.348  1.00  0.00    -0.161 C
HETATM    3  C3  UNL     1     -33.972  41.138  66.445  1.00  0.00     0.255 C
ENDROOT
BRANCH   3   4
HETATM    4  O1  UNL     1     -34.352  42.097  65.528  1.00  0.00    -0.337 OA
BRANCH   4   5
HETATM    5  C4  UNL     1     -33.572  42.881  64.710  1.00  0.00     0.106 A
HETATM    6  C5  UNL     1     -33.109  44.133  65.064  1.00  0.00     0.052 A
HETATM    7  C6  UNL     1     -32.333  44.902  64.236  1.00  0.00    -0.023 A
HETATM    8  C21 UNL     1     -32.010  44.382  63.000  1.00  0.00     0.051 A
HETATM    9  C22 UNL     1     -32.450  43.145  62.614  1.00  0.00     0.105 A
HETATM   10  C24 UNL     1     -33.243  42.372  63.472  1.00  0.00     0.135 A
BRANCH   7  11
HETATM   11  C7  UNL     1     -31.811  46.228  64.547  1.00  0.00    -0.033 A
HETATM   12  C8  UNL     1     -30.698  46.845  64.344  1.00  0.00    -0.019 A
HETATM   13  C13 UNL     1     -30.822  48.225  64.925  1.00  0.00    -0.016 A
HETATM   14  C14 UNL     1     -29.902  49.280  64.965  1.00  0.00     0.052 A
HETATM   15  C18 UNL     1     -32.058  48.355  65.465  1.00  0.00    -0.040 A
HETATM   16  C15 UNL     1     -30.224  50.497  65.559  1.00  0.00     0.105 A
HETATM   17  C16 UNL     1     -31.481  50.637  66.111  1.00  0.00     0.105 A
HETATM   18  O4  UNL     1     -29.551  51.697  65.753  1.00  0.00    -0.323 OA
HETATM   19  C17 UNL     1     -32.370  49.589  66.063  1.00  0.00     0.048 A
HETATM   20  O3  UNL     1     -31.536  51.936  66.632  1.00  0.00    -0.323 OA
HETATM   21  C20 UNL     1     -30.223  52.439  66.783  1.00  0.00     0.352 C
HETATM   22  C19 UNL     1     -32.801  47.130  65.294  1.00  0.00     0.080 A
BRANCH  12  23
HETATM   23  C9  UNL     1     -29.447  46.473  63.707  1.00  0.00     0.017 C
BRANCH  23  24
HETATM   24  C10 UNL     1     -28.259  46.094  64.482  1.00  0.00     0.141 C
BRANCH  24  25
HETATM   25  O2  UNL     1     -27.035  46.400  63.843  1.00  0.00    -0.392 OA
ATOM     26  H2  UNL     1     -26.267  46.132  64.333  1.00  0.00     0.210 HD
ENDBRANCH  24  25
BRANCH  24  27
HETATM   27  C11 UNL     1     -28.171  44.511  64.493  1.00  0.00     0.031 C
HETATM   28  C12 UNL     1     -28.889  43.970  65.680  1.00  0.00     0.008 C
ENDBRANCH  24  27
ENDBRANCH  23  24
ENDBRANCH  12  23
ENDBRANCH   7  11
BRANCH   9  29
HETATM   29  O5  UNL     1     -32.127  42.616  61.367  1.00  0.00    -0.353 OA
HETATM   30  C23 UNL     1     -31.317  43.371  60.505  1.00  0.00     0.210 C
ENDBRANCH   9  29
BRANCH  10  31
HETATM   31  O6  UNL     1     -33.672  41.121  63.046  1.00  0.00    -0.351 OA
HETATM   32  C25 UNL     1     -35.019  40.864  62.676  1.00  0.00     0.210 C
ENDBRANCH  10  31
ENDBRANCH   4   5
ENDBRANCH   3   4
TORSDOF 9
ENDMDL