MODEL 2
REMARK VINA RESULT: -8.112805853      1.062      1.348
REMARK  9 active torsions:
REMARK  status: ('A' for Active; 'I' for Inactive)
REMARK    1  A    between atoms: C2_2  and  C3_3
REMARK    2  A    between atoms: C3_3  and  N1_4
REMARK    3  A    between atoms: N1_4  and  C4_6
REMARK    4  A    between atoms: C8_13  and  O2_14
REMARK    5  A    between atoms: C10_16  and  O3_17
REMARK    6  A    between atoms: C16_23  and  O4_24
REMARK    7  A    between atoms: O4_24  and  C17_25
REMARK    8  A    between atoms: C19_27  and  O5_28
REMARK    9  A    between atoms: O5_28  and  C20_29
ROOT
HETATM    1  C4  UNL     1     -31.706  45.110  64.450  1.00  0.00     0.115 C
HETATM    2  N2  UNL     1     -30.812  44.116  64.607  1.00  0.00    -0.308 N
ATOM      3  H2  UNL     1     -31.193  43.234  64.949  1.00  0.00     0.170 HD
HETATM    4  C5  UNL     1     -29.467  44.122  64.376  1.00  0.00     0.258 C
HETATM    5  O1  UNL     1     -28.759  43.220  64.855  1.00  0.00    -0.267 OA
HETATM    6  C6  UNL     1     -28.788  45.062  63.632  1.00  0.00     0.046 A
HETATM    7  C7  UNL     1     -27.675  44.579  63.001  1.00  0.00     0.057 A
HETATM    8  C8  UNL     1     -26.917  45.368  62.176  1.00  0.00     0.102 A
HETATM    9  C10 UNL     1     -27.293  46.678  61.982  1.00  0.00     0.102 A
HETATM   10  C12 UNL     1     -28.410  47.221  62.595  1.00  0.00     0.053 A
HETATM   11  C13 UNL     1     -29.135  46.411  63.407  1.00  0.00    -0.006 A
HETATM   12  C14 UNL     1     -30.203  47.069  63.982  1.00  0.00    -0.008 A
HETATM   13  C15 UNL     1     -29.996  48.410  64.066  1.00  0.00     0.053 A
HETATM   14  C16 UNL     1     -31.004  49.186  64.592  1.00  0.00     0.102 A
HETATM   15  C19 UNL     1     -32.213  48.606  65.033  1.00  0.00     0.102 A
HETATM   16  C22 UNL     1     -32.387  47.246  64.935  1.00  0.00     0.055 A
HETATM   17  C23 UNL     1     -31.378  46.456  64.408  1.00  0.00     0.022 A
ENDROOT
BRANCH   1  18
HETATM   18  N1  UNL     1     -32.930  44.839  64.345  1.00  0.00    -0.376 N
ATOM     19  H1  UNL     1     -33.433  45.389  63.650  1.00  0.00     0.161 HD
BRANCH  18  20
HETATM   20  C3  UNL     1     -33.717  43.894  65.037  1.00  0.00     0.121 C
BRANCH  20  21
HETATM   21  C2  UNL     1     -35.195  44.282  65.091  1.00  0.00     0.015 C
HETATM   22  C1  UNL     1     -35.401  45.406  66.077  1.00  0.00     0.006 C
ENDBRANCH  20  21
ENDBRANCH  18  20
ENDBRANCH   1  18
BRANCH  15  23
HETATM   23  O5  UNL     1     -33.159  49.442  65.541  1.00  0.00    -0.349 OA
BRANCH  23  24
HETATM   24  C20 UNL     1     -34.198  49.057  66.393  1.00  0.00     0.171 C
HETATM   25  C21 UNL     1     -33.773  48.836  67.810  1.00  0.00     0.034 C
ENDBRANCH  23  24
ENDBRANCH  15  23
BRANCH  14  26
HETATM   26  O4  UNL     1     -30.799  50.548  64.677  1.00  0.00    -0.349 OA
BRANCH  26  27
HETATM   27  C17 UNL     1     -29.877  51.103  65.573  1.00  0.00     0.171 C
HETATM   28  C18 UNL     1     -30.014  50.589  66.968  1.00  0.00     0.034 C
ENDBRANCH  26  27
ENDBRANCH  14  26
BRANCH   8  29
HETATM   29  O2  UNL     1     -25.799  44.882  61.544  1.00  0.00    -0.353 OA
HETATM   30  C9  UNL     1     -25.108  43.724  61.900  1.00  0.00     0.210 C
ENDBRANCH   8  29
BRANCH   9  31
HETATM   31  O3  UNL     1     -26.550  47.489  61.159  1.00  0.00    -0.353 OA
HETATM   32  C11 UNL     1     -27.081  47.915  59.928  1.00  0.00     0.210 C
ENDBRANCH   9  31
TORSDOF 9
ENDMDL