MODEL 5
REMARK VINA RESULT: -7.303210815      1.771      3.015
REMARK  9 active torsions:
REMARK  status: ('A' for Active; 'I' for Inactive)
REMARK    1  A    between atoms: C2_2  and  C3_3
REMARK    2  A    between atoms: C3_3  and  O1_4
REMARK    3  A    between atoms: O1_4  and  C4_5
REMARK    4  A    between atoms: C4_5  and  C5_6
REMARK    5  A    between atoms: C5_6  and  N1_7
REMARK    6  A    between atoms: C5_6  and  C7_10
REMARK    7  A    between atoms: N1_7  and  O2_8
REMARK    8  A    between atoms: C7_10  and  O4_12
REMARK    9  A    between atoms: O4_12  and  C8_13
ROOT
HETATM    1  C8  UNL     1     -30.818  43.796  65.034  1.00  0.00     0.141 C
HETATM    2  C9  UNL     1     -29.370  43.258  64.727  1.00  0.00     0.043 C
HETATM    3  C10 UNL     1     -28.784  44.273  63.749  1.00  0.00    -0.034 C
HETATM    4  C11 UNL     1     -27.900  43.398  62.817  1.00  0.00     0.016 C
HETATM    5  C12 UNL     1     -27.797  45.112  64.452  1.00  0.00    -0.010 C
HETATM    6  C13 UNL     1     -28.238  46.006  65.543  1.00  0.00     0.011 C
HETATM    7  C14 UNL     1     -26.813  45.818  63.523  1.00  0.00     0.008 C
HETATM    8  C15 UNL     1     -27.258  47.104  62.948  1.00  0.00     0.041 C
HETATM    9  C16 UNL     1     -27.731  46.900  61.552  1.00  0.00     0.082 A
HETATM   10  C17 UNL     1     -29.161  46.552  61.376  1.00  0.00     0.041 C
HETATM   11  C18 UNL     1     -29.931  46.277  62.627  1.00  0.00     0.009 C
HETATM   12  C19 UNL     1     -29.901  44.834  63.038  1.00  0.00     0.004 C
HETATM   13  C20 UNL     1     -31.174  44.378  63.737  1.00  0.00    -0.017 C
HETATM   14  C21 UNL     1     -31.799  43.219  62.928  1.00  0.00     0.018 C
HETATM   15  C22 UNL     1     -32.224  45.406  63.869  1.00  0.00     0.018 C
HETATM   16  C23 UNL     1     -27.110  47.631  60.396  1.00  0.00     0.207 A
HETATM   17  O5  UNL     1     -26.813  46.306  60.709  1.00  0.00    -0.375 OA
ENDROOT
BRANCH   1  18
HETATM   18  O4  UNL     1     -31.651  42.716  65.343  1.00  0.00    -0.314 OA
BRANCH  18  19
HETATM   19  C7  UNL     1     -32.476  42.434  66.326  1.00  0.00     0.283 C
HETATM   20  O3  UNL     1     -32.050  42.522  67.529  1.00  0.00    -0.263 OA
BRANCH  19  21
HETATM   21  C5  UNL     1     -33.933  41.974  66.182  1.00  0.00     0.229 C
BRANCH  21  22
HETATM   22  C4  UNL     1     -33.925  40.752  65.335  1.00  0.00     0.201 C
BRANCH  22  23
HETATM   23  O1  UNL     1     -34.493  39.616  65.641  1.00  0.00    -0.389 OA
BRANCH  23  24
HETATM   24  C3  UNL     1     -35.308  39.355  66.638  1.00  0.00     0.167 C
BRANCH  24  25
HETATM   25  C2  UNL     1     -36.171  38.150  66.549  1.00  0.00     0.022 C
HETATM   26  C1  UNL     1     -35.451  36.988  67.283  1.00  0.00     0.007 C
ENDBRANCH  24  25
ENDBRANCH  23  24
ENDBRANCH  22  23
ENDBRANCH  21  22
BRANCH  21  27
HETATM   27  N1  UNL     1     -34.588  43.041  65.366  1.00  0.00    -0.084 NA
BRANCH  27  28
HETATM   28  O2  UNL     1     -34.679  44.200  65.983  1.00  0.00    -0.291 OA
HETATM   29  C6  UNL     1     -35.722  44.919  65.339  1.00  0.00     0.231 C
ENDBRANCH  27  28
ENDBRANCH  21  27
ENDBRANCH  19  21
ENDBRANCH  18  19
ENDBRANCH   1  18
TORSDOF 9
ENDMDL