MODEL 3
REMARK VINA RESULT: -7.389312267      1.961      8.093
REMARK  9 active torsions:
REMARK  status: ('A' for Active; 'I' for Inactive)
REMARK    1  A    between atoms: O1_2  and  C2_3
REMARK    2  A    between atoms: C4_5  and  O2_6
REMARK    3  A    between atoms: C7_9  and  N1_10
REMARK    4  A    between atoms: N1_10  and  C8_12
REMARK    5  A    between atoms: C10_14  and  O3_15
REMARK    6  A    between atoms: C12_17  and  C13_18
REMARK    7  A    between atoms: C13_18  and  N2_19
REMARK    8  A    between atoms: C17_23  and  O4_24
REMARK    9  A    between atoms: O4_24  and  C18_25
ROOT
HETATM    1  N1  UNL     1     -32.599  42.771  64.800  1.00  0.00    -0.353 N
ATOM      2  H1  UNL     1     -31.885  42.716  64.074  1.00  0.00     0.166 HD
ENDROOT
BRANCH   1   3
HETATM    3  C7  UNL     1     -33.161  43.894  65.015  1.00  0.00     0.049 A
HETATM    4  C6  UNL     1     -32.425  45.050  64.880  1.00  0.00     0.051 A
HETATM    5  C4  UNL     1     -31.106  45.005  64.501  1.00  0.00     0.085 A
HETATM    6  C23 UNL     1     -33.042  46.254  65.114  1.00  0.00     0.050 A
HETATM    7  C3  UNL     1     -30.427  46.212  64.364  1.00  0.00     0.074 A
HETATM    8  C2  UNL     1     -31.046  47.417  64.598  1.00  0.00     0.073 A
HETATM    9  C24 UNL     1     -32.364  47.434  64.977  1.00  0.00     0.067 A
HETATM   10  N3  UNL     1     -34.351  46.312  65.471  1.00  0.00    -0.365 N
HETATM   11  C22 UNL     1     -35.060  45.162  65.596  1.00  0.00     0.090 A
ATOM     12  H3  UNL     1     -34.797  47.212  65.643  1.00  0.00     0.165 HD
HETATM   13  C21 UNL     1     -34.503  43.924  65.377  1.00  0.00     0.047 A
BRANCH   5  14
HETATM   14  O2  UNL     1     -30.509  43.791  64.268  1.00  0.00    -0.355 OA
HETATM   15  C5  UNL     1     -29.380  43.780  63.386  1.00  0.00     0.210 C
ENDBRANCH   5  14
BRANCH   8  16
HETATM   16  O1  UNL     1     -30.310  48.578  64.438  1.00  0.00    -0.356 OA
HETATM   17  C1  UNL     1     -30.492  49.713  65.262  1.00  0.00     0.210 C
ENDBRANCH   8  16
ENDBRANCH   1   3
BRANCH   1  18
HETATM   18  C8  UNL     1     -32.924  41.573  65.534  1.00  0.00     0.069 A
HETATM   19  C9  UNL     1     -32.565  41.495  66.860  1.00  0.00     0.069 A
HETATM   20  C10 UNL     1     -32.860  40.363  67.642  1.00  0.00     0.078 A
HETATM   21  C12 UNL     1     -33.518  39.281  67.123  1.00  0.00     0.006 A
HETATM   22  C16 UNL     1     -33.871  39.398  65.757  1.00  0.00     0.050 A
HETATM   23  C17 UNL     1     -33.586  40.498  64.991  1.00  0.00     0.096 A
BRANCH  20  24
HETATM   24  O3  UNL     1     -32.480  40.353  68.962  1.00  0.00    -0.355 OA
HETATM   25  C11 UNL     1     -32.580  41.547  69.717  1.00  0.00     0.210 C
ENDBRANCH  20  24
BRANCH  21  26
HETATM   26  C13 UNL     1     -33.817  38.031  67.831  1.00  0.00     0.312 C
BRANCH  26  27
HETATM   27  N2  UNL     1     -34.149  36.866  67.033  1.00  0.00     0.084 N
HETATM   28  C14 UNL     1     -32.901  36.065  66.996  1.00  0.00     0.309 C
HETATM   29  C15 UNL     1     -35.028  35.994  67.904  1.00  0.00     0.309 C
ENDBRANCH  26  27
ENDBRANCH  21  26
BRANCH  23  30
HETATM   30  O4  UNL     1     -33.933  40.598  63.661  1.00  0.00    -0.344 OA
BRANCH  30  31
HETATM   31  C18 UNL     1     -35.205  40.574  63.104  1.00  0.00     0.120 C
HETATM   32  C19 UNL     1     -35.430  41.730  62.143  1.00  0.00     0.040 C
HETATM   33  C20 UNL     1     -35.473  39.286  62.349  1.00  0.00     0.040 C
ENDBRANCH  30  31
ENDBRANCH  23  30
ENDBRANCH   1  18
TORSDOF 9
ENDMDL