MODEL 4
REMARK VINA RESULT: -7.137158761      3.898      8.517
REMARK  10 active torsions:
REMARK  status: ('A' for Active; 'I' for Inactive)
REMARK    1  A    between atoms: C2_2  and  C3_3
REMARK    2  A    between atoms: C2_2  and  C5_7
REMARK    3  A    between atoms: C3_3  and  C4_4
REMARK    4  A    between atoms: C6_9  and  O4_10
REMARK    5  A    between atoms: C8_13  and  O5_14
REMARK    6  A    between atoms: C8_13  and  C9_16
REMARK    7  A    between atoms: C9_16  and  C11_18
REMARK    8  A    between atoms: C11_18  and  C12_19
REMARK    9  A    between atoms: C12_19  and  C13_20
REMARK   10  A    between atoms: C19_27  and  O7_29
ROOT
HETATM    1  C5  UNL     1      -9.299   4.104 -24.165  1.00  0.00     0.163 C
HETATM    2  O3  UNL     1      -8.160   4.951 -24.091  1.00  0.00    -0.344 OA
HETATM    3  C6  UNL     1      -8.664   6.205 -24.330  1.00  0.00     0.170 C
HETATM    4  C7  UNL     1      -8.492   7.177 -23.185  1.00  0.00     0.107 C
HETATM    5  C8  UNL     1      -9.783   7.230 -22.425  1.00  0.00     0.071 C
HETATM    6  C25 UNL     1     -10.703   6.179 -23.086  1.00  0.00     0.042 A
HETATM    7  C26 UNL     1     -10.139   5.963 -24.288  1.00  0.00     0.067 A
HETATM    8  C27 UNL     1     -10.271   4.840 -23.345  1.00  0.00     0.002 A
HETATM    9  C28 UNL     1     -11.275   3.958 -22.842  1.00  0.00     0.019 C
ENDROOT
BRANCH   5  10
HETATM   10  O5  UNL     1      -9.542   6.924 -21.108  1.00  0.00    -0.389 OA
ATOM     11  H5  UNL     1     -10.021   7.530 -20.555  1.00  0.00     0.210 HD
ENDBRANCH   5  10
BRANCH   5  12
HETATM   12  C9  UNL     1     -10.478   8.571 -22.469  1.00  0.00     0.016 C
HETATM   13  C10 UNL     1     -11.981   8.372 -22.461  1.00  0.00     0.013 C
BRANCH  12  14
HETATM   14  C11 UNL     1     -10.050   9.380 -23.670  1.00  0.00     0.007 C
BRANCH  14  15
HETATM   15  C12 UNL     1     -11.089  10.261 -24.248  1.00  0.00     0.006 C
BRANCH  15  16
HETATM   16  C13 UNL     1     -11.189  10.298 -25.741  1.00  0.00    -0.003 C
HETATM   17  C14 UNL     1     -10.617   9.081 -26.414  1.00  0.00    -0.013 C
HETATM   18  C15 UNL     1      -9.824   9.423 -27.665  1.00  0.00     0.010 C
HETATM   19  C16 UNL     1     -11.573   7.967 -26.649  1.00  0.00     0.017 C
HETATM   20  C17 UNL     1     -12.877   8.097 -25.953  1.00  0.00     0.067 C
HETATM   21  C18 UNL     1     -13.980   7.521 -26.778  1.00  0.00     0.165 C
HETATM   22  C21 UNL     1     -13.538   9.434 -26.085  1.00  0.00     0.047 C
HETATM   23  O6  UNL     1     -14.468   6.419 -26.958  1.00  0.00    -0.294 OA
HETATM   24  C19 UNL     1     -14.216   8.922 -27.289  1.00  0.00     0.120 C
HETATM   25  C20 UNL     1     -15.714   9.164 -27.318  1.00  0.00     0.055 C
HETATM   26  C22 UNL     1     -12.608  10.593 -26.190  1.00  0.00    -0.036 C
HETATM   27  C23 UNL     1     -12.633  11.279 -27.540  1.00  0.00     0.015 C
HETATM   28  C24 UNL     1     -13.149  11.674 -25.232  1.00  0.00     0.015 C
BRANCH  24  29
HETATM   29  O7  UNL     1     -13.677   9.054 -28.526  1.00  0.00    -0.382 OA
ATOM     30  H7  UNL     1     -13.562   9.975 -28.728  1.00  0.00     0.211 HD
ENDBRANCH  24  29
ENDBRANCH  15  16
ENDBRANCH  14  15
ENDBRANCH  12  14
ENDBRANCH   5  12
BRANCH   3  31
HETATM   31  O4  UNL     1      -8.249   6.734 -25.547  1.00  0.00    -0.365 OA
ATOM     32  H4  UNL     1      -8.821   7.421 -25.868  1.00  0.00     0.213 HD
ENDBRANCH   3  31
BRANCH   1  33
HETATM   33  C2  UNL     1      -8.818   2.835 -23.489  1.00  0.00    -0.050 C
HETATM   34  C1  UNL     1      -9.751   2.013 -23.105  1.00  0.00     0.017 C
BRANCH  33  35
HETATM   35  C3  UNL     1      -7.384   2.622 -23.313  1.00  0.00     0.149 C
BRANCH  35  36
HETATM   36  C4  UNL     1      -6.607   1.905 -24.284  1.00  0.00     0.176 C
HETATM   37  O1  UNL     1      -6.072   0.783 -24.206  1.00  0.00    -0.648 OA
HETATM   38  O2  UNL     1      -6.409   2.566 -25.531  1.00  0.00    -0.648 OA
ENDBRANCH  35  36
ENDBRANCH  33  35
ENDBRANCH   1  33
TORSDOF 10
ENDMDL