MODEL 1
REMARK VINA RESULT: -5.737814956      0.000      0.000
REMARK  13 active torsions:
REMARK  status: ('A' for Active; 'I' for Inactive)
REMARK    1  A    between atoms: C2_2  and  C4_4
REMARK    2  A    between atoms: C4_4  and  O2_6
REMARK    3  A    between atoms: O2_6  and  C5_7
REMARK    4  A    between atoms: C7_9  and  C19_23
REMARK    5  A    between atoms: C9_11  and  C10_12
REMARK    6  A    between atoms: C10_12  and  O3_13
REMARK    7  A    between atoms: C16_20  and  C17_21
REMARK    8  A    between atoms: C21_25  and  C22_26
REMARK    9  A    between atoms: C25_29  and  O4_30
REMARK   10  A    between atoms: C26_32  and  O5_33
REMARK   11  A    between atoms: C27_35  and  N1_36
REMARK   12  A    between atoms: N1_36  and  C28_39
REMARK   13  A    between atoms: C28_39  and  C29_40
ROOT
HETATM    1  C5  UNL     1      -1.250  -1.588 -25.704  1.00  0.00     0.140 C
HETATM    2  C6  UNL     1      -2.401  -2.084 -24.793  1.00  0.00     0.043 C
HETATM    3  C7  UNL     1      -2.582  -0.599 -24.476  1.00  0.00    -0.025 C
HETATM    4  C8  UNL     1      -3.440  -0.021 -25.517  1.00  0.00     0.016 C
HETATM    5  C9  UNL     1      -1.097  -0.549 -24.632  1.00  0.00     0.059 C
ENDROOT
BRANCH   1   6
HETATM    6  O2  UNL     1      -0.223  -2.559 -25.767  1.00  0.00    -0.312 OA
BRANCH   6   7
HETATM    7  C4  UNL     1      -0.505  -3.893 -25.533  1.00  0.00     0.288 C
HETATM    8  O1  UNL     1      -0.863  -4.575 -26.556  1.00  0.00    -0.260 OA
BRANCH   7   9
HETATM    9  C2  UNL     1      -0.409  -4.508 -24.221  1.00  0.00     0.004 C
HETATM   10  C1  UNL     1      -1.122  -5.575 -23.959  1.00  0.00     0.024 C
HETATM   11  C3  UNL     1       0.481  -3.934 -23.204  1.00  0.00     0.054 C
ENDBRANCH   7   9
ENDBRANCH   6   7
ENDBRANCH   1   6
BRANCH   5  12
HETATM   12  C10 UNL     1      -0.479   0.746 -24.880  1.00  0.00     0.076 C
HETATM   13  C11 UNL     1      -0.185   0.842 -26.388  1.00  0.00     0.044 C
HETATM   14  C12 UNL     1       0.947   1.849 -26.643  1.00  0.00    -0.002 C
HETATM   15  C13 UNL     1       1.551   1.453 -27.985  1.00  0.00     0.011 C
HETATM   16  C14 UNL     1       1.960   1.629 -25.607  1.00  0.00     0.029 A
HETATM   17  C15 UNL     1       1.886   0.219 -24.998  1.00  0.00     0.031 C
HETATM   18  C26 UNL     1       1.344   2.212 -24.288  1.00  0.00     0.108 A
HETATM   19  C27 UNL     1       2.668   2.589 -24.801  1.00  0.00     0.233 A
HETATM   20  C16 UNL     1       0.832   0.816 -24.110  1.00  0.00     0.032 C
BRANCH  12  21
HETATM   21  O3  UNL     1      -1.353   1.763 -24.627  1.00  0.00    -0.388 OA
ATOM     22  H3  UNL     1      -0.944   2.443 -24.106  1.00  0.00     0.210 HD
ENDBRANCH  12  21
BRANCH  20  23
HETATM   23  C17 UNL     1       0.844   0.291 -22.751  1.00  0.00     0.030 C
HETATM   24  C18 UNL     1       2.139  -0.407 -22.322  1.00  0.00     0.018 C
HETATM   25  C19 UNL     1       2.981   0.684 -21.645  1.00  0.00    -0.029 C
HETATM   26  C20 UNL     1       3.911  -0.045 -20.717  1.00  0.00     0.016 C
HETATM   27  C21 UNL     1       1.960   1.504 -20.965  1.00  0.00     0.027 C
HETATM   28  C25 UNL     1       0.595   1.114 -21.568  1.00  0.00     0.128 C
BRANCH  27  29
HETATM   29  C22 UNL     1       1.935   1.475 -19.472  1.00  0.00    -0.015 C
HETATM   30  C23 UNL     1       0.874   0.741 -18.784  1.00  0.00     0.010 C
HETATM   31  C24 UNL     1       1.957   2.908 -18.901  1.00  0.00     0.010 C
ENDBRANCH  27  29
BRANCH  28  32
HETATM   32  O4  UNL     1      -0.261   2.166 -21.617  1.00  0.00    -0.395 OA
ATOM     33  H4  UNL     1      -0.036   2.956 -22.094  1.00  0.00     0.210 HD
ENDBRANCH  28  32
ENDBRANCH  20  23
BRANCH  18  34
HETATM   34  O5  UNL     1       0.423   3.274 -24.460  1.00  0.00    -0.386 OA
ATOM     35  H5  UNL     1       0.052   3.629 -23.661  1.00  0.00     0.210 HD
ENDBRANCH  18  34
BRANCH  19  36
HETATM   36  N1  UNL     1       2.921   3.859 -25.433  1.00  0.00    -0.067 N
ATOM     37  H12 UNL     1       3.418   3.729 -26.314  1.00  0.00     0.277 HD
ATOM     38  H11 UNL     1       2.054   4.264 -25.783  1.00  0.00     0.277 HD
BRANCH  36  39
HETATM   39  C28 UNL     1       3.609   4.791 -24.603  1.00  0.00     0.232 C
BRANCH  39  40
HETATM   40  C29 UNL     1       4.162   4.042 -23.403  1.00  0.00     0.023 C
HETATM   41  C30 UNL     1       3.702   4.664 -22.106  1.00  0.00     0.007 C
ENDBRANCH  39  40
ENDBRANCH  36  39
ENDBRANCH  19  36
ENDBRANCH   5  12
TORSDOF 13
ENDMDL