MODEL 5
REMARK VINA RESULT: -6.209100786      5.468      7.727
REMARK  10 active torsions:
REMARK  status: ('A' for Active; 'I' for Inactive)
REMARK    1  A    between atoms: C4_4  and  C5_5
REMARK    2  A    between atoms: C5_5  and  C6_6
REMARK    3  A    between atoms: C6_6  and  C7_7
REMARK    4  A    between atoms: C9_9  and  O1_10
REMARK    5  A    between atoms: C11_13  and  O2_14
REMARK    6  A    between atoms: C17_22  and  N1_23
REMARK    7  A    between atoms: C20_26  and  C21_27
REMARK    8  A    between atoms: C21_27  and  O4_28
REMARK    9  A    between atoms: C23_31  and  C24_32
REMARK   10  A    between atoms: C24_32  and  O5_33
ROOT
HETATM    1  C7  UNL     1       0.275  -0.460 -25.801  1.00  0.00    -0.013 C
HETATM    2  C8  UNL     1      -1.096  -0.277 -26.352  1.00  0.00     0.018 C
HETATM    3  C9  UNL     1       0.450  -0.272 -24.341  1.00  0.00     0.129 C
HETATM    4  C10 UNL     1      -0.085   1.075 -23.860  1.00  0.00     0.074 C
HETATM    5  C11 UNL     1       1.025   2.009 -23.649  1.00  0.00     0.105 C
HETATM    6  C12 UNL     1       0.734   3.312 -24.323  1.00  0.00     0.058 C
HETATM    7  C13 UNL     1      -0.101   4.003 -23.227  1.00  0.00     0.178 C
HETATM    8  O3  UNL     1       0.291   3.501 -22.013  1.00  0.00    -0.368 OA
HETATM    9  C14 UNL     1       1.193   2.504 -22.201  1.00  0.00     0.128 C
HETATM   10  C15 UNL     1       2.538   3.167 -22.071  1.00  0.00     0.016 C
HETATM   11  C16 UNL     1       2.955   3.443 -20.847  1.00  0.00     0.012 C
HETATM   12  C17 UNL     1       2.076   3.086 -19.667  1.00  0.00     0.275 C
HETATM   13  C20 UNL     1       1.609   1.693 -19.976  1.00  0.00    -0.021 C
HETATM   14  C22 UNL     1       1.189   1.440 -21.205  1.00  0.00     0.025 C
HETATM   15  C23 UNL     1      -0.007   3.349 -25.580  1.00  0.00    -0.006 A
HETATM   16  C25 UNL     1       0.799   4.127 -26.674  1.00  0.00     0.019 A
HETATM   17  C26 UNL     1       0.330   2.646 -26.768  1.00  0.00     0.006 A
HETATM   18  C27 UNL     1       1.339   1.633 -26.934  1.00  0.00    -0.035 A
HETATM   19  C28 UNL     1       2.713   2.228 -27.367  1.00  0.00     0.016 C
HETATM   20  C29 UNL     1       1.025   0.493 -27.948  1.00  0.00     0.016 A
HETATM   21  C30 UNL     1       1.344   0.309 -26.527  1.00  0.00     0.005 A
ENDROOT
BRANCH   5  22
HETATM   22  O2  UNL     1       2.307   1.497 -23.874  1.00  0.00    -0.385 OA
ATOM     23  H2  UNL     1       2.856   1.998 -24.465  1.00  0.00     0.210 HD
ENDBRANCH   5  22
BRANCH  13  24
HETATM   24  C21 UNL     1       1.647   0.671 -18.900  1.00  0.00     0.200 C
BRANCH  24  25
HETATM   25  O4  UNL     1       0.346   0.387 -18.435  1.00  0.00    -0.397 OA
ATOM     26  H4  UNL     1       0.377  -0.046 -17.590  1.00  0.00     0.209 HD
ENDBRANCH  24  25
ENDBRANCH  13  24
BRANCH   3  27
HETATM   27  O1  UNL     1      -0.179  -1.195 -23.524  1.00  0.00    -0.395 OA
ATOM     28  H1  UNL     1       0.383  -1.696 -22.944  1.00  0.00     0.210 HD
ENDBRANCH   3  27
BRANCH  15  29
HETATM   29  C24 UNL     1      -1.426   3.968 -25.536  1.00  0.00     0.174 C
BRANCH  29  30
HETATM   30  O5  UNL     1      -2.411   2.994 -25.490  1.00  0.00    -0.400 OA
ATOM     31  H5  UNL     1      -2.505   2.629 -24.618  1.00  0.00     0.209 HD
ENDBRANCH  29  30
ENDBRANCH  15  29
BRANCH  12  32
HETATM   32  N1  UNL     1       2.770   3.174 -18.428  1.00  0.00     0.092 N
HETATM   33  C18 UNL     1       2.433   4.446 -17.796  1.00  0.00     0.310 C
HETATM   34  C19 UNL     1       4.209   3.085 -18.634  1.00  0.00     0.310 C
ENDBRANCH  12  32
BRANCH   1  35
HETATM   35  C6  UNL     1       0.616  -1.915 -26.153  1.00  0.00     0.016 C
BRANCH  35  36
HETATM   36  C5  UNL     1      -0.433  -2.861 -26.405  1.00  0.00     0.028 C
BRANCH  36  37
HETATM   37  C4  UNL     1      -0.569  -4.074 -25.563  1.00  0.00    -0.025 C
HETATM   38  C2  UNL     1      -1.394  -4.460 -24.659  1.00  0.00    -0.091 C
HETATM   39  C1  UNL     1      -1.183  -5.830 -24.002  1.00  0.00     0.042 C
HETATM   40  C3  UNL     1      -2.566  -3.730 -24.185  1.00  0.00     0.042 C
ENDBRANCH  36  37
ENDBRANCH  35  36
ENDBRANCH   1  35
TORSDOF 10
ENDMDL