MODEL 2
REMARK VINA RESULT: -6.619869877      3.426      6.542
REMARK  8 active torsions:
REMARK  status: ('A' for Active; 'I' for Inactive)
REMARK    1  A    between atoms: C2_2  and  C3_3
REMARK    2  A    between atoms: C2_2  and  C10_13
REMARK    3  A    between atoms: C3_3  and  C4_4
REMARK    4  A    between atoms: C4_4  and  O2_6
REMARK    5  A    between atoms: O2_6  and  C5_7
REMARK    6  A    between atoms: C22_25  and  C23_26
REMARK    7  A    between atoms: C22_25  and  C24_29
REMARK    8  A    between atoms: C27_34  and  O8_35
ROOT
HETATM    1  C10 UNL     1      -6.272   3.611 -24.242  1.00  0.00    -0.001 C
HETATM    2  C11 UNL     1      -6.519   5.123 -24.565  1.00  0.00     0.011 C
HETATM    3  C12 UNL     1      -7.480   4.935 -23.461  1.00  0.00     0.002 C
HETATM    4  C13 UNL     1      -8.473   5.773 -22.928  1.00  0.00     0.030 C
HETATM    5  C14 UNL     1      -9.601   4.981 -22.276  1.00  0.00    -0.006 C
HETATM    6  C15 UNL     1      -9.712   3.558 -22.692  1.00  0.00     0.006 C
HETATM    7  C16 UNL     1      -8.419   2.864 -22.981  1.00  0.00     0.010 C
HETATM    8  C17 UNL     1      -7.721   3.591 -24.112  1.00  0.00    -0.036 C
HETATM    9  C18 UNL     1      -8.439   3.412 -25.346  1.00  0.00     0.016 C
HETATM   10  C19 UNL     1     -10.867   5.792 -22.443  1.00  0.00     0.019 C
HETATM   11  C20 UNL     1     -10.637   6.834 -23.386  1.00  0.00     0.016 C
HETATM   12  C21 UNL     1     -11.143   6.413 -24.761  1.00  0.00     0.020 C
HETATM   13  C22 UNL     1     -10.987   8.237 -23.294  1.00  0.00     0.146 C
HETATM   14  C25 UNL     1     -10.016   8.828 -24.317  1.00  0.00     0.036 C
HETATM   15  C26 UNL     1      -8.969   7.722 -24.618  1.00  0.00     0.041 C
HETATM   16  C27 UNL     1      -9.096   6.960 -23.395  1.00  0.00     0.071 C
ENDROOT
BRANCH   1  17
HETATM   17  C2  UNL     1      -5.371   2.922 -25.135  1.00  0.00    -0.005 C
HETATM   18  C1  UNL     1      -5.104   3.768 -26.422  1.00  0.00     0.011 C
BRANCH  17  19
HETATM   19  C3  UNL     1      -5.622   1.499 -25.536  1.00  0.00     0.115 C
BRANCH  19  20
HETATM   20  C4  UNL     1      -4.413   0.981 -26.319  1.00  0.00     0.259 C
HETATM   21  O1  UNL     1      -4.565   0.494 -27.469  1.00  0.00    -0.265 OA
BRANCH  20  22
HETATM   22  O2  UNL     1      -3.153   1.040 -25.785  1.00  0.00    -0.316 OA
BRANCH  22  23
HETATM   23  C5  UNL     1      -2.244  -0.036 -25.713  1.00  0.00     0.136 C
HETATM   24  C6  UNL     1      -2.781  -1.205 -24.960  1.00  0.00     0.059 C
HETATM   25  C7  UNL     1      -1.815  -1.563 -23.847  1.00  0.00     0.170 C
HETATM   26  O3  UNL     1      -0.574  -1.766 -24.459  1.00  0.00    -0.391 OA
HETATM   27  C8  UNL     1      -0.009  -0.506 -24.639  1.00  0.00     0.170 C
HETATM   28  C9  UNL     1      -0.981   0.534 -25.085  1.00  0.00     0.059 C
ENDBRANCH  22  23
ENDBRANCH  20  22
ENDBRANCH  19  20
ENDBRANCH  17  19
ENDBRANCH   1  17
BRANCH  16  29
HETATM   29  O8  UNL     1      -8.800   8.043 -22.482  1.00  0.00    -0.389 OA
ATOM     30  H8  UNL     1      -8.562   7.682 -21.637  1.00  0.00     0.210 HD
ENDBRANCH  16  29
BRANCH  13  31
HETATM   31  C23 UNL     1     -11.046   8.937 -22.018  1.00  0.00     0.193 C
HETATM   32  O4  UNL     1     -11.458   8.415 -20.996  1.00  0.00    -0.647 OA
HETATM   33  O5  UNL     1     -10.614  10.257 -21.979  1.00  0.00    -0.647 OA
ENDBRANCH  13  31
BRANCH  13  34
HETATM   34  C24 UNL     1     -12.380   8.528 -23.830  1.00  0.00     0.193 C
HETATM   35  O6  UNL     1     -12.560   9.458 -24.629  1.00  0.00    -0.647 OA
HETATM   36  O7  UNL     1     -13.451   7.727 -23.410  1.00  0.00    -0.647 OA
ENDBRANCH  13  34
TORSDOF 8
ENDMDL