MODEL 5
REMARK VINA RESULT: -6.742217409      1.763      2.814
REMARK  9 active torsions:
REMARK  status: ('A' for Active; 'I' for Inactive)
REMARK    1  A    between atoms: C2_2  and  C4_4
REMARK    2  A    between atoms: C4_4  and  C5_6
REMARK    3  A    between atoms: C5_6  and  O2_7
REMARK    4  A    between atoms: C5_6  and  C6_9
REMARK    5  A    between atoms: C6_9  and  O3_10
REMARK    6  A    between atoms: C6_9  and  C7_12
REMARK    7  A    between atoms: C15_20  and  C16_21
REMARK    8  A    between atoms: C25_30  and  O4_31
REMARK    9  A    between atoms: C29_36  and  O5_37
ROOT
HETATM    1  C7  UNL     1       1.997  -1.683 -26.614  1.00  0.00     0.157 C
HETATM    2  C8  UNL     1       2.519  -3.025 -27.017  1.00  0.00     0.045 C
HETATM    3  C9  UNL     1       4.070  -3.030 -26.949  1.00  0.00    -0.025 C
HETATM    4  C10 UNL     1       4.371  -1.792 -27.781  1.00  0.00     0.016 C
HETATM    5  C11 UNL     1       4.718  -4.257 -27.405  1.00  0.00     0.009 C
HETATM    6  C12 UNL     1       5.481  -5.053 -26.387  1.00  0.00     0.020 C
HETATM    7  C13 UNL     1       6.601  -5.916 -26.879  1.00  0.00     0.013 C
HETATM    8  C14 UNL     1       6.469  -6.574 -28.181  1.00  0.00    -0.005 C
HETATM    9  C15 UNL     1       5.850  -7.935 -28.167  1.00  0.00    -0.007 C
HETATM   10  C19 UNL     1       5.011  -7.989 -29.453  1.00  0.00     0.006 C
HETATM   11  C20 UNL     1       4.409  -6.564 -29.380  1.00  0.00     0.006 C
HETATM   12  C21 UNL     1       5.621  -5.801 -29.089  1.00  0.00    -0.002 C
HETATM   13  C22 UNL     1       5.448  -4.322 -28.704  1.00  0.00    -0.039 C
HETATM   14  C23 UNL     1       6.842  -3.765 -28.729  1.00  0.00     0.015 C
HETATM   15  C24 UNL     1       4.730  -3.769 -29.910  1.00  0.00     0.015 C
HETATM   16  C25 UNL     1       6.094  -4.269 -25.259  1.00  0.00     0.123 C
HETATM   17  C26 UNL     1       5.617  -2.889 -25.073  1.00  0.00     0.046 C
HETATM   18  C27 UNL     1       4.197  -2.762 -25.446  1.00  0.00     0.016 C
HETATM   19  C28 UNL     1       3.326  -3.602 -24.586  1.00  0.00     0.021 C
HETATM   20  C29 UNL     1       3.734  -1.337 -25.099  1.00  0.00     0.266 C
HETATM   21  O6  UNL     1       2.447  -1.125 -25.475  1.00  0.00    -0.353 OA
ENDROOT
BRANCH   1  22
HETATM   22  C6  UNL     1       0.473  -1.843 -26.457  1.00  0.00     0.183 C
BRANCH  22  23
HETATM   23  C5  UNL     1       0.066  -3.279 -26.398  1.00  0.00     0.219 C
BRANCH  23  24
HETATM   24  C4  UNL     1      -0.463  -3.534 -25.031  1.00  0.00     0.161 C
HETATM   25  O1  UNL     1      -0.024  -2.904 -24.094  1.00  0.00    -0.295 OA
BRANCH  24  26
HETATM   26  C2  UNL     1      -1.524  -4.546 -24.788  1.00  0.00     0.050 C
HETATM   27  C1  UNL     1      -1.016  -5.628 -23.860  1.00  0.00     0.017 C
HETATM   28  C3  UNL     1      -2.757  -3.957 -24.189  1.00  0.00     0.017 C
ENDBRANCH  24  26
ENDBRANCH  23  24
BRANCH  23  29
HETATM   29  O2  UNL     1      -0.950  -3.515 -27.306  1.00  0.00    -0.385 OA
ATOM     30  H2  UNL     1      -1.311  -4.376 -27.130  1.00  0.00     0.210 HD
ENDBRANCH  23  29
ENDBRANCH  22  23
BRANCH  22  31
HETATM   31  O3  UNL     1      -0.169  -1.138 -27.466  1.00  0.00    -0.390 OA
ATOM     32  H3  UNL     1      -0.048  -0.198 -27.398  1.00  0.00     0.210 HD
ENDBRANCH  22  31
ENDBRANCH   1  22
BRANCH  20  33
HETATM   33  O5  UNL     1       3.693  -1.345 -23.669  1.00  0.00    -0.370 OA
ATOM     34  H5  UNL     1       3.212  -0.552 -23.460  1.00  0.00     0.212 HD
ENDBRANCH  20  33
BRANCH  16  35
HETATM   35  O4  UNL     1       5.948  -4.959 -24.029  1.00  0.00    -0.395 OA
ATOM     36  H4  UNL     1       5.883  -4.348 -23.305  1.00  0.00     0.210 HD
ENDBRANCH  16  35
BRANCH   9  37
HETATM   37  C16 UNL     1       6.811  -9.064 -28.124  1.00  0.00    -0.018 C
HETATM   38  C17 UNL     1       7.161  -9.672 -29.439  1.00  0.00     0.010 C
HETATM   39  C18 UNL     1       6.297 -10.182 -27.228  1.00  0.00     0.010 C
ENDBRANCH   9  37
TORSDOF 9
ENDMDL