MODEL 4
REMARK VINA RESULT: -6.078130919      3.263      6.243
REMARK  13 active torsions:
REMARK  status: ('A' for Active; 'I' for Inactive)
REMARK    1  A    between atoms: C2_2  and  C4_4
REMARK    2  A    between atoms: C6_6  and  C21_29
REMARK    3  A    between atoms: C8_8  and  C9_9
REMARK    4  A    between atoms: C16_17  and  C17_18
REMARK    5  A    between atoms: C17_18  and  N1_19
REMARK    6  A    between atoms: C17_18  and  C18_23
REMARK    7  A    between atoms: C18_23  and  O2_24
REMARK    8  A    between atoms: C22_30  and  O4_31
REMARK    9  A    between atoms: C22_30  and  C23_33
REMARK   10  A    between atoms: C23_33  and  C25_35
REMARK   11  A    between atoms: C25_35  and  C26_36
REMARK   12  A    between atoms: C27_37  and  C28_38
REMARK   13  A    between atoms: C28_38  and  O5_41
ROOT
HETATM    1  C9  UNL     1       1.033  -3.555 -23.914  1.00  0.00     0.170 A
HETATM    2  O1  UNL     1       0.967  -2.904 -22.829  1.00  0.00    -0.365 OA
HETATM    3  C10 UNL     1       0.668  -2.067 -23.762  1.00  0.00     0.126 A
HETATM    4  C11 UNL     1       1.678  -1.012 -23.621  1.00  0.00     0.065 C
HETATM    5  C12 UNL     1       2.420  -0.937 -24.919  1.00  0.00     0.004 C
HETATM    6  C13 UNL     1       2.793   0.507 -25.118  1.00  0.00     0.006 C
HETATM    7  C14 UNL     1       3.642   0.917 -23.979  1.00  0.00     0.011 C
HETATM    8  C15 UNL     1       3.307   0.479 -22.613  1.00  0.00     0.051 C
HETATM    9  C16 UNL     1       2.216   1.151 -21.893  1.00  0.00     0.162 C
HETATM   10  O3  UNL     1       1.821  -0.113 -21.396  1.00  0.00    -0.372 OA
HETATM   11  C19 UNL     1       2.495  -0.785 -22.451  1.00  0.00     0.071 C
HETATM   12  C20 UNL     1       3.274  -1.900 -21.802  1.00  0.00     0.047 C
HETATM   13  C21 UNL     1       1.405  -1.493 -25.843  1.00  0.00     0.041 C
HETATM   14  C22 UNL     1       0.106  -1.731 -25.028  1.00  0.00     0.100 C
ENDROOT
BRANCH  14  15
HETATM   15  O4  UNL     1      -0.555  -2.746 -25.771  1.00  0.00    -0.386 OA
ATOM     16  H4  UNL     1      -1.264  -2.497 -26.352  1.00  0.00     0.210 HD
ENDBRANCH  14  15
BRANCH  14  17
HETATM   17  C23 UNL     1      -0.844  -0.581 -25.159  1.00  0.00     0.023 C
HETATM   18  C24 UNL     1      -0.730   0.110 -26.501  1.00  0.00     0.013 C
BRANCH  17  19
HETATM   19  C25 UNL     1      -2.266  -1.127 -25.129  1.00  0.00     0.034 C
BRANCH  19  20
HETATM   20  C26 UNL     1      -3.237  -0.173 -25.703  1.00  0.00    -0.027 C
HETATM   21  C27 UNL     1      -4.206   0.409 -25.010  1.00  0.00     0.006 C
BRANCH  21  22
HETATM   22  C28 UNL     1      -5.174   1.356 -25.568  1.00  0.00     0.068 C
HETATM   23  C29 UNL     1      -6.287   1.536 -24.529  1.00  0.00     0.050 C
HETATM   24  C30 UNL     1      -4.524   2.706 -25.723  1.00  0.00     0.050 C
BRANCH  22  25
HETATM   25  O5  UNL     1      -5.699   0.958 -26.792  1.00  0.00    -0.387 OA
ATOM     26  H5  UNL     1      -5.243   0.220 -27.178  1.00  0.00     0.211 HD
ENDBRANCH  22  25
ENDBRANCH  21  22
ENDBRANCH  19  20
ENDBRANCH  17  19
ENDBRANCH  14  17
BRANCH  13  27
HETATM   27  C6  UNL     1       1.873  -2.878 -26.209  1.00  0.00    -0.009 A
HETATM   28  C5  UNL     1       2.912  -3.047 -27.203  1.00  0.00    -0.013 A
HETATM   29  C4  UNL     1       3.882  -3.570 -26.422  1.00  0.00    -0.072 A
HETATM   30  C8  UNL     1       2.911  -3.452 -25.290  1.00  0.00     0.059 A
HETATM   31  C7  UNL     1       0.671  -3.753 -26.508  1.00  0.00     0.021 C
BRANCH  29  32
HETATM   32  C2  UNL     1       5.273  -4.052 -26.561  1.00  0.00     0.007 C
HETATM   33  C1  UNL     1       5.366  -5.421 -25.916  1.00  0.00     0.014 C
HETATM   34  C3  UNL     1       6.195  -3.136 -25.766  1.00  0.00     0.014 C
ENDBRANCH  29  32
ENDBRANCH  13  27
BRANCH   9  35
HETATM   35  C17 UNL     1       2.455   2.170 -20.841  1.00  0.00     0.236 C
BRANCH  35  36
HETATM   36  N1  UNL     1       2.770   3.454 -21.534  1.00  0.00    -0.070 N
ATOM     37  H13 UNL     1       3.735   3.754 -21.401  1.00  0.00     0.274 HD
ATOM     38  H12 UNL     1       2.799   3.364 -22.550  1.00  0.00     0.274 HD
ATOM     39  H11 UNL     1       2.089   4.144 -21.214  1.00  0.00     0.274 HD
ENDBRANCH  35  36
BRANCH  35  40
HETATM   40  C18 UNL     1       1.368   2.457 -19.876  1.00  0.00     0.199 C
BRANCH  40  41
HETATM   41  O2  UNL     1       0.692   1.370 -19.367  1.00  0.00    -0.399 OA
ATOM     42  H2  UNL     1       0.141   0.889 -19.974  1.00  0.00     0.209 HD
ENDBRANCH  40  41
ENDBRANCH  35  40
ENDBRANCH   9  35
TORSDOF 13
ENDMDL