MODEL 3
REMARK VINA RESULT: -5.948457914      2.595      7.138
REMARK  9 active torsions:
REMARK  status: ('A' for Active; 'I' for Inactive)
REMARK    1  A    between atoms: O1_2  and  C2_3
REMARK    2  A    between atoms: C2_3  and  C3_4
REMARK    3  A    between atoms: C3_4  and  C4_5
REMARK    4  A    between atoms: C4_5  and  N1_6
REMARK    5  A    between atoms: N1_6  and  C5_9
REMARK    6  A    between atoms: C5_9  and  C7_11
REMARK    7  A    between atoms: C8_12  and  O2_13
REMARK    8  A    between atoms: C13_20  and  O4_21
REMARK    9  A    between atoms: C19_28  and  O5_29
ROOT
HETATM    1  C7  UNL     1     -10.121  10.169 -24.365  1.00  0.00     0.064 C
HETATM    2  C8  UNL     1     -11.314  11.000 -23.973  1.00  0.00     0.198 C
HETATM    3  C9  UNL     1     -12.543  10.229 -24.302  1.00  0.00     0.178 C
HETATM    4  O3  UNL     1     -13.573  10.609 -23.711  1.00  0.00    -0.290 OA
HETATM    5  C10 UNL     1     -12.670   9.100 -25.223  1.00  0.00     0.058 C
HETATM    6  C11 UNL     1     -11.812   8.075 -25.354  1.00  0.00    -0.045 C
HETATM    7  C12 UNL     1     -12.280   7.132 -26.396  1.00  0.00     0.046 C
HETATM    8  C13 UNL     1     -10.556   7.760 -24.678  1.00  0.00     0.093 C
HETATM    9  C14 UNL     1     -10.450   6.357 -24.242  1.00  0.00     0.034 C
HETATM   10  C15 UNL     1     -11.626   5.890 -23.466  1.00  0.00     0.009 C
HETATM   11  C16 UNL     1     -11.512   4.473 -22.963  1.00  0.00     0.006 C
HETATM   12  C17 UNL     1     -10.212   3.798 -23.350  1.00  0.00    -0.003 C
HETATM   13  C18 UNL     1     -10.229   2.447 -22.741  1.00  0.00     0.037 C
HETATM   14  C19 UNL     1      -8.941   1.716 -22.714  1.00  0.00     0.118 C
HETATM   15  C20 UNL     1      -7.890   2.547 -23.411  1.00  0.00     0.032 C
HETATM   16  C21 UNL     1      -7.801   3.941 -22.852  1.00  0.00     0.013 C
HETATM   17  C22 UNL     1      -9.093   4.705 -22.882  1.00  0.00    -0.033 C
HETATM   18  C23 UNL     1      -9.416   4.960 -21.401  1.00  0.00     0.016 C
HETATM   19  C24 UNL     1      -9.103   5.942 -23.722  1.00  0.00    -0.030 C
HETATM   20  C25 UNL     1      -8.239   5.682 -24.948  1.00  0.00     0.016 C
HETATM   21  C26 UNL     1      -8.407   7.037 -22.947  1.00  0.00     0.011 C
HETATM   22  C27 UNL     1      -8.568   8.407 -23.538  1.00  0.00     0.014 C
HETATM   23  C28 UNL     1     -10.046   8.809 -23.721  1.00  0.00    -0.000 C
HETATM   24  C29 UNL     1     -10.620   8.826 -22.365  1.00  0.00     0.019 C
ENDROOT
BRANCH   1  25
HETATM   25  C5  UNL     1      -8.861  10.935 -24.491  1.00  0.00     0.189 C
HETATM   26  C6  UNL     1      -8.636  12.143 -23.690  1.00  0.00     0.040 C
BRANCH  25  27
HETATM   27  N1  UNL     1      -8.757  11.395 -25.899  1.00  0.00    -0.071 N
ATOM     28  H12 UNL     1      -8.684  12.409 -25.973  1.00  0.00     0.277 HD
ATOM     29  H11 UNL     1      -9.631  11.277 -26.412  1.00  0.00     0.277 HD
BRANCH  27  30
HETATM   30  C4  UNL     1      -7.637  10.707 -26.541  1.00  0.00     0.235 C
BRANCH  30  31
HETATM   31  C3  UNL     1      -7.597  11.143 -27.981  1.00  0.00     0.054 C
BRANCH  31  32
HETATM   32  C2  UNL     1      -8.715  10.588 -28.795  1.00  0.00     0.168 C
BRANCH  32  33
HETATM   33  O1  UNL     1      -9.432   9.596 -28.136  1.00  0.00    -0.396 OA
HETATM   34  C1  UNL     1     -10.732   9.499 -28.677  1.00  0.00     0.201 C
ENDBRANCH  32  33
ENDBRANCH  31  32
ENDBRANCH  30  31
ENDBRANCH  27  30
ENDBRANCH  25  27
ENDBRANCH   1  25
BRANCH   2  35
HETATM   35  O2  UNL     1     -11.333  11.553 -22.745  1.00  0.00    -0.387 OA
ATOM     36  H2  UNL     1     -11.326  12.500 -22.676  1.00  0.00     0.210 HD
ENDBRANCH   2  35
BRANCH   8  37
HETATM   37  O4  UNL     1      -9.583   7.898 -25.732  1.00  0.00    -0.384 OA
ATOM     38  H4  UNL     1      -9.715   7.110 -26.246  1.00  0.00     0.211 HD
ENDBRANCH   8  37
BRANCH  14  39
HETATM   39  O5  UNL     1      -8.519   1.344 -21.432  1.00  0.00    -0.396 OA
ATOM     40  H5  UNL     1      -8.023   0.535 -21.405  1.00  0.00     0.210 HD
ENDBRANCH  14  39
TORSDOF 9
ENDMDL