MODEL 2
REMARK VINA RESULT: -6.801105598     11.679     16.458
REMARK  10 active torsions:
REMARK  status: ('A' for Active; 'I' for Inactive)
REMARK    1  A    between atoms: C2_2  and  C3_3
REMARK    2  A    between atoms: C3_3  and  C4_4
REMARK    3  A    between atoms: C4_4  and  C5_5
REMARK    4  A    between atoms: C4_4  and  C6_8
REMARK    5  A    between atoms: C5_5  and  O1_6
REMARK    6  A    between atoms: C6_8  and  C7_9
REMARK    7  A    between atoms: C7_9  and  C9_11
REMARK    8  A    between atoms: C22_25  and  O3_26
REMARK    9  A    between atoms: C22_25  and  O4_28
REMARK   10  A    between atoms: C27_34  and  O5_35
ROOT
HETATM    1  C9  UNL     1       3.900  -4.735 -28.657  1.00  0.00     0.127 C
HETATM    2  C10 UNL     1       3.772  -3.329 -29.120  1.00  0.00     0.050 C
HETATM    3  C11 UNL     1       3.826  -2.344 -27.968  1.00  0.00     0.032 C
HETATM    4  C12 UNL     1       3.536  -1.010 -28.616  1.00  0.00     0.024 C
HETATM    5  C13 UNL     1       5.275  -2.220 -27.477  1.00  0.00     0.137 C
HETATM    6  O2  UNL     1       6.055  -1.590 -28.131  1.00  0.00    -0.297 OA
HETATM    7  C14 UNL     1       5.801  -2.849 -26.205  1.00  0.00     0.090 C
HETATM    8  C15 UNL     1       4.908  -3.723 -25.459  1.00  0.00     0.044 C
HETATM    9  C16 UNL     1       4.235  -3.357 -24.208  1.00  0.00    -0.023 C
HETATM   10  C17 UNL     1       2.800  -3.523 -24.014  1.00  0.00    -0.022 C
HETATM   11  C18 UNL     1       1.753  -3.584 -25.000  1.00  0.00     0.048 C
HETATM   12  C19 UNL     1       0.419  -3.153 -24.344  1.00  0.00     0.010 C
HETATM   13  C20 UNL     1       0.279  -4.107 -23.140  1.00  0.00     0.011 C
HETATM   14  C21 UNL     1      -1.236  -4.356 -23.148  1.00  0.00     0.069 C
HETATM   15  C22 UNL     1      -1.396  -4.680 -24.642  1.00  0.00     0.167 C
HETATM   16  C23 UNL     1      -0.723  -3.423 -25.227  1.00  0.00     0.017 C
HETATM   17  C24 UNL     1      -1.773  -2.322 -24.979  1.00  0.00     0.021 C
HETATM   18  C25 UNL     1      -0.537  -3.563 -26.661  1.00  0.00     0.018 C
HETATM   19  C26 UNL     1       0.849  -3.650 -27.210  1.00  0.00     0.040 C
HETATM   20  C27 UNL     1       1.787  -2.851 -26.315  1.00  0.00     0.076 C
HETATM   21  C28 UNL     1       3.172  -2.672 -26.723  1.00  0.00     0.029 C
HETATM   22  C29 UNL     1       3.417  -1.365 -26.047  1.00  0.00     0.022 C
HETATM   23  C30 UNL     1       3.783  -3.969 -26.452  1.00  0.00     0.142 C
HETATM   24  O6  UNL     1       4.492  -4.647 -27.465  1.00  0.00    -0.379 OA
ENDROOT
BRANCH   1  25
HETATM   25  C7  UNL     1       4.764  -5.618 -29.577  1.00  0.00     0.011 C
HETATM   26  C8  UNL     1       4.601  -5.354 -31.020  1.00  0.00     0.012 C
BRANCH  25  27
HETATM   27  C6  UNL     1       4.755  -7.027 -29.116  1.00  0.00     0.014 C
BRANCH  27  28
HETATM   28  C4  UNL     1       6.014  -7.622 -28.586  1.00  0.00     0.013 C
BRANCH  28  29
HETATM   29  C3  UNL     1       5.700  -8.380 -27.258  1.00  0.00     0.033 C
BRANCH  29  30
HETATM   30  C2  UNL     1       5.700  -7.477 -26.118  1.00  0.00    -0.036 C
HETATM   31  C1  UNL     1       6.858  -6.933 -25.742  1.00  0.00     0.007 C
ENDBRANCH  29  30
ENDBRANCH  28  29
BRANCH  28  32
HETATM   32  C5  UNL     1       6.610  -8.739 -29.428  1.00  0.00     0.168 C
BRANCH  32  33
HETATM   33  O1  UNL     1       6.074  -8.662 -30.743  1.00  0.00    -0.400 OA
ATOM     34  H1  UNL     1       5.166  -8.942 -30.723  1.00  0.00     0.209 HD
ENDBRANCH  32  33
ENDBRANCH  28  32
ENDBRANCH  27  28
ENDBRANCH  25  27
ENDBRANCH   1  25
BRANCH  20  35
HETATM   35  O5  UNL     1       1.008  -1.661 -26.284  1.00  0.00    -0.388 OA
ATOM     36  H5  UNL     1       0.458  -1.574 -27.054  1.00  0.00     0.210 HD
ENDBRANCH  20  35
BRANCH  15  37
HETATM   37  O3  UNL     1      -0.702  -5.830 -24.896  1.00  0.00    -0.365 OA
ATOM     38  H3  UNL     1      -0.896  -6.094 -25.788  1.00  0.00     0.213 HD
ENDBRANCH  15  37
BRANCH  15  39
HETATM   39  O4  UNL     1      -2.739  -4.732 -24.991  1.00  0.00    -0.365 OA
ATOM     40  H4  UNL     1      -3.235  -5.219 -24.344  1.00  0.00     0.213 HD
ENDBRANCH  15  39
TORSDOF 10
ENDMDL