MODEL 1
REMARK VINA RESULT: -6.036017715      0.000      0.000
REMARK  9 active torsions:
REMARK  status: ('A' for Active; 'I' for Inactive)
REMARK    1  A    between atoms: C2_2  and  C3_3
REMARK    2  A    between atoms: C6_6  and  O1_7
REMARK    3  A    between atoms: C8_10  and  O2_11
REMARK    4  A    between atoms: C12_16  and  N1_17
REMARK    5  A    between atoms: N1_17  and  C13_20
REMARK    6  A    between atoms: C13_20  and  C14_21
REMARK    7  A    between atoms: C14_21  and  O3_22
REMARK    8  A    between atoms: C18_26  and  O4_27
REMARK    9  A    between atoms: C23_33  and  C24_34
ROOT
HETATM    1  C3  UNL     1       5.313  -1.009 -21.410  1.00  0.00    -0.032 C
HETATM    2  C4  UNL     1       6.861  -0.790 -21.290  1.00  0.00     0.016 C
HETATM    3  C5  UNL     1       5.187  -1.638 -22.737  1.00  0.00     0.041 C
HETATM    4  C6  UNL     1       3.987  -2.413 -23.098  1.00  0.00     0.121 C
HETATM    5  C7  UNL     1       3.064  -1.606 -24.023  1.00  0.00     0.070 C
HETATM    6  C8  UNL     1       1.864  -1.096 -23.317  1.00  0.00     0.072 C
HETATM    7  C9  UNL     1       0.651  -1.933 -23.655  1.00  0.00     0.044 C
HETATM    8  C10 UNL     1      -0.323  -1.132 -24.303  1.00  0.00    -0.003 C
HETATM    9  C11 UNL     1      -1.676  -1.585 -24.757  1.00  0.00     0.038 C
HETATM   10  C12 UNL     1      -2.180  -0.377 -25.531  1.00  0.00     0.193 C
HETATM   11  C16 UNL     1      -1.245   0.783 -25.693  1.00  0.00     0.047 C
HETATM   12  C17 UNL     1      -0.608   0.846 -27.070  1.00  0.00     0.015 C
HETATM   13  C18 UNL     1      -0.386   1.152 -24.565  1.00  0.00     0.068 C
HETATM   14  C19 UNL     1       1.110   0.882 -24.695  1.00  0.00     0.056 C
HETATM   15  C20 UNL     1       1.672   0.412 -23.424  1.00  0.00     0.025 C
HETATM   16  C21 UNL     1       0.433   0.530 -22.524  1.00  0.00     0.025 C
HETATM   17  C22 UNL     1      -0.615   0.076 -23.487  1.00  0.00     0.026 C
HETATM   18  C23 UNL     1       2.853   1.192 -22.923  1.00  0.00     0.002 C
HETATM   19  C27 UNL     1       3.447   0.772 -21.628  1.00  0.00     0.161 C
HETATM   20  O5  UNL     1       2.621   0.832 -20.674  1.00  0.00    -0.292 OA
HETATM   21  C28 UNL     1       4.731   0.316 -21.177  1.00  0.00     0.064 C
HETATM   22  C29 UNL     1       4.879   0.538 -19.633  1.00  0.00     0.019 C
ENDROOT
BRANCH  10  23
HETATM   23  N1  UNL     1      -3.481   0.006 -25.047  1.00  0.00    -0.069 N
ATOM     24  H12 UNL     1      -4.049  -0.810 -24.819  1.00  0.00     0.277 HD
ATOM     25  H11 UNL     1      -3.425   0.424 -24.118  1.00  0.00     0.277 HD
BRANCH  23  26
HETATM   26  C13 UNL     1      -4.160   0.878 -25.977  1.00  0.00     0.258 C
BRANCH  26  27
HETATM   27  C14 UNL     1      -5.373   1.563 -25.436  1.00  0.00     0.194 C
BRANCH  27  28
HETATM   28  O3  UNL     1      -5.915   0.917 -24.367  1.00  0.00    -0.394 OA
HETATM   29  C15 UNL     1      -7.031   1.485 -23.842  1.00  0.00     0.201 C
ENDBRANCH  27  28
ENDBRANCH  26  27
ENDBRANCH  23  26
ENDBRANCH  10  23
BRANCH  13  30
HETATM   30  O4  UNL     1      -0.662   2.351 -23.950  1.00  0.00    -0.389 OA
ATOM     31  H4  UNL     1      -0.516   2.390 -23.013  1.00  0.00     0.210 HD
ENDBRANCH  13  30
BRANCH   6  32
HETATM   32  O2  UNL     1       2.029  -1.382 -21.972  1.00  0.00    -0.389 OA
ATOM     33  H2  UNL     1       1.218  -1.150 -21.535  1.00  0.00     0.210 HD
ENDBRANCH   6  32
BRANCH  18  34
HETATM   34  C24 UNL     1       3.566   2.180 -23.732  1.00  0.00    -0.077 C
HETATM   35  C25 UNL     1       3.873   3.560 -23.189  1.00  0.00     0.043 C
HETATM   36  C26 UNL     1       4.737   1.878 -24.553  1.00  0.00     0.043 C
ENDBRANCH  18  34
BRANCH   4  37
HETATM   37  O1  UNL     1       4.309  -3.576 -23.845  1.00  0.00    -0.395 OA
ATOM     38  H1  UNL     1       4.221  -3.435 -24.780  1.00  0.00     0.210 HD
ENDBRANCH   4  37
BRANCH   1  39
HETATM   39  C2  UNL     1       5.124  -1.982 -20.229  1.00  0.00     0.005 C
HETATM   40  C1  UNL     1       6.361  -2.843 -20.097  1.00  0.00     0.006 C
ENDBRANCH   1  39
TORSDOF 9
ENDMDL