MODEL 2
REMARK VINA RESULT: -7.988317644      0.755      1.240
REMARK  7 active torsions:
REMARK  status: ('A' for Active; 'I' for Inactive)
REMARK    1  A    between atoms: N1_1  and  S1_4
REMARK    2  A    between atoms: S1_4  and  C1_7
REMARK    3  A    between atoms: C4_10  and  N2_11
REMARK    4  A    between atoms: C5_13  and  C6_14
REMARK    5  A    between atoms: C6_14  and  C7_15
REMARK    6  A    between atoms: C6_14  and  C14_26
REMARK    7  A    between atoms: C19_33  and  S2_34
ROOT
HETATM    1  C6  UNL     1      -3.191   1.087 -26.631  1.00  0.00     0.092 C
ENDROOT
BRANCH   1   2
HETATM    2  C5  UNL     1      -4.306   1.938 -26.097  1.00  0.00     0.075 C
HETATM    3  N2  UNL     1      -5.153   1.498 -25.249  1.00  0.00    -0.369 N
ATOM      4  H2  UNL     1      -5.041   0.531 -24.944  1.00  0.00     0.165 HD
BRANCH   3   5
HETATM    5  C4  UNL     1      -6.218   2.215 -24.700  1.00  0.00     0.031 A
HETATM    6  C3  UNL     1      -7.052   1.602 -23.795  1.00  0.00     0.031 A
HETATM    7  C2  UNL     1      -8.128   2.280 -23.221  1.00  0.00     0.027 A
HETATM    8  C1  UNL     1      -8.389   3.594 -23.545  1.00  0.00     0.079 A
HETATM    9  C23 UNL     1      -7.545   4.203 -24.456  1.00  0.00     0.027 A
HETATM   10  C22 UNL     1      -6.482   3.531 -25.022  1.00  0.00     0.031 A
BRANCH   8  11
HETATM   11  S1  UNL     1      -9.735   4.433 -22.825  1.00  0.00     0.256 S
HETATM   12  O1  UNL     1      -9.357   5.835 -22.404  1.00  0.00    -0.201 OA
HETATM   13  O2  UNL     1     -10.277   3.734 -21.613  1.00  0.00    -0.201 OA
BRANCH  11  14
HETATM   14  N1  UNL     1     -11.044   4.600 -23.955  1.00  0.00    -0.324 N
ATOM     15  H12 UNL     1     -11.507   5.471 -24.215  1.00  0.00     0.169 HD
ATOM     16  H11 UNL     1     -11.248   3.661 -24.297  1.00  0.00     0.169 HD
ENDBRANCH  11  14
ENDBRANCH   8  11
ENDBRANCH   3   5
ENDBRANCH   1   2
BRANCH   1  17
HETATM   17  C7  UNL     1      -2.687   1.896 -27.812  1.00  0.00    -0.042 A
HETATM   18  C8  UNL     1      -1.392   1.803 -28.256  1.00  0.00     0.010 A
HETATM   19  C9  UNL     1      -0.977   2.562 -29.338  1.00  0.00     0.032 A
HETATM   20  C10 UNL     1      -1.834   3.421 -29.999  1.00  0.00     0.060 A
HETATM   21  N3  UNL     1      -1.713   4.256 -31.047  1.00  0.00    -0.351 N
HETATM   22  C12 UNL     1      -3.120   3.514 -29.559  1.00  0.00     0.060 A
HETATM   23  C11 UNL     1      -2.894   4.876 -31.283  1.00  0.00     0.181 A
ATOM     24  H3  UNL     1      -0.858   4.401 -31.585  1.00  0.00     0.166 HD
HETATM   25  N4  UNL     1      -3.741   4.405 -30.357  1.00  0.00    -0.350 N
ATOM     26  H4  UNL     1      -4.719   4.682 -30.270  1.00  0.00     0.166 HD
HETATM   27  C13 UNL     1      -3.533   2.759 -28.481  1.00  0.00     0.040 A
ENDBRANCH   1  17
BRANCH   1  28
HETATM   28  C14 UNL     1      -2.048   0.971 -25.698  1.00  0.00    -0.017 A
HETATM   29  C15 UNL     1      -1.360   2.066 -25.178  1.00  0.00     0.097 A
HETATM   30  N5  UNL     1      -0.420   1.571 -24.371  1.00  0.00    -0.365 N
HETATM   31  C16 UNL     1      -0.473   0.229 -24.351  1.00  0.00     0.043 A
ATOM     32  H5  UNL     1       0.247   2.134 -23.842  1.00  0.00     0.165 HD
HETATM   33  C17 UNL     1       0.278  -0.736 -23.685  1.00  0.00     0.032 A
HETATM   34  C21 UNL     1      -1.507  -0.189 -25.192  1.00  0.00     0.001 A
HETATM   35  C18 UNL     1       0.025  -2.078 -23.839  1.00  0.00     0.028 A
HETATM   36  C19 UNL     1      -1.010  -2.474 -24.683  1.00  0.00     0.081 A
HETATM   37  C20 UNL     1      -1.767  -1.542 -25.352  1.00  0.00     0.040 A
BRANCH  36  38
HETATM   38  S2  UNL     1      -1.295  -4.189 -24.848  1.00  0.00     0.137 S
HETATM   39  O3  UNL     1      -0.902  -4.597 -26.232  1.00  0.00    -0.591 OA
HETATM   40  O4  UNL     1      -2.759  -4.485 -24.596  1.00  0.00    -0.591 OA
HETATM   41  O5  UNL     1      -0.419  -5.028 -23.678  1.00  0.00    -0.591 OA
ENDBRANCH  36  38
ENDBRANCH   1  28
TORSDOF 7
ENDMDL