MODEL 1
REMARK VINA RESULT: -8.045046117      0.000      0.000
REMARK  8 active torsions:
REMARK  status: ('A' for Active; 'I' for Inactive)
REMARK    1  A    between atoms: C5_5  and  N1_6
REMARK    2  A    between atoms: C9_12  and  C10_13
REMARK       I    between atoms: C10_13  and  N3_15
REMARK    3  A    between atoms: N3_15  and  C11_17
REMARK    4  A    between atoms: C11_17  and  C12_18
REMARK    5  A    between atoms: C12_18  and  C13_19
REMARK    6  A    between atoms: C13_19  and  N4_20
REMARK    7  A    between atoms: C18_27  and  N5_28
REMARK    8  A    between atoms: C22_36  and  N7_37
ROOT
HETATM    1  N1  UNL     1      19.306 -13.197  -2.743  1.00  0.00    -0.323 N
HETATM    2  C6  UNL     1      19.453 -13.616  -4.001  1.00  0.00     0.185 A
HETATM    3  N2  UNL     1      20.030 -12.657  -4.750  1.00  0.00    -0.349 N
ATOM      4  H2  UNL     1      20.252 -12.730  -5.742  1.00  0.00     0.166 HD
HETATM    5  C7  UNL     1      20.269 -11.577  -3.965  1.00  0.00     0.079 A
HETATM    6  C8  UNL     1      20.827 -10.333  -4.169  1.00  0.00     0.054 A
HETATM    7  C9  UNL     1      20.919  -9.465  -3.109  1.00  0.00     0.077 A
HETATM    8  C18 UNL     1      20.442  -9.870  -1.854  1.00  0.00     0.116 A
HETATM    9  N6  UNL     1      19.902 -11.085  -1.688  1.00  0.00    -0.326 N
ATOM     10  H6  UNL     1      19.560 -11.360  -0.767  1.00  0.00     0.169 HD
HETATM   11  C19 UNL     1      19.804 -11.952  -2.714  1.00  0.00     0.137 A
ENDROOT
BRANCH   7  12
HETATM   12  C10 UNL     1      21.496  -8.122  -3.223  1.00  0.00     0.255 C
HETATM   13  O1  UNL     1      22.707  -7.935  -2.935  1.00  0.00    -0.268 OA
HETATM   14  N3  UNL     1      20.730  -7.015  -3.640  1.00  0.00    -0.356 N
ATOM     15  H3  UNL     1      19.748  -7.147  -3.882  1.00  0.00     0.162 HD
BRANCH  14  16
HETATM   16  C11 UNL     1      21.316  -5.695  -3.731  1.00  0.00     0.128 C
BRANCH  16  17
HETATM   17  C12 UNL     1      20.402  -4.565  -3.512  1.00  0.00     0.064 C
BRANCH  17  18
HETATM   18  C13 UNL     1      19.684  -4.044  -4.714  1.00  0.00     0.065 C
BRANCH  18  19
HETATM   19  N4  UNL     1      18.337  -4.393  -4.875  1.00  0.00    -0.368 N
HETATM   20  C14 UNL     1      17.543  -3.404  -5.511  1.00  0.00     0.133 C
HETATM   21  C15 UNL     1      16.313  -3.209  -4.638  1.00  0.00     0.105 C
HETATM   22  C16 UNL     1      16.415  -4.183  -3.512  1.00  0.00     0.277 C
HETATM   23  F1  UNL     1      16.650  -3.556  -2.300  1.00  0.00    -0.200 F
HETATM   24  F2  UNL     1      15.307  -5.012  -3.449  1.00  0.00    -0.200 F
HETATM   25  C17 UNL     1      17.610  -5.042  -3.874  1.00  0.00     0.141 C
ENDBRANCH  18  19
ENDBRANCH  17  18
ENDBRANCH  16  17
ENDBRANCH  14  16
ENDBRANCH   7  12
BRANCH   8  26
HETATM   26  N5  UNL     1      20.561  -9.012  -0.898  1.00  0.00    -0.385 N
ATOM     27  H52 UNL     1      21.152  -8.183  -0.961  1.00  0.00     0.157 HD
ATOM     28  H51 UNL     1      20.022  -9.202  -0.054  1.00  0.00     0.157 HD
ENDBRANCH   8  26
BRANCH   1  29
HETATM   29  C5  UNL     1      18.741 -13.889  -1.650  1.00  0.00     0.093 C
HETATM   30  C4  UNL     1      18.704 -15.330  -1.603  1.00  0.00     0.036 C
HETATM   31  C2  UNL     1      17.408 -16.062  -1.770  1.00  0.00    -0.015 C
HETATM   32  C1  UNL     1      17.723 -17.501  -1.293  1.00  0.00     0.017 C
HETATM   33  C3  UNL     1      16.934 -16.160  -3.197  1.00  0.00     0.017 C
HETATM   34  C22 UNL     1      16.368 -15.517  -0.821  1.00  0.00     0.230 C
HETATM   35  C21 UNL     1      16.630 -14.143  -0.323  1.00  0.00     0.038 C
HETATM   36  C20 UNL     1      17.322 -13.368  -1.432  1.00  0.00     0.028 C
BRANCH  34  37
HETATM   37  N7  UNL     1      15.991 -16.480   0.153  1.00  0.00     0.093 N
HETATM   38  C23 UNL     1      16.030 -16.148   1.516  1.00  0.00     0.273 C
HETATM   39  C24 UNL     1      14.682 -15.592   1.912  1.00  0.00     0.032 C
HETATM   40  C25 UNL     1      13.746 -16.200   0.914  1.00  0.00     0.032 C
HETATM   41  C26 UNL     1      14.628 -16.978  -0.039  1.00  0.00     0.273 C
ENDBRANCH  34  37
ENDBRANCH   1  29
TORSDOF 8
ENDMDL