MODEL 5
REMARK VINA RESULT: -6.781879515      3.198      4.038
REMARK  10 active torsions:
REMARK  status: ('A' for Active; 'I' for Inactive)
REMARK    1  A    between atoms: C2_2  and  C3_3
REMARK    2  A    between atoms: C3_3  and  O1_4
REMARK    3  A    between atoms: C6_8  and  O2_9
REMARK    4  A    between atoms: O2_9  and  C7_10
REMARK    5  A    between atoms: C7_10  and  C8_15
REMARK    6  A    between atoms: N1_11  and  O3_13
REMARK    7  A    between atoms: N2_18  and  C11_19
REMARK    8  A    between atoms: C11_19  and  C12_20
REMARK    9  A    between atoms: C12_20  and  C13_21
REMARK   10  A    between atoms: C13_21  and  N3_22
ROOT
HETATM    1  C8  UNL     1      15.432  -3.320  -4.491  1.00  0.00     0.065 C
HETATM    2  C9  UNL     1      16.273  -3.894  -5.593  1.00  0.00     0.043 C
HETATM    3  C10 UNL     1      16.418  -5.389  -5.318  1.00  0.00     0.273 C
HETATM    4  N2  UNL     1      17.231  -5.600  -4.160  1.00  0.00     0.088 N
HETATM    5  C17 UNL     1      17.391  -4.425  -3.349  1.00  0.00     0.273 C
HETATM    6  C18 UNL     1      16.103  -3.660  -3.174  1.00  0.00     0.043 C
ENDROOT
BRANCH   1   7
HETATM    7  C7  UNL     1      15.191  -1.883  -4.642  1.00  0.00     0.142 C
HETATM    8  N1  UNL     1      14.848  -1.134  -3.687  1.00  0.00    -0.251 N
ATOM      9  H1  UNL     1      14.722  -0.160  -3.965  1.00  0.00     0.196 HD
BRANCH   7  10
HETATM   10  O2  UNL     1      15.328  -1.240  -5.883  1.00  0.00    -0.332 OA
BRANCH  10  11
HETATM   11  C6  UNL     1      16.284  -0.312  -6.235  1.00  0.00     0.130 C
HETATM   12  C5  UNL     1      15.849   0.934  -6.911  1.00  0.00     0.035 C
HETATM   13  C4  UNL     1      17.106   1.793  -7.144  1.00  0.00     0.040 C
HETATM   14  C3  UNL     1      18.103   1.106  -8.033  1.00  0.00     0.058 C
HETATM   15  C20 UNL     1      18.471  -0.198  -7.383  1.00  0.00     0.040 C
HETATM   16  C19 UNL     1      17.233  -1.029  -7.218  1.00  0.00     0.035 C
BRANCH  14  17
HETATM   17  C2  UNL     1      17.626   0.966  -9.447  1.00  0.00     0.033 C
HETATM   18  C1  UNL     1      18.727   0.564 -10.391  1.00  0.00     0.008 C
ENDBRANCH  14  17
BRANCH  14  19
HETATM   19  O1  UNL     1      19.246   1.901  -8.050  1.00  0.00    -0.390 OA
ATOM     20  H1  UNL     1      19.300   2.344  -7.211  1.00  0.00     0.210 HD
ENDBRANCH  14  19
ENDBRANCH  10  11
ENDBRANCH   7  10
BRANCH   8  21
HETATM   21  O3  UNL     1      14.617  -1.346  -2.394  1.00  0.00    -0.288 OA
ATOM     22  H3  UNL     1      13.880  -1.163  -1.823  1.00  0.00     0.244 HD
ENDBRANCH   8  21
ENDBRANCH   1   7
BRANCH   4  23
HETATM   23  C11 UNL     1      18.511  -6.119  -4.554  1.00  0.00     0.274 C
BRANCH  23  24
HETATM   24  C12 UNL     1      18.805  -7.343  -3.687  1.00  0.00     0.050 C
BRANCH  24  25
HETATM   25  C13 UNL     1      19.928  -6.922  -2.736  1.00  0.00     0.134 C
BRANCH  25  26
HETATM   26  N3  UNL     1      20.750  -8.059  -2.398  1.00  0.00    -0.280 N
HETATM   27  C14 UNL     1      20.355  -8.982  -1.402  1.00  0.00     0.330 C
HETATM   28  O4  UNL     1      19.154  -9.025  -1.033  1.00  0.00    -0.247 OA
HETATM   29  N4  UNL     1      21.368  -9.833  -0.858  1.00  0.00    -0.261 N
HETATM   30  C15 UNL     1      22.711  -9.736  -1.317  1.00  0.00     0.327 C
ATOM     31  H4  UNL     1      21.126 -10.513  -0.137  1.00  0.00     0.175 HD
HETATM   32  O5  UNL     1      23.609 -10.483  -0.843  1.00  0.00    -0.247 OA
HETATM   33  N5  UNL     1      23.038  -8.795  -2.313  1.00  0.00    -0.289 N
HETATM   34  C16 UNL     1      21.997  -8.220  -3.120  1.00  0.00     0.276 C
ATOM     35  H5  UNL     1      24.010  -8.523  -2.461  1.00  0.00     0.169 HD
HETATM   36 CL1  UNL     1      22.560  -6.672  -3.808  1.00  0.00    -0.054 Cl
HETATM   37 CL2  UNL     1      21.667  -9.389  -4.442  1.00  0.00    -0.054 Cl
ENDBRANCH  25  26
ENDBRANCH  24  25
ENDBRANCH  23  24
ENDBRANCH   4  23
TORSDOF 10
ENDMDL