MODEL 2
REMARK VINA RESULT: -5.618282743      4.911     10.846
REMARK  8 active torsions:
REMARK  status: ('A' for Active; 'I' for Inactive)
REMARK    1  A    between atoms: N1_2  and  C2_5
REMARK    2  A    between atoms: C2_5  and  C3_6
REMARK    3  A    between atoms: C3_6  and  C4_7
REMARK    4  A    between atoms: C13_18  and  C14_19
REMARK    5  A    between atoms: C14_19  and  C15_21
REMARK    6  A    between atoms: C15_21  and  N2_22
REMARK    7  A    between atoms: C18_30  and  C19_31
REMARK    8  A    between atoms: C22_34  and  N4_35
ROOT
HETATM    1  C4  UNL     1      18.241  -5.339  -4.537  1.00  0.00     0.122 C
HETATM    2  C5  UNL     1      19.637  -5.073  -4.997  1.00  0.00     0.032 C
HETATM    3  C6  UNL     1      19.947  -3.692  -5.424  1.00  0.00     0.008 C
HETATM    4  C7  UNL     1      21.359  -3.286  -4.988  1.00  0.00     0.079 C
HETATM    5  C8  UNL     1      22.422  -3.843  -5.885  1.00  0.00     0.243 C
HETATM    6  F1  UNL     1      21.976  -4.542  -6.960  1.00  0.00    -0.206 F
HETATM    7  F2  UNL     1      23.146  -2.751  -6.379  1.00  0.00    -0.206 F
HETATM    8  C9  UNL     1      23.393  -4.738  -5.100  1.00  0.00     0.079 C
HETATM    9  C10 UNL     1      24.223  -5.604  -5.996  1.00  0.00     0.006 C
HETATM   10  C11 UNL     1      24.736  -6.856  -5.348  1.00  0.00     0.003 C
HETATM   11  C12 UNL     1      24.631  -6.812  -3.839  1.00  0.00     0.033 C
HETATM   12  C13 UNL     1      25.646  -7.696  -3.149  1.00  0.00     0.158 C
HETATM   13  N3  UNL     1      25.104  -8.883  -2.535  1.00  0.00    -0.344 N
HETATM   14  C16 UNL     1      26.168  -9.751  -1.962  1.00  0.00     0.153 C
HETATM   15  C17 UNL     1      23.791  -9.301  -2.390  1.00  0.00     0.226 C
HETATM   16  O2  UNL     1      23.408  -9.418  -1.156  1.00  0.00    -0.273 OA
HETATM   17  C18 UNL     1      22.732  -9.643  -3.364  1.00  0.00     0.103 C
HETATM   18  C22 UNL     1      21.362  -9.609  -2.789  1.00  0.00     0.089 C
HETATM   19  C24 UNL     1      20.784  -8.189  -2.836  1.00  0.00     0.028 C
HETATM   20  C25 UNL     1      19.301  -8.219  -2.713  1.00  0.00     0.028 C
HETATM   21  C26 UNL     1      18.760  -6.805  -2.784  1.00  0.00     0.168 C
HETATM   22  O3  UNL     1      18.094  -6.583  -3.942  1.00  0.00    -0.386 OA
ENDROOT
BRANCH  12  23
HETATM   23  C14 UNL     1      26.375  -6.795  -2.233  1.00  0.00     0.174 C
HETATM   24  O1  UNL     1      25.746  -6.352  -1.271  1.00  0.00    -0.294 OA
BRANCH  23  25
HETATM   25  C15 UNL     1      27.776  -6.404  -2.386  1.00  0.00     0.309 C
BRANCH  25  26
HETATM   26  N2  UNL     1      28.529  -6.608  -1.143  1.00  0.00    -0.073 N
ATOM     27  H23 UNL     1      29.399  -6.075  -1.141  1.00  0.00     0.274 HD
ATOM     28  H22 UNL     1      28.069  -6.161  -0.350  1.00  0.00     0.274 HD
ATOM     29  H21 UNL     1      28.697  -7.598  -0.967  1.00  0.00     0.274 HD
ENDBRANCH  25  26
ENDBRANCH  23  25
ENDBRANCH  12  23
BRANCH  17  30
HETATM   30  C19 UNL     1      22.945 -10.964  -4.071  1.00  0.00    -0.008 C
HETATM   31  C20 UNL     1      24.093 -10.876  -5.064  1.00  0.00     0.010 C
HETATM   32  C21 UNL     1      21.693 -11.253  -4.899  1.00  0.00     0.010 C
ENDBRANCH  17  30
BRANCH  18  33
HETATM   33  N4  UNL     1      21.088 -10.223  -1.563  1.00  0.00    -0.420 N
HETATM   34  C23 UNL     1      20.242 -11.340  -1.467  1.00  0.00     0.140 C
ATOM     35  H4  UNL     1      21.514  -9.849  -0.714  1.00  0.00     0.153 HD
ENDBRANCH  18  33
BRANCH   1  36
HETATM   36  C3  UNL     1      17.521  -4.233  -3.882  1.00  0.00     0.059 C
BRANCH  36  37
HETATM   37  C2  UNL     1      16.083  -4.364  -3.616  1.00  0.00     0.234 C
BRANCH  37  38
HETATM   38  N1  UNL     1      15.478  -5.155  -4.700  1.00  0.00    -0.079 N
HETATM   39  C1  UNL     1      14.703  -4.366  -5.604  1.00  0.00     0.266 C
ATOM     40  H12 UNL     1      14.925  -5.925  -4.323  1.00  0.00     0.276 HD
ATOM     41  H11 UNL     1      16.188  -5.690  -5.200  1.00  0.00     0.276 HD
ENDBRANCH  37  38
ENDBRANCH  36  37
ENDBRANCH   1  36
TORSDOF 8
ENDMDL