MODEL 2
REMARK VINA RESULT: -7.110692695      4.436      7.974
REMARK  11 active torsions:
REMARK  status: ('A' for Active; 'I' for Inactive)
REMARK    1  A    between atoms: O1_2  and  C2_3
REMARK    2  A    between atoms: C5_6  and  C6_7
REMARK    3  A    between atoms: C6_7  and  N1_8
REMARK    4  A    between atoms: N1_8  and  C7_10
REMARK    5  A    between atoms: C8_13  and  O2_14
REMARK    6  A    between atoms: O2_14  and  C9_15
REMARK    7  A    between atoms: C9_15  and  C10_16
REMARK    8  A    between atoms: N4_18  and  C11_20
REMARK    9  A    between atoms: C17_30  and  N6_31
REMARK   10  A    between atoms: N6_31  and  C18_33
REMARK   11  A    between atoms: C23_40  and  O3_41
ROOT
HETATM    1  C7  UNL     1      17.917  -5.475  -3.670  1.00  0.00     0.696 A
HETATM    2  N2  UNL     1      18.388  -6.639  -3.170  1.00  0.00    -0.154 N
ATOM      3  H2  UNL     1      17.723  -7.344  -2.854  1.00  0.00     0.188 HD
HETATM    4  C8  UNL     1      19.705  -6.897  -3.076  1.00  0.00     0.252 A
HETATM    5  N5  UNL     1      20.560  -5.956  -3.498  1.00  0.00    -0.154 N
ATOM      6  H5  UNL     1      21.563  -6.131  -3.437  1.00  0.00     0.188 HD
HETATM    7  C17 UNL     1      20.119  -4.768  -4.009  1.00  0.00     0.696 A
HETATM    8  N7  UNL     1      18.814  -4.533  -4.092  1.00  0.00    -0.022 N
ATOM      9  H7  UNL     1      18.480  -3.648  -4.472  1.00  0.00     0.203 HD
ENDROOT
BRANCH   4  10
HETATM   10  O2  UNL     1      20.101  -8.096  -2.560  1.00  0.00    -0.314 OA
BRANCH  10  11
HETATM   11  C9  UNL     1      19.710  -8.598  -1.298  1.00  0.00     0.251 C
BRANCH  11  12
HETATM   12  C10 UNL     1      19.445 -10.034  -1.481  1.00  0.00     0.114 C
HETATM   13  N3  UNL     1      20.126 -10.734  -2.484  1.00  0.00    -0.086 NA
HETATM   14  N4  UNL     1      18.609 -10.616  -0.729  1.00  0.00    -0.371 N
ATOM     15  H4  UNL     1      18.166 -10.024  -0.028  1.00  0.00     0.161 HD
BRANCH  14  16
HETATM   16  C11 UNL     1      18.200 -11.980  -0.723  1.00  0.00     0.033 C
HETATM   17  C12 UNL     1      17.742 -12.372   0.682  1.00  0.00     0.038 C
HETATM   18  C13 UNL     1      17.143 -12.277  -1.726  1.00  0.00     0.036 C
HETATM   19  C14 UNL     1      17.404 -13.693  -2.150  1.00  0.00     0.081 C
HETATM   20  C15 UNL     1      18.866 -13.963  -1.910  1.00  0.00     0.246 C
HETATM   21  F1  UNL     1      19.094 -15.168  -1.296  1.00  0.00    -0.206 F
HETATM   22  F2  UNL     1      19.502 -13.907  -3.135  1.00  0.00    -0.206 F
HETATM   23  C16 UNL     1      19.383 -12.853  -1.057  1.00  0.00     0.109 C
ENDBRANCH  14  16
ENDBRANCH  11  12
ENDBRANCH  10  11
ENDBRANCH   4  10
BRANCH   1  24
HETATM   24  N1  UNL     1      16.644  -5.307  -3.725  1.00  0.00    -0.221 N
ATOM     25  H1  UNL     1      16.045  -6.010  -4.155  1.00  0.00     0.178 HD
BRANCH  24  26
HETATM   26  C6  UNL     1      16.079  -4.100  -3.164  1.00  0.00     0.176 C
BRANCH  26  27
HETATM   27  C5  UNL     1      15.532  -3.206  -4.223  1.00  0.00    -0.037 A
HETATM   28  C4  UNL     1      15.380  -1.843  -4.054  1.00  0.00     0.012 A
HETATM   29  C3  UNL     1      14.869  -1.045  -5.065  1.00  0.00     0.040 A
HETATM   30  C2  UNL     1      14.496  -1.596  -6.274  1.00  0.00     0.101 A
HETATM   31  C23 UNL     1      14.638  -2.952  -6.467  1.00  0.00     0.102 A
HETATM   32  C22 UNL     1      15.148  -3.718  -5.445  1.00  0.00     0.048 A
BRANCH  30  33
HETATM   33  O1  UNL     1      13.985  -0.760  -7.267  1.00  0.00    -0.353 OA
HETATM   34  C1  UNL     1      13.499   0.533  -6.962  1.00  0.00     0.210 C
ENDBRANCH  30  33
BRANCH  31  35
HETATM   35  O3  UNL     1      14.267  -3.503  -7.672  1.00  0.00    -0.353 OA
HETATM   36  C24 UNL     1      15.010  -4.431  -8.403  1.00  0.00     0.210 C
ENDBRANCH  31  35
ENDBRANCH  26  27
ENDBRANCH  24  26
ENDBRANCH   1  24
BRANCH   7  37
HETATM   37  N6  UNL     1      20.984  -3.935  -4.382  1.00  0.00    -0.217 N
ATOM     38  H6  UNL     1      21.453  -3.444  -3.620  1.00  0.00     0.178 HD
BRANCH  37  39
HETATM   39  C18 UNL     1      21.423  -3.558  -5.682  1.00  0.00     0.036 C
HETATM   40  C19 UNL     1      22.916  -3.422  -5.795  1.00  0.00     0.038 C
HETATM   41  C20 UNL     1      20.807  -2.230  -6.117  1.00  0.00     0.038 C
HETATM   42  C21 UNL     1      20.957  -4.608  -6.662  1.00  0.00     0.038 C
ENDBRANCH  37  39
ENDBRANCH   7  37
TORSDOF 11
ENDMDL