MODEL 1
REMARK VINA RESULT: -6.436870523      0.000      0.000
REMARK  11 active torsions:
REMARK  status: ('A' for Active; 'I' for Inactive)
REMARK    1  A    between atoms: O1_2  and  C2_3
REMARK    2  A    between atoms: C5_6  and  N1_7
REMARK    3  A    between atoms: C6_8  and  C7_9
REMARK    4  A    between atoms: C11_13  and  N2_14
REMARK    5  A    between atoms: N2_14  and  C12_16
REMARK    6  A    between atoms: C17_21  and  C18_22
REMARK    7  A    between atoms: C19_25  and  N4_26
REMARK    8  A    between atoms: N4_26  and  C20_27
REMARK    9  A    between atoms: C20_27  and  O3_28
REMARK   10  A    between atoms: C20_27  and  C21_30
REMARK   11  A    between atoms: C21_30  and  C22_31
ROOT
HETATM    1  N1  UNL     1      18.869  -3.871  -5.161  1.00  0.00    -0.296 N
HETATM    2  C6  UNL     1      17.553  -3.719  -5.179  1.00  0.00     0.025 A
HETATM    3  C10 UNL     1      17.024  -2.663  -5.908  1.00  0.00     0.056 A
HETATM    4  C11 UNL     1      17.765  -1.750  -6.620  1.00  0.00     0.050 A
HETATM    5  C17 UNL     1      19.147  -1.911  -6.598  1.00  0.00     0.114 A
HETATM    6  C19 UNL     1      19.690  -2.974  -5.863  1.00  0.00     0.206 A
ENDROOT
BRANCH   6   7
HETATM    7  N4  UNL     1      20.885  -3.135  -5.758  1.00  0.00    -0.362 NA
BRANCH   7   8
HETATM    8  C20 UNL     1      22.177  -3.306  -5.650  1.00  0.00     0.227 C
BRANCH   8   9
HETATM    9  O3  UNL     1      22.951  -2.257  -5.528  1.00  0.00    -0.337 OA
ATOM     10  H3  UNL     1      23.722  -2.312  -4.975  1.00  0.00     0.220 HD
ENDBRANCH   8   9
BRANCH   8  11
HETATM   11  C21 UNL     1      22.948  -4.568  -5.634  1.00  0.00     0.171 C
HETATM   12  C23 UNL     1      22.984  -5.284  -4.330  1.00  0.00     0.075 C
HETATM   13  C24 UNL     1      24.409  -5.531  -4.016  1.00  0.00    -0.007 C
HETATM   14  C25 UNL     1      25.147  -4.942  -4.930  1.00  0.00     0.080 C
HETATM   15  N5  UNL     1      24.370  -4.281  -5.890  1.00  0.00    -0.377 N
ATOM     16  H5  UNL     1      24.731  -3.696  -6.644  1.00  0.00     0.160 HD
BRANCH  11  17
HETATM   17  C22 UNL     1      22.551  -5.572  -6.686  1.00  0.00     0.390 C
HETATM   18  F1  UNL     1      23.442  -5.798  -7.653  1.00  0.00    -0.211 F
HETATM   19  F2  UNL     1      22.174  -6.780  -6.123  1.00  0.00    -0.211 F
ENDBRANCH  11  17
ENDBRANCH   8  11
ENDBRANCH   7   8
ENDBRANCH   6   7
BRANCH   1  20
HETATM   20  C5  UNL     1      19.440  -4.967  -4.483  1.00  0.00    -0.000 C
HETATM   21  C4  UNL     1      19.507  -5.089  -3.030  1.00  0.00     0.056 C
HETATM   22  C3  UNL     1      19.888  -6.576  -2.798  1.00  0.00     0.038 C
HETATM   23  C2  UNL     1      19.267  -7.306  -3.963  1.00  0.00     0.126 C
HETATM   24  C26 UNL     1      19.124  -6.335  -5.085  1.00  0.00     0.085 C
BRANCH  23  25
HETATM   25  O1  UNL     1      20.082  -8.388  -4.258  1.00  0.00    -0.390 OA
HETATM   26  C1  UNL     1      21.179  -8.483  -3.421  1.00  0.00     0.202 C
ENDBRANCH  23  25
ENDBRANCH   1  20
BRANCH   5  27
HETATM   27  C18 UNL     1      19.945  -0.940  -7.304  1.00  0.00     0.272 C
HETATM   28  N3  UNL     1      20.773  -1.231  -8.409  1.00  0.00    -0.057 NA
HETATM   29  O2  UNL     1      19.927   0.275  -6.945  1.00  0.00    -0.271 OA
ENDBRANCH   5  27
BRANCH   2  30
HETATM   30  C7  UNL     1      16.619  -4.560  -4.476  1.00  0.00     0.036 A
HETATM   31  C8  UNL     1      16.052  -3.870  -3.179  1.00  0.00     0.011 A
HETATM   32  C9  UNL     1      15.210  -4.447  -4.208  1.00  0.00     0.011 A
ENDBRANCH   2  30
BRANCH   4  33
HETATM   33  N2  UNL     1      17.052  -0.789  -7.389  1.00  0.00    -0.384 N
ATOM     34  H2  UNL     1      17.017  -0.876  -8.405  1.00  0.00     0.160 HD
BRANCH  33  35
HETATM   35  C12 UNL     1      16.361   0.339  -6.721  1.00  0.00     0.081 C
HETATM   36  C13 UNL     1      15.805   1.255  -7.742  1.00  0.00     0.025 C
HETATM   37  C14 UNL     1      14.334   1.370  -7.450  1.00  0.00     0.002 C
HETATM   38  C15 UNL     1      13.975   0.054  -6.848  1.00  0.00     0.002 C
HETATM   39  C16 UNL     1      15.171  -0.210  -5.954  1.00  0.00     0.025 C
ENDBRANCH  33  35
ENDBRANCH   4  33
TORSDOF 11
ENDMDL