MODEL 2
REMARK VINA RESULT: -6.578339606      5.621      8.456
REMARK  9 active torsions:
REMARK  status: ('A' for Active; 'I' for Inactive)
REMARK    1  A    between atoms: C2_2  and  O1_3
REMARK    2  A    between atoms: O1_3  and  C3_4
REMARK    3  A    between atoms: C3_4  and  C4_5
REMARK    4  A    between atoms: N1_8  and  C7_9
REMARK    5  A    between atoms: C9_15  and  N4_16
REMARK    6  A    between atoms: C10_18  and  C11_19
REMARK    7  A    between atoms: C12_20  and  C13_21
REMARK    8  A    between atoms: C17_29  and  C18_30
REMARK    9  A    between atoms: C18_30  and  C21_33
ROOT
HETATM    1  C7  UNL     1      15.348  -2.641  -5.463  1.00  0.00     0.122 A
HETATM    2  N2  UNL     1      15.225  -2.001  -4.221  1.00  0.00    -0.338 N
ATOM      3  H2  UNL     1      14.828  -1.062  -4.195  1.00  0.00     0.168 HD
HETATM    4  C8  UNL     1      15.597  -2.554  -3.087  1.00  0.00     0.183 A
HETATM    5  N3  UNL     1      16.106  -3.777  -3.166  1.00  0.00    -0.338 N
ATOM      6  H3  UNL     1      16.405  -4.228  -2.302  1.00  0.00     0.168 HD
HETATM    7  C9  UNL     1      16.251  -4.456  -4.312  1.00  0.00     0.117 A
HETATM    8  C17 UNL     1      15.866  -3.901  -5.533  1.00  0.00     0.047 A
ENDROOT
BRANCH   1   9
HETATM    9  N1  UNL     1      15.070  -1.704  -6.467  1.00  0.00    -0.323 N
HETATM   10  C6  UNL     1      16.202  -0.999  -6.968  1.00  0.00     0.103 C
HETATM   11  C4  UNL     1      16.113  -0.097  -8.115  1.00  0.00     0.083 C
HETATM   12  C5  UNL     1      16.627  -0.706  -9.427  1.00  0.00     0.046 C
HETATM   13  N7  UNL     1      14.906   0.574  -8.417  1.00  0.00    -0.345 N
HETATM   14  C24 UNL     1      13.771   0.828  -7.647  1.00  0.00     0.223 C
ATOM     15  H7  UNL     1      14.857   0.938  -9.368  1.00  0.00     0.163 HD
HETATM   16  C23 UNL     1      13.242  -0.054  -6.579  1.00  0.00     0.148 C
HETATM   17  O2  UNL     1      13.170   1.901  -7.904  1.00  0.00    -0.273 OA
HETATM   18  C22 UNL     1      13.715  -1.474  -6.742  1.00  0.00     0.080 C
BRANCH  11  19
HETATM   19  C3  UNL     1      17.141   1.054  -7.873  1.00  0.00     0.203 C
BRANCH  19  20
HETATM   20  O1  UNL     1      18.071   0.659  -6.915  1.00  0.00    -0.389 OA
BRANCH  20  21
HETATM   21  C2  UNL     1      19.314   0.634  -7.521  1.00  0.00     0.163 C
HETATM   22  C1  UNL     1      19.929  -0.751  -7.572  1.00  0.00     0.033 C
ENDBRANCH  20  21
ENDBRANCH  19  20
ENDBRANCH  11  19
ENDBRANCH   1   9
BRANCH   8  23
HETATM   23  C18 UNL     1      15.899  -4.669  -6.735  1.00  0.00     0.085 C
HETATM   24  C19 UNL     1      14.883  -4.010  -7.752  1.00  0.00     0.029 C
HETATM   25  C20 UNL     1      15.544  -6.085  -6.818  1.00  0.00     0.029 C
BRANCH  23  26
HETATM   26  C21 UNL     1      17.214  -4.549  -7.569  1.00  0.00     0.399 C
HETATM   27  F1  UNL     1      16.809  -4.017  -8.843  1.00  0.00    -0.170 F
HETATM   28  F2  UNL     1      17.999  -3.507  -7.088  1.00  0.00    -0.170 F
HETATM   29  F3  UNL     1      17.911  -5.608  -7.855  1.00  0.00    -0.170 F
ENDBRANCH  23  26
ENDBRANCH   8  23
BRANCH   7  30
HETATM   30  N4  UNL     1      16.800  -5.598  -4.138  1.00  0.00    -0.351 N
HETATM   31  C10 UNL     1      17.946  -6.218  -4.543  1.00  0.00     0.105 C
ATOM     32  H4  UNL     1      16.234  -6.202  -3.542  1.00  0.00     0.166 HD
BRANCH  31  33
HETATM   33  C11 UNL     1      19.289  -5.997  -4.095  1.00  0.00     0.027 A
HETATM   34  C12 UNL     1      19.913  -6.938  -3.234  1.00  0.00     0.039 A
HETATM   35  N5  UNL     1      21.133  -6.479  -2.991  1.00  0.00    -0.304 N
HETATM   36  N6  UNL     1      21.358  -5.346  -3.602  1.00  0.00    -0.304 N
ATOM     37  H5  UNL     1      21.814  -6.954  -2.398  1.00  0.00     0.186 HD
HETATM   38  C15 UNL     1      20.210  -5.031  -4.298  1.00  0.00     0.035 A
ATOM     39  H6  UNL     1      22.218  -4.800  -3.571  1.00  0.00     0.186 HD
HETATM   40  C16 UNL     1      20.201  -3.763  -5.088  1.00  0.00     0.070 C
BRANCH  34  41
HETATM   41  C13 UNL     1      19.310  -8.201  -2.700  1.00  0.00     0.055 C
HETATM   42  C14 UNL     1      19.964  -8.651  -1.412  1.00  0.00     0.011 C
ENDBRANCH  34  41
ENDBRANCH  31  33
ENDBRANCH   7  30
TORSDOF 9
ENDMDL