MODEL 4
REMARK VINA RESULT: -7.466344533      1.838      2.588
REMARK  9 active torsions:
REMARK  status: ('A' for Active; 'I' for Inactive)
REMARK    1  A    between atoms: C4_4  and  O1_5
REMARK    2  A    between atoms: C6_9  and  O2_10
REMARK    3  A    between atoms: C7_12  and  N1_13
REMARK    4  A    between atoms: C10_16  and  C11_17
REMARK    5  A    between atoms: C11_17  and  C12_18
REMARK    6  A    between atoms: C11_17  and  C17_28
REMARK       I    between atoms: C12_18  and  N2_20
REMARK    7  A    between atoms: N2_20  and  C13_22
REMARK    8  A    between atoms: C15_24  and  O4_25
REMARK    9  A    between atoms: O4_25  and  C16_26
ROOT
HETATM    1  C11 UNL     1      19.114  -3.701  -5.706  1.00  0.00     0.120 C
ENDROOT
BRANCH   1   2
HETATM    2  C10 UNL     1      19.993  -4.627  -4.949  1.00  0.00    -0.027 A
HETATM    3  C9  UNL     1      20.930  -4.285  -4.002  1.00  0.00     0.026 A
HETATM    4  C8  UNL     1      21.531  -5.422  -3.541  1.00  0.00     0.091 A
HETATM    5  N1  UNL     1      20.989  -6.488  -4.182  1.00  0.00    -0.358 N
HETATM    6  C27 UNL     1      20.070  -6.023  -5.024  1.00  0.00     0.099 A
BRANCH   5   7
HETATM    7  C7  UNL     1      21.420  -7.864  -3.911  1.00  0.00     0.124 C
HETATM    8  C2  UNL     1      20.364  -8.709  -3.296  1.00  0.00     0.010 C
HETATM    9  C1  UNL     1      20.401 -10.141  -3.851  1.00  0.00     0.012 C
HETATM   10  C3  UNL     1      20.459  -8.820  -1.804  1.00  0.00     0.041 C
HETATM   11  C4  UNL     1      21.796  -9.256  -1.315  1.00  0.00     0.155 C
HETATM   12  C5  UNL     1      22.946  -8.921  -2.199  1.00  0.00     0.229 C
HETATM   13  F1  UNL     1      24.031  -8.526  -1.404  1.00  0.00    -0.244 F
HETATM   14  C6  UNL     1      22.717  -7.825  -3.178  1.00  0.00     0.178 C
BRANCH  11  15
HETATM   15  O1  UNL     1      21.847 -10.624  -1.041  1.00  0.00    -0.393 OA
ATOM     16  H1  UNL     1      21.915 -10.807  -0.111  1.00  0.00     0.210 HD
ENDBRANCH  11  15
BRANCH  14  17
HETATM   17  O2  UNL     1      23.766  -7.887  -4.111  1.00  0.00    -0.391 OA
ATOM     18  H2  UNL     1      24.200  -7.042  -4.093  1.00  0.00     0.210 HD
ENDBRANCH  14  17
ENDBRANCH   5   7
ENDBRANCH   1   2
BRANCH   1  19
HETATM   19  C12 UNL     1      19.415  -3.747  -7.169  1.00  0.00     0.227 C
HETATM   20  O3  UNL     1      19.043  -4.682  -7.930  1.00  0.00    -0.273 OA
HETATM   21  N2  UNL     1      20.162  -2.700  -7.787  1.00  0.00    -0.353 N
ATOM     22  H2  UNL     1      20.496  -1.911  -7.232  1.00  0.00     0.163 HD
BRANCH  21  23
HETATM   23  C13 UNL     1      20.441  -2.761  -9.191  1.00  0.00     0.116 A
HETATM   24  C14 UNL     1      21.723  -2.102  -9.611  1.00  0.00     0.062 A
HETATM   25  C15 UNL     1      20.416  -1.475  -9.949  1.00  0.00     0.156 A
BRANCH  25  26
HETATM   26  O4  UNL     1      19.928  -0.362  -9.258  1.00  0.00    -0.321 OA
BRANCH  26  27
HETATM   27  C16 UNL     1      20.689   0.774  -9.047  1.00  0.00     0.398 C
HETATM   28  O5  UNL     1      21.135   0.932  -7.862  1.00  0.00    -0.276 OA
ENDBRANCH  26  27
ENDBRANCH  25  26
ENDBRANCH  21  23
ENDBRANCH   1  19
BRANCH   1  29
HETATM   29  C17 UNL     1      17.672  -3.780  -5.355  1.00  0.00    -0.023 C
HETATM   30  C18 UNL     1      16.952  -5.009  -5.795  1.00  0.00     0.015 C
HETATM   31  C19 UNL     1      15.497  -4.926  -5.377  1.00  0.00    -0.013 C
HETATM   32  C20 UNL     1      15.429  -4.982  -3.866  1.00  0.00     0.009 C
HETATM   33  C24 UNL     1      14.791  -3.703  -5.855  1.00  0.00     0.009 C
HETATM   34  C21 UNL     1      16.183  -3.818  -3.316  1.00  0.00    -0.013 C
HETATM   35  C22 UNL     1      15.504  -2.533  -3.745  1.00  0.00     0.009 C
HETATM   36  C26 UNL     1      17.582  -3.775  -3.807  1.00  0.00     0.015 C
HETATM   37  C23 UNL     1      15.507  -2.500  -5.236  1.00  0.00    -0.013 C
HETATM   38  C25 UNL     1      16.923  -2.568  -5.826  1.00  0.00     0.015 C
ENDBRANCH   1  29
TORSDOF 9
ENDMDL