MODEL 2
REMARK VINA RESULT: -7.113988771      3.758     10.515
REMARK  6 active torsions:
REMARK  status: ('A' for Active; 'I' for Inactive)
REMARK    1  A    between atoms: C2_2  and  C3_3
REMARK       I    between atoms: N1_4  and  C4_5
REMARK       I    between atoms: C4_5  and  N2_7
REMARK    2  A    between atoms: N2_7  and  C5_9
REMARK    3  A    between atoms: C17_24  and  N3_25
REMARK    4  A    between atoms: N3_25  and  C18_27
REMARK    5  A    between atoms: C18_27  and  C19_28
REMARK    6  A    between atoms: C19_28  and  N4_29
ROOT
HETATM    1  C3  UNL     1      18.995  -3.865  -5.053  1.00  0.00     0.119 C
HETATM    2  N1  UNL     1      17.656  -3.420  -5.326  1.00  0.00    -0.322 N
HETATM    3  C4  UNL     1      17.243  -2.381  -6.176  1.00  0.00     0.323 C
HETATM    4  O1  UNL     1      18.047  -1.631  -6.790  1.00  0.00    -0.247 OA
HETATM    5  N2  UNL     1      15.872  -2.133  -6.384  1.00  0.00    -0.309 N
ATOM      6  H2  UNL     1      15.214  -2.735  -5.890  1.00  0.00     0.170 HD
HETATM    7  C14 UNL     1      16.666  -4.167  -4.530  1.00  0.00     0.092 C
HETATM    8  C15 UNL     1      16.435  -5.453  -5.262  1.00  0.00     0.028 C
HETATM    9  C16 UNL     1      17.798  -5.941  -5.779  1.00  0.00     0.038 C
HETATM   10  C17 UNL     1      18.894  -5.396  -4.912  1.00  0.00     0.081 C
HETATM   11  C24 UNL     1      18.400  -5.635  -3.495  1.00  0.00     0.202 C
HETATM   12  F2  UNL     1      19.467  -5.550  -2.595  1.00  0.00    -0.247 F
HETATM   13  C25 UNL     1      17.378  -4.550  -3.209  1.00  0.00     0.065 C
ENDROOT
BRANCH   1  14
HETATM   14  C2  UNL     1      20.081  -3.420  -5.928  1.00  0.00     0.023 C
HETATM   15  C1  UNL     1      21.167  -2.562  -5.464  1.00  0.00     0.007 C
ENDBRANCH   1  14
BRANCH  10  16
HETATM   16  N3  UNL     1      20.149  -5.994  -5.066  1.00  0.00    -0.387 N
ATOM     17  H3  UNL     1      20.971  -5.391  -5.047  1.00  0.00     0.159 HD
BRANCH  16  18
HETATM   18  C18 UNL     1      20.345  -7.359  -5.243  1.00  0.00     0.075 C
BRANCH  18  19
HETATM   19  C19 UNL     1      21.595  -7.992  -4.738  1.00  0.00     0.161 C
BRANCH  19  20
HETATM   20  N4  UNL     1      21.505  -8.380  -3.353  1.00  0.00    -0.405 N
HETATM   21  C20 UNL     1      20.227  -8.858  -2.953  1.00  0.00     0.144 C
HETATM   22  C21 UNL     1      20.012  -8.937  -1.480  1.00  0.00     0.251 C
HETATM   23  N5  UNL     1      21.259  -9.223  -0.795  1.00  0.00    -0.072 N
HETATM   24  C22 UNL     1      22.147  -9.960  -1.677  1.00  0.00     0.251 C
ATOM     25  H52 UNL     1      21.697  -8.378  -0.428  1.00  0.00     0.277 HD
ATOM     26  H51 UNL     1      21.107  -9.707   0.089  1.00  0.00     0.277 HD
HETATM   27  C23 UNL     1      22.625  -9.067  -2.822  1.00  0.00     0.144 C
ENDBRANCH  19  20
ENDBRANCH  18  19
ENDBRANCH  16  18
ENDBRANCH  10  16
BRANCH   5  28
HETATM   28  C5  UNL     1      15.321  -1.130  -7.213  1.00  0.00     0.039 A
HETATM   29  C6  UNL     1      15.126   0.185  -6.920  1.00  0.00     0.032 A
HETATM   30  C7  UNL     1      14.535   1.050  -7.859  1.00  0.00     0.042 A
HETATM   31  C8  UNL     1      14.125   0.632  -9.102  1.00  0.00     0.102 A
HETATM   32  C9  UNL     1      14.322  -0.698  -9.398  1.00  0.00     0.108 A
HETATM   33  O3  UNL     1      13.540   1.487 -10.029  1.00  0.00    -0.343 OA
HETATM   34  C10 UNL     1      14.900  -1.549  -8.485  1.00  0.00     0.069 A
HETATM   35  O2  UNL     1      13.905  -1.118 -10.657  1.00  0.00    -0.305 OA
HETATM   36  C11 UNL     1      13.524  -0.214 -11.672  1.00  0.00     0.228 C
HETATM   37  C12 UNL     1      14.734   0.355 -12.400  1.00  0.00     0.087 C
HETATM   38  F1  UNL     1      12.712  -0.922 -12.544  1.00  0.00    -0.209 F
HETATM   39  C13 UNL     1      12.761   0.954 -11.083  1.00  0.00     0.249 C
ENDBRANCH   5  28
TORSDOF 6
ENDMDL