MODEL 3
REMARK VINA RESULT: -6.285759087      1.145      1.184
REMARK  11 active torsions:
REMARK  status: ('A' for Active; 'I' for Inactive)
REMARK    1  A    between atoms: C2_2  and  C3_3
REMARK    2  A    between atoms: C3_3  and  O1_4
REMARK    3  A    between atoms: C10_14  and  N1_15
REMARK    4  A    between atoms: C14_19  and  C15_20
REMARK    5  A    between atoms: C17_22  and  C18_23
REMARK    6  A    between atoms: C18_23  and  C19_24
REMARK    7  A    between atoms: C19_24  and  O2_25
REMARK    8  A    between atoms: N4_33  and  C23_34
REMARK    9  A    between atoms: C23_34  and  O3_35
REMARK   10  A    between atoms: C23_34  and  N5_37
REMARK   11  A    between atoms: N5_37  and  O4_39
ROOT
HETATM    1  C3  UNL     1      21.942  -8.613  -2.767  1.00  0.00     0.136 C
HETATM    2  C4  UNL     1      22.275  -7.493  -3.738  1.00  0.00     0.067 C
HETATM    3  C5  UNL     1      21.213  -6.395  -3.773  1.00  0.00     0.013 C
HETATM    4  C6  UNL     1      21.879  -5.070  -3.771  1.00  0.00     0.085 C
HETATM    5  C7  UNL     1      21.943  -4.351  -5.044  1.00  0.00     0.249 C
HETATM    6  F1  UNL     1      23.316  -4.033  -5.250  1.00  0.00    -0.206 F
HETATM    7  F2  UNL     1      21.445  -3.034  -4.893  1.00  0.00    -0.206 F
HETATM    8  C8  UNL     1      21.447  -4.948  -6.253  1.00  0.00     0.088 C
HETATM    9  C9  UNL     1      20.662  -3.863  -7.043  1.00  0.00     0.018 C
HETATM   10  C10 UNL     1      20.659  -6.220  -6.239  1.00  0.00     0.247 C
HETATM   11  C14 UNL     1      20.227  -6.666  -4.885  1.00  0.00     0.041 C
HETATM   12  C21 UNL     1      20.005  -8.163  -4.858  1.00  0.00     0.038 C
HETATM   13  C22 UNL     1      19.536  -8.719  -3.559  1.00  0.00     0.131 C
HETATM   14  N4  UNL     1      20.601  -8.864  -2.531  1.00  0.00    -0.314 N
ENDROOT
BRANCH  11  15
HETATM   15  C15 UNL     1      18.906  -6.038  -4.580  1.00  0.00     0.039 A
HETATM   16  C16 UNL     1      18.557  -5.115  -3.639  1.00  0.00     0.054 A
HETATM   17  C17 UNL     1      17.195  -4.876  -3.764  1.00  0.00     0.029 A
HETATM   18  N2  UNL     1      16.758  -5.641  -4.759  1.00  0.00    -0.305 N
HETATM   19  N3  UNL     1      17.784  -6.339  -5.257  1.00  0.00    -0.304 N
ATOM     20  H2  UNL     1      15.794  -5.688  -5.089  1.00  0.00     0.186 HD
ATOM     21  H3  UNL     1      17.725  -6.999  -6.032  1.00  0.00     0.186 HD
BRANCH  17  22
HETATM   22  C18 UNL     1      16.421  -3.890  -2.946  1.00  0.00     0.084 C
BRANCH  22  23
HETATM   23  C19 UNL     1      15.663  -2.949  -3.899  1.00  0.00     0.173 C
BRANCH  23  24
HETATM   24  O2  UNL     1      16.350  -2.643  -5.027  1.00  0.00    -0.396 OA
HETATM   25  C20 UNL     1      15.605  -2.265  -6.122  1.00  0.00     0.201 C
ENDBRANCH  23  24
ENDBRANCH  22  23
ENDBRANCH  17  22
ENDBRANCH  11  15
BRANCH  10  26
HETATM   26  N1  UNL     1      21.435  -7.283  -6.949  1.00  0.00     0.095 N
HETATM   27  C11 UNL     1      22.702  -6.767  -7.455  1.00  0.00     0.275 C
HETATM   28  C12 UNL     1      22.510  -7.391  -8.815  1.00  0.00     0.060 C
HETATM   29  C13 UNL     1      21.062  -7.354  -8.377  1.00  0.00     0.275 C
ENDBRANCH  10  26
BRANCH   1  30
HETATM   30  C2  UNL     1      22.871  -8.588  -1.587  1.00  0.00     0.056 C
HETATM   31  C1  UNL     1      23.589  -9.960  -1.598  1.00  0.00     0.010 C
ENDBRANCH   1  30
BRANCH   1  32
HETATM   32  O1  UNL     1      22.395  -9.826  -3.484  1.00  0.00    -0.371 OA
ATOM     33  H1  UNL     1      22.428  -9.521  -4.382  1.00  0.00     0.212 HD
ENDBRANCH   1  32
BRANCH  14  34
HETATM   34  C23 UNL     1      20.016  -9.235  -1.321  1.00  0.00     0.241 C
BRANCH  34  35
HETATM   35  O3  UNL     1      19.749  -8.251  -0.471  1.00  0.00    -0.331 OA
ATOM     36  H3  UNL     1      19.408  -8.510   0.378  1.00  0.00     0.221 HD
ENDBRANCH  34  35
BRANCH  34  37
HETATM   37  N5  UNL     1      19.647 -10.498  -0.840  1.00  0.00    -0.231 N
ATOM     38  H5  UNL     1      20.338 -11.234  -0.695  1.00  0.00     0.198 HD
BRANCH  37  39
HETATM   39  O4  UNL     1      18.277 -10.710  -0.563  1.00  0.00    -0.282 OA
HETATM   40  C24 UNL     1      18.106 -12.102  -0.493  1.00  0.00     0.237 C
ENDBRANCH  37  39
ENDBRANCH  34  37
ENDBRANCH  14  34
TORSDOF 11
ENDMDL