MODEL 2
REMARK VINA RESULT: -7.052710354      0.977      1.337
REMARK  6 active torsions:
REMARK  status: ('A' for Active; 'I' for Inactive)
REMARK       I    between atoms: N1_2  and  C3_4
REMARK       I    between atoms: C3_4  and  N7_14
REMARK    1  A    between atoms: N2_5  and  C4_7
REMARK    2  A    between atoms: N7_14  and  N8_16
REMARK    3  A    between atoms: C5_18  and  C6_19
REMARK    4  A    between atoms: N11_24  and  C7_25
REMARK    5  A    between atoms: C8_31  and  N14_32
REMARK    6  A    between atoms: C9_35  and  O2_36
ROOT
HETATM    1  C6  UNL     1      20.414  13.871   0.336  1.00  0.00     0.119 A
HETATM    2  N9  UNL     1      19.572  13.917   1.380  1.00  0.00    -0.280 N
ATOM      3  H9  UNL     1      19.773  13.611   2.332  1.00  0.00     0.188 HD
HETATM    4  N10 UNL     1      18.451  14.424   0.954  1.00  0.00    -0.232 N
ATOM      5  H10 UNL     1      17.627  14.576   1.536  1.00  0.00     0.209 HD
HETATM    6  N11 UNL     1      18.520  14.716  -0.332  1.00  0.00    -0.195 N
HETATM    7  C9  UNL     1      19.738  14.380  -0.746  1.00  0.00     0.195 A
ENDROOT
BRANCH   1   8
HETATM    8  C5  UNL     1      21.787  13.384   0.311  1.00  0.00     0.143 C
HETATM    9  N8  UNL     1      22.203  12.742  -0.707  1.00  0.00    -0.295 N
ATOM     10  H8  UNL     1      21.547  12.594  -1.474  1.00  0.00     0.186 HD
BRANCH   9  11
HETATM   11  N7  UNL     1      23.488  12.229  -0.846  1.00  0.00    -0.132 N
HETATM   12  C3  UNL     1      23.746  10.834  -0.630  1.00  0.00     0.708 C
HETATM   13  N1  UNL     1      23.741   9.981  -1.753  1.00  0.00    -0.225 N
HETATM   14  N2  UNL     1      23.962  10.471   0.576  1.00  0.00    -0.019 N
HETATM   15  C1  UNL     1      24.955   9.747  -2.486  1.00  0.00     0.168 C
HETATM   16  C2  UNL     1      22.523   9.341  -2.172  1.00  0.00     0.168 C
ATOM     17  H2  UNL     1      23.939  11.184   1.305  1.00  0.00     0.203 HD
ATOM     18  H7  UNL     1      24.255  12.851  -1.103  1.00  0.00     0.205 HD
BRANCH  14  19
HETATM   19  C4  UNL     1      24.231   9.128   0.957  1.00  0.00     0.722 A
HETATM   20  N3  UNL     1      25.455   8.574   0.994  1.00  0.00    -0.116 N
HETATM   21  N4  UNL     1      25.376   7.310   1.388  1.00  0.00     0.006 NA
ATOM     22  H3  UNL     1      26.321   9.056   0.753  1.00  0.00     0.202 HD
HETATM   23  N5  UNL     1      24.075   7.077   1.600  1.00  0.00     0.006 NA
HETATM   24  N6  UNL     1      23.373   8.168   1.343  1.00  0.00    -0.116 N
ATOM     25  H6  UNL     1      22.361   8.264   1.423  1.00  0.00     0.202 HD
ENDBRANCH  14  19
ENDBRANCH   9  11
ENDBRANCH   1   8
BRANCH   7  26
HETATM   26  O2  UNL     1      20.224  14.528  -2.057  1.00  0.00    -0.343 OA
ATOM     27  H2  UNL     1      19.851  14.163  -2.851  1.00  0.00     0.219 HD
ENDBRANCH   7  26
BRANCH   6  28
HETATM   28  C7  UNL     1      17.496  15.279  -1.127  1.00  0.00     0.198 A
HETATM   29  N12 UNL     1      17.033  14.904  -2.330  1.00  0.00    -0.220 N
HETATM   30  O1  UNL     1      16.070  15.714  -2.702  1.00  0.00    -0.153 OA
ATOM     31  H12 UNL     1      17.377  14.110  -2.872  1.00  0.00     0.198 HD
HETATM   32  N13 UNL     1      15.866  16.618  -1.801  1.00  0.00    -0.222 N
HETATM   33  C8  UNL     1      16.731  16.398  -0.786  1.00  0.00     0.169 A
ATOM     34  H13 UNL     1      15.173  17.366  -1.848  1.00  0.00     0.198 HD
BRANCH  33  35
HETATM   35  N14 UNL     1      16.812  17.110   0.288  1.00  0.00    -0.381 N
ATOM     36 2H14 UNL     1      16.234  16.987   1.119  1.00  0.00     0.157 HD
ATOM     37 1H14 UNL     1      17.446  17.887   0.475  1.00  0.00     0.157 HD
ENDBRANCH  33  35
ENDBRANCH   6  28
TORSDOF 6
ENDMDL