MODEL 2
REMARK VINA RESULT: -5.528310759      2.485      4.784
REMARK  7 active torsions:
REMARK  status: ('A' for Active; 'I' for Inactive)
REMARK    1  A    between atoms: O1_2  and  C2_3
REMARK    2  A    between atoms: C2_3  and  C3_5
REMARK    3  A    between atoms: C4_6  and  C5_7
REMARK       I    between atoms: C5_7  and  N1_9
REMARK    4  A    between atoms: N1_9  and  N2_11
REMARK    5  A    between atoms: N3_14  and  C6_15
REMARK    6  A    between atoms: N7_25  and  N8_26
REMARK    7  A    between atoms: N9_32  and  N10_34
ROOT
HETATM    1  C3  UNL     1      20.712  18.301  -0.222  1.00  0.00     0.122 A
HETATM    2  C4  UNL     1      19.461  18.098  -0.762  1.00  0.00     0.150 A
HETATM    3  N3  UNL     1      19.373  16.826  -1.287  1.00  0.00    -0.205 N
HETATM    4  N7  UNL     1      20.508  16.250  -1.087  1.00  0.00    -0.168 N
HETATM    5  C11 UNL     1      21.390  17.101  -0.430  1.00  0.00     0.179 A
HETATM    6  N9  UNL     1      22.552  16.764  -0.124  1.00  0.00    -0.288 N
ATOM      7  H9  UNL     1      22.690  15.805  -0.442  1.00  0.00     0.188 HD
ENDROOT
BRANCH   3   8
HETATM    8  C6  UNL     1      18.198  16.291  -1.933  1.00  0.00     0.197 A
HETATM    9  N4  UNL     1      18.024  16.221  -3.266  1.00  0.00    -0.220 N
HETATM   10  O4  UNL     1      16.843  15.680  -3.494  1.00  0.00    -0.153 OA
ATOM     11  H4  UNL     1      18.687  16.533  -3.975  1.00  0.00     0.198 HD
HETATM   12  N5  UNL     1      16.261  15.403  -2.380  1.00  0.00    -0.222 N
HETATM   13  C7  UNL     1      17.070  15.767  -1.363  1.00  0.00     0.169 A
ATOM     14  H5  UNL     1      15.340  14.978  -2.282  1.00  0.00     0.198 HD
HETATM   15  N6  UNL     1      16.875  15.668  -0.094  1.00  0.00    -0.381 N
ATOM     16  H62 UNL     1      17.486  15.942   0.675  1.00  0.00     0.157 HD
ATOM     17  H61 UNL     1      16.034  15.277   0.331  1.00  0.00     0.157 HD
ENDBRANCH   3   8
BRANCH   2  18
HETATM   18  C5  UNL     1      18.301  18.966  -0.726  1.00  0.00     0.289 C
HETATM   19  O3  UNL     1      18.010  19.590  -1.810  1.00  0.00    -0.264 OA
HETATM   20  N1  UNL     1      17.512  19.126   0.426  1.00  0.00    -0.271 N
ATOM     21  H1  UNL     1      17.748  18.614   1.277  1.00  0.00     0.189 HD
BRANCH  20  22
HETATM   22  N2  UNL     1      16.389  19.994   0.416  1.00  0.00    -0.342 N
ATOM     23  H22 UNL     1      16.216  20.563  -0.413  1.00  0.00     0.176 HD
ATOM     24  H21 UNL     1      15.768  20.048   1.223  1.00  0.00     0.176 HD
ENDBRANCH  20  22
ENDBRANCH   2  18
BRANCH   4  25
HETATM   25  N8  UNL     1      20.838  14.948  -1.465  1.00  0.00    -0.286 N
HETATM   26  C8  UNL     1      20.659  13.920  -0.748  1.00  0.00    -0.002 C
HETATM   27  C9  UNL     1      20.061  14.007   0.608  1.00  0.00     0.064 C
HETATM   28  C10 UNL     1      21.045  12.575  -1.242  1.00  0.00     0.064 C
ATOM     29  H8  UNL     1      21.254  14.816  -2.387  1.00  0.00     0.188 HD
ENDBRANCH   4  25
BRANCH   1  30
HETATM   30  C2  UNL     1      21.270  19.530   0.329  1.00  0.00     0.299 C
HETATM   31  O2  UNL     1      22.376  19.993  -0.025  1.00  0.00    -0.259 OA
BRANCH  30  32
HETATM   32  O1  UNL     1      20.615  20.300   1.290  1.00  0.00    -0.322 OA
HETATM   33  C1  UNL     1      20.116  21.592   1.025  1.00  0.00     0.213 C
ENDBRANCH  30  32
ENDBRANCH   1  30
BRANCH   6  34
HETATM   34  N10 UNL     1      23.669  17.157   0.448  1.00  0.00    -0.344 N
ATOM     35 2H10 UNL     1      24.287  17.436  -0.313  1.00  0.00     0.176 HD
ATOM     36 1H10 UNL     1      24.147  17.288   1.339  1.00  0.00     0.176 HD
ENDBRANCH   6  34
TORSDOF 7
ENDMDL