MODEL 2
REMARK VINA RESULT: -5.856406484      3.669      7.144
REMARK  7 active torsions:
REMARK  status: ('A' for Active; 'I' for Inactive)
REMARK    1  A    between atoms: C2_2  and  O1_3
REMARK    2  A    between atoms: O1_3  and  C3_4
REMARK       I    between atoms: C3_4  and  N1_6
REMARK    3  A    between atoms: N1_6  and  C4_8
REMARK    4  A    between atoms: C4_8  and  C5_9
REMARK    5  A    between atoms: C6_14  and  C7_15
REMARK       I    between atoms: C7_15  and  N4_17
REMARK    6  A    between atoms: N5_20  and  N6_21
REMARK    7  A    between atoms: N9_29  and  O4_30
ROOT
HETATM    1  C4  UNL     1      21.684  12.815  -0.444  1.00  0.00     0.207 C
HETATM    2  C9  UNL     1      21.727  11.648   0.568  1.00  0.00     0.155 C
HETATM    3  S1  UNL     1      23.217  10.701   0.100  1.00  0.00    -0.035 SA
HETATM    4  N7  UNL     1      23.505  10.784  -1.626  1.00  0.00    -0.053 NA
HETATM    5  N8  UNL     1      22.914  11.871  -2.221  1.00  0.00    -0.229 N
ATOM      6  H8  UNL     1      23.370  12.396  -2.968  1.00  0.00     0.201 HD
HETATM    7  N9  UNL     1      21.663  12.209  -1.744  1.00  0.00    -0.056 NA
ENDROOT
BRANCH   1   8
HETATM    8  N1  UNL     1      22.859  13.612  -0.188  1.00  0.00    -0.304 N
HETATM    9  C3  UNL     1      23.247  14.711  -0.992  1.00  0.00     0.362 C
HETATM   10  O2  UNL     1      22.532  15.003  -1.979  1.00  0.00    -0.238 OA
ATOM     11  H1  UNL     1      23.440  13.372   0.615  1.00  0.00     0.167 HD
BRANCH   9  12
HETATM   12  O1  UNL     1      24.358  15.500  -0.783  1.00  0.00    -0.304 OA
BRANCH  12  13
HETATM   13  C2  UNL     1      24.257  16.886  -0.492  1.00  0.00     0.176 C
HETATM   14  C1  UNL     1      23.403  17.199   0.692  1.00  0.00     0.034 C
ENDBRANCH  12  13
ENDBRANCH   9  12
ENDBRANCH   1   8
BRANCH   1  15
HETATM   15  C5  UNL     1      20.465  13.594  -0.100  1.00  0.00     0.168 A
HETATM   16  N2  UNL     1      20.076  13.709   1.193  1.00  0.00    -0.282 N
HETATM   17  N3  UNL     1      18.992  14.434   1.233  1.00  0.00    -0.278 N
ATOM     18  H2  UNL     1      20.550  13.299   1.998  1.00  0.00     0.188 HD
HETATM   19  C6  UNL     1      18.685  14.786  -0.026  1.00  0.00     0.212 A
ATOM     20  H3  UNL     1      18.470  14.688   2.071  1.00  0.00     0.189 HD
HETATM   21  N5  UNL     1      19.598  14.265  -0.860  1.00  0.00    -0.222 N
BRANCH  19  22
HETATM   22  C7  UNL     1      17.541  15.604  -0.449  1.00  0.00     0.288 C
HETATM   23  O3  UNL     1      16.887  15.257  -1.449  1.00  0.00    -0.264 OA
HETATM   24  N4  UNL     1      17.208  16.755   0.283  1.00  0.00    -0.359 N
HETATM   25  C8  UNL     1      16.091  17.597  -0.084  1.00  0.00     0.149 C
ATOM     26  H4  UNL     1      17.770  17.003   1.097  1.00  0.00     0.162 HD
ENDBRANCH  19  22
BRANCH  21  27
HETATM   27  N6  UNL     1      19.663  14.375  -2.258  1.00  0.00    -0.335 N
ATOM     28  H62 UNL     1      20.117  15.099  -2.815  1.00  0.00     0.177 HD
ATOM     29  H61 UNL     1      19.245  13.721  -2.919  1.00  0.00     0.177 HD
ENDBRANCH  21  27
ENDBRANCH   1  15
BRANCH   7  30
HETATM   30  O4  UNL     1      20.842  11.154  -1.824  1.00  0.00    -0.290 OA
ATOM     31  H4  UNL     1      20.939  10.661  -2.631  1.00  0.00     0.239 HD
ENDBRANCH   7  30
TORSDOF 7
ENDMDL