MODEL 4
REMARK VINA RESULT: -6.598373093      5.782      6.810
REMARK  8 active torsions:
REMARK  status: ('A' for Active; 'I' for Inactive)
REMARK    1  A    between atoms: N4_12  and  O2_13
REMARK    2  A    between atoms: O2_13  and  C6_14
REMARK    3  A    between atoms: C6_14  and  C7_15
REMARK    4  A    between atoms: C7_15  and  S1_16
REMARK    5  A    between atoms: S1_16  and  C8_17
REMARK    6  A    between atoms: N6_20  and  N7_21
REMARK    7  A    between atoms: C9_24  and  N8_25
REMARK    8  A    between atoms: N8_25  and  N9_27
ROOT
HETATM    1  N1  UNL     1      16.743  15.849  -1.143  1.00  0.00    -0.190 NA
HETATM    2  C1  UNL     1      17.637  15.415  -0.545  1.00  0.00     0.120 C
HETATM    3  C2  UNL     1      18.751  14.903   0.187  1.00  0.00     0.148 A
HETATM    4  N2  UNL     1      18.673  14.092   1.247  1.00  0.00    -0.288 N
ATOM      5  H2  UNL     1      17.804  13.747   1.654  1.00  0.00     0.188 HD
HETATM    6  N3  UNL     1      19.892  13.799   1.694  1.00  0.00    -0.284 N
ATOM      7  H3  UNL     1      20.105  13.199   2.491  1.00  0.00     0.188 HD
HETATM    8  C3  UNL     1      20.810  14.433   0.912  1.00  0.00     0.136 A
HETATM    9  C4  UNL     1      20.084  15.125  -0.032  1.00  0.00     0.118 A
HETATM   10  C5  UNL     1      20.794  15.925  -1.042  1.00  0.00     0.285 C
HETATM   11  O1  UNL     1      20.155  16.555  -1.901  1.00  0.00    -0.265 OA
HETATM   12  N4  UNL     1      22.232  15.920  -0.959  1.00  0.00    -0.204 N
HETATM   13  C10 UNL     1      22.935  14.864  -0.259  1.00  0.00     0.282 C
HETATM   14  N11 UNL     1      22.226  14.467   0.945  1.00  0.00    -0.356 N
ATOM     15  H11 UNL     1      22.736  14.219   1.793  1.00  0.00     0.162 HD
ENDROOT
BRANCH  12  16
HETATM   16  O2  UNL     1      22.864  16.928  -1.556  1.00  0.00    -0.273 OA
BRANCH  16  17
HETATM   17  C6  UNL     1      23.142  17.924  -0.645  1.00  0.00     0.212 C
BRANCH  17  18
HETATM   18  C7  UNL     1      22.632  19.221  -1.258  1.00  0.00     0.111 C
BRANCH  18  19
HETATM   19  S1  UNL     1      21.592  20.111  -0.045  1.00  0.00    -0.090 SA
BRANCH  19  20
HETATM   20  C8  UNL     1      19.877  19.725  -0.385  1.00  0.00     0.176 A
HETATM   21  N5  UNL     1      19.394  19.313  -1.564  1.00  0.00    -0.243 N
HETATM   22  N6  UNL     1      18.082  19.121  -1.438  1.00  0.00    -0.023 N
ATOM     23  H5  UNL     1      19.939  19.170  -2.414  1.00  0.00     0.192 HD
HETATM   24  C9  UNL     1      17.723  19.411  -0.179  1.00  0.00     0.734 A
HETATM   25  N10 UNL     1      18.833  19.784   0.475  1.00  0.00    -0.165 N
ATOM     26  H10 UNL     1      18.882  20.065   1.455  1.00  0.00     0.186 HD
BRANCH  22  27
HETATM   27  N7  UNL     1      17.205  18.687  -2.455  1.00  0.00    -0.309 N
ATOM     28  H72 UNL     1      17.117  19.113  -3.378  1.00  0.00     0.179 HD
ATOM     29  H71 UNL     1      16.557  17.901  -2.395  1.00  0.00     0.179 HD
ENDBRANCH  22  27
BRANCH  24  30
HETATM   30  N8  UNL     1      16.551  19.348   0.349  1.00  0.00    -0.135 N
ATOM     31  H8  UNL     1      15.967  20.184   0.329  1.00  0.00     0.205 HD
BRANCH  30  32
HETATM   32  N9  UNL     1      16.035  18.196   0.946  1.00  0.00    -0.331 N
ATOM     33  H92 UNL     1      15.823  17.407   0.334  1.00  0.00     0.177 HD
ATOM     34  H91 UNL     1      15.863  18.110   1.948  1.00  0.00     0.177 HD
ENDBRANCH  30  32
ENDBRANCH  24  30
ENDBRANCH  19  20
ENDBRANCH  18  19
ENDBRANCH  17  18
ENDBRANCH  16  17
ENDBRANCH  12  16
TORSDOF 8
ENDMDL