MODEL 1
REMARK VINA RESULT: -5.678590481      0.000      0.000
REMARK  9 active torsions:
REMARK  status: ('A' for Active; 'I' for Inactive)
REMARK    1  A    between atoms: O1_2  and  C2_3
REMARK    2  A    between atoms: C2_3  and  C3_5
REMARK    3  A    between atoms: C3_5  and  N1_6
REMARK    4  A    between atoms: C5_14  and  N4_15
REMARK    5  A    between atoms: N4_15  and  N5_17
REMARK    6  A    between atoms: C6_19  and  C8_22
REMARK    7  A    between atoms: C9_23  and  O3_24
REMARK    8  A    between atoms: C10_28  and  N8_29
REMARK    9  A    between atoms: N9_32  and  N10_33
ROOT
HETATM    1  N5  UNL     1      19.613  14.455  -2.060  1.00  0.00    -0.287 N
ATOM      2  H5  UNL     1      19.009  13.802  -1.560  1.00  0.00     0.188 HD
HETATM    3  C6  UNL     1      19.161  15.627  -2.339  1.00  0.00     0.162 C
HETATM    4  C7  UNL     1      19.923  16.619  -3.037  1.00  0.00     0.121 C
HETATM    5  N6  UNL     1      20.557  17.434  -3.590  1.00  0.00    -0.190 NA
ENDROOT
BRANCH   3   6
HETATM    6  C8  UNL     1      17.808  15.963  -1.927  1.00  0.00     0.164 A
HETATM    7  C9  UNL     1      16.661  15.792  -2.681  1.00  0.00     0.188 A
HETATM    8  N7  UNL     1      15.652  16.230  -1.919  1.00  0.00    -0.167 N
HETATM    9  C10 UNL     1      16.098  16.662  -0.740  1.00  0.00     0.699 A
ATOM     10  H7  UNL     1      14.671  16.233  -2.204  1.00  0.00     0.186 HD
HETATM   11  N9  UNL     1      17.426  16.502  -0.731  1.00  0.00    -0.086 N
BRANCH   7  12
HETATM   12  O3  UNL     1      16.572  15.275  -3.963  1.00  0.00    -0.344 OA
ATOM     13  H3  UNL     1      15.783  15.006  -4.420  1.00  0.00     0.219 HD
ENDBRANCH   7  12
BRANCH   9  14
HETATM   14  N8  UNL     1      15.422  17.158   0.262  1.00  0.00    -0.233 N
ATOM     15  H82 UNL     1      14.543  17.664   0.156  1.00  0.00     0.174 HD
ATOM     16  H81 UNL     1      15.638  17.129   1.259  1.00  0.00     0.174 HD
ENDBRANCH   9  14
BRANCH  11  17
HETATM   17  N10 UNL     1      18.350  16.801   0.270  1.00  0.00    -0.324 N
ATOM     18 2H10 UNL     1      18.356  16.525   1.251  1.00  0.00     0.178 HD
ATOM     19 1H10 UNL     1      19.173  17.376   0.088  1.00  0.00     0.178 HD
ENDBRANCH  11  17
ENDBRANCH   3   6
BRANCH   1  20
HETATM   20  N4  UNL     1      20.905  14.040  -2.417  1.00  0.00    -0.277 N
ATOM     21  H4  UNL     1      21.336  14.367  -3.282  1.00  0.00     0.189 HD
BRANCH  20  22
HETATM   22  C5  UNL     1      21.547  13.221  -1.612  1.00  0.00     0.184 A
HETATM   23  N1  UNL     1      22.493  13.504  -0.717  1.00  0.00    -0.258 N
HETATM   24  N2  UNL     1      22.993  12.549  -0.029  1.00  0.00    -0.275 N
HETATM   25  C4  UNL     1      22.553  11.305  -0.230  1.00  0.00     0.160 A
ATOM     26  H2  UNL     1      23.719  12.736   0.663  1.00  0.00     0.189 HD
HETATM   27  N3  UNL     1      22.943  10.203   0.376  1.00  0.00    -0.378 N
HETATM   28  S1  UNL     1      21.382  11.530  -1.451  1.00  0.00    -0.014 SA
ATOM     29  H32 UNL     1      23.643  10.069   1.106  1.00  0.00     0.158 HD
ATOM     30  H31 UNL     1      22.606   9.253   0.223  1.00  0.00     0.158 HD
BRANCH  23  31
HETATM   31  C3  UNL     1      22.926  14.918  -0.556  1.00  0.00     0.262 C
BRANCH  31  32
HETATM   32  C2  UNL     1      22.131  15.563   0.519  1.00  0.00     0.278 C
HETATM   33  O2  UNL     1      22.146  15.096   1.683  1.00  0.00    -0.263 OA
BRANCH  32  34
HETATM   34  O1  UNL     1      21.374  16.674   0.230  1.00  0.00    -0.325 OA
HETATM   35  C1  UNL     1      21.930  17.931  -0.098  1.00  0.00     0.213 C
ENDBRANCH  32  34
ENDBRANCH  31  32
ENDBRANCH  23  31
ENDBRANCH  20  22
ENDBRANCH   1  20
TORSDOF 9
ENDMDL