MODEL 5
REMARK VINA RESULT: -6.256404792      0.871      1.851
REMARK  10 active torsions:
REMARK  status: ('A' for Active; 'I' for Inactive)
REMARK    1  A    between atoms: N1_1  and  N2_4
REMARK    2  A    between atoms: N2_4  and  N3_5
REMARK    3  A    between atoms: N3_5  and  N4_7
REMARK    4  A    between atoms: C1_9  and  O1_10
REMARK    5  A    between atoms: C1_9  and  C2_12
REMARK    6  A    between atoms: C3_15  and  N6_16
REMARK    7  A    between atoms: N7_18  and  C4_20
REMARK    8  A    between atoms: C5_23  and  N9_24
REMARK    9  A    between atoms: N9_24  and  N10_26
REMARK   10  A    between atoms: C8_39  and  N15_40
ROOT
HETATM    1  C2  UNL     1      21.638  10.848  -1.040  1.00  0.00     0.131 A
HETATM    2  N5  UNL     1      20.810  11.876  -1.427  1.00  0.00    -0.332 N
ATOM      3  H5  UNL     1      20.142  11.736  -2.184  1.00  0.00     0.168 HD
HETATM    4  C3  UNL     1      20.883  13.061  -0.810  1.00  0.00     0.163 A
HETATM    5  C7  UNL     1      21.792  13.253   0.219  1.00  0.00     0.163 A
HETATM    6  N13 UNL     1      21.849  14.514   0.856  1.00  0.00    -0.079 NA
HETATM    7  N14 UNL     1      22.602  12.279   0.615  1.00  0.00    -0.326 N
ATOM      8  H14 UNL     1      23.266  12.433   1.375  1.00  0.00     0.168 HD
HETATM    9  C8  UNL     1      22.532  11.041  -0.025  1.00  0.00     0.132 A
ENDROOT
BRANCH   4  10
HETATM   10  N6  UNL     1      20.057  14.165  -1.161  1.00  0.00    -0.268 N
HETATM   11  N7  UNL     1      18.938  14.248  -0.565  1.00  0.00    -0.129 N
ATOM     12  H7  UNL     1      18.703  13.530   0.120  1.00  0.00     0.205 HD
ATOM     13  H6  UNL     1      20.348  14.853  -1.855  1.00  0.00     0.189 HD
BRANCH  11  14
HETATM   14  C4  UNL     1      17.998  15.283  -0.797  1.00  0.00     0.713 A
HETATM   15  N8  UNL     1      17.607  15.555  -2.054  1.00  0.00    -0.167 N
HETATM   16  C5  UNL     1      16.721  16.522  -2.339  1.00  0.00     0.205 A
ATOM     17  H8  UNL     1      17.999  15.007  -2.820  1.00  0.00     0.186 HD
HETATM   18  C6  UNL     1      16.198  17.257  -1.297  1.00  0.00     0.306 A
HETATM   19  O2  UNL     1      15.360  18.186  -1.454  1.00  0.00    -0.263 OA
HETATM   20  N11 UNL     1      16.601  16.972  -0.040  1.00  0.00    -0.249 N
HETATM   21  N12 UNL     1      17.475  16.012   0.197  1.00  0.00    -0.128 N
ATOM     22  H11 UNL     1      16.223  17.509   0.740  1.00  0.00     0.191 HD
ATOM     23  H12 UNL     1      17.759  15.821   1.158  1.00  0.00     0.205 HD
BRANCH  16  24
HETATM   24  N9  UNL     1      16.341  16.789  -3.539  1.00  0.00    -0.287 N
ATOM     25  H9  UNL     1      15.738  17.599  -3.677  1.00  0.00     0.188 HD
BRANCH  24  26
HETATM   26  N10 UNL     1      16.694  16.053  -4.647  1.00  0.00    -0.343 N
ATOM     27 2H10 UNL     1      15.938  15.780  -5.276  1.00  0.00     0.176 HD
ATOM     28 1H10 UNL     1      17.647  15.771  -4.870  1.00  0.00     0.176 HD
ENDBRANCH  24  26
ENDBRANCH  16  24
ENDBRANCH  11  14
ENDBRANCH   4  10
BRANCH   1  29
HETATM   29  C1  UNL     1      21.525   9.579  -1.738  1.00  0.00     0.188 C
HETATM   30  N4  UNL     1      20.381   9.398  -2.377  1.00  0.00    -0.252 N
ATOM     31  H4  UNL     1      19.647  10.105  -2.370  1.00  0.00     0.191 HD
BRANCH  30  32
HETATM   32  N3  UNL     1      20.231   8.197  -3.059  1.00  0.00    -0.154 N
ATOM     33  H3  UNL     1      20.141   8.228  -4.074  1.00  0.00     0.225 HD
BRANCH  32  34
HETATM   34  N2  UNL     1      20.199   7.106  -2.508  1.00  0.00    -0.228 NA
BRANCH  34  35
HETATM   35  N1  UNL     1      20.238   6.049  -1.890  1.00  0.00    -0.259 N
ATOM     36  H12 UNL     1      19.958   5.717  -2.812  1.00  0.00     0.193 HD
ATOM     37  H11 UNL     1      20.295   5.216  -1.306  1.00  0.00     0.193 HD
ENDBRANCH  34  35
ENDBRANCH  32  34
ENDBRANCH  30  32
BRANCH  29  38
HETATM   38  O1  UNL     1      22.472   8.584  -1.791  1.00  0.00    -0.343 OA
ATOM     39  H1  UNL     1      23.332   8.793  -2.138  1.00  0.00     0.219 HD
ENDBRANCH  29  38
ENDBRANCH   1  29
BRANCH   9  40
HETATM   40  N15 UNL     1      23.328  10.159   0.397  1.00  0.00    -0.383 N
ATOM     41 2H15 UNL     1      23.384  10.059   1.411  1.00  0.00     0.157 HD
ATOM     42 1H15 UNL     1      23.897   9.564  -0.205  1.00  0.00     0.157 HD
ENDBRANCH   9  40
TORSDOF 10
ENDMDL