MODEL 2
REMARK VINA RESULT: -5.996150276      1.970      3.101
REMARK  11 active torsions:
REMARK  status: ('A' for Active; 'I' for Inactive)
REMARK    1  A    between atoms: N1_2  and  C2_4
REMARK    2  A    between atoms: C2_4  and  N2_6
REMARK    3  A    between atoms: N2_6  and  C3_8
REMARK    4  A    between atoms: C3_8  and  C4_9
REMARK    5  A    between atoms: C3_8  and  C5_14
REMARK    6  A    between atoms: C4_9  and  O1_10
REMARK    7  A    between atoms: C4_9  and  O2_12
REMARK    8  A    between atoms: C6_20  and  C7_21
REMARK    9  A    between atoms: C7_21  and  O4_26
REMARK   10  A    between atoms: N6_22  and  O3_24
REMARK   11  A    between atoms: O4_26  and  C9_27
ROOT
HETATM    1  C9  UNL     1      15.606  17.150  -0.561  1.00  0.00     0.371 C
HETATM    2  O5  UNL     1      14.450  16.708  -0.783  1.00  0.00    -0.247 OA
HETATM    3  C10 UNL     1      15.737  18.529  -0.197  1.00  0.00     0.170 C
HETATM    4  N7  UNL     1      15.861  19.654   0.093  1.00  0.00    -0.186 NA
ENDROOT
BRANCH   1   5
HETATM    5  O4  UNL     1      16.680  16.280  -0.680  1.00  0.00    -0.250 OA
BRANCH   5   6
HETATM    6  C7  UNL     1      17.112  15.865  -1.941  1.00  0.00     0.171 C
HETATM    7  N6  UNL     1      16.344  16.101  -2.926  1.00  0.00    -0.247 N
ATOM      8  H6  UNL     1      15.464  16.577  -2.730  1.00  0.00     0.196 HD
BRANCH   6   9
HETATM    9  C6  UNL     1      18.434  15.184  -2.002  1.00  0.00     0.204 C
HETATM   10  C5  UNL     1      19.111  15.365  -0.675  1.00  0.00     0.157 C
HETATM   11  N3  UNL     1      20.092  16.368  -0.924  1.00  0.00    -0.316 N
HETATM   12  N4  UNL     1      20.163  16.681  -2.138  1.00  0.00    -0.250 N
ATOM     13  H3  UNL     1      20.672  16.786  -0.196  1.00  0.00     0.181 HD
HETATM   14  N5  UNL     1      19.252  15.948  -2.901  1.00  0.00    -0.110 NA
ATOM     15  H4  UNL     1      20.802  17.380  -2.517  1.00  0.00     0.203 HD
BRANCH  10  16
HETATM   16  C3  UNL     1      19.658  14.080  -0.088  1.00  0.00     0.165 C
BRANCH  16  17
HETATM   17  N2  UNL     1      20.789  13.602  -0.823  1.00  0.00    -0.356 N
ATOM     18  H2  UNL     1      21.164  14.225  -1.538  1.00  0.00     0.162 HD
BRANCH  17  19
HETATM   19  C2  UNL     1      21.434  12.372  -0.666  1.00  0.00     0.167 C
HETATM   20  S1  UNL     1      21.247  11.162  -1.773  1.00  0.00    -0.041 SA
BRANCH  19  21
HETATM   21  N1  UNL     1      22.267  12.093   0.425  1.00  0.00    -0.372 N
HETATM   22  C1  UNL     1      22.906  10.804   0.646  1.00  0.00     0.148 C
ATOM     23  H1  UNL     1      22.437  12.835   1.103  1.00  0.00     0.161 HD
ENDBRANCH  19  21
ENDBRANCH  17  19
ENDBRANCH  16  17
BRANCH  16  24
HETATM   24  C4  UNL     1      19.897  14.121   1.377  1.00  0.00     0.278 C
BRANCH  24  25
HETATM   25  O1  UNL     1      21.165  14.652   1.669  1.00  0.00    -0.369 OA
ATOM     26  H1  UNL     1      21.855  14.111   1.303  1.00  0.00     0.212 HD
ENDBRANCH  24  25
BRANCH  24  27
HETATM   27  O2  UNL     1      19.749  12.872   1.987  1.00  0.00    -0.369 OA
ATOM     28  H2  UNL     1      20.389  12.718   2.672  1.00  0.00     0.212 HD
ENDBRANCH  24  27
ENDBRANCH  16  24
ENDBRANCH  10  16
ENDBRANCH   6   9
BRANCH   7  29
HETATM   29  O3  UNL     1      16.603  15.769  -4.231  1.00  0.00    -0.283 OA
HETATM   30  C8  UNL     1      16.724  16.720  -5.267  1.00  0.00     0.237 C
ENDBRANCH   7  29
ENDBRANCH   5   6
ENDBRANCH   1   5
TORSDOF 11
ENDMDL