MODEL 4
REMARK VINA RESULT: -5.511472562      2.902      7.130
REMARK  9 active torsions:
REMARK  status: ('A' for Active; 'I' for Inactive)
REMARK    1  A    between atoms: N2_7  and  N3_8
REMARK    2  A    between atoms: C4_10  and  C5_11
REMARK    3  A    between atoms: C6_17  and  N6_18
REMARK    4  A    between atoms: C7_21  and  N7_22
REMARK    5  A    between atoms: N7_22  and  C8_23
REMARK    6  A    between atoms: C8_23  and  C9_24
REMARK    7  A    between atoms: C9_24  and  N8_25
REMARK    8  A    between atoms: C9_24  and  N9_29
REMARK    9  A    between atoms: C11_34  and  N10_35
ROOT
HETATM    1  C1  UNL     1      23.008  10.223   0.475  1.00  0.00     0.089 C
HETATM    2  C2  UNL     1      22.535  11.583   0.203  1.00  0.00     0.079 A
HETATM    3  N1  UNL     1      21.286  12.014   0.509  1.00  0.00    -0.338 N
ATOM      4  H1  UNL     1      20.619  11.383   0.954  1.00  0.00     0.168 HD
HETATM    5  C3  UNL     1      20.934  13.293   0.219  1.00  0.00     0.113 A
HETATM    6  S1  UNL     1      19.479  14.160   0.457  1.00  0.00     0.032 SA
HETATM    7  N2  UNL     1      19.923  15.623  -0.177  1.00  0.00    -0.193 N
HETATM    8  C7  UNL     1      21.226  15.461  -0.589  1.00  0.00     0.222 A
HETATM    9  C10 UNL     1      21.738  14.222  -0.370  1.00  0.00     0.103 A
HETATM   10  C11 UNL     1      23.020  13.747  -0.673  1.00  0.00     0.118 A
HETATM   11  N11 UNL     1      23.349  12.473  -0.377  1.00  0.00    -0.332 N
ATOM     12  H11 UNL     1      24.292  12.164  -0.614  1.00  0.00     0.168 HD
ENDROOT
BRANCH   7  13
HETATM   13  N3  UNL     1      19.082  16.724  -0.233  1.00  0.00    -0.294 N
HETATM   14  C4  UNL     1      17.812  16.546  -0.317  1.00  0.00     0.143 C
ATOM     15  H3  UNL     1      19.468  17.668  -0.208  1.00  0.00     0.187 HD
BRANCH  14  16
HETATM   16  C5  UNL     1      16.883  17.675  -0.380  1.00  0.00     0.118 A
HETATM   17  N4  UNL     1      16.452  18.441   0.652  1.00  0.00    -0.237 N
HETATM   18  O1  UNL     1      15.642  19.333   0.187  1.00  0.00    -0.155 OA
ATOM     19  H4  UNL     1      16.721  18.331   1.630  1.00  0.00     0.197 HD
HETATM   20  N5  UNL     1      15.497  19.220  -1.101  1.00  0.00    -0.224 N
HETATM   21  C6  UNL     1      16.259  18.195  -1.489  1.00  0.00     0.151 A
ATOM     22  H5  UNL     1      14.913  19.804  -1.700  1.00  0.00     0.198 HD
BRANCH  21  23
HETATM   23  N6  UNL     1      16.398  17.752  -2.687  1.00  0.00    -0.382 N
ATOM     24  H62 UNL     1      15.883  16.984  -3.117  1.00  0.00     0.157 HD
ATOM     25  H61 UNL     1      17.057  18.121  -3.374  1.00  0.00     0.157 HD
ENDBRANCH  21  23
ENDBRANCH  14  16
ENDBRANCH   7  13
BRANCH   8  26
HETATM   26  N7  UNL     1      21.750  16.466  -1.103  1.00  0.00    -0.397 NA
BRANCH  26  27
HETATM   27  C8  UNL     1      22.450  17.582  -1.243  1.00  0.00     0.219 C
BRANCH  27  28
HETATM   28  C9  UNL     1      22.794  18.346   0.053  1.00  0.00     0.429 C
BRANCH  28  29
HETATM   29  N8  UNL     1      23.463  17.504   1.001  1.00  0.00    -0.045 N
ATOM     30  H83 UNL     1      23.095  16.553   0.979  1.00  0.00     0.277 HD
ATOM     31  H82 UNL     1      24.423  17.311   0.714  1.00  0.00     0.277 HD
ATOM     32  H81 UNL     1      23.427  17.895   1.942  1.00  0.00     0.277 HD
ENDBRANCH  28  29
BRANCH  28  33
HETATM   33  N9  UNL     1      21.626  19.002   0.565  1.00  0.00    -0.045 N
ATOM     34  H93 UNL     1      21.756  20.011   0.636  1.00  0.00     0.277 HD
ATOM     35  H92 UNL     1      20.860  18.997  -0.109  1.00  0.00     0.277 HD
ATOM     36  H91 UNL     1      21.352  18.588   1.456  1.00  0.00     0.277 HD
ENDBRANCH  28  33
ENDBRANCH  27  28
ENDBRANCH  26  27
ENDBRANCH   8  26
BRANCH  10  37
HETATM   37  N10 UNL     1      23.942  14.435  -1.225  1.00  0.00    -0.385 N
ATOM     38 2H10 UNL     1      23.751  15.434  -1.308  1.00  0.00     0.157 HD
ATOM     39 1H10 UNL     1      24.822  14.057  -1.574  1.00  0.00     0.157 HD
ENDBRANCH  10  37
TORSDOF 9
ENDMDL