MODEL 5
REMARK VINA RESULT: -6.062824450      1.127      1.355
REMARK  8 active torsions:
REMARK  status: ('A' for Active; 'I' for Inactive)
REMARK    1  A    between atoms: N1_1  and  C1_4
REMARK    2  A    between atoms: C2_5  and  N2_6
REMARK    3  A    between atoms: C3_9  and  C4_10
REMARK    4  A    between atoms: N3_11  and  N4_13
REMARK    5  A    between atoms: N4_13  and  C5_15
REMARK    6  A    between atoms: C6_18  and  O3_19
REMARK    7  A    between atoms: C6_18  and  C7_21
REMARK    8  A    between atoms: N8_29  and  N9_30
ROOT
HETATM    1  C1  UNL     1      22.331   6.312  -0.341  1.00  0.00     0.156 A
HETATM    2  C2  UNL     1      22.449   7.576  -0.918  1.00  0.00     0.159 A
HETATM    3  C3  UNL     1      23.320   8.505  -0.397  1.00  0.00     0.021 A
HETATM    4  C9  UNL     1      24.058   8.113   0.716  1.00  0.00     0.062 A
HETATM    5  C10 UNL     1      23.944   6.867   1.288  1.00  0.00     0.140 A
HETATM    6  N7  UNL     1      24.699   6.480   2.420  1.00  0.00    -0.081 NA
HETATM    7  N8  UNL     1      23.083   5.989   0.749  1.00  0.00    -0.230 N
ENDROOT
BRANCH   3   8
HETATM    8  C4  UNL     1      23.465   9.824  -0.986  1.00  0.00     0.121 C
HETATM    9  N3  UNL     1      23.761  10.868  -0.288  1.00  0.00    -0.310 N
ATOM     10  H3  UNL     1      23.895  10.756   0.717  1.00  0.00     0.186 HD
BRANCH   9  11
HETATM   11  N4  UNL     1      23.905  12.133  -0.833  1.00  0.00    -0.289 N
ATOM     12  H4  UNL     1      24.726  12.345  -1.401  1.00  0.00     0.188 HD
BRANCH  11  13
HETATM   13  C5  UNL     1      22.895  13.173  -0.607  1.00  0.00     0.104 C
HETATM   14  N5  UNL     1      22.230  13.221   0.433  1.00  0.00    -0.330 N
HETATM   15  C6  UNL     1      21.266  14.216   0.646  1.00  0.00     0.266 C
ATOM     16  H5  UNL     1      22.386  12.518   1.155  1.00  0.00     0.165 HD
HETATM   17  S1  UNL     1      21.177  15.004  -0.999  1.00  0.00    -0.092 SA
HETATM   18  C8  UNL     1      22.663  14.198  -1.645  1.00  0.00     0.157 C
BRANCH  15  19
HETATM   19  O3  UNL     1      21.764  15.160   1.523  1.00  0.00    -0.355 OA
ATOM     20  H3  UNL     1      21.045  15.659   1.895  1.00  0.00     0.214 HD
ENDBRANCH  15  19
BRANCH  15  21
HETATM   21  C7  UNL     1      19.936  13.745   1.086  1.00  0.00     0.298 C
HETATM   22  N6  UNL     1      18.702  14.163   0.548  1.00  0.00    -0.057 NA
HETATM   23  O4  UNL     1      19.887  12.900   2.022  1.00  0.00    -0.270 OA
ENDBRANCH  15  21
ENDBRANCH  11  13
ENDBRANCH   9  11
ENDBRANCH   3   8
BRANCH   2  24
HETATM   24  N2  UNL     1      21.643   7.880  -2.056  1.00  0.00    -0.111 N
HETATM   25  O1  UNL     1      20.512   8.380  -1.866  1.00  0.00    -0.532 OA
HETATM   26  O2  UNL     1      22.127   7.623  -3.315  1.00  0.00    -0.532 OA
ENDBRANCH   2  24
BRANCH   1  27
HETATM   27  N1  UNL     1      21.502   5.469  -0.861  1.00  0.00    -0.382 N
ATOM     28  H12 UNL     1      21.242   4.611  -0.374  1.00  0.00     0.157 HD
ATOM     29  H11 UNL     1      21.105   5.675  -1.778  1.00  0.00     0.157 HD
ENDBRANCH   1  27
BRANCH   7  30
HETATM   30  N9  UNL     1      22.937   4.720   1.294  1.00  0.00    -0.336 N
ATOM     31  H92 UNL     1      22.105   4.480   1.832  1.00  0.00     0.177 HD
ATOM     32  H91 UNL     1      23.682   4.041   1.140  1.00  0.00     0.177 HD
ENDBRANCH   7  30
TORSDOF 8
ENDMDL