MODEL 2
REMARK VINA RESULT: -6.049873927      1.615      2.052
REMARK  7 active torsions:
REMARK  status: ('A' for Active; 'I' for Inactive)
REMARK    1  A    between atoms: S1_2  and  C2_3
REMARK    2  A    between atoms: C4_10  and  N3_11
REMARK    3  A    between atoms: N3_11  and  N4_13
REMARK    4  A    between atoms: C5_18  and  O4_20
REMARK    5  A    between atoms: C7_22  and  O5_23
REMARK    6  A    between atoms: C7_22  and  N6_25
REMARK       I    between atoms: N6_25  and  C8_27
REMARK    7  A    between atoms: C8_27  and  C9_29
ROOT
HETATM    1  C2  UNL     1      17.500  18.748  -1.333  1.00  0.00     0.128 C
HETATM    2  N1  UNL     1      16.405  18.095  -1.071  1.00  0.00    -0.256 N
ATOM      3  H1  UNL     1      15.578  18.505  -0.637  1.00  0.00     0.195 HD
HETATM    4  O1  UNL     1      16.511  16.760  -1.461  1.00  0.00    -0.235 OA
HETATM    5  C3  UNL     1      17.900  16.494  -1.420  1.00  0.00     0.270 C
HETATM    6  N2  UNL     1      18.307  16.132  -0.116  1.00  0.00    -0.319 N
ATOM      7  H2  UNL     1      18.589  16.779   0.620  1.00  0.00     0.166 HD
HETATM    8  C4  UNL     1      18.264  14.820  -0.006  1.00  0.00     0.200 C
HETATM    9  N5  UNL     1      17.820  14.258  -1.244  1.00  0.00    -0.325 N
ATOM     10  H5  UNL     1      17.328  13.380  -1.407  1.00  0.00     0.165 HD
HETATM   11  C5  UNL     1      18.254  15.273  -2.230  1.00  0.00     0.189 C
HETATM   12  C6  UNL     1      19.757  15.120  -2.310  1.00  0.00     0.076 C
HETATM   13  C7  UNL     1      18.441  17.782  -1.939  1.00  0.00     0.245 C
ENDROOT
BRANCH  11  14
HETATM   14  O4  UNL     1      17.592  15.164  -3.415  1.00  0.00    -0.366 OA
ATOM     15  H4  UNL     1      17.728  14.343  -3.872  1.00  0.00     0.212 HD
ENDBRANCH  11  14
BRANCH  13  16
HETATM   16  O5  UNL     1      18.157  17.787  -3.321  1.00  0.00    -0.361 OA
ATOM     17  H5  UNL     1      18.815  17.232  -3.722  1.00  0.00     0.213 HD
ENDBRANCH  13  16
BRANCH  13  18
HETATM   18  N6  UNL     1      19.782  18.090  -1.657  1.00  0.00    -0.319 N
HETATM   19  C8  UNL     1      20.597  18.956  -2.404  1.00  0.00     0.230 C
HETATM   20  O6  UNL     1      20.175  19.533  -3.417  1.00  0.00    -0.273 OA
ATOM     21  H6  UNL     1      20.199  17.647  -0.839  1.00  0.00     0.166 HD
BRANCH  19  22
HETATM   22  C9  UNL     1      22.026  19.215  -1.994  1.00  0.00     0.188 C
HETATM   23  S2  UNL     1      22.260  18.885  -0.242  1.00  0.00    -0.088 SA
ENDBRANCH  19  22
ENDBRANCH  13  18
BRANCH   8  24
HETATM   24  N3  UNL     1      18.592  14.053   1.150  1.00  0.00    -0.211 N
ATOM     25  H3  UNL     1      17.849  13.753   1.780  1.00  0.00     0.196 HD
BRANCH  24  26
HETATM   26  N4  UNL     1      19.894  13.710   1.430  1.00  0.00    -0.036 N
HETATM   27  O2  UNL     1      20.184  12.549   1.738  1.00  0.00    -0.516 OA
HETATM   28  O3  UNL     1      20.858  14.689   1.357  1.00  0.00    -0.516 OA
ENDBRANCH  24  26
ENDBRANCH   8  24
BRANCH   1  29
HETATM   29  S1  UNL     1      17.653  20.478  -0.943  1.00  0.00    -0.114 SA
HETATM   30  C1  UNL     1      18.807  20.712   0.466  1.00  0.00     0.097 C
ENDBRANCH   1  29
TORSDOF 7
ENDMDL