MODEL 5
REMARK VINA RESULT: -8.933453180      3.305      7.887
REMARK  9 active torsions:
REMARK  status: ('A' for Active; 'I' for Inactive)
REMARK    1  A    between atoms: C2_2  and  N1_3
REMARK       I    between atoms: N1_3  and  C3_5
REMARK       I    between atoms: C3_5  and  N2_7
REMARK    2  A    between atoms: N2_7  and  C4_9
REMARK    3  A    between atoms: C6_11  and  C7_12
REMARK    4  A    between atoms: C7_12  and  N3_13
REMARK    5  A    between atoms: N3_13  and  C8_14
REMARK    6  A    between atoms: N3_13  and  S1_18
REMARK    7  A    between atoms: C8_14  and  C9_15
REMARK    8  A    between atoms: S1_18  and  C12_21
REMARK    9  A    between atoms: C19_28  and  C20_29
ROOT
HETATM    1  C4  UNL     1      17.461 -68.135 -23.510  1.00  0.00     0.109 A
HETATM    2  C5  UNL     1      17.143 -69.397 -23.084  1.00  0.00     0.062 A
HETATM    3  C6  UNL     1      15.930 -69.995 -23.324  1.00  0.00    -0.009 A
HETATM    4  C19 UNL     1      15.022 -69.213 -24.051  1.00  0.00    -0.031 A
HETATM    5  C22 UNL     1      15.365 -67.973 -24.475  1.00  0.00     0.097 A
HETATM    6  N4  UNL     1      16.519 -67.412 -24.245  1.00  0.00    -0.352 N
ATOM      7  H4  UNL     1      16.727 -66.476 -24.591  1.00  0.00     0.166 HD
ENDROOT
BRANCH   3   8
HETATM    8  C7  UNL     1      15.443 -71.248 -22.812  1.00  0.00     0.115 C
BRANCH   8   9
HETATM    9  N3  UNL     1      14.797 -71.566 -21.628  1.00  0.00    -0.281 N
BRANCH   9  10
HETATM   10  C8  UNL     1      15.804 -72.292 -20.818  1.00  0.00     0.145 C
BRANCH  10  11
HETATM   11  C9  UNL     1      16.755 -73.145 -21.523  1.00  0.00    -0.004 C
HETATM   12  C10 UNL     1      18.146 -72.817 -20.889  1.00  0.00     0.011 C
HETATM   13  C11 UNL     1      16.622 -74.615 -21.495  1.00  0.00     0.011 C
ENDBRANCH  10  11
ENDBRANCH   9  10
BRANCH   9  14
HETATM   14  S1  UNL     1      13.300 -72.163 -21.310  1.00  0.00     0.264 S
HETATM   15  O2  UNL     1      12.532 -71.275 -20.275  1.00  0.00    -0.200 OA
HETATM   16  O3  UNL     1      13.342 -73.502 -20.543  1.00  0.00    -0.200 OA
BRANCH  14  17
HETATM   17  C12 UNL     1      12.188 -72.355 -22.648  1.00  0.00     0.080 A
HETATM   18  C13 UNL     1      11.031 -71.538 -22.675  1.00  0.00     0.026 A
HETATM   19  C14 UNL     1      10.094 -71.590 -23.662  1.00  0.00     0.008 A
HETATM   20  C15 UNL     1      10.229 -72.470 -24.712  1.00  0.00    -0.062 A
HETATM   21  C16 UNL     1       9.195 -72.505 -25.792  1.00  0.00     0.048 C
HETATM   22  C17 UNL     1      11.347 -73.274 -24.706  1.00  0.00     0.008 A
HETATM   23  C18 UNL     1      12.303 -73.206 -23.689  1.00  0.00     0.026 A
ENDBRANCH  14  17
ENDBRANCH   9  14
ENDBRANCH   8   9
ENDBRANCH   3   8
BRANCH   4  24
HETATM   24  C20 UNL     1      13.600 -69.630 -24.231  1.00  0.00     0.036 C
HETATM   25  C21 UNL     1      12.908 -68.640 -25.197  1.00  0.00     0.010 C
ENDBRANCH   4  24
BRANCH   1  26
HETATM   26  N2  UNL     1      18.293 -67.311 -23.019  1.00  0.00    -0.295 N
HETATM   27  C3  UNL     1      18.250 -66.163 -22.237  1.00  0.00     0.321 C
HETATM   28  N1  UNL     1      18.531 -64.906 -22.941  1.00  0.00    -0.343 N
HETATM   29  O1  UNL     1      17.999 -66.109 -21.042  1.00  0.00    -0.247 OA
ATOM     30  H1  UNL     1      18.756 -64.973 -23.934  1.00  0.00     0.164 HD
ATOM     31  H2  UNL     1      19.252 -67.558 -23.265  1.00  0.00     0.172 HD
BRANCH  28  32
HETATM   32  C2  UNL     1      18.518 -63.613 -22.377  1.00  0.00     0.120 C
HETATM   33  C1  UNL     1      19.264 -62.639 -23.294  1.00  0.00     0.026 C
ENDBRANCH  28  32
ENDBRANCH   1  26
TORSDOF 9
ENDMDL