MODEL 5
REMARK VINA RESULT: -9.161826063      1.920      3.581
REMARK  8 active torsions:
REMARK  status: ('A' for Active; 'I' for Inactive)
REMARK    1  A    between atoms: C2_2  and  C3_3
REMARK    2  A    between atoms: C3_3  and  C4_4
REMARK    3  A    between atoms: C4_4  and  N1_5
REMARK    4  A    between atoms: C4_4  and  C22_25
REMARK       I    between atoms: N1_5  and  C5_6
REMARK    5  A    between atoms: C5_6  and  C6_8
REMARK    6  A    between atoms: C7_10  and  C8_11
REMARK    7  A    between atoms: C22_25  and  C23_26
REMARK    8  A    between atoms: C22_25  and  C24_29
ROOT
HETATM    1  C6  UNL     1      13.373 -71.845 -23.632  1.00  0.00     0.203 C
HETATM    2  N2  UNL     1      11.985 -71.971 -23.827  1.00  0.00    -0.354 N
HETATM    3  C7  UNL     1      11.463 -71.391 -24.907  1.00  0.00     0.103 C
HETATM    4  C17 UNL     1      11.473 -72.919 -22.949  1.00  0.00     0.065 C
HETATM    5  C18 UNL     1      12.486 -74.020 -23.099  1.00  0.00     0.056 C
HETATM    6  C19 UNL     1      13.790 -73.133 -22.958  1.00  0.00    -0.013 C
HETATM    7  C20 UNL     1      14.839 -73.865 -23.736  1.00  0.00     0.018 C
HETATM    8  C21 UNL     1      14.023 -72.945 -21.535  1.00  0.00     0.018 C
ENDROOT
BRANCH   1   9
HETATM    9  C5  UNL     1      13.899 -70.546 -22.954  1.00  0.00     0.311 C
HETATM   10  N1  UNL     1      15.155 -70.217 -23.183  1.00  0.00    -0.407 NA
HETATM   11  O1  UNL     1      13.172 -69.832 -22.319  1.00  0.00    -0.255 OA
BRANCH  10  12
HETATM   12  C4  UNL     1      16.423 -69.760 -23.336  1.00  0.00     0.179 C
BRANCH  12  13
HETATM   13  C3  UNL     1      16.202 -68.161 -23.143  1.00  0.00     0.040 C
BRANCH  13  14
HETATM   14  C2  UNL     1      17.602 -67.594 -23.204  1.00  0.00    -0.002 C
HETATM   15  C1  UNL     1      17.725 -66.375 -22.285  1.00  0.00     0.005 C
ENDBRANCH  13  14
ENDBRANCH  12  13
BRANCH  12  16
HETATM   16  C22 UNL     1      17.620 -70.025 -22.580  1.00  0.00     0.114 C
BRANCH  16  17
HETATM   17  C23 UNL     1      17.183 -70.585 -21.178  1.00  0.00     0.238 C
HETATM   18  N3  UNL     1      17.007 -69.589 -20.196  1.00  0.00    -0.062 NA
HETATM   19  O2  UNL     1      17.038 -71.743 -21.006  1.00  0.00    -0.276 OA
ENDBRANCH  16  17
BRANCH  16  20
HETATM   20  C24 UNL     1      18.468 -71.092 -23.219  1.00  0.00    -0.007 C
HETATM   21  C25 UNL     1      19.921 -70.902 -23.310  1.00  0.00     0.010 C
HETATM   22  C26 UNL     1      17.852 -71.732 -24.443  1.00  0.00     0.010 C
ENDBRANCH  16  20
ENDBRANCH  12  16
ENDBRANCH  10  12
ENDBRANCH   1   9
BRANCH   3  23
HETATM   23  C8  UNL     1      10.083 -71.500 -25.357  1.00  0.00    -0.009 A
HETATM   24  C9  UNL     1       9.434 -70.126 -25.336  1.00  0.00    -0.049 A
HETATM   25  C10 UNL     1      10.210 -69.081 -24.741  1.00  0.00     0.049 C
HETATM   26  C11 UNL     1       8.193 -70.081 -25.791  1.00  0.00     0.014 A
HETATM   27  C12 UNL     1       7.458 -71.099 -26.316  1.00  0.00    -0.061 A
HETATM   28  C13 UNL     1       6.089 -70.841 -26.927  1.00  0.00     0.048 C
HETATM   29  C14 UNL     1       8.072 -72.281 -26.402  1.00  0.00     0.014 A
HETATM   30  C15 UNL     1       9.355 -72.449 -25.912  1.00  0.00    -0.049 A
HETATM   31  C16 UNL     1       9.981 -73.792 -26.311  1.00  0.00     0.049 C
ENDBRANCH   3  23
TORSDOF 8
ENDMDL