MODEL 1
REMARK VINA RESULT: -9.079195151      0.000      0.000
REMARK  9 active torsions:
REMARK  status: ('A' for Active; 'I' for Inactive)
REMARK    1  A    between atoms: C6_6  and  C7_7
REMARK    2  A    between atoms: C7_7  and  C9_9
REMARK    3  A    between atoms: C9_9  and  C10_10
REMARK    4  A    between atoms: C10_10  and  N1_11
REMARK    5  A    between atoms: C11_12  and  C12_13
REMARK    6  A    between atoms: C15_19  and  C16_20
REMARK    7  A    between atoms: C16_20  and  C17_21
REMARK    8  A    between atoms: C21_28  and  C22_29
REMARK    9  A    between atoms: C22_29  and  C23_30
ROOT
HETATM    1  C1  UNL     1       7.897 -70.674 -25.891  1.00  0.00     0.018 C
HETATM    2  C2  UNL     1       8.944 -71.020 -25.402  1.00  0.00    -0.078 C
HETATM    3  C3  UNL     1      10.200 -71.459 -24.824  1.00  0.00     0.017 A
HETATM    4  C4  UNL     1      10.416 -71.301 -23.475  1.00  0.00     0.021 A
HETATM    5  C5  UNL     1      11.624 -71.724 -22.917  1.00  0.00     0.009 A
HETATM    6  C6  UNL     1      12.617 -72.297 -23.663  1.00  0.00    -0.054 A
HETATM    7  C26 UNL     1      12.396 -72.453 -25.009  1.00  0.00     0.009 A
HETATM    8  C27 UNL     1      11.197 -72.035 -25.575  1.00  0.00     0.021 A
ENDROOT
BRANCH   6   9
HETATM    9  C7  UNL     1      13.886 -72.737 -23.030  1.00  0.00     0.016 C
HETATM   10  C8  UNL     1      13.714 -74.232 -22.782  1.00  0.00     0.015 C
BRANCH   9  11
HETATM   11  C9  UNL     1      14.158 -72.013 -21.725  1.00  0.00     0.029 C
BRANCH  11  12
HETATM   12  C10 UNL     1      15.148 -70.944 -21.953  1.00  0.00     0.126 C
BRANCH  12  13
HETATM   13  N1  UNL     1      14.636 -69.654 -22.331  1.00  0.00    -0.354 N
HETATM   14  C11 UNL     1      15.003 -69.313 -23.663  1.00  0.00     0.105 C
HETATM   15  N2  UNL     1      16.418 -69.112 -23.867  1.00  0.00    -0.311 N
HETATM   16  C14 UNL     1      17.435 -68.366 -23.177  1.00  0.00     0.246 C
ATOM     17  H2  UNL     1      16.776 -69.610 -24.681  1.00  0.00     0.170 HD
HETATM   18  O1  UNL     1      18.546 -68.898 -23.267  1.00  0.00    -0.271 OA
HETATM   19  C15 UNL     1      17.334 -67.132 -22.419  1.00  0.00     0.177 C
HETATM   20  N3  UNL     1      16.855 -67.412 -21.049  1.00  0.00    -0.346 N
HETATM   21  C20 UNL     1      15.721 -68.189 -20.646  1.00  0.00     0.241 C
ATOM     22  H3  UNL     1      17.403 -67.000 -20.294  1.00  0.00     0.163 HD
HETATM   23  O2  UNL     1      15.849 -68.461 -19.429  1.00  0.00    -0.271 OA
HETATM   24  C21 UNL     1      14.507 -68.708 -21.317  1.00  0.00     0.178 C
BRANCH  14  25
HETATM   25  C12 UNL     1      14.130 -68.410 -24.404  1.00  0.00     0.038 C
HETATM   26  C13 UNL     1      12.963 -68.740 -24.935  1.00  0.00     0.015 C
ENDBRANCH  14  25
BRANCH  19  27
HETATM   27  C16 UNL     1      18.543 -66.320 -22.369  1.00  0.00     0.038 C
BRANCH  27  28
HETATM   28  C17 UNL     1      18.521 -64.920 -21.952  1.00  0.00    -0.020 C
HETATM   29  C18 UNL     1      19.797 -64.696 -21.100  1.00  0.00     0.009 C
HETATM   30  C19 UNL     1      18.441 -63.804 -22.890  1.00  0.00     0.009 C
ENDBRANCH  27  28
ENDBRANCH  19  27
BRANCH  24  31
HETATM   31  C22 UNL     1      13.549 -67.540 -21.620  1.00  0.00     0.038 C
BRANCH  31  32
HETATM   32  C23 UNL     1      12.363 -67.607 -20.641  1.00  0.00    -0.020 C
HETATM   33  C24 UNL     1      11.410 -66.517 -21.172  1.00  0.00     0.009 C
HETATM   34  C25 UNL     1      11.638 -68.909 -20.893  1.00  0.00     0.009 C
ENDBRANCH  31  32
ENDBRANCH  24  31
ENDBRANCH  12  13
ENDBRANCH  11  12
ENDBRANCH   9  11
ENDBRANCH   6   9
TORSDOF 9
ENDMDL