MODEL 3
REMARK VINA RESULT: -8.741150650      1.477      2.601
REMARK  12 active torsions:
REMARK  status: ('A' for Active; 'I' for Inactive)
REMARK    1  A    between atoms: C2_2  and  O1_3
REMARK    2  A    between atoms: O1_3  and  C3_4
REMARK    3  A    between atoms: C3_4  and  C4_5
REMARK    4  A    between atoms: C4_5  and  N1_6
REMARK    5  A    between atoms: N1_6  and  C5_7
REMARK    6  A    between atoms: C11_15  and  C12_16
REMARK    7  A    between atoms: C13_17  and  C14_18
REMARK    8  A    between atoms: C17_21  and  C18_22
REMARK    9  A    between atoms: C18_22  and  C19_23
REMARK   10  A    between atoms: C18_22  and  N3_26
REMARK   11  A    between atoms: C19_23  and  C20_24
REMARK       I    between atoms: N3_26  and  C22_27
REMARK   12  A    between atoms: C22_27  and  C23_29
ROOT
HETATM    1  C5  UNL     1       6.437 -72.713 -27.019  1.00  0.00     0.114 A
HETATM    2  C6  UNL     1       5.452 -73.533 -27.639  1.00  0.00     0.062 A
HETATM    3  C7  UNL     1       5.693 -74.839 -27.929  1.00  0.00     0.091 A
HETATM    4  N2  UNL     1       6.861 -75.424 -27.649  1.00  0.00    -0.365 N
ATOM      5  H2  UNL     1       7.018 -76.406 -27.875  1.00  0.00     0.165 HD
HETATM    6  C8  UNL     1       7.812 -74.699 -27.069  1.00  0.00     0.045 A
HETATM    7  C9  UNL     1       9.016 -75.307 -26.785  1.00  0.00     0.032 A
HETATM    8  C10 UNL     1      10.026 -74.587 -26.186  1.00  0.00     0.023 A
HETATM    9  C11 UNL     1       9.889 -73.262 -25.852  1.00  0.00     0.019 A
HETATM   10  C27 UNL     1       8.663 -72.669 -26.147  1.00  0.00     0.037 A
HETATM   11  C28 UNL     1       7.642 -73.374 -26.747  1.00  0.00     0.032 A
ENDROOT
BRANCH   9  12
HETATM   12  C12 UNL     1      10.887 -72.436 -25.251  1.00  0.00    -0.061 C
HETATM   13  C13 UNL     1      11.739 -71.722 -24.790  1.00  0.00    -0.061 C
BRANCH  13  14
HETATM   14  C14 UNL     1      12.784 -70.833 -24.302  1.00  0.00     0.018 A
HETATM   15  C15 UNL     1      13.713 -71.220 -23.378  1.00  0.00     0.021 A
HETATM   16  C16 UNL     1      14.763 -70.352 -23.006  1.00  0.00     0.012 A
HETATM   17  C17 UNL     1      14.855 -69.112 -23.567  1.00  0.00    -0.023 A
HETATM   18  C25 UNL     1      13.917 -68.705 -24.501  1.00  0.00     0.012 A
HETATM   19  C26 UNL     1      12.902 -69.554 -24.858  1.00  0.00     0.021 A
BRANCH  17  20
HETATM   20  C18 UNL     1      15.994 -68.230 -23.271  1.00  0.00     0.200 C
BRANCH  20  21
HETATM   21  C19 UNL     1      15.865 -67.334 -22.099  1.00  0.00     0.044 C
BRANCH  21  22
HETATM   22  C20 UNL     1      16.560 -67.794 -20.852  1.00  0.00    -0.001 C
HETATM   23  C21 UNL     1      15.600 -68.419 -19.863  1.00  0.00     0.005 C
ENDBRANCH  21  22
ENDBRANCH  20  21
BRANCH  20  24
HETATM   24  N3  UNL     1      17.233 -68.985 -23.187  1.00  0.00    -0.405 NA
HETATM   25  C22 UNL     1      18.321 -69.650 -23.114  1.00  0.00     0.286 C
HETATM   26  O2  UNL     1      19.540 -69.251 -23.110  1.00  0.00    -0.258 OA
BRANCH  25  27
HETATM   27  C23 UNL     1      18.336 -71.210 -23.021  1.00  0.00     0.114 C
HETATM   28  C24 UNL     1      17.925 -71.807 -24.310  1.00  0.00     0.016 C
ENDBRANCH  25  27
ENDBRANCH  20  24
ENDBRANCH  17  20
ENDBRANCH  13  14
ENDBRANCH   9  12
BRANCH   1  29
HETATM   29  N1  UNL     1       6.194 -71.573 -26.786  1.00  0.00    -0.445 NA
BRANCH  29  30
HETATM   30  C4  UNL     1       5.839 -70.278 -26.815  1.00  0.00     0.245 C
BRANCH  30  31
HETATM   31  C3  UNL     1       7.035 -69.292 -26.678  1.00  0.00     0.207 C
BRANCH  31  32
HETATM   32  O1  UNL     1       7.735 -69.609 -25.501  1.00  0.00    -0.361 OA
BRANCH  32  33
HETATM   33  C2  UNL     1       9.045 -69.194 -25.257  1.00  0.00     0.124 C
HETATM   34  C1  UNL     1       9.819 -68.737 -26.179  1.00  0.00     0.037 C
ENDBRANCH  32  33
ENDBRANCH  31  32
ENDBRANCH  30  31
ENDBRANCH  29  30
ENDBRANCH   1  29
TORSDOF 12
ENDMDL