MODEL 1
REMARK VINA RESULT: -9.618182239      0.000      0.000
REMARK  9 active torsions:
REMARK  status: ('A' for Active; 'I' for Inactive)
REMARK    1  A    between atoms: C2_2  and  C3_3
REMARK    2  A    between atoms: C3_3  and  C4_4
REMARK    3  A    between atoms: N1_5  and  S1_7
REMARK    4  A    between atoms: S1_7  and  C5_10
REMARK    5  A    between atoms: C8_13  and  N2_14
REMARK       I    between atoms: N2_14  and  C9_16
REMARK    6  A    between atoms: C9_16  and  C10_18
REMARK    7  A    between atoms: C11_19  and  C12_20
REMARK       I    between atoms: C12_20  and  N3_22
REMARK    8  A    between atoms: N3_22  and  C13_24
REMARK    9  A    between atoms: C15_26  and  C16_27
ROOT
HETATM    1  N2  UNL     1      13.682 -71.291 -21.337  1.00  0.00    -0.324 N
ATOM      2  H2  UNL     1      12.967 -71.738 -20.762  1.00  0.00     0.169 HD
HETATM    3  C9  UNL     1      13.633 -69.892 -21.412  1.00  0.00     0.245 C
HETATM    4  O3  UNL     1      14.487 -69.318 -22.115  1.00  0.00    -0.268 OA
ENDROOT
BRANCH   3   5
HETATM    5  C10 UNL     1      12.610 -69.192 -20.678  1.00  0.00     0.080 C
HETATM    6  C11 UNL     1      11.829 -68.223 -20.960  1.00  0.00     0.080 C
BRANCH   6   7
HETATM    7  C12 UNL     1      11.696 -67.463 -22.164  1.00  0.00     0.246 C
HETATM    8  O4  UNL     1      12.332 -66.419 -22.391  1.00  0.00    -0.268 OA
HETATM    9  N3  UNL     1      10.766 -67.913 -23.204  1.00  0.00    -0.310 N
ATOM     10  H3  UNL     1       9.884 -67.417 -23.335  1.00  0.00     0.170 HD
BRANCH   9  11
HETATM   11  C13 UNL     1      11.040 -68.919 -23.955  1.00  0.00     0.108 A
HETATM   12  C14 UNL     1      10.072 -69.888 -24.235  1.00  0.00     0.056 A
HETATM   13  C15 UNL     1      10.301 -70.970 -25.015  1.00  0.00    -0.050 A
HETATM   14  C19 UNL     1      11.547 -71.140 -25.571  1.00  0.00     0.024 A
HETATM   15  C20 UNL     1      12.491 -70.174 -25.284  1.00  0.00     0.090 A
HETATM   16  N4  UNL     1      12.254 -69.102 -24.507  1.00  0.00    -0.352 N
ATOM     17  H4  UNL     1      12.998 -68.425 -24.336  1.00  0.00     0.166 HD
BRANCH  13  18
HETATM   18  C16 UNL     1       9.274 -72.001 -25.324  1.00  0.00     0.010 C
HETATM   19  C17 UNL     1       8.111 -71.489 -26.106  1.00  0.00     0.015 C
HETATM   20  C18 UNL     1      10.000 -73.026 -26.213  1.00  0.00     0.015 C
ENDBRANCH  13  18
ENDBRANCH   9  11
ENDBRANCH   6   7
ENDBRANCH   3   5
BRANCH   1  21
HETATM   21  C8  UNL     1      14.601 -72.150 -21.963  1.00  0.00     0.035 A
HETATM   22  C7  UNL     1      15.688 -72.642 -21.203  1.00  0.00     0.031 A
HETATM   23  C6  UNL     1      16.636 -73.456 -21.747  1.00  0.00     0.027 A
HETATM   24  C5  UNL     1      16.603 -73.857 -23.068  1.00  0.00     0.080 A
HETATM   25  C22 UNL     1      15.558 -73.395 -23.828  1.00  0.00     0.027 A
HETATM   26  C21 UNL     1      14.586 -72.560 -23.273  1.00  0.00     0.031 A
BRANCH  24  27
HETATM   27  S1  UNL     1      17.821 -74.883 -23.758  1.00  0.00     0.262 S
HETATM   28  O1  UNL     1      17.192 -75.699 -24.853  1.00  0.00    -0.200 OA
HETATM   29  O2  UNL     1      18.208 -75.886 -22.681  1.00  0.00    -0.200 OA
BRANCH  27  30
HETATM   30  N1  UNL     1      19.212 -74.074 -24.269  1.00  0.00    -0.295 N
HETATM   31  C4  UNL     1      19.460 -72.842 -24.067  1.00  0.00     0.073 C
ATOM     32  H1  UNL     1      19.910 -74.616 -24.779  1.00  0.00     0.177 HD
BRANCH  31  33
HETATM   33  C3  UNL     1      20.728 -72.241 -24.571  1.00  0.00     0.045 C
BRANCH  33  34
HETATM   34  C2  UNL     1      20.617 -71.882 -26.037  1.00  0.00     0.001 C
HETATM   35  C1  UNL     1      21.585 -72.732 -26.840  1.00  0.00     0.005 C
ENDBRANCH  33  34
ENDBRANCH  31  33
ENDBRANCH  27  30
ENDBRANCH  24  27
ENDBRANCH   1  21
TORSDOF 9
ENDMDL