MODEL 5
REMARK VINA RESULT: -9.140873656      2.838      8.057
REMARK  9 active torsions:
REMARK  status: ('A' for Active; 'I' for Inactive)
REMARK    1  A    between atoms: C2_2  and  C3_3
REMARK    2  A    between atoms: C3_3  and  C4_4
REMARK    3  A    between atoms: C4_4  and  C5_5
REMARK    4  A    between atoms: C4_4  and  N3_12
REMARK    5  A    between atoms: N3_12  and  C8_13
REMARK       I    between atoms: N3_12  and  C20_28
REMARK    6  A    between atoms: C8_13  and  C9_14
REMARK    7  A    between atoms: C20_28  and  C21_30
REMARK    8  A    between atoms: C21_30  and  C22_31
REMARK    9  A    between atoms: C22_31  and  N5_32
ROOT
HETATM    1  N3  UNL     1      13.681 -69.131 -23.061  1.00  0.00    -0.337 N
HETATM    2  C20 UNL     1      13.049 -69.572 -24.279  1.00  0.00     0.222 C
HETATM    3  O2  UNL     1      13.029 -68.760 -25.232  1.00  0.00    -0.273 OA
ENDROOT
BRANCH   1   4
HETATM    4  C4  UNL     1      14.239 -67.806 -23.051  1.00  0.00     0.139 C
BRANCH   4   5
HETATM    5  C3  UNL     1      13.607 -67.012 -21.909  1.00  0.00     0.031 C
BRANCH   5   6
HETATM    6  C2  UNL     1      12.140 -66.793 -22.072  1.00  0.00    -0.002 C
HETATM    7  C1  UNL     1      11.474 -67.338 -20.796  1.00  0.00     0.005 C
ENDBRANCH   5   6
ENDBRANCH   4   5
BRANCH   4   8
HETATM    8  C5  UNL     1      15.693 -67.689 -23.091  1.00  0.00     0.050 A
HETATM    9  C6  UNL     1      16.585 -67.161 -22.185  1.00  0.00     0.047 A
HETATM   10  C7  UNL     1      17.866 -67.249 -22.672  1.00  0.00     0.109 A
HETATM   11  N1  UNL     1      17.738 -67.830 -23.868  1.00  0.00    -0.312 N
HETATM   12  N2  UNL     1      16.486 -68.099 -24.143  1.00  0.00    -0.303 N
ATOM     13  H1  UNL     1      18.519 -68.038 -24.490  1.00  0.00     0.186 HD
ATOM     14  H2  UNL     1      16.150 -68.542 -24.998  1.00  0.00     0.186 HD
ENDBRANCH   4   8
ENDBRANCH   1   4
BRANCH   1  15
HETATM   15  C8  UNL     1      13.828 -70.029 -21.977  1.00  0.00     0.171 C
BRANCH  15  16
HETATM   16  C9  UNL     1      15.039 -70.818 -21.828  1.00  0.00     0.029 A
HETATM   17  C10 UNL     1      15.531 -71.788 -22.654  1.00  0.00     0.028 A
HETATM   18  C11 UNL     1      16.731 -72.411 -22.345  1.00  0.00    -0.008 A
HETATM   19  C12 UNL     1      17.224 -73.404 -23.197  1.00  0.00     0.021 A
HETATM   20  C18 UNL     1      17.469 -72.098 -21.224  1.00  0.00     0.045 A
HETATM   21  C13 UNL     1      18.409 -74.049 -22.930  1.00  0.00    -0.055 A
HETATM   22  C14 UNL     1      18.925 -75.096 -23.834  1.00  0.00     0.049 C
HETATM   23  C15 UNL     1      19.118 -73.703 -21.795  1.00  0.00    -0.054 A
HETATM   24  C16 UNL     1      20.390 -74.425 -21.544  1.00  0.00     0.049 C
HETATM   25  C17 UNL     1      18.678 -72.736 -20.923  1.00  0.00     0.037 A
HETATM   26  N4  UNL     1      16.971 -71.147 -20.429  1.00  0.00    -0.322 N
HETATM   27  C19 UNL     1      15.819 -70.525 -20.697  1.00  0.00     0.253 A
ATOM     28  H4  UNL     1      17.488 -70.886 -19.589  1.00  0.00     0.169 HD
HETATM   29  O1  UNL     1      15.432 -69.642 -19.887  1.00  0.00    -0.268 OA
ENDBRANCH  15  16
ENDBRANCH   1  15
BRANCH   2  30
HETATM   30  C21 UNL     1      12.443 -70.925 -24.421  1.00  0.00     0.131 C
BRANCH  30  31
HETATM   31  C22 UNL     1      10.950 -70.787 -24.339  1.00  0.00     0.245 C
BRANCH  31  32
HETATM   32  N5  UNL     1      10.316 -72.014 -23.888  1.00  0.00    -0.078 N
HETATM   33  C23 UNL     1      11.308 -72.810 -23.219  1.00  0.00     0.271 C
HETATM   34  C24 UNL     1       9.190 -71.712 -23.016  1.00  0.00     0.271 C
HETATM   35  C25 UNL     1       9.864 -72.715 -25.079  1.00  0.00     0.271 C
ENDBRANCH  31  32
ENDBRANCH  30  31
ENDBRANCH   2  30
TORSDOF 9
ENDMDL