MODEL 4
REMARK VINA RESULT: -8.733823998      2.225      7.151
REMARK  9 active torsions:
REMARK  status: ('A' for Active; 'I' for Inactive)
REMARK    1  A    between atoms: C2_2  and  C3_3
REMARK    2  A    between atoms: C3_3  and  C4_4
REMARK    3  A    between atoms: C4_4  and  N1_5
REMARK    4  A    between atoms: N1_5  and  C5_6
REMARK       I    between atoms: N1_5  and  C8_9
REMARK    5  A    between atoms: C5_6  and  C6_7
REMARK    6  A    between atoms: C8_9  and  C9_11
REMARK    7  A    between atoms: C10_12  and  C11_13
REMARK    8  A    between atoms: C12_14  and  C13_15
REMARK    9  A    between atoms: C13_15  and  C14_16
ROOT
HETATM    1  C11 UNL     1      13.933 -72.472 -22.513  1.00  0.00     0.044 A
HETATM    2  C12 UNL     1      13.193 -71.360 -22.519  1.00  0.00     0.030 A
HETATM    3  C25 UNL     1      12.327 -71.346 -21.351  1.00  0.00     0.255 A
HETATM    4  O2  UNL     1      11.475 -70.443 -21.014  1.00  0.00    -0.268 OA
HETATM    5  N3  UNL     1      12.595 -72.535 -20.627  1.00  0.00    -0.289 N
ATOM      6  H3  UNL     1      12.152 -72.827 -19.756  1.00  0.00     0.172 HD
HETATM    7  C26 UNL     1      13.591 -73.240 -21.341  1.00  0.00     0.259 A
HETATM    8  O3  UNL     1      14.074 -74.367 -20.967  1.00  0.00    -0.267 OA
ENDROOT
BRANCH   2   9
HETATM    9  C13 UNL     1      13.237 -70.280 -23.572  1.00  0.00     0.086 C
BRANCH   9  10
HETATM   10  C14 UNL     1      11.905 -69.769 -23.941  1.00  0.00    -0.019 A
HETATM   11  C15 UNL     1      11.411 -68.512 -23.662  1.00  0.00     0.013 A
HETATM   12  C16 UNL     1      12.127 -67.396 -22.958  1.00  0.00     0.068 C
HETATM   13  N2  UNL     1      10.158 -68.485 -24.146  1.00  0.00    -0.359 N
HETATM   14  C17 UNL     1       9.842 -69.661 -24.714  1.00  0.00     0.043 A
ATOM     15  H2  UNL     1       9.532 -67.681 -24.090  1.00  0.00     0.166 HD
HETATM   16  C18 UNL     1       8.713 -70.163 -25.338  1.00  0.00     0.037 A
HETATM   17  C24 UNL     1      10.928 -70.523 -24.610  1.00  0.00    -0.000 A
HETATM   18  C19 UNL     1       8.604 -71.432 -25.849  1.00  0.00    -0.054 A
HETATM   19  C20 UNL     1       7.369 -71.932 -26.514  1.00  0.00     0.049 C
HETATM   20  C21 UNL     1       9.724 -72.258 -25.718  1.00  0.00    -0.055 A
HETATM   21  C22 UNL     1       9.603 -73.630 -26.271  1.00  0.00     0.049 C
HETATM   22  C23 UNL     1      10.870 -71.809 -25.106  1.00  0.00     0.021 A
ENDBRANCH   9  10
ENDBRANCH   2   9
BRANCH   1  23
HETATM   23  C10 UNL     1      14.928 -72.820 -23.551  1.00  0.00     0.023 C
HETATM   24  C9  UNL     1      16.207 -72.936 -23.301  1.00  0.00     0.075 C
BRANCH  24  25
HETATM   25  C8  UNL     1      17.122 -73.283 -24.386  1.00  0.00     0.243 C
HETATM   26  N1  UNL     1      18.467 -72.824 -24.413  1.00  0.00    -0.349 N
HETATM   27  O1  UNL     1      16.670 -74.014 -25.309  1.00  0.00    -0.268 OA
BRANCH  26  28
HETATM   28  C4  UNL     1      19.304 -73.217 -25.519  1.00  0.00     0.126 C
BRANCH  28  29
HETATM   29  C3  UNL     1      19.421 -72.056 -26.515  1.00  0.00     0.020 C
BRANCH  29  30
HETATM   30  C2  UNL     1      20.867 -71.659 -26.687  1.00  0.00    -0.003 C
HETATM   31  C1  UNL     1      21.753 -72.889 -26.697  1.00  0.00     0.005 C
ENDBRANCH  29  30
ENDBRANCH  28  29
ENDBRANCH  26  28
BRANCH  26  32
HETATM   32  C5  UNL     1      18.990 -71.991 -23.378  1.00  0.00     0.125 C
BRANCH  32  33
HETATM   33  C6  UNL     1      20.370 -72.431 -22.918  1.00  0.00     0.015 C
HETATM   34  C7  UNL     1      20.171 -73.440 -21.821  1.00  0.00     0.006 C
ENDBRANCH  32  33
ENDBRANCH  26  32
ENDBRANCH  24  25
ENDBRANCH   1  23
TORSDOF 9
ENDMDL