MODEL 3
REMARK VINA RESULT: -7.478612656      2.739      7.080
REMARK  11 active torsions:
REMARK  status: ('A' for Active; 'I' for Inactive)
REMARK    1  A    between atoms: C6_6  and  S1_7
REMARK    2  A    between atoms: S1_7  and  N1_10
REMARK    3  A    between atoms: N1_10  and  C7_12
REMARK    4  A    between atoms: C7_12  and  C8_13
REMARK    5  A    between atoms: C8_13  and  O3_14
REMARK    6  A    between atoms: O3_14  and  C9_15
REMARK    7  A    between atoms: C9_15  and  C10_16
REMARK    8  A    between atoms: C10_16  and  N2_17
REMARK    9  A    between atoms: N2_17  and  C11_19
REMARK   10  A    between atoms: C11_19  and  C12_21
REMARK   11  A    between atoms: C15_24  and  C16_25
ROOT
HETATM    1  C9  UNL     1      18.625 -71.771 -23.852  1.00  0.00     0.187 C
ENDROOT
BRANCH   1   2
HETATM    2  O3  UNL     1      18.964 -70.936 -22.735  1.00  0.00    -0.388 OA
BRANCH   2   3
HETATM    3  C8  UNL     1      18.748 -69.607 -23.162  1.00  0.00     0.188 C
BRANCH   3   4
HETATM    4  C7  UNL     1      17.540 -68.975 -22.580  1.00  0.00     0.158 C
BRANCH   4   5
HETATM    5  N1  UNL     1      17.216 -69.685 -21.325  1.00  0.00    -0.313 N
ATOM      6  H1  UNL     1      17.532 -70.616 -21.054  1.00  0.00     0.172 HD
BRANCH   5   7
HETATM    7  S1  UNL     1      16.222 -68.657 -20.428  1.00  0.00     0.258 S
HETATM    8  O1  UNL     1      16.014 -69.330 -19.057  1.00  0.00    -0.201 OA
HETATM    9  O2  UNL     1      16.864 -67.301 -20.188  1.00  0.00    -0.201 OA
BRANCH   7  10
HETATM   10  C6  UNL     1      14.639 -68.379 -21.052  1.00  0.00     0.080 A
HETATM   11  C5  UNL     1      14.259 -67.362 -21.885  1.00  0.00     0.025 A
HETATM   12  C4  UNL     1      12.952 -67.222 -22.316  1.00  0.00     0.002 A
HETATM   13  C3  UNL     1      11.950 -68.117 -21.917  1.00  0.00     0.007 A
HETATM   14  C2  UNL     1      12.322 -69.141 -21.080  1.00  0.00    -0.060 A
HETATM   15  C1  UNL     1      11.244 -70.093 -20.632  1.00  0.00     0.048 C
HETATM   16  C22 UNL     1      13.607 -69.262 -20.670  1.00  0.00     0.032 A
ENDBRANCH   7  10
ENDBRANCH   5   7
ENDBRANCH   4   5
ENDBRANCH   3   4
ENDBRANCH   2   3
ENDBRANCH   1   2
BRANCH   1  17
HETATM   17  C10 UNL     1      17.599 -72.790 -23.510  1.00  0.00     0.146 C
BRANCH  17  18
HETATM   18  N2  UNL     1      16.269 -72.273 -23.559  1.00  0.00    -0.378 N
ATOM     19  H2  UNL     1      16.136 -71.640 -24.347  1.00  0.00     0.160 HD
BRANCH  18  20
HETATM   20  C11 UNL     1      15.135 -72.412 -22.823  1.00  0.00     0.106 C
HETATM   21  S2  UNL     1      15.337 -72.812 -21.197  1.00  0.00    -0.060 SA
BRANCH  20  22
HETATM   22  C12 UNL     1      13.763 -72.269 -23.186  1.00  0.00     0.002 A
HETATM   23  C13 UNL     1      13.488 -71.106 -23.966  1.00  0.00     0.015 A
HETATM   24  C14 UNL     1      12.216 -70.797 -24.345  1.00  0.00     0.009 A
HETATM   25  C15 UNL     1      11.159 -71.601 -23.985  1.00  0.00    -0.051 A
HETATM   26  C20 UNL     1      11.369 -72.723 -23.243  1.00  0.00     0.009 A
HETATM   27  C21 UNL     1      12.688 -73.022 -22.864  1.00  0.00     0.015 A
BRANCH  25  28
HETATM   28  C16 UNL     1       9.818 -71.159 -24.408  1.00  0.00    -0.024 C
HETATM   29  C17 UNL     1       9.324 -71.869 -25.613  1.00  0.00     0.019 C
HETATM   30  C18 UNL     1       8.879 -71.466 -23.258  1.00  0.00     0.019 C
HETATM   31  C19 UNL     1       9.805 -69.651 -24.663  1.00  0.00     0.019 C
ENDBRANCH  25  28
ENDBRANCH  20  22
ENDBRANCH  18  20
ENDBRANCH  17  18
ENDBRANCH   1  17
TORSDOF 11
ENDMDL