MODEL 3
REMARK VINA RESULT: -9.455991522      1.174      1.664
REMARK  9 active torsions:
REMARK  status: ('A' for Active; 'I' for Inactive)
REMARK    1  A    between atoms: C3_3  and  C4_4
REMARK    2  A    between atoms: C4_4  and  N1_5
REMARK    3  A    between atoms: C7_8  and  C8_9
REMARK       I    between atoms: C8_9  and  N2_11
REMARK    4  A    between atoms: N2_11  and  C9_13
REMARK    5  A    between atoms: C12_16  and  C13_17
REMARK       I    between atoms: C13_17  and  N3_19
REMARK    6  A    between atoms: N3_19  and  C14_21
REMARK    7  A    between atoms: C17_24  and  N4_25
REMARK    8  A    between atoms: N4_25  and  C18_26
REMARK    9  A    between atoms: N4_25  and  C20_28
ROOT
HETATM    1  C1  UNL     1       8.956 -76.473 -27.373  1.00  0.00     0.097 C
HETATM    2  C2  UNL     1       9.157 -75.320 -27.017  1.00  0.00    -0.186 C
HETATM    3  C3  UNL     1       9.423 -73.940 -26.602  1.00  0.00     0.099 C
ENDROOT
BRANCH   3   4
HETATM    4  C4  UNL     1       9.991 -73.978 -25.213  1.00  0.00     0.139 C
BRANCH   4   5
HETATM    5  N1  UNL     1      10.880 -72.883 -24.938  1.00  0.00    -0.366 N
HETATM    6  C5  UNL     1      11.730 -72.941 -23.897  1.00  0.00     0.091 A
HETATM    7  C6  UNL     1      12.589 -71.862 -23.645  1.00  0.00     0.034 A
HETATM    8  C7  UNL     1      12.582 -70.742 -24.439  1.00  0.00     0.035 A
HETATM    9  C26 UNL     1      11.676 -70.754 -25.498  1.00  0.00     0.034 A
HETATM   10  C27 UNL     1      10.837 -71.810 -25.744  1.00  0.00     0.091 A
BRANCH   8  11
HETATM   11  C8  UNL     1      13.452 -69.597 -24.206  1.00  0.00     0.256 C
HETATM   12  O1  UNL     1      13.085 -68.517 -24.727  1.00  0.00    -0.267 OA
HETATM   13  N2  UNL     1      14.619 -69.721 -23.444  1.00  0.00    -0.323 N
ATOM     14  H2  UNL     1      14.805 -70.652 -23.070  1.00  0.00     0.169 HD
BRANCH  13  15
HETATM   15  C9  UNL     1      15.572 -68.736 -23.123  1.00  0.00     0.035 A
HETATM   16  C10 UNL     1      16.800 -68.591 -23.720  1.00  0.00     0.030 A
HETATM   17  C11 UNL     1      17.694 -67.572 -23.359  1.00  0.00     0.019 A
HETATM   18  C12 UNL     1      17.374 -66.665 -22.378  1.00  0.00     0.032 A
HETATM   19  C24 UNL     1      16.152 -66.797 -21.771  1.00  0.00     0.019 A
HETATM   20  C25 UNL     1      15.273 -67.800 -22.128  1.00  0.00     0.030 A
BRANCH  18  21
HETATM   21  C13 UNL     1      18.336 -65.600 -22.004  1.00  0.00     0.256 C
HETATM   22  O2  UNL     1      18.804 -65.663 -20.850  1.00  0.00    -0.267 OA
HETATM   23  N3  UNL     1      18.700 -64.585 -22.889  1.00  0.00    -0.323 N
ATOM     24  H3  UNL     1      18.276 -64.589 -23.818  1.00  0.00     0.169 HD
BRANCH  23  25
HETATM   25  C14 UNL     1      19.605 -63.561 -22.589  1.00  0.00     0.035 A
HETATM   26  C15 UNL     1      20.678 -63.678 -21.763  1.00  0.00     0.032 A
HETATM   27  C16 UNL     1      21.508 -62.583 -21.509  1.00  0.00     0.031 A
HETATM   28  C17 UNL     1      21.204 -61.395 -22.118  1.00  0.00     0.030 A
HETATM   29  C22 UNL     1      20.135 -61.237 -22.955  1.00  0.00     0.031 A
HETATM   30  C23 UNL     1      19.338 -62.321 -23.190  1.00  0.00     0.032 A
BRANCH  28  31
HETATM   31  N4  UNL     1      22.031 -60.255 -21.873  1.00  0.00    -0.382 N
BRANCH  31  32
HETATM   32  C18 UNL     1      21.443 -59.112 -21.244  1.00  0.00     0.118 C
HETATM   33  C19 UNL     1      21.097 -59.351 -19.794  1.00  0.00     0.026 C
ENDBRANCH  31  32
BRANCH  31  34
HETATM   34  C20 UNL     1      23.421 -60.320 -22.274  1.00  0.00     0.118 C
HETATM   35  C21 UNL     1      23.963 -58.941 -22.570  1.00  0.00     0.026 C
ENDBRANCH  31  34
ENDBRANCH  28  31
ENDBRANCH  23  25
ENDBRANCH  18  21
ENDBRANCH  13  15
ENDBRANCH   8  11
ENDBRANCH   4   5
ENDBRANCH   3   4
TORSDOF 9
ENDMDL