MODEL 2
REMARK VINA RESULT: -8.451975366      1.139      2.503
REMARK  10 active torsions:
REMARK  status: ('A' for Active; 'I' for Inactive)
REMARK    1  A    between atoms: C4_4  and  C5_5
REMARK    2  A    between atoms: C5_5  and  N1_6
REMARK    3  A    between atoms: N1_6  and  C6_9
REMARK    4  A    between atoms: C12_15  and  O1_16
REMARK    5  A    between atoms: O1_16  and  C13_17
REMARK    6  A    between atoms: C13_17  and  C14_18
REMARK    7  A    between atoms: C14_18  and  N2_19
REMARK    8  A    between atoms: N2_19  and  C16_21
REMARK    9  A    between atoms: C16_21  and  C17_22
REMARK   10  A    between atoms: C17_22  and  C18_23
ROOT
HETATM    1  C1  UNL     1      10.679 -70.124 -20.716  1.00  0.00     0.048 C
HETATM    2  C2  UNL     1      11.803 -70.832 -21.380  1.00  0.00    -0.060 A
HETATM    3  C3  UNL     1      11.539 -71.659 -22.442  1.00  0.00     0.018 A
HETATM    4  C4  UNL     1      12.532 -72.381 -23.140  1.00  0.00    -0.004 A
HETATM    5  C9  UNL     1      13.834 -72.214 -22.695  1.00  0.00     0.055 A
HETATM    6  C10 UNL     1      14.097 -71.364 -21.605  1.00  0.00     0.025 A
HETATM    7  C11 UNL     1      13.080 -70.684 -20.962  1.00  0.00     0.023 A
HETATM    8  C12 UNL     1      15.380 -71.179 -21.126  1.00  0.00     0.082 A
HETATM    9  C26 UNL     1      16.386 -71.844 -21.743  1.00  0.00     0.055 A
HETATM   10  C27 UNL     1      16.106 -72.660 -22.796  1.00  0.00     0.093 A
HETATM   11  N4  UNL     1      14.836 -72.871 -23.303  1.00  0.00    -0.360 N
HETATM   12  C28 UNL     1      14.642 -73.729 -24.409  1.00  0.00     0.155 C
ENDROOT
BRANCH   8  13
HETATM   13  O1  UNL     1      15.595 -70.324 -20.035  1.00  0.00    -0.348 OA
BRANCH  13  14
HETATM   14  C13 UNL     1      16.783 -69.548 -20.068  1.00  0.00     0.206 C
BRANCH  14  15
HETATM   15  C14 UNL     1      16.551 -68.090 -20.165  1.00  0.00     0.298 C
BRANCH  15  16
HETATM   16  N2  UNL     1      17.050 -67.445 -21.361  1.00  0.00     0.086 N
HETATM   17  C15 UNL     1      17.635 -68.471 -22.251  1.00  0.00     0.310 C
BRANCH  16  18
HETATM   18  C16 UNL     1      15.855 -66.911 -22.032  1.00  0.00     0.276 C
BRANCH  18  19
HETATM   19  C17 UNL     1      15.256 -67.908 -23.003  1.00  0.00     0.071 C
BRANCH  19  20
HETATM   20  C18 UNL     1      13.787 -67.746 -22.986  1.00  0.00    -0.029 A
HETATM   21  C19 UNL     1      13.020 -66.969 -22.144  1.00  0.00     0.096 A
HETATM   22  N3  UNL     1      11.723 -67.125 -22.486  1.00  0.00    -0.365 N
HETATM   23  C20 UNL     1      11.627 -67.974 -23.518  1.00  0.00     0.042 A
ATOM     24  H3  UNL     1      10.935 -66.665 -22.029  1.00  0.00     0.165 HD
HETATM   25  C21 UNL     1      10.548 -68.450 -24.220  1.00  0.00     0.030 A
HETATM   26  C25 UNL     1      12.907 -68.384 -23.857  1.00  0.00    -0.002 A
HETATM   27  C22 UNL     1      10.710 -69.337 -25.268  1.00  0.00     0.002 A
HETATM   28  C23 UNL     1      11.977 -69.730 -25.588  1.00  0.00     0.001 A
HETATM   29  C24 UNL     1      13.094 -69.272 -24.903  1.00  0.00     0.014 A
ENDBRANCH  19  20
ENDBRANCH  18  19
ENDBRANCH  16  18
ENDBRANCH  15  16
ENDBRANCH  14  15
ENDBRANCH  13  14
ENDBRANCH   8  13
BRANCH   4  30
HETATM   30  C5  UNL     1      12.207 -73.248 -24.247  1.00  0.00     0.273 C
BRANCH  30  31
HETATM   31  N1  UNL     1      10.688 -73.268 -24.248  1.00  0.00    -0.068 N
ATOM     32  H12 UNL     1      10.297 -74.066 -23.746  1.00  0.00     0.277 HD
ATOM     33  H11 UNL     1      10.277 -72.537 -23.669  1.00  0.00     0.277 HD
BRANCH  31  34
HETATM   34  C6  UNL     1      10.259 -73.203 -25.647  1.00  0.00     0.178 C
HETATM   35  C7  UNL     1       9.858 -74.561 -26.174  1.00  0.00     0.039 C
HETATM   36  C8  UNL     1       9.064 -72.283 -25.700  1.00  0.00     0.039 C
ENDBRANCH  31  34
ENDBRANCH  30  31
ENDBRANCH   4  30
TORSDOF 10
ENDMDL