MODEL 4
REMARK VINA RESULT: -5.143535447      1.986      2.057
REMARK  10 active torsions:
REMARK  status: ('A' for Active; 'I' for Inactive)
REMARK    1  A    between atoms: C1_4  and  N2_5
REMARK    2  A    between atoms: N2_5  and  C2_7
REMARK    3  A    between atoms: C2_7  and  C3_8
REMARK    4  A    between atoms: C3_8  and  N3_9
REMARK    5  A    between atoms: N3_9  and  C4_11
REMARK    6  A    between atoms: C4_11  and  C5_12
REMARK    7  A    between atoms: C5_12  and  N4_13
REMARK    8  A    between atoms: N4_13  and  C6_16
REMARK    9  A    between atoms: C6_16  and  C7_17
REMARK   10  A    between atoms: C7_17  and  O1_18
ROOT
HETATM    1  N3  UNL     1      -4.033  21.658   3.261  1.00  0.00    -0.399 N
ATOM      2  H3  UNL     1      -4.365  22.594   3.494  1.00  0.00     0.158 HD
ENDROOT
BRANCH   1   3
HETATM    3  C3  UNL     1      -3.504  21.372   1.982  1.00  0.00     0.138 C
BRANCH   3   4
HETATM    4  C2  UNL     1      -2.159  21.944   1.676  1.00  0.00     0.140 C
BRANCH   4   5
HETATM    5  N2  UNL     1      -2.066  23.364   1.983  1.00  0.00    -0.385 N
ATOM      6  H2  UNL     1      -2.894  23.893   2.256  1.00  0.00     0.160 HD
BRANCH   5   7
HETATM    7  C1  UNL     1      -0.787  24.004   1.893  1.00  0.00     0.168 C
HETATM    8  N1  UNL     1      -0.324  24.758   2.820  1.00  0.00    -0.396 N
ATOM      9  H12 UNL     1      -0.903  24.899   3.648  1.00  0.00     0.156 HD
ATOM     10  H11 UNL     1       0.587  25.213   2.756  1.00  0.00     0.156 HD
ENDBRANCH   5   7
ENDBRANCH   4   5
ENDBRANCH   3   4
ENDBRANCH   1   3
BRANCH   1  11
HETATM   11  C4  UNL     1      -4.091  20.616   4.205  1.00  0.00     0.082 C
BRANCH  11  12
HETATM   12  C5  UNL     1      -4.931  19.435   3.888  1.00  0.00     0.276 C
BRANCH  12  13
HETATM   13  N4  UNL     1      -6.293  19.778   3.533  1.00  0.00    -0.069 N
ATOM     14  H42 UNL     1      -6.948  19.399   4.217  1.00  0.00     0.277 HD
ATOM     15  H41 UNL     1      -6.459  20.775   3.670  1.00  0.00     0.277 HD
BRANCH  13  16
HETATM   16  C6  UNL     1      -6.664  19.384   2.209  1.00  0.00     0.258 C
BRANCH  16  17
HETATM   17  C7  UNL     1      -7.544  20.501   1.638  1.00  0.00     0.191 C
BRANCH  17  18
HETATM   18  O1  UNL     1      -7.076  21.725   2.105  1.00  0.00    -0.399 OA
ATOM     19  H1  UNL     1      -7.022  21.693   3.052  1.00  0.00     0.209 HD
ENDBRANCH  17  18
ENDBRANCH  16  17
ENDBRANCH  13  16
ENDBRANCH  12  13
ENDBRANCH  11  12
ENDBRANCH   1  11
TORSDOF 10
ENDMDL