MODEL 4
REMARK VINA RESULT: -4.878194824      3.924      6.497
REMARK  10 active torsions:
REMARK  status: ('A' for Active; 'I' for Inactive)
REMARK    1  A    between atoms: C2_2  and  O1_3
REMARK    2  A    between atoms: O1_3  and  N1_4
REMARK    3  A    between atoms: N1_4  and  C3_5
REMARK    4  A    between atoms: C3_5  and  C4_6
REMARK    5  A    between atoms: C3_5  and  C5_9
REMARK    6  A    between atoms: C4_6  and  O2_7
REMARK    7  A    between atoms: C5_9  and  N2_10
REMARK    8  A    between atoms: N2_10  and  C6_13
REMARK    9  A    between atoms: C6_13  and  C7_14
REMARK   10  A    between atoms: C7_14  and  O3_15
ROOT
HETATM    1  C3  UNL     1      -6.434  18.817   2.713  1.00  0.00     0.156 C
ENDROOT
BRANCH   1   2
HETATM    2  N1  UNL     1      -7.250  19.962   2.960  1.00  0.00    -0.087 NA
BRANCH   2   3
HETATM    3  O1  UNL     1      -7.379  20.784   1.865  1.00  0.00    -0.257 OA
BRANCH   3   4
HETATM    4  C2  UNL     1      -8.389  20.580   0.934  1.00  0.00     0.152 C
HETATM    5  C1  UNL     1      -9.598  20.347   1.363  1.00  0.00     0.039 C
ENDBRANCH   3   4
ENDBRANCH   2   3
ENDBRANCH   1   2
BRANCH   1   6
HETATM    6  C4  UNL     1      -7.168  17.515   2.861  1.00  0.00     0.189 C
BRANCH   6   7
HETATM    7  O2  UNL     1      -6.611  16.701   3.841  1.00  0.00    -0.399 OA
ATOM      8  H2  UNL     1      -7.168  16.621   4.606  1.00  0.00     0.209 HD
ENDBRANCH   6   7
ENDBRANCH   1   6
BRANCH   1   9
HETATM    9  C5  UNL     1      -5.205  18.890   3.581  1.00  0.00     0.258 C
BRANCH   9  10
HETATM   10  N2  UNL     1      -5.057  20.182   4.209  1.00  0.00    -0.071 N
ATOM     11  H22 UNL     1      -5.863  20.774   4.006  1.00  0.00     0.277 HD
ATOM     12  H21 UNL     1      -5.153  20.102   5.221  1.00  0.00     0.277 HD
BRANCH  10  13
HETATM   13  C6  UNL     1      -3.830  20.862   3.868  1.00  0.00     0.258 C
BRANCH  13  14
HETATM   14  C7  UNL     1      -3.870  21.428   2.463  1.00  0.00     0.191 C
BRANCH  14  15
HETATM   15  O3  UNL     1      -5.026  22.232   2.333  1.00  0.00    -0.399 OA
ATOM     16  H3  UNL     1      -5.790  21.667   2.323  1.00  0.00     0.209 HD
ENDBRANCH  14  15
ENDBRANCH  13  14
ENDBRANCH  10  13
ENDBRANCH   9  10
ENDBRANCH   1   9
TORSDOF 10
ENDMDL