MODEL 3
REMARK VINA RESULT: -4.811327000      1.882      2.172
REMARK  10 active torsions:
REMARK  status: ('A' for Active; 'I' for Inactive)
REMARK    1  A    between atoms: C2_2  and  C3_3
REMARK    2  A    between atoms: C3_3  and  N1_4
REMARK    3  A    between atoms: N1_4  and  C4_7
REMARK    4  A    between atoms: C4_7  and  C5_8
REMARK    5  A    between atoms: C5_8  and  O1_9
REMARK    6  A    between atoms: C5_8  and  C6_11
REMARK    7  A    between atoms: C6_11  and  N2_12
REMARK    8  A    between atoms: N2_12  and  C7_15
REMARK    9  A    between atoms: C7_15  and  C8_16
REMARK   10  A    between atoms: C8_16  and  O2_17
ROOT
HETATM    1  C5  UNL     1      -4.280  20.360   3.677  1.00  0.00     0.169 C
ENDROOT
BRANCH   1   2
HETATM    2  C4  UNL     1      -4.038  21.093   2.371  1.00  0.00     0.265 C
BRANCH   2   3
HETATM    3  N1  UNL     1      -4.064  22.497   2.568  1.00  0.00    -0.070 N
ATOM      4  H12 UNL     1      -4.326  22.720   3.527  1.00  0.00     0.277 HD
ATOM      5  H11 UNL     1      -4.853  22.916   2.074  1.00  0.00     0.277 HD
BRANCH   3   6
HETATM    6  C3  UNL     1      -2.837  23.150   2.211  1.00  0.00     0.259 C
BRANCH   6   7
HETATM    7  C2  UNL     1      -1.901  22.240   1.548  1.00  0.00    -0.010 C
HETATM    8  C1  UNL     1      -0.626  22.523   1.349  1.00  0.00     0.008 C
ENDBRANCH   6   7
ENDBRANCH   3   6
ENDBRANCH   2   3
ENDBRANCH   1   2
BRANCH   1   9
HETATM    9  O1  UNL     1      -4.426  21.242   4.774  1.00  0.00    -0.392 OA
ATOM     10  H1  UNL     1      -3.986  20.928   5.556  1.00  0.00     0.210 HD
ENDBRANCH   1   9
BRANCH   1  11
HETATM   11  C6  UNL     1      -5.691  19.747   3.560  1.00  0.00     0.265 C
BRANCH  11  12
HETATM   12  N2  UNL     1      -5.644  18.297   3.567  1.00  0.00    -0.071 N
ATOM     13  H22 UNL     1      -4.869  17.929   3.016  1.00  0.00     0.277 HD
ATOM     14  H21 UNL     1      -5.363  17.919   4.472  1.00  0.00     0.277 HD
BRANCH  12  15
HETATM   15  C7  UNL     1      -6.910  17.798   3.134  1.00  0.00     0.258 C
BRANCH  15  16
HETATM   16  C8  UNL     1      -6.956  17.493   1.640  1.00  0.00     0.191 C
BRANCH  16  17
HETATM   17  O2  UNL     1      -6.268  16.350   1.302  1.00  0.00    -0.399 OA
ATOM     18  H2  UNL     1      -5.501  16.522   0.768  1.00  0.00     0.209 HD
ENDBRANCH  16  17
ENDBRANCH  15  16
ENDBRANCH  12  15
ENDBRANCH  11  12
ENDBRANCH   1  11
TORSDOF 10
ENDMDL