MODEL 1
REMARK VINA RESULT: -5.301727432      0.000      0.000
REMARK  11 active torsions:
REMARK  status: ('A' for Active; 'I' for Inactive)
REMARK    1  A    between atoms: O1_1  and  N1_3
REMARK    2  A    between atoms: N1_3  and  C1_5
REMARK    3  A    between atoms: C1_5  and  C2_6
REMARK    4  A    between atoms: C2_6  and  N2_7
REMARK    5  A    between atoms: N2_7  and  C3_10
REMARK    6  A    between atoms: C3_10  and  C4_11
REMARK    7  A    between atoms: C4_11  and  C5_12
REMARK    8  A    between atoms: C5_12  and  C6_13
REMARK    9  A    between atoms: C5_12  and  C7_16
REMARK   10  A    between atoms: C6_13  and  O2_14
REMARK   11  A    between atoms: C7_16  and  O3_17
ROOT
HETATM    1  N2  UNL     1      -4.418  20.981   3.576  1.00  0.00    -0.074 N
ATOM      2  H21 UNL     1      -5.242  21.580   3.543  1.00  0.00     0.277 HD
ATOM      3  H22 UNL     1      -3.883  21.482   4.286  1.00  0.00     0.277 HD
ENDROOT
BRANCH   1   4
HETATM    4  C2  UNL     1      -3.736  20.969   2.323  1.00  0.00     0.253 C
BRANCH   4   5
HETATM    5  C1  UNL     1      -3.022  22.268   2.057  1.00  0.00     0.173 C
BRANCH   5   6
HETATM    6  N1  UNL     1      -3.689  23.355   2.671  1.00  0.00    -0.303 N
ATOM      7  H1  UNL     1      -4.465  23.810   2.191  1.00  0.00     0.187 HD
BRANCH   6   8
HETATM    8  O1  UNL     1      -3.348  23.743   3.747  1.00  0.00    -0.294 OA
ATOM      9  H1  UNL     1      -3.154  24.662   3.888  1.00  0.00     0.244 HD
ENDBRANCH   6   8
ENDBRANCH   5   6
ENDBRANCH   4   5
ENDBRANCH   1   4
BRANCH   1  10
HETATM   10  C3  UNL     1      -4.756  19.643   4.018  1.00  0.00     0.233 C
BRANCH  10  11
HETATM   11  C4  UNL     1      -5.488  18.880   2.938  1.00  0.00     0.036 C
BRANCH  11  12
HETATM   12  C5  UNL     1      -6.967  19.073   2.980  1.00  0.00     0.034 C
BRANCH  12  13
HETATM   13  C6  UNL     1      -7.353  20.010   1.855  1.00  0.00     0.170 C
BRANCH  13  14
HETATM   14  O2  UNL     1      -7.238  21.345   2.189  1.00  0.00    -0.400 OA
ATOM     15  H2  UNL     1      -8.075  21.789   2.263  1.00  0.00     0.209 HD
ENDBRANCH  13  14
ENDBRANCH  12  13
BRANCH  12  16
HETATM   16  C7  UNL     1      -7.765  17.803   2.812  1.00  0.00     0.170 C
BRANCH  16  17
HETATM   17  O3  UNL     1      -7.016  16.790   3.454  1.00  0.00    -0.400 OA
ATOM     18  H3  UNL     1      -7.608  16.053   3.552  1.00  0.00     0.209 HD
ENDBRANCH  16  17
ENDBRANCH  12  16
ENDBRANCH  11  12
ENDBRANCH  10  11
ENDBRANCH   1  10
TORSDOF 11
ENDMDL