MODEL 1
REMARK VINA RESULT: -5.880182240      0.000      0.000
REMARK  11 active torsions:
REMARK  status: ('A' for Active; 'I' for Inactive)
REMARK    1  A    between atoms: C2_2  and  C3_3
REMARK    2  A    between atoms: C3_3  and  C4_4
REMARK    3  A    between atoms: C3_3  and  N1_7
REMARK    4  A    between atoms: C4_4  and  O1_5
REMARK    5  A    between atoms: N1_7  and  C5_9
REMARK    6  A    between atoms: C5_9  and  O2_10
REMARK    7  A    between atoms: C5_9  and  N2_12
REMARK    8  A    between atoms: N2_12  and  C6_14
REMARK    9  A    between atoms: C6_14  and  C7_15
REMARK   10  A    between atoms: C7_15  and  N3_16
REMARK   11  A    between atoms: N3_16  and  O3_18
ROOT
HETATM    1  C5  UNL     1      -3.362  21.621   2.305  1.00  0.00     0.322 C
ENDROOT
BRANCH   1   2
HETATM    2  N1  UNL     1      -4.113  20.427   2.239  1.00  0.00    -0.374 N
ATOM      3  H1  UNL     1      -3.816  19.670   1.623  1.00  0.00     0.158 HD
BRANCH   2   4
HETATM    4  C3  UNL     1      -5.274  20.286   3.027  1.00  0.00     0.103 C
BRANCH   4   5
HETATM    5  C2  UNL     1      -5.189  18.926   3.718  1.00  0.00     0.022 C
HETATM    6  C1  UNL     1      -6.518  18.202   3.631  1.00  0.00     0.007 C
ENDBRANCH   4   5
BRANCH   4   7
HETATM    7  C4  UNL     1      -6.471  20.341   2.117  1.00  0.00     0.189 C
BRANCH   7   8
HETATM    8  O1  UNL     1      -6.969  21.674   2.130  1.00  0.00    -0.399 OA
ATOM      9  H1  UNL     1      -7.628  21.745   1.449  1.00  0.00     0.209 HD
ENDBRANCH   7   8
ENDBRANCH   4   7
ENDBRANCH   2   4
ENDBRANCH   1   2
BRANCH   1  10
HETATM   10  O2  UNL     1      -4.129  22.769   2.360  1.00  0.00    -0.360 OA
ATOM     11  H2  UNL     1      -3.833  23.405   3.001  1.00  0.00     0.214 HD
ENDBRANCH   1  10
BRANCH   1  12
HETATM   12  N2  UNL     1      -2.389  21.725   1.294  1.00  0.00    -0.359 N
ATOM     13  H2  UNL     1      -2.641  21.628   0.310  1.00  0.00     0.163 HD
BRANCH  12  14
HETATM   14  C6  UNL     1      -1.061  21.964   1.679  1.00  0.00     0.081 C
BRANCH  14  15
HETATM   15  C7  UNL     1      -0.382  23.220   1.275  1.00  0.00     0.190 C
BRANCH  15  16
HETATM   16  N3  UNL     1      -0.729  24.300   2.119  1.00  0.00    -0.300 N
ATOM     17  H3  UNL     1      -1.635  24.745   1.972  1.00  0.00     0.187 HD
BRANCH  16  18
HETATM   18  O3  UNL     1      -0.042  24.726   2.988  1.00  0.00    -0.294 OA
ATOM     19  H3  UNL     1      -0.366  25.150   3.773  1.00  0.00     0.244 HD
ENDBRANCH  16  18
ENDBRANCH  15  16
ENDBRANCH  14  15
ENDBRANCH  12  14
ENDBRANCH   1  12
TORSDOF 11
ENDMDL