MODEL 2
REMARK VINA RESULT: -4.790239497      2.851      4.447
REMARK  10 active torsions:
REMARK  status: ('A' for Active; 'I' for Inactive)
REMARK    1  A    between atoms: C2_2  and  O1_3
REMARK    2  A    between atoms: O1_3  and  N1_4
REMARK    3  A    between atoms: N1_4  and  C3_5
REMARK    4  A    between atoms: C3_5  and  C4_6
REMARK    5  A    between atoms: C3_5  and  C5_9
REMARK    6  A    between atoms: C4_6  and  O2_7
REMARK    7  A    between atoms: C5_9  and  O3_10
REMARK    8  A    between atoms: O3_10  and  C6_11
REMARK    9  A    between atoms: C6_11  and  C7_12
REMARK   10  A    between atoms: C7_12  and  O4_13
ROOT
HETATM    1  C3  UNL     1      -1.956  21.770   1.683  1.00  0.00     0.153 C
ENDROOT
BRANCH   1   2
HETATM    2  N1  UNL     1      -1.878  21.078   0.412  1.00  0.00    -0.092 NA
BRANCH   2   3
HETATM    3  O1  UNL     1      -0.706  20.487   0.208  1.00  0.00    -0.286 OA
BRANCH   3   4
HETATM    4  C2  UNL     1      -0.818  19.211  -0.343  1.00  0.00     0.191 C
HETATM    5  C1  UNL     1       0.439  18.427  -0.054  1.00  0.00     0.035 C
ENDBRANCH   3   4
ENDBRANCH   2   3
ENDBRANCH   1   2
BRANCH   1   6
HETATM    6  C4  UNL     1      -1.353  23.164   1.535  1.00  0.00     0.189 C
BRANCH   6   7
HETATM    7  O2  UNL     1      -0.106  23.100   0.904  1.00  0.00    -0.399 OA
ATOM      8  H2  UNL     1       0.106  23.931   0.494  1.00  0.00     0.209 HD
ENDBRANCH   6   7
ENDBRANCH   1   6
BRANCH   1   9
HETATM    9  C5  UNL     1      -3.394  21.967   2.119  1.00  0.00     0.193 C
BRANCH   9  10
HETATM   10  O3  UNL     1      -4.110  20.867   1.688  1.00  0.00    -0.387 OA
BRANCH  10  11
HETATM   11  C6  UNL     1      -5.048  20.411   2.584  1.00  0.00     0.193 C
BRANCH  11  12
HETATM   12  C7  UNL     1      -6.459  20.443   2.051  1.00  0.00     0.190 C
BRANCH  12  13
HETATM   13  O4  UNL     1      -7.022  21.714   2.142  1.00  0.00    -0.399 OA
ATOM     14  H4  UNL     1      -7.960  21.699   1.994  1.00  0.00     0.209 HD
ENDBRANCH  12  13
ENDBRANCH  11  12
ENDBRANCH  10  11
ENDBRANCH   9  10
ENDBRANCH   1   9
TORSDOF 10
ENDMDL