MODEL 3
REMARK VINA RESULT: -7.087371056      1.053      1.283
REMARK  6 active torsions:
REMARK  status: ('A' for Active; 'I' for Inactive)
REMARK    1  A    between atoms: C2_2  and  C6_13
REMARK    2  A    between atoms: N1_3  and  O1_5
REMARK    3  A    between atoms: O1_5  and  C3_6
REMARK    4  A    between atoms: C3_6  and  N3_10
REMARK    5  A    between atoms: C11_18  and  C12_19
REMARK    6  A    between atoms: C12_19  and  N4_20
ROOT
HETATM    1  C6  UNL     1       0.605  16.442  21.238  1.00  0.00     0.038 C
HETATM    2  C7  UNL     1       2.041  16.702  21.527  1.00  0.00     0.011 C
HETATM    3  C8  UNL     1       2.897  15.474  21.393  1.00  0.00     0.001 C
HETATM    4  C9  UNL     1       2.305  14.289  20.766  1.00  0.00     0.000 C
HETATM    5  C10 UNL     1       0.999  14.392  20.077  1.00  0.00     0.007 C
HETATM    6  C11 UNL     1       0.480  15.822  19.905  1.00  0.00     0.023 C
ENDROOT
BRANCH   1   7
HETATM    7  C2  UNL     1      -0.274  17.560  21.526  1.00  0.00     0.011 C
HETATM    8  C1  UNL     1      -1.743  17.316  21.595  1.00  0.00     0.066 C
HETATM    9  N1  UNL     1       0.111  18.773  21.714  1.00  0.00    -0.266 N
ATOM     10  H1  UNL     1       1.110  18.977  21.675  1.00  0.00     0.194 HD
BRANCH   9  11
HETATM   11  O1  UNL     1      -0.747  19.795  21.962  1.00  0.00    -0.202 OA
BRANCH  11  12
HETATM   12  C3  UNL     1      -0.813  20.937  21.141  1.00  0.00     0.238 C
HETATM   13  N2  UNL     1       0.293  21.587  21.028  1.00  0.00    -0.364 N
ATOM     14  H22 UNL     1       1.149  21.293  21.498  1.00  0.00     0.159 HD
ATOM     15  H21 UNL     1       0.246  22.414  20.433  1.00  0.00     0.159 HD
BRANCH  12  16
HETATM   16  N3  UNL     1      -1.987  21.341  20.496  1.00  0.00    -0.355 N
HETATM   17  C4  UNL     1      -1.984  22.513  19.639  1.00  0.00     0.152 C
HETATM   18  C5  UNL     1      -3.227  20.621  20.639  1.00  0.00     0.152 C
ENDBRANCH  12  16
ENDBRANCH  11  12
ENDBRANCH   9  11
ENDBRANCH   1   7
BRANCH   6  19
HETATM   19  C12 UNL     1       1.242  16.477  18.779  1.00  0.00     0.277 C
BRANCH  19  20
HETATM   20  N4  UNL     1       0.337  16.565  17.612  1.00  0.00     0.088 N
HETATM   21  C13 UNL     1       0.521  15.405  16.763  1.00  0.00     0.272 C
HETATM   22  C14 UNL     1      -0.821  14.960  16.260  1.00  0.00     0.032 C
HETATM   23  C15 UNL     1      -1.753  16.081  16.735  1.00  0.00     0.032 C
HETATM   24  C16 UNL     1      -1.033  16.436  18.045  1.00  0.00     0.272 C
ENDBRANCH  19  20
ENDBRANCH   6  19
TORSDOF 6
ENDMDL