MODEL 5
REMARK VINA RESULT: -6.277665088      4.522      8.722
REMARK  5 active torsions:
REMARK  status: ('A' for Active; 'I' for Inactive)
REMARK    1  A    between atoms: C3_3  and  C4_4
REMARK    2  A    between atoms: C4_4  and  O1_5
REMARK    3  A    between atoms: C4_4  and  N1_7
REMARK       I    between atoms: N1_7  and  C5_9
REMARK    4  A    between atoms: C5_9  and  C6_11
REMARK    5  A    between atoms: C6_11  and  C7_12
ROOT
HETATM    1  C4  UNL     1      -2.800  19.892  22.393  1.00  0.00     0.160 C
ENDROOT
BRANCH   1   2
HETATM    2  C3  UNL     1      -2.945  20.682  23.617  1.00  0.00     0.063 A
HETATM    3  C2  UNL     1      -2.932  22.020  23.878  1.00  0.00    -0.023 A
HETATM    4  C1  UNL     1      -2.732  23.003  22.733  1.00  0.00     0.051 C
HETATM    5  C11 UNL     1      -3.098  22.431  25.150  1.00  0.00     0.021 A
HETATM    6  C10 UNL     1      -3.269  21.496  26.114  1.00  0.00     0.002 A
HETATM    7  S2  UNL     1      -3.182  24.035  26.059  1.00  0.00    -0.123 SA
HETATM    8  S1  UNL     1      -3.196  20.030  25.212  1.00  0.00    -0.088 SA
HETATM    9  C14 UNL     1      -3.439  21.995  27.505  1.00  0.00     0.062 C
HETATM   10  C12 UNL     1      -4.163  23.319  27.450  1.00  0.00     0.053 C
HETATM   11  C13 UNL     1      -5.580  23.174  27.000  1.00  0.00     0.022 C
ENDBRANCH   1   2
BRANCH   1  12
HETATM   12  O1  UNL     1      -3.870  19.914  21.646  1.00  0.00    -0.345 OA
ATOM     13  H1  UNL     1      -3.674  19.838  20.719  1.00  0.00     0.219 HD
ENDBRANCH   1  12
BRANCH   1  14
HETATM   14  N1  UNL     1      -1.710  19.149  21.940  1.00  0.00    -0.307 N
HETATM   15  C5  UNL     1      -1.862  17.721  21.778  1.00  0.00     0.223 C
HETATM   16  O2  UNL     1      -2.938  17.157  22.032  1.00  0.00    -0.273 OA
ATOM     17  H1  UNL     1      -0.823  19.605  21.728  1.00  0.00     0.171 HD
BRANCH  15  18
HETATM   18  C6  UNL     1      -0.704  16.948  21.298  1.00  0.00     0.107 C
BRANCH  18  19
HETATM   19  C7  UNL     1       0.542  17.748  21.485  1.00  0.00    -0.014 C
HETATM   20  C8  UNL     1       1.421  17.198  22.592  1.00  0.00     0.010 C
HETATM   21  C9  UNL     1       1.303  17.858  20.182  1.00  0.00     0.010 C
ENDBRANCH  18  19
ENDBRANCH  15  18
ENDBRANCH   1  14
TORSDOF 5
ENDMDL