MODEL 4
REMARK VINA RESULT: -7.165844593      2.828      7.131
REMARK  5 active torsions:
REMARK  status: ('A' for Active; 'I' for Inactive)
REMARK    1  A    between atoms: C2_2  and  C3_3
REMARK    2  A    between atoms: C3_3  and  O1_4
REMARK    3  A    between atoms: O1_4  and  C4_5
REMARK    4  A    between atoms: C8_10  and  C9_11
REMARK    5  A    between atoms: C17_19  and  O3_21
ROOT
HETATM    1  C4  UNL     1       0.985  17.502  21.074  1.00  0.00     0.294 C
HETATM    2  O2  UNL     1      -0.318  17.351  21.633  1.00  0.00    -0.343 OA
HETATM    3  C5  UNL     1      -1.035  18.514  21.688  1.00  0.00     0.082 C
HETATM    4  C6  UNL     1      -0.365  19.598  22.432  1.00  0.00     0.007 C
HETATM    5  C7  UNL     1      -0.846  20.172  23.532  1.00  0.00    -0.022 C
HETATM    6  C8  UNL     1      -2.137  19.742  24.100  1.00  0.00     0.015 C
HETATM    7  C13 UNL     1      -3.035  19.356  22.958  1.00  0.00     0.012 C
HETATM    8  C14 UNL     1      -2.389  18.170  22.275  1.00  0.00     0.043 C
HETATM    9  C15 UNL     1      -1.327  19.004  20.257  1.00  0.00     0.045 C
HETATM   10  C16 UNL     1      -0.091  19.145  19.459  1.00  0.00     0.046 C
HETATM   11  C17 UNL     1       0.967  18.124  19.735  1.00  0.00     0.104 C
HETATM   12  C18 UNL     1       0.843  17.019  18.695  1.00  0.00     0.051 C
ENDROOT
BRANCH   1  13
HETATM   13  O1  UNL     1       1.405  16.177  20.971  1.00  0.00    -0.358 OA
BRANCH  13  14
HETATM   14  C3  UNL     1       0.727  15.250  21.683  1.00  0.00     0.170 C
BRANCH  14  15
HETATM   15  C2  UNL     1       1.285  13.868  21.572  1.00  0.00     0.022 C
HETATM   16  C1  UNL     1       2.710  13.945  21.027  1.00  0.00     0.007 C
ENDBRANCH  14  15
ENDBRANCH  13  14
ENDBRANCH   1  13
BRANCH  11  17
HETATM   17  O3  UNL     1       2.191  18.777  19.497  1.00  0.00    -0.385 OA
ATOM     18  H3  UNL     1       2.777  18.199  19.021  1.00  0.00     0.210 HD
ENDBRANCH  11  17
BRANCH   6  19
HETATM   19  C9  UNL     1      -2.754  20.773  25.007  1.00  0.00    -0.044 C
HETATM   20  C10 UNL     1      -3.532  21.816  24.261  1.00  0.00     0.015 C
HETATM   21  C11 UNL     1      -1.720  21.476  25.856  1.00  0.00     0.015 C
HETATM   22  C12 UNL     1      -3.710  20.082  25.954  1.00  0.00     0.015 C
ENDBRANCH   6  19
TORSDOF 5
ENDMDL