MODEL 5
REMARK VINA RESULT: -6.942748532      1.046      1.046
REMARK  4 active torsions:
REMARK  status: ('A' for Active; 'I' for Inactive)
REMARK    1  A    between atoms: C9_11  and  S1_12
REMARK    2  A    between atoms: S1_12  and  C10_13
REMARK    3  A    between atoms: C10_13  and  C11_14
REMARK    4  A    between atoms: C11_14  and  N2_15
ROOT
HETATM    1  C1  UNL     1       1.827  12.613  20.746  1.00  0.00     0.145 C
HETATM    2  N1  UNL     1       1.538  13.890  21.310  1.00  0.00    -0.401 N
ATOM      3  H1  UNL     1       1.693  14.015  22.310  1.00  0.00     0.158 HD
HETATM    4  C2  UNL     1       1.100  14.880  20.652  1.00  0.00    -0.018 C
HETATM    5  C3  UNL     1       0.858  14.746  19.209  1.00  0.00     0.052 C
HETATM    6  C4  UNL     1      -0.311  15.599  18.762  1.00  0.00     0.010 C
HETATM    7  C5  UNL     1      -0.204  17.015  19.336  1.00  0.00    -0.009 C
HETATM    8  C6  UNL     1      -1.282  17.834  18.729  1.00  0.00     0.005 C
HETATM    9  C7  UNL     1      -1.676  19.066  19.570  1.00  0.00     0.007 C
HETATM   10  C8  UNL     1      -0.578  19.217  20.572  1.00  0.00     0.008 C
HETATM   11  C9  UNL     1      -0.417  20.443  21.332  1.00  0.00     0.052 C
HETATM   12  C12 UNL     1      -0.558  19.995  22.797  1.00  0.00     0.016 C
HETATM   13  C13 UNL     1       0.009  18.546  22.706  1.00  0.00     0.011 C
HETATM   14  C14 UNL     1      -0.791  18.070  21.555  1.00  0.00    -0.035 C
HETATM   15  C15 UNL     1      -2.213  17.904  22.002  1.00  0.00     0.016 C
HETATM   16  C16 UNL     1      -0.383  16.841  20.852  1.00  0.00     0.003 C
HETATM   17  C17 UNL     1       0.846  16.160  21.397  1.00  0.00     0.057 C
ENDROOT
BRANCH  11  18
HETATM   18  S1  UNL     1      -1.115  21.962  20.891  1.00  0.00    -0.162 SA
BRANCH  18  19
HETATM   19  C10 UNL     1      -2.285  22.790  21.896  1.00  0.00     0.101 C
BRANCH  19  20
HETATM   20  C11 UNL     1      -3.477  23.423  21.256  1.00  0.00     0.239 C
BRANCH  20  21
HETATM   21  N2  UNL     1      -3.087  24.275  20.183  1.00  0.00    -0.079 N
ATOM     22  H23 UNL     1      -3.523  25.194  20.255  1.00  0.00     0.274 HD
ATOM     23  H22 UNL     1      -2.111  24.560  20.265  1.00  0.00     0.274 HD
ATOM     24  H21 UNL     1      -3.277  23.837  19.282  1.00  0.00     0.274 HD
ENDBRANCH  20  21
ENDBRANCH  19  20
ENDBRANCH  18  19
ENDBRANCH  11  18
TORSDOF 4
ENDMDL