MODEL 4
REMARK VINA RESULT: -7.568528496      1.391      2.155
REMARK  3 active torsions:
REMARK  status: ('A' for Active; 'I' for Inactive)
REMARK    1  A    between atoms: C2_4  and  C4_6
REMARK    2  A    between atoms: C7_10  and  N2_11
REMARK       I    between atoms: N2_11  and  C8_13
REMARK    3  A    between atoms: C8_13  and  C9_15
ROOT
HETATM    1  C4  UNL     1      -2.821  20.717  21.358  1.00  0.00     0.025 A
HETATM    2  C5  UNL     1      -2.590  19.447  21.894  1.00  0.00     0.064 A
HETATM    3  C6  UNL     1      -2.869  19.050  23.326  1.00  0.00     0.077 C
HETATM    4  O1  UNL     1      -2.121  18.724  20.982  1.00  0.00    -0.297 OA
HETATM    5  C7  UNL     1      -1.973  19.334  19.789  1.00  0.00     0.157 A
HETATM    6  C16 UNL     1      -2.426  20.621  20.058  1.00  0.00     0.004 A
HETATM    7  C17 UNL     1      -2.369  21.731  19.087  1.00  0.00     0.054 C
ENDROOT
BRANCH   5   8
HETATM    8  N2  UNL     1      -1.465  18.643  18.686  1.00  0.00    -0.306 N
HETATM    9  C8  UNL     1      -1.070  17.365  18.384  1.00  0.00     0.229 C
HETATM   10  O2  UNL     1      -1.119  16.474  19.283  1.00  0.00    -0.273 OA
ATOM     11  H2  UNL     1      -1.359  19.261  17.882  1.00  0.00     0.171 HD
BRANCH   9  12
HETATM   12  C9  UNL     1      -0.569  16.860  17.084  1.00  0.00     0.095 A
HETATM   13  C10 UNL     1      -0.845  15.575  16.477  1.00  0.00    -0.027 A
HETATM   14  C11 UNL     1       0.388  14.829  15.881  1.00  0.00     0.016 C
HETATM   15  C12 UNL     1      -1.933  14.619  16.751  1.00  0.00     0.016 C
HETATM   16  C13 UNL     1      -1.268  16.866  15.807  1.00  0.00    -0.027 A
HETATM   17  C14 UNL     1      -2.679  17.224  15.549  1.00  0.00     0.016 C
HETATM   18  C15 UNL     1      -0.423  17.116  14.518  1.00  0.00     0.016 C
ENDBRANCH   9  12
ENDBRANCH   5   8
BRANCH   1  19
HETATM   19  C2  UNL     1      -3.380  21.818  22.118  1.00  0.00     0.014 C
HETATM   20  N1  UNL     1      -2.572  22.532  22.886  1.00  0.00    -0.397 N
HETATM   21  C1  UNL     1      -3.014  23.614  23.709  1.00  0.00     0.146 C
ATOM     22  H1  UNL     1      -1.579  22.296  22.891  1.00  0.00     0.158 HD
HETATM   23  C3  UNL     1      -4.789  22.239  22.187  1.00  0.00     0.068 C
ENDBRANCH   1  19
TORSDOF 3
ENDMDL