MODEL 5
REMARK VINA RESULT: -6.549560813      1.532      1.710
REMARK  4 active torsions:
REMARK  status: ('A' for Active; 'I' for Inactive)
REMARK    1  A    between atoms: O1_2  and  C2_3
REMARK    2  A    between atoms: C5_6  and  C6_7
REMARK    3  A    between atoms: C6_7  and  S1_8
REMARK    4  A    between atoms: C15_17  and  N1_18
REMARK       I    between atoms: N1_18  and  C16_20
ROOT
HETATM    1  C2  UNL     1       0.270  16.875  18.480  1.00  0.00     0.095 A
HETATM    2  C3  UNL     1      -0.851  17.575  18.126  1.00  0.00     0.040 A
HETATM    3  C4  UNL     1      -1.325  18.544  18.980  1.00  0.00     0.012 A
HETATM    4  C5  UNL     1      -0.702  18.825  20.173  1.00  0.00    -0.035 A
HETATM    5  C14 UNL     1       0.429  18.121  20.532  1.00  0.00     0.041 A
HETATM    6  C15 UNL     1       0.924  17.148  19.701  1.00  0.00     0.069 A
ENDROOT
BRANCH   4   7
HETATM    7  C6  UNL     1      -1.306  19.893  21.006  1.00  0.00     0.050 A
HETATM    8  C8  UNL     1      -1.101  19.974  22.456  1.00  0.00    -0.017 A
HETATM    9  C9  UNL     1      -0.200  19.048  23.223  1.00  0.00     0.018 C
HETATM   10  C10 UNL     1      -1.252  21.334  23.116  1.00  0.00     0.018 C
HETATM   11  C11 UNL     1      -2.404  19.459  21.885  1.00  0.00    -0.017 A
HETATM   12  C12 UNL     1      -2.624  17.995  22.199  1.00  0.00     0.018 C
HETATM   13  C13 UNL     1      -3.660  20.288  22.032  1.00  0.00     0.018 C
BRANCH   7  14
HETATM   14  S1  UNL     1      -1.376  21.486  20.146  1.00  0.00    -0.157 SA
HETATM   15  C7  UNL     1      -2.913  21.769  19.279  1.00  0.00     0.091 C
ENDBRANCH   7  14
ENDBRANCH   4   7
BRANCH   6  16
HETATM   16  N1  UNL     1       2.073  16.390  20.003  1.00  0.00    -0.325 N
HETATM   17  C16 UNL     1       2.101  15.271  20.831  1.00  0.00     0.218 C
HETATM   18  C17 UNL     1       3.454  14.595  21.028  1.00  0.00     0.117 C
HETATM   19  O2  UNL     1       1.136  14.787  21.410  1.00  0.00    -0.274 OA
ATOM     20  H1  UNL     1       2.954  16.685  19.583  1.00  0.00     0.169 HD
ENDBRANCH   6  16
BRANCH   1  21
HETATM   21  O1  UNL     1       0.793  15.876  17.646  1.00  0.00    -0.354 OA
HETATM   22  C1  UNL     1       0.096  14.654  17.525  1.00  0.00     0.210 C
ENDBRANCH   1  21
TORSDOF 4
ENDMDL