MODEL 3
REMARK VINA RESULT: -6.869878362      2.471      6.240
REMARK  5 active torsions:
REMARK  status: ('A' for Active; 'I' for Inactive)
REMARK    1  A    between atoms: C2_2  and  C3_3
REMARK    2  A    between atoms: C8_8  and  N1_9
REMARK    3  A    between atoms: N1_9  and  C9_11
REMARK    4  A    between atoms: C9_11  and  O1_13
REMARK    5  A    between atoms: O1_13  and  C10_14
ROOT
HETATM    1  C3  UNL     1       0.644  15.898  15.376  1.00  0.00     0.016 C
HETATM    2  C4  UNL     1       1.307  14.578  15.104  1.00  0.00     0.009 C
HETATM    3  C5  UNL     1       1.423  13.635  16.218  1.00  0.00     0.001 C
HETATM    4  C6  UNL     1       1.494  14.144  17.616  1.00  0.00     0.007 C
HETATM    5  C7  UNL     1       1.225  15.595  17.668  1.00  0.00     0.017 C
HETATM    6  C8  UNL     1       1.080  16.228  19.029  1.00  0.00     0.089 C
HETATM    7  C12 UNL     1      -0.379  16.186  19.479  1.00  0.00     0.029 C
HETATM    8  C13 UNL     1      -1.195  17.040  18.526  1.00  0.00    -0.016 C
HETATM    9  C14 UNL     1      -1.474  18.411  19.145  1.00  0.00     0.010 C
HETATM   10  C15 UNL     1      -0.538  17.187  17.174  1.00  0.00     0.014 C
HETATM   11  C16 UNL     1       0.040  15.876  16.781  1.00  0.00    -0.031 C
HETATM   12  C17 UNL     1      -1.021  14.837  16.747  1.00  0.00     0.016 C
ENDROOT
BRANCH   6  13
HETATM   13  N1  UNL     1       1.945  15.694  20.016  1.00  0.00    -0.356 N
ATOM     14  H1  UNL     1       2.954  15.744  19.875  1.00  0.00     0.162 HD
BRANCH  13  15
HETATM   15  C9  UNL     1       1.444  15.097  21.186  1.00  0.00     0.210 C
HETATM   16  S1  UNL     1       1.500  13.446  21.372  1.00  0.00    -0.033 SA
BRANCH  15  17
HETATM   17  O1  UNL     1       0.902  15.880  22.185  1.00  0.00    -0.328 OA
BRANCH  17  18
HETATM   18  C10 UNL     1       1.463  17.130  22.483  1.00  0.00     0.173 C
HETATM   19  C11 UNL     1       0.419  18.217  22.424  1.00  0.00     0.034 C
ENDBRANCH  17  18
ENDBRANCH  15  17
ENDBRANCH  13  15
ENDBRANCH   6  13
BRANCH   1  20
HETATM   20  C2  UNL     1      -0.385  16.270  14.370  1.00  0.00    -0.031 C
HETATM   21  C1  UNL     1      -0.449  17.534  13.909  1.00  0.00     0.007 C
ENDBRANCH   1  20
TORSDOF 5
ENDMDL