MODEL 3
REMARK VINA RESULT: -6.812956841      2.546      4.107
REMARK  3 active torsions:
REMARK  status: ('A' for Active; 'I' for Inactive)
REMARK    1  A    between atoms: C2_2  and  C3_3
REMARK    2  A    between atoms: C3_3  and  C4_4
REMARK    3  A    between atoms: C4_4  and  C5_5
ROOT
HETATM    1  C5  UNL     1      -1.099  19.534  20.408  1.00  0.00    -0.004 C
HETATM    2  C6  UNL     1      -1.248  19.077  21.807  1.00  0.00    -0.006 C
HETATM    3  C7  UNL     1      -2.679  18.920  22.257  1.00  0.00     0.038 C
HETATM    4  C8  UNL     1      -3.426  20.218  22.103  1.00  0.00     0.187 C
HETATM    5  C9  UNL     1      -3.382  20.541  20.603  1.00  0.00     0.038 C
HETATM    6  C10 UNL     1      -1.964  20.793  20.214  1.00  0.00    -0.006 C
HETATM    7  C11 UNL     1      -1.297  21.885  21.014  1.00  0.00     0.038 C
HETATM    8  C12 UNL     1      -1.418  21.455  22.477  1.00  0.00     0.187 C
HETATM    9  C13 UNL     1      -0.653  20.176  22.711  1.00  0.00     0.038 C
HETATM   10  N1  UNL     1      -2.813  21.326  22.775  1.00  0.00    -0.067 N
ATOM     11  H11 UNL     1      -2.967  21.274  23.782  1.00  0.00     0.278 HD
ATOM     12  H12 UNL     1      -3.311  22.194  22.577  1.00  0.00     0.278 HD
ENDROOT
BRANCH   1  13
HETATM   13  C4  UNL     1      -1.325  18.574  19.310  1.00  0.00     0.037 C
BRANCH  13  14
HETATM   14  C3  UNL     1      -0.271  17.616  18.946  1.00  0.00     0.056 C
HETATM   15  S1  UNL     1      -0.697  16.036  19.836  1.00  0.00    -0.148 SA
HETATM   16  C14 UNL     1       0.679  14.906  19.498  1.00  0.00     0.076 C
HETATM   17  C15 UNL     1       1.947  15.418  20.134  1.00  0.00     0.020 C
HETATM   18  C16 UNL     1       1.747  16.740  20.839  1.00  0.00     0.076 C
HETATM   19  S2  UNL     1       1.336  18.056  19.635  1.00  0.00    -0.148 SA
BRANCH  14  20
HETATM   20  C2  UNL     1      -0.232  17.213  17.502  1.00  0.00     0.027 C
HETATM   21  C1  UNL     1      -1.591  16.845  17.014  1.00  0.00     0.007 C
ENDBRANCH  14  20
ENDBRANCH  13  14
ENDBRANCH   1  13
TORSDOF 3
ENDMDL