MODEL 2
REMARK VINA RESULT: -6.327637118      1.104      1.468
REMARK  3 active torsions:
REMARK  status: ('A' for Active; 'I' for Inactive)
REMARK    1  A    between atoms: O1_2  and  C2_3
REMARK    2  A    between atoms: C9_10  and  C10_11
REMARK    3  A    between atoms: C13_14  and  C14_15
ROOT
HETATM    1  C14 UNL     1      -3.802  22.427  23.418  1.00  0.00     0.026 C
HETATM    2  C15 UNL     1      -3.048  21.634  24.070  1.00  0.00     0.122 C
HETATM    3  C16 UNL     1      -1.926  20.851  23.686  1.00  0.00     0.110 C
HETATM    4  N1  UNL     1      -0.994  20.188  23.410  1.00  0.00    -0.191 NA
HETATM    5  C17 UNL     1      -3.402  21.494  25.520  1.00  0.00     0.110 C
HETATM    6  N2  UNL     1      -3.662  21.401  26.641  1.00  0.00    -0.191 NA
ENDROOT
BRANCH   1   7
HETATM    7  C13 UNL     1      -3.794  22.846  21.960  1.00  0.00     0.028 C
HETATM    8  C4  UNL     1      -4.368  21.657  21.247  1.00  0.00    -0.042 C
HETATM    9  C3  UNL     1      -3.520  20.728  20.470  1.00  0.00     0.045 C
HETATM   10  C5  UNL     1      -5.649  21.487  21.310  1.00  0.00    -0.014 C
HETATM   11  C2  UNL     1      -2.258  21.013  20.271  1.00  0.00     0.068 C
HETATM   12  C19 UNL     1      -1.678  22.209  20.837  1.00  0.00     0.034 C
HETATM   13  C18 UNL     1      -2.411  23.042  21.605  1.00  0.00    -0.005 C
HETATM   14  C6  UNL     1      -6.596  22.322  22.030  1.00  0.00     0.005 C
HETATM   15  C7  UNL     1      -7.814  22.477  21.099  1.00  0.00     0.014 C
HETATM   16  C8  UNL     1      -6.080  23.668  22.436  1.00  0.00     0.014 C
HETATM   17  C9  UNL     1      -4.734  24.018  21.826  1.00  0.00     0.010 C
BRANCH  11  18
HETATM   18  O1  UNL     1      -1.485  20.144  19.528  1.00  0.00    -0.356 OA
HETATM   19  C1  UNL     1      -1.534  18.767  19.909  1.00  0.00     0.210 C
ENDBRANCH  11  18
BRANCH  17  20
HETATM   20  C10 UNL     1      -4.869  24.487  20.424  1.00  0.00    -0.017 C
HETATM   21  C11 UNL     1      -6.086  25.395  20.234  1.00  0.00     0.010 C
HETATM   22  C12 UNL     1      -3.727  25.285  19.858  1.00  0.00     0.010 C
ENDBRANCH  17  20
ENDBRANCH   1   7
TORSDOF 3
ENDMDL