MODEL 5
REMARK VINA RESULT: -6.949023918      0.992      1.622
REMARK  4 active torsions:
REMARK  status: ('A' for Active; 'I' for Inactive)
REMARK    1  A    between atoms: C2_2  and  C5_5
REMARK    2  A    between atoms: C7_7  and  C8_8
REMARK    3  A    between atoms: C8_8  and  C9_10
REMARK    4  A    between atoms: C13_14  and  C15_16
ROOT
HETATM    1  C8  UNL     1      -1.726  18.436  20.438  1.00  0.00     0.166 C
HETATM    2  O1  UNL     1      -2.482  17.886  21.272  1.00  0.00    -0.292 OA
ENDROOT
BRANCH   1   3
HETATM    3  C7  UNL     1      -0.845  17.600  19.547  1.00  0.00     0.018 A
HETATM    4  C6  UNL     1      -1.242  17.194  18.314  1.00  0.00     0.031 A
HETATM    5  C5  UNL     1      -0.358  16.447  17.588  1.00  0.00    -0.009 A
HETATM    6  S1  UNL     1       0.991  16.322  18.610  1.00  0.00    -0.105 SA
HETATM    7  C16 UNL     1       0.411  17.217  19.938  1.00  0.00     0.065 A
BRANCH   5   8
HETATM    8  C2  UNL     1      -0.571  15.881  16.197  1.00  0.00    -0.018 C
HETATM    9  C1  UNL     1       0.642  15.144  15.739  1.00  0.00     0.020 C
HETATM   10  C3  UNL     1      -0.925  17.044  15.291  1.00  0.00     0.020 C
HETATM   11  C4  UNL     1      -1.818  15.002  16.269  1.00  0.00     0.020 C
ENDBRANCH   5   8
ENDBRANCH   1   3
BRANCH   1  12
HETATM   12  C9  UNL     1      -1.709  19.900  20.340  1.00  0.00     0.089 A
HETATM   13  C10 UNL     1      -2.673  20.807  20.989  1.00  0.00    -0.018 A
HETATM   14  C11 UNL     1      -3.792  20.258  21.826  1.00  0.00     0.017 C
HETATM   15  C12 UNL     1      -3.123  22.054  20.194  1.00  0.00     0.017 C
HETATM   16  C13 UNL     1      -1.261  20.773  21.433  1.00  0.00     0.064 A
HETATM   17  C14 UNL     1      -0.354  21.940  20.987  1.00  0.00     0.028 C
BRANCH  16  18
HETATM   18  C15 UNL     1      -0.954  20.344  22.795  1.00  0.00     0.183 C
HETATM   19  O2  UNL     1      -0.139  19.375  22.999  1.00  0.00    -0.647 OA
HETATM   20  O3  UNL     1      -1.472  20.901  23.967  1.00  0.00    -0.647 OA
ENDBRANCH  16  18
ENDBRANCH   1  12
TORSDOF 4
ENDMDL