MODEL 1
REMARK VINA RESULT: -5.773355362      0.000      0.000
REMARK  9 active torsions:
REMARK  status: ('A' for Active; 'I' for Inactive)
REMARK    1  A    between atoms: O1_2  and  C2_3
REMARK    2  A    between atoms: C2_3  and  C3_4
REMARK    3  A    between atoms: C7_8  and  O2_9
REMARK    4  A    between atoms: C8_11  and  O3_12
REMARK    5  A    between atoms: C23_29  and  C24_30
REMARK    6  A    between atoms: C24_30  and  C25_31
REMARK    7  A    between atoms: C25_31  and  C26_32
REMARK    8  A    between atoms: C26_32  and  C28_34
REMARK    9  A    between atoms: C28_34  and  C29_35
ROOT
HETATM    1  C3  UNL     1       9.119  26.086   3.074  1.00  0.00     0.016 C
HETATM    2  C4  UNL     1       7.744  25.495   2.830  1.00  0.00    -0.070 C
HETATM    3  C5  UNL     1       7.249  25.504   1.385  1.00  0.00     0.044 C
HETATM    4  C6  UNL     1       6.633  25.783   3.739  1.00  0.00     0.039 C
HETATM    5  C7  UNL     1       5.814  26.984   3.742  1.00  0.00     0.082 C
HETATM    6  C8  UNL     1       6.018  27.720   5.043  1.00  0.00     0.129 C
HETATM    7  C9  UNL     1       5.399  29.036   5.143  1.00  0.00     0.016 C
HETATM    8  C10 UNL     1       6.023  29.680   6.123  1.00  0.00    -0.003 C
HETATM    9  C11 UNL     1       7.100  28.800   6.719  1.00  0.00     0.070 C
HETATM   10  C12 UNL     1       6.451  28.129   7.927  1.00  0.00     0.036 C
HETATM   11  C13 UNL     1       8.228  29.512   7.204  1.00  0.00     0.073 C
HETATM   12  N1  UNL     1       9.153  30.090   7.579  1.00  0.00    -0.196 NA
HETATM   13  C14 UNL     1       7.364  27.781   5.597  1.00  0.00     0.061 C
HETATM   14  C15 UNL     1       8.549  28.057   4.735  1.00  0.00    -0.004 C
HETATM   15  C16 UNL     1       8.553  29.315   3.975  1.00  0.00     0.011 C
HETATM   16  C17 UNL     1       9.344  26.890   4.276  1.00  0.00     0.005 C
HETATM   17  C18 UNL     1      10.802  27.313   4.340  1.00  0.00     0.007 C
HETATM   18  C19 UNL     1      11.886  26.492   3.861  1.00  0.00     0.010 C
HETATM   19  C20 UNL     1      11.567  25.289   3.042  1.00  0.00    -0.040 C
HETATM   20  C21 UNL     1      12.506  24.243   3.693  1.00  0.00     0.015 C
HETATM   21  C22 UNL     1      12.089  25.243   1.641  1.00  0.00     0.015 C
HETATM   22  C23 UNL     1      10.099  24.914   3.193  1.00  0.00     0.031 C
ENDROOT
BRANCH   6  23
HETATM   23  O3  UNL     1       5.287  26.943   6.005  1.00  0.00    -0.378 OA
ATOM     24  H3  UNL     1       5.731  27.114   6.827  1.00  0.00     0.211 HD
ENDBRANCH   6  23
BRANCH   5  25
HETATM   25  O2  UNL     1       5.742  27.780   2.627  1.00  0.00    -0.361 OA
ATOM     26  H2  UNL     1       4.907  28.127   2.337  1.00  0.00     0.217 HD
ENDBRANCH   5  25
BRANCH   1  27
HETATM   27  C2  UNL     1       9.278  26.895   1.824  1.00  0.00     0.182 C
BRANCH  27  28
HETATM   28  O1  UNL     1       8.444  27.894   1.481  1.00  0.00    -0.395 OA
HETATM   29  C1  UNL     1       8.962  28.431   0.277  1.00  0.00     0.201 C
ENDBRANCH  27  28
ENDBRANCH   1  27
BRANCH  22  30
HETATM   30  C24 UNL     1      10.051  24.029   4.325  1.00  0.00    -0.020 C
BRANCH  30  31
HETATM   31  C25 UNL     1       9.852  24.252   5.720  1.00  0.00    -0.001 C
BRANCH  31  32
HETATM   32  C26 UNL     1      10.787  24.363   6.698  1.00  0.00    -0.078 C
HETATM   33  C27 UNL     1      11.627  23.151   6.922  1.00  0.00     0.044 C
BRANCH  32  34
HETATM   34  C28 UNL     1      11.002  25.552   7.507  1.00  0.00     0.103 C
BRANCH  34  35
HETATM   35  C29 UNL     1       9.705  26.188   7.836  1.00  0.00     0.235 C
HETATM   36  O4  UNL     1       8.985  25.802   8.737  1.00  0.00    -0.307 OA
ENDBRANCH  34  35
ENDBRANCH  32  34
ENDBRANCH  31  32
ENDBRANCH  30  31
ENDBRANCH  22  30
TORSDOF 9
ENDMDL