MODEL 1
REMARK VINA RESULT: -8.458593293      0.000      0.000
REMARK  12 active torsions:
REMARK  status: ('A' for Active; 'I' for Inactive)
REMARK    1  A    between atoms: C4_4  and  C5_5
REMARK    2  A    between atoms: C7_7  and  C8_8
REMARK    3  A    between atoms: C8_8  and  O1_9
REMARK    4  A    between atoms: C10_12  and  C11_13
REMARK    5  A    between atoms: C11_13  and  C12_14
REMARK    6  A    between atoms: C12_14  and  C13_15
REMARK    7  A    between atoms: C15_17  and  C16_18
REMARK    8  A    between atoms: C18_20  and  O2_21
REMARK    9  A    between atoms: C19_23  and  C20_24
REMARK   10  A    between atoms: C20_24  and  O4_26
REMARK   11  A    between atoms: O4_26  and  C21_27
REMARK   12  A    between atoms: C26_32  and  C27_33
ROOT
HETATM    1  C16 UNL     1      14.891  23.038   6.767  1.00  0.00    -0.068 C
HETATM    2  C17 UNL     1      15.841  23.681   5.780  1.00  0.00     0.071 C
HETATM    3  C18 UNL     1      16.584  22.580   5.009  1.00  0.00     0.161 C
HETATM    4  C19 UNL     1      16.947  21.481   5.930  1.00  0.00     0.043 C
HETATM    5  C25 UNL     1      16.460  21.264   7.115  1.00  0.00    -0.001 C
HETATM    6  C26 UNL     1      15.425  22.120   7.749  1.00  0.00     0.045 C
ENDROOT
BRANCH   1   7
HETATM    7  C15 UNL     1      13.705  23.813   7.079  1.00  0.00     0.018 C
HETATM    8  C13 UNL     1      12.477  23.852   6.648  1.00  0.00    -0.021 C
HETATM    9  C14 UNL     1      12.130  22.937   5.524  1.00  0.00     0.057 C
BRANCH   8  10
HETATM   10  C12 UNL     1      11.536  24.761   7.196  1.00  0.00    -0.146 C
BRANCH  10  11
HETATM   11  C11 UNL     1      10.710  25.560   7.676  1.00  0.00     0.117 C
BRANCH  11  12
HETATM   12  C10 UNL     1      10.011  26.670   6.948  1.00  0.00     0.133 C
HETATM   13  C9  UNL     1       9.140  27.542   7.744  1.00  0.00     0.039 C
HETATM   14  C7  UNL     1       8.338  28.405   6.772  1.00  0.00     0.014 C
HETATM   15  C6  UNL     1       9.002  28.429   5.411  1.00  0.00     0.042 C
HETATM   16  C5  UNL     1       9.101  27.017   4.879  1.00  0.00     0.145 C
HETATM   17  O5  UNL     1       9.241  26.095   5.928  1.00  0.00    -0.376 OA
BRANCH  14  18
HETATM   18  C8  UNL     1       8.204  29.809   7.316  1.00  0.00     0.168 C
BRANCH  18  19
HETATM   19  O1  UNL     1       9.419  30.167   7.854  1.00  0.00    -0.400 OA
ATOM     20  H1  UNL     1       9.913  29.369   8.006  1.00  0.00     0.209 HD
ENDBRANCH  18  19
ENDBRANCH  14  18
BRANCH  16  21
HETATM   21  C4  UNL     1      10.269  26.844   3.983  1.00  0.00     0.007 C
HETATM   22  C2  UNL     1      10.500  25.778   3.242  1.00  0.00    -0.089 C
HETATM   23  C1  UNL     1       9.632  24.574   3.179  1.00  0.00     0.042 C
HETATM   24  C3  UNL     1      11.730  25.737   2.369  1.00  0.00     0.042 C
ENDBRANCH  16  21
ENDBRANCH  11  12
ENDBRANCH  10  11
ENDBRANCH   8  10
ENDBRANCH   1   7
BRANCH   6  25
HETATM   25  C27 UNL     1      15.942  22.559   9.058  1.00  0.00    -0.041 C
HETATM   26  C28 UNL     1      16.867  23.705   9.127  1.00  0.00     0.015 C
HETATM   27  C29 UNL     1      16.747  21.364   9.614  1.00  0.00     0.015 C
HETATM   28  C30 UNL     1      14.840  22.786  10.093  1.00  0.00     0.015 C
ENDBRANCH   6  25
BRANCH   3  29
HETATM   29  O2  UNL     1      15.871  22.150   3.900  1.00  0.00    -0.390 OA
ATOM     30  H2  UNL     1      16.257  21.377   3.506  1.00  0.00     0.210 HD
ENDBRANCH   3  29
BRANCH   4  31
HETATM   31  C20 UNL     1      18.003  20.572   5.420  1.00  0.00     0.292 C
HETATM   32  O3  UNL     1      18.883  20.075   6.164  1.00  0.00    -0.259 OA
BRANCH  31  33
HETATM   33  O4  UNL     1      18.084  20.213   4.084  1.00  0.00    -0.307 OA
BRANCH  33  34
HETATM   34  C21 UNL     1      17.539  19.045   3.565  1.00  0.00     0.060 C
HETATM   35  C22 UNL     1      18.441  17.870   3.523  1.00  0.00     0.046 C
HETATM   36  C23 UNL     1      17.129  19.348   2.116  1.00  0.00     0.046 C
HETATM   37  C24 UNL     1      16.244  18.618   4.245  1.00  0.00     0.046 C
ENDBRANCH  33  34
ENDBRANCH  31  33
ENDBRANCH   4  31
TORSDOF 12
ENDMDL