MODEL 1
REMARK VINA RESULT: -6.085354659      0.000      0.000
REMARK  10 active torsions:
REMARK  status: ('A' for Active; 'I' for Inactive)
REMARK    1  A    between atoms: C2_2  and  C3_3
REMARK    2  A    between atoms: C3_3  and  C6_6
REMARK    3  A    between atoms: C6_6  and  C7_7
REMARK    4  A    between atoms: C7_7  and  C8_8
REMARK    5  A    between atoms: C8_8  and  O1_9
REMARK    6  A    between atoms: C9_11  and  O2_12
REMARK    7  A    between atoms: C10_14  and  O3_15
REMARK    8  A    between atoms: O3_15  and  C11_16
REMARK    9  A    between atoms: C11_16  and  C12_18
REMARK   10  A    between atoms: C12_18  and  C14_20
ROOT
HETATM    1  C8  UNL     1      19.478  20.467  10.083  1.00  0.00     0.105 C
HETATM    2  C9  UNL     1      19.314  21.745   9.273  1.00  0.00     0.123 A
HETATM    3  C10 UNL     1      17.982  22.159   8.791  1.00  0.00     0.177 A
HETATM    4  C16 UNL     1      18.888  21.308   7.926  1.00  0.00     0.067 A
HETATM    5  C17 UNL     1      18.622  19.850   7.943  1.00  0.00     0.048 C
HETATM    6  C18 UNL     1      19.323  19.068   6.891  1.00  0.00     0.067 C
HETATM    7  C19 UNL     1      19.806  19.914   5.734  1.00  0.00     0.039 C
HETATM    8  C20 UNL     1      19.914  18.935   4.558  1.00  0.00     0.012 C
HETATM    9  C21 UNL     1      18.985  17.803   4.883  1.00  0.00    -0.045 C
HETATM   10  C22 UNL     1      19.835  16.546   5.011  1.00  0.00     0.015 C
HETATM   11  C23 UNL     1      17.902  17.601   3.860  1.00  0.00     0.015 C
HETATM   12  C24 UNL     1      18.337  18.154   6.205  1.00  0.00     0.047 C
HETATM   13  O5  UNL     1      20.323  18.341   7.443  1.00  0.00    -0.373 OA
HETATM   14  C25 UNL     1      20.193  18.368   8.828  1.00  0.00     0.142 A
HETATM   15  C26 UNL     1      19.686  16.981   9.241  1.00  0.00     0.066 A
HETATM   16  C27 UNL     1      18.389  17.221   9.892  1.00  0.00    -0.084 A
HETATM   17  C28 UNL     1      17.522  16.137  10.468  1.00  0.00     0.043 C
HETATM   18  C29 UNL     1      18.097  18.504   9.900  1.00  0.00    -0.009 A
HETATM   19  C30 UNL     1      19.171  19.315   9.246  1.00  0.00     0.045 A
ENDROOT
BRANCH   1  20
HETATM   20  C7  UNL     1      20.790  20.564  10.776  1.00  0.00     0.043 C
BRANCH  20  21
HETATM   21  C6  UNL     1      20.768  20.422  12.260  1.00  0.00     0.016 C
BRANCH  21  22
HETATM   22  C3  UNL     1      21.397  19.124  12.727  1.00  0.00    -0.031 C
HETATM   23  C4  UNL     1      22.443  18.743  11.698  1.00  0.00     0.019 C
HETATM   24  C5  UNL     1      22.069  19.303  14.071  1.00  0.00     0.019 C
BRANCH  22  25
HETATM   25  C2  UNL     1      20.408  18.033  12.850  1.00  0.00    -0.028 C
HETATM   26  C1  UNL     1      19.247  18.160  13.471  1.00  0.00     0.007 C
ENDBRANCH  22  25
ENDBRANCH  21  22
ENDBRANCH  20  21
ENDBRANCH   1  20
BRANCH   1  27
HETATM   27  O1  UNL     1      18.509  20.618  11.118  1.00  0.00    -0.385 OA
ATOM     28  H1  UNL     1      17.775  21.056  10.701  1.00  0.00     0.210 HD
ENDBRANCH   1  27
BRANCH   2  29
HETATM   29  O2  UNL     1      20.262  22.748   9.459  1.00  0.00    -0.383 OA
ATOM     30  H2  UNL     1      20.109  23.578   9.024  1.00  0.00     0.210 HD
ENDBRANCH   2  29
BRANCH   3  31
HETATM   31  O3  UNL     1      16.794  21.574   9.213  1.00  0.00    -0.312 OA
BRANCH  31  32
HETATM   32  C11 UNL     1      15.525  21.923   8.847  1.00  0.00     0.263 C
HETATM   33  O4  UNL     1      14.653  21.988   9.768  1.00  0.00    -0.265 OA
BRANCH  32  34
HETATM   34  C12 UNL     1      15.217  22.205   7.434  1.00  0.00     0.081 C
HETATM   35  C13 UNL     1      13.831  22.732   7.209  1.00  0.00     0.020 C
BRANCH  34  36
HETATM   36  C14 UNL     1      15.371  20.938   6.588  1.00  0.00     0.010 C
HETATM   37  C15 UNL     1      16.215  21.293   5.393  1.00  0.00     0.006 C
ENDBRANCH  34  36
ENDBRANCH  32  34
ENDBRANCH  31  32
ENDBRANCH   3  31
TORSDOF 10
ENDMDL