MODEL 1
REMARK VINA RESULT: -7.555112386      0.000      0.000
REMARK  9 active torsions:
REMARK  status: ('A' for Active; 'I' for Inactive)
REMARK    1  A    between atoms: C2_2  and  C3_3
REMARK    2  A    between atoms: C3_3  and  C4_4
REMARK    3  A    between atoms: C4_4  and  O1_6
REMARK    4  A    between atoms: C4_4  and  C6_8
REMARK    5  A    between atoms: C11_13  and  O2_14
REMARK    6  A    between atoms: C13_17  and  C15_19
REMARK    7  A    between atoms: C15_19  and  O4_21
REMARK    8  A    between atoms: C19_25  and  O5_26
REMARK    9  A    between atoms: O5_26  and  C20_27
ROOT
HETATM    1  C6  UNL     1       8.531  28.387   7.703  1.00  0.00     0.029 C
HETATM    2  C7  UNL     1       9.510  28.663   6.571  1.00  0.00     0.014 C
HETATM    3  C8  UNL     1      10.543  28.035   7.480  1.00  0.00    -0.001 C
HETATM    4  C9  UNL     1      11.592  27.191   6.863  1.00  0.00    -0.003 C
HETATM    5  C10 UNL     1      12.395  26.520   7.902  1.00  0.00     0.037 C
HETATM    6  C11 UNL     1      13.352  25.471   7.417  1.00  0.00     0.124 C
HETATM    7  C12 UNL     1      12.692  24.619   6.355  1.00  0.00     0.043 C
HETATM    8  C13 UNL     1      13.433  23.400   5.968  1.00  0.00     0.051 C
HETATM    9  C14 UNL     1      12.580  22.127   6.116  1.00  0.00     0.026 C
HETATM   10  C17 UNL     1      13.846  23.391   4.504  1.00  0.00     0.022 C
HETATM   11  C18 UNL     1      12.665  23.624   3.613  1.00  0.00     0.034 C
HETATM   12  C19 UNL     1      11.794  24.756   3.993  1.00  0.00     0.137 C
HETATM   13  C23 UNL     1      12.151  25.465   5.246  1.00  0.00    -0.006 C
HETATM   14  C24 UNL     1      13.137  26.558   4.796  1.00  0.00     0.019 C
HETATM   15  C25 UNL     1      10.988  26.271   5.821  1.00  0.00     0.001 C
HETATM   16  C26 UNL     1       9.807  25.540   6.265  1.00  0.00     0.007 C
HETATM   17  C27 UNL     1       9.211  25.915   7.586  1.00  0.00     0.010 C
HETATM   18  C28 UNL     1       9.396  27.259   8.102  1.00  0.00    -0.034 C
HETATM   19  C29 UNL     1       9.532  27.268   9.638  1.00  0.00     0.016 C
ENDROOT
BRANCH   1  20
HETATM   20  C4  UNL     1       7.119  28.230   7.350  1.00  0.00     0.061 C
HETATM   21  C5  UNL     1       7.058  28.125   5.811  1.00  0.00     0.046 C
BRANCH  20  22
HETATM   22  C3  UNL     1       6.380  29.517   7.668  1.00  0.00     0.064 C
BRANCH  22  23
HETATM   23  C2  UNL     1       5.199  29.691   6.783  1.00  0.00    -0.034 C
HETATM   24  C1  UNL     1       3.994  29.702   7.310  1.00  0.00     0.007 C
ENDBRANCH  22  23
ENDBRANCH  20  22
BRANCH  20  25
HETATM   25  O1  UNL     1       6.458  27.131   7.820  1.00  0.00    -0.390 OA
ATOM     26  H1  UNL     1       6.792  26.849   8.664  1.00  0.00     0.210 HD
ENDBRANCH  20  25
ENDBRANCH   1  20
BRANCH   6  27
HETATM   27  O2  UNL     1      13.549  24.593   8.518  1.00  0.00    -0.395 OA
ATOM     28  H2  UNL     1      14.351  24.120   8.329  1.00  0.00     0.210 HD
ENDBRANCH   6  27
BRANCH  12  29
HETATM   29  O5  UNL     1      10.439  24.306   3.917  1.00  0.00    -0.351 OA
BRANCH  29  30
HETATM   30  C20 UNL     1       9.643  24.925   2.964  1.00  0.00     0.033 C
HETATM   31  C21 UNL     1      10.141  25.479   1.870  1.00  0.00     0.045 C
HETATM   32  C22 UNL     1       8.179  24.978   3.158  1.00  0.00     0.075 C
ENDBRANCH  29  30
ENDBRANCH  12  29
BRANCH   8  33
HETATM   33  C15 UNL     1      14.681  23.133   6.724  1.00  0.00     0.267 C
HETATM   34  O3  UNL     1      14.756  22.255   7.649  1.00  0.00    -0.264 OA
BRANCH  33  35
HETATM   35  O4  UNL     1      15.867  23.811   6.489  1.00  0.00    -0.326 OA
HETATM   36  C16 UNL     1      16.883  23.930   7.477  1.00  0.00     0.213 C
ENDBRANCH  33  35
ENDBRANCH   8  33
TORSDOF 9
ENDMDL