MODEL 5
REMARK VINA RESULT: -9.048229140      2.435      3.040
REMARK  7 active torsions:
REMARK  status: ('A' for Active; 'I' for Inactive)
REMARK    1  A    between atoms: C2_2  and  C3_3
REMARK    2  A    between atoms: C3_3  and  C5_5
REMARK    3  A    between atoms: C3_3  and  C6_7
REMARK    4  A    between atoms: C15_16  and  O2_17
REMARK    5  A    between atoms: O2_17  and  C16_18
REMARK    6  A    between atoms: C19_21  and  N1_22
REMARK    7  A    between atoms: C27_34  and  O4_35
ROOT
HETATM    1  C6  UNL     1      16.888  21.787   7.831  1.00  0.00     0.009 C
HETATM    2  C7  UNL     1      16.768  23.180   8.384  1.00  0.00     0.007 C
HETATM    3  C8  UNL     1      15.285  23.536   8.207  1.00  0.00     0.006 C
HETATM    4  C9  UNL     1      14.734  22.397   7.439  1.00  0.00    -0.001 C
HETATM    5  C10 UNL     1      13.568  22.652   6.580  1.00  0.00    -0.003 C
HETATM    6  C11 UNL     1      12.575  23.477   7.402  1.00  0.00     0.006 C
HETATM    7  C12 UNL     1      11.319  23.568   6.618  1.00  0.00     0.006 C
HETATM    8  C13 UNL     1      11.494  23.777   5.154  1.00  0.00    -0.004 C
HETATM    9  C14 UNL     1      10.406  24.626   4.561  1.00  0.00     0.037 C
HETATM   10  C15 UNL     1      10.792  26.072   4.433  1.00  0.00     0.125 C
HETATM   11  C22 UNL     1      11.848  26.470   5.410  1.00  0.00     0.033 C
HETATM   12  C23 UNL     1      13.149  25.671   5.209  1.00  0.00     0.012 C
HETATM   13  C24 UNL     1      12.893  24.298   4.785  1.00  0.00    -0.034 C
HETATM   14  C25 UNL     1      12.904  24.293   3.244  1.00  0.00     0.016 C
HETATM   15  C26 UNL     1      13.842  23.210   5.225  1.00  0.00     0.027 C
HETATM   16  C27 UNL     1      15.265  23.479   4.878  1.00  0.00     0.124 C
HETATM   17  C28 UNL     1      16.289  22.665   5.529  1.00  0.00     0.042 C
HETATM   18  C29 UNL     1      15.942  21.814   6.685  1.00  0.00    -0.033 C
HETATM   19  C30 UNL     1      15.470  20.421   6.269  1.00  0.00     0.016 C
ENDROOT
BRANCH  10  20
HETATM   20  O2  UNL     1       9.664  26.835   4.699  1.00  0.00    -0.356 OA
BRANCH  20  21
HETATM   21  C16 UNL     1       9.130  27.391   3.546  1.00  0.00     0.260 C
HETATM   22  C17 UNL     1       7.651  27.596   3.668  1.00  0.00     0.063 C
HETATM   23  C18 UNL     1       6.825  26.473   3.139  1.00  0.00     0.040 C
HETATM   24  C19 UNL     1       7.396  25.812   1.929  1.00  0.00     0.212 C
HETATM   25  C20 UNL     1       8.616  26.561   1.447  1.00  0.00     0.151 C
HETATM   26  C21 UNL     1       8.295  27.874   0.808  1.00  0.00     0.042 C
HETATM   27  O3  UNL     1       9.517  26.626   2.478  1.00  0.00    -0.354 OA
BRANCH  24  28
HETATM   28  N1  UNL     1       6.418  25.615   0.882  1.00  0.00    -0.073 N
ATOM     29  H13 UNL     1       6.476  24.671   0.501  1.00  0.00     0.274 HD
ATOM     30  H12 UNL     1       5.474  25.580   1.267  1.00  0.00     0.274 HD
ATOM     31  H11 UNL     1       6.485  26.312   0.141  1.00  0.00     0.274 HD
ENDBRANCH  24  28
ENDBRANCH  20  21
ENDBRANCH  10  20
BRANCH  16  32
HETATM   32  O4  UNL     1      15.611  24.854   4.955  1.00  0.00    -0.395 OA
ATOM     33  H4  UNL     1      15.512  25.313   4.129  1.00  0.00     0.210 HD
ENDBRANCH  16  32
BRANCH   1  34
HETATM   34  C3  UNL     1      18.217  21.232   7.675  1.00  0.00     0.013 C
HETATM   35  C4  UNL     1      18.527  19.871   8.142  1.00  0.00     0.023 C
BRANCH  34  36
HETATM   36  C2  UNL     1      18.705  21.360   6.222  1.00  0.00     0.012 C
HETATM   37  C1  UNL     1      19.622  20.314   5.757  1.00  0.00     0.006 C
ENDBRANCH  34  36
BRANCH  34  38
HETATM   38  C5  UNL     1      19.186  22.124   8.398  1.00  0.00     0.240 C
HETATM   39  O1  UNL     1      19.901  21.660   9.256  1.00  0.00    -0.306 OA
ENDBRANCH  34  38
ENDBRANCH   1  34
TORSDOF 7
ENDMDL