MODEL 2
REMARK VINA RESULT: -6.559385591      5.453     11.593
REMARK  8 active torsions:
REMARK  status: ('A' for Active; 'I' for Inactive)
REMARK    1  A    between atoms: C2_2  and  C3_3
REMARK    2  A    between atoms: C3_3  and  C4_4
REMARK    3  A    between atoms: C4_4  and  C5_5
REMARK    4  A    between atoms: C5_5  and  C6_6
REMARK    5  A    between atoms: C16_17  and  O2_18
REMARK    6  A    between atoms: C19_21  and  O3_22
REMARK    7  A    between atoms: C21_25  and  C23_27
REMARK    8  A    between atoms: C27_33  and  O6_35
ROOT
HETATM    1  C6  UNL     1       6.131  27.260   2.966  1.00  0.00     0.084 C
HETATM    2  C7  UNL     1       5.675  27.168   1.502  1.00  0.00     0.049 C
HETATM    3  O1  UNL     1       7.064  28.219   3.053  1.00  0.00    -0.367 OA
HETATM    4  C8  UNL     1       8.364  27.896   3.223  1.00  0.00     0.062 C
HETATM    5  C9  UNL     1       9.009  29.206   3.744  1.00  0.00     0.046 C
HETATM    6  C10 UNL     1       9.122  27.548   1.990  1.00  0.00     0.038 C
HETATM    7  C11 UNL     1       9.632  26.180   1.852  1.00  0.00     0.011 C
HETATM    8  C12 UNL     1      10.165  25.503   3.049  1.00  0.00     0.025 C
HETATM    9  C13 UNL     1      10.001  26.479   4.211  1.00  0.00     0.007 C
HETATM   10  C14 UNL     1       8.614  26.914   4.382  1.00  0.00     0.027 C
HETATM   11  C15 UNL     1       7.579  25.851   4.468  1.00  0.00     0.043 C
HETATM   12  C16 UNL     1       6.466  25.914   3.473  1.00  0.00     0.155 C
HETATM   13  C18 UNL     1      10.768  25.875   5.276  1.00  0.00     0.030 C
HETATM   14  C19 UNL     1      10.298  24.683   5.991  1.00  0.00     0.124 C
HETATM   15  C20 UNL     1      11.314  24.497   7.138  1.00  0.00     0.052 C
HETATM   16  C21 UNL     1      12.639  24.068   6.542  1.00  0.00     0.048 C
HETATM   17  C22 UNL     1      12.654  22.552   6.667  1.00  0.00     0.027 C
HETATM   18  C24 UNL     1      12.840  24.435   5.120  1.00  0.00     0.033 C
HETATM   19  C25 UNL     1      12.086  25.552   4.545  1.00  0.00    -0.005 C
HETATM   20  C26 UNL     1      12.926  26.829   4.654  1.00  0.00     0.019 C
HETATM   21  C27 UNL     1      11.689  25.385   3.089  1.00  0.00     0.066 C
HETATM   22  C28 UNL     1      12.182  24.140   2.448  1.00  0.00     0.047 C
ENDROOT
BRANCH   1  23
HETATM   23  C5  UNL     1       4.889  27.777   3.725  1.00  0.00     0.041 C
BRANCH  23  24
HETATM   24  C4  UNL     1       5.327  28.746   4.777  1.00  0.00     0.007 C
BRANCH  24  25
HETATM   25  C3  UNL     1       5.157  28.161   6.141  1.00  0.00     0.026 C
BRANCH  25  26
HETATM   26  C2  UNL     1       6.311  28.294   7.035  1.00  0.00    -0.037 C
HETATM   27  C1  UNL     1       7.246  29.198   7.050  1.00  0.00     0.007 C
ENDBRANCH  25  26
ENDBRANCH  24  25
ENDBRANCH  23  24
ENDBRANCH   1  23
BRANCH  12  28
HETATM   28  O2  UNL     1       5.312  25.346   4.013  1.00  0.00    -0.388 OA
HETATM   29  C17 UNL     1       5.038  24.087   3.501  1.00  0.00     0.202 C
ENDBRANCH  12  28
BRANCH  21  30
HETATM   30  O6  UNL     1      12.147  26.458   2.289  1.00  0.00    -0.389 OA
ATOM     31  H6  UNL     1      13.093  26.381   2.309  1.00  0.00     0.210 HD
ENDBRANCH  21  30
BRANCH  14  32
HETATM   32  O3  UNL     1      10.397  23.475   5.291  1.00  0.00    -0.395 OA
ATOM     33  H3  UNL     1       9.579  23.016   5.142  1.00  0.00     0.210 HD
ENDBRANCH  14  32
BRANCH  16  34
HETATM   34  C23 UNL     1      13.676  24.564   7.459  1.00  0.00     0.181 C
HETATM   35  O4  UNL     1      13.610  25.747   7.876  1.00  0.00    -0.647 OA
HETATM   36  O5  UNL     1      14.747  23.823   7.914  1.00  0.00    -0.647 OA
ENDBRANCH  16  34
TORSDOF 8
ENDMDL