MODEL 1
REMARK VINA RESULT: -7.809541258      0.000      0.000
REMARK  10 active torsions:
REMARK  status: ('A' for Active; 'I' for Inactive)
REMARK    1  A    between atoms: C2_2  and  C3_3
REMARK    2  A    between atoms: C2_2  and  C28_35
REMARK    3  A    between atoms: C3_3  and  C4_4
REMARK    4  A    between atoms: C4_4  and  C5_5
REMARK    5  A    between atoms: C5_5  and  C7_7
REMARK    6  A    between atoms: C15_16  and  O2_17
REMARK    7  A    between atoms: C19_22  and  O3_23
REMARK    8  A    between atoms: O3_23  and  C20_24
REMARK    9  A    between atoms: C20_24  and  C21_26
REMARK   10  A    between atoms: C21_26  and  O5_29
ROOT
HETATM    1  C7  UNL     1      11.573  25.964   4.486  1.00  0.00     0.004 C
HETATM    2  C8  UNL     1      11.967  25.302   3.171  1.00  0.00    -0.013 C
HETATM    3  C9  UNL     1      12.155  23.847   3.152  1.00  0.00     0.010 C
HETATM    4  C10 UNL     1      10.854  25.565   2.182  1.00  0.00     0.010 C
HETATM    5  C11 UNL     1       9.977  26.449   2.978  1.00  0.00     0.002 C
HETATM    6  C12 UNL     1       8.686  26.748   2.381  1.00  0.00     0.009 C
HETATM    7  C13 UNL     1       7.794  25.669   1.913  1.00  0.00     0.087 C
HETATM    8  C14 UNL     1       6.506  25.778   2.701  1.00  0.00     0.162 C
HETATM    9  O1  UNL     1       5.813  24.836   2.978  1.00  0.00    -0.295 OA
HETATM   10  C15 UNL     1       6.368  27.236   2.997  1.00  0.00     0.126 C
HETATM   11  C16 UNL     1       5.724  27.473   4.368  1.00  0.00     0.047 C
HETATM   12  C17 UNL     1       6.900  27.704   5.341  1.00  0.00     0.011 C
HETATM   13  C18 UNL     1       7.962  27.014   4.621  1.00  0.00     0.028 C
HETATM   14  C19 UNL     1       9.393  27.178   5.113  1.00  0.00     0.145 C
HETATM   15  C24 UNL     1      10.109  26.063   4.442  1.00  0.00    -0.009 C
HETATM   16  C25 UNL     1       9.510  24.773   4.860  1.00  0.00     0.018 C
HETATM   17  C26 UNL     1       7.806  27.609   3.226  1.00  0.00     0.005 C
HETATM   18  C27 UNL     1       8.090  29.062   3.166  1.00  0.00     0.020 C
ENDROOT
BRANCH   1  19
HETATM   19  C5  UNL     1      12.332  25.328   5.534  1.00  0.00    -0.013 C
HETATM   20  C6  UNL     1      12.280  25.790   6.940  1.00  0.00     0.010 C
BRANCH  19  21
HETATM   21  C4  UNL     1      13.822  25.380   5.160  1.00  0.00     0.009 C
BRANCH  21  22
HETATM   22  C3  UNL     1      14.713  24.728   6.174  1.00  0.00     0.034 C
BRANCH  22  23
HETATM   23  C2  UNL     1      14.685  23.243   5.851  1.00  0.00    -0.086 C
HETATM   24  C1  UNL     1      15.204  22.835   4.717  1.00  0.00     0.014 C
BRANCH  23  25
HETATM   25  C28 UNL     1      14.091  22.273   6.768  1.00  0.00     0.005 C
HETATM   26  C29 UNL     1      14.194  22.647   8.220  1.00  0.00     0.014 C
HETATM   27  C30 UNL     1      12.653  22.016   6.415  1.00  0.00     0.014 C
ENDBRANCH  23  25
ENDBRANCH  22  23
ENDBRANCH  21  22
ENDBRANCH  19  21
ENDBRANCH   1  19
BRANCH  14  28
HETATM   28  O3  UNL     1       9.224  27.193   6.480  1.00  0.00    -0.312 OA
BRANCH  28  29
HETATM   29  C20 UNL     1       9.401  28.367   7.180  1.00  0.00     0.293 C
HETATM   30  O4  UNL     1       9.408  29.471   6.613  1.00  0.00    -0.262 OA
BRANCH  29  31
HETATM   31  C21 UNL     1       9.588  28.317   8.638  1.00  0.00     0.138 C
HETATM   32  C22 UNL     1       9.074  27.020   9.225  1.00  0.00     0.056 C
HETATM   33  C23 UNL     1       8.936  29.519   9.315  1.00  0.00     0.056 C
BRANCH  31  34
HETATM   34  O5  UNL     1      10.954  28.381   8.968  1.00  0.00    -0.380 OA
ATOM     35  H5  UNL     1      11.126  29.117   9.544  1.00  0.00     0.211 HD
ENDBRANCH  31  34
ENDBRANCH  29  31
ENDBRANCH  28  29
ENDBRANCH  14  28
BRANCH  10  36
HETATM   36  O2  UNL     1       5.751  27.941   2.002  1.00  0.00    -0.381 OA
ATOM     37  H2  UNL     1       5.512  28.825   2.253  1.00  0.00     0.211 HD
ENDBRANCH  10  36
TORSDOF 10
ENDMDL