MODEL 3
REMARK VINA RESULT: -6.975188761      2.742      7.593
REMARK  9 active torsions:
REMARK  status: ('A' for Active; 'I' for Inactive)
REMARK    1  A    between atoms: C3_3  and  O1_5
REMARK    2  A    between atoms: O1_5  and  C5_6
REMARK    3  A    between atoms: C5_6  and  O3_8
REMARK    4  A    between atoms: O3_8  and  C6_9
REMARK    5  A    between atoms: C13_16  and  C14_17
REMARK    6  A    between atoms: C15_18  and  C16_19
REMARK    7  A    between atoms: C16_19  and  C17_20
REMARK    8  A    between atoms: C17_20  and  C20_23
REMARK    9  A    between atoms: C26_31  and  O6_33
ROOT
HETATM    1  C6  UNL     1      12.538  25.599   5.117  1.00  0.00     0.151 C
HETATM    2  C7  UNL     1      12.133  26.394   3.902  1.00  0.00     0.040 C
HETATM    3  C8  UNL     1      10.811  26.009   3.305  1.00  0.00     0.005 C
HETATM    4  C9  UNL     1      10.763  24.510   3.123  1.00  0.00    -0.037 C
HETATM    5  C10 UNL     1       9.677  23.973   2.200  1.00  0.00     0.015 C
HETATM    6  C11 UNL     1      12.038  23.834   2.767  1.00  0.00     0.015 C
HETATM    7  C12 UNL     1      10.328  24.543   4.585  1.00  0.00     0.021 C
HETATM    8  C13 UNL     1      11.453  24.619   5.548  1.00  0.00     0.027 C
HETATM    9  C21 UNL     1      10.958  25.140   6.855  1.00  0.00    -0.004 C
HETATM   10  C22 UNL     1      10.200  26.198   6.832  1.00  0.00    -0.044 C
HETATM   11  C23 UNL     1       9.854  26.845   5.545  1.00  0.00     0.026 C
HETATM   12  C24 UNL     1       8.556  27.536   6.000  1.00  0.00     0.013 C
HETATM   13  C25 UNL     1       9.061  28.169   7.306  1.00  0.00     0.043 C
HETATM   14  C26 UNL     1       9.573  26.925   7.991  1.00  0.00     0.078 C
HETATM   15  C27 UNL     1       8.398  26.144   8.489  1.00  0.00     0.051 C
HETATM   16  C28 UNL     1       9.721  25.941   4.391  1.00  0.00    -0.026 C
HETATM   17  C29 UNL     1       8.319  25.966   3.852  1.00  0.00     0.016 C
ENDROOT
BRANCH   8  18
HETATM   18  C14 UNL     1      12.015  23.272   5.888  1.00  0.00    -0.014 C
HETATM   19  C15 UNL     1      13.278  23.037   5.564  1.00  0.00    -0.025 C
BRANCH  19  20
HETATM   20  C16 UNL     1      13.995  21.763   5.823  1.00  0.00     0.072 C
BRANCH  20  21
HETATM   21  C17 UNL     1      15.429  21.900   5.494  1.00  0.00     0.018 C
HETATM   22  C18 UNL     1      16.363  21.307   6.238  1.00  0.00    -0.017 C
HETATM   23  C19 UNL     1      15.950  20.501   7.407  1.00  0.00     0.036 C
BRANCH  21  24
HETATM   24  C20 UNL     1      15.870  22.683   4.360  1.00  0.00     0.205 C
HETATM   25  O4  UNL     1      15.554  22.370   3.172  1.00  0.00    -0.644 OA
HETATM   26  O5  UNL     1      16.657  23.803   4.545  1.00  0.00    -0.644 OA
ENDBRANCH  21  24
ENDBRANCH  20  21
ENDBRANCH  19  20
ENDBRANCH   8  18
BRANCH   1  27
HETATM   27  O3  UNL     1      12.922  26.457   6.194  1.00  0.00    -0.291 OA
BRANCH  27  28
HETATM   28  C5  UNL     1      13.784  26.105   7.191  1.00  0.00     0.411 C
HETATM   29  O2  UNL     1      13.584  26.661   8.322  1.00  0.00    -0.229 OA
BRANCH  28  30
HETATM   30  O1  UNL     1      14.826  25.205   7.037  1.00  0.00    -0.261 OA
BRANCH  30  31
HETATM   31  C3  UNL     1      15.306  24.411   8.060  1.00  0.00     0.051 C
HETATM   32  C2  UNL     1      14.438  23.697   8.759  1.00  0.00     0.001 C
HETATM   33  C1  UNL     1      14.853  22.812   9.878  1.00  0.00     0.038 C
HETATM   34  C4  UNL     1      16.735  24.317   8.416  1.00  0.00     0.076 C
ENDBRANCH  30  31
ENDBRANCH  28  30
ENDBRANCH  27  28
ENDBRANCH   1  27
BRANCH  14  35
HETATM   35  O6  UNL     1      10.501  27.237   8.964  1.00  0.00    -0.386 OA
ATOM     36  H6  UNL     1      10.088  27.434   9.796  1.00  0.00     0.211 HD
ENDBRANCH  14  35
TORSDOF 9
ENDMDL