MODEL 4
REMARK VINA RESULT: -8.075672718      1.903      2.684
REMARK  9 active torsions:
REMARK  status: ('A' for Active; 'I' for Inactive)
REMARK    1  A    between atoms: C2_2  and  C3_3
REMARK    2  A    between atoms: C18_19  and  O2_20
REMARK    3  A    between atoms: C19_22  and  O3_23
REMARK    4  A    between atoms: C19_22  and  C20_25
REMARK    5  A    between atoms: C20_25  and  C21_26
REMARK    6  A    between atoms: C21_26  and  C22_27
REMARK    7  A    between atoms: C23_28  and  C25_30
REMARK    8  A    between atoms: C28_33  and  O4_34
REMARK    9  A    between atoms: O4_34  and  C29_35
ROOT
HETATM    1  C3  UNL     1       6.537  29.025   6.936  1.00  0.00     0.025 C
HETATM    2  C4  UNL     1       7.094  30.414   7.299  1.00  0.00     0.027 C
HETATM    3  C5  UNL     1       6.111  28.990   5.550  1.00  0.00     0.054 C
HETATM    4  C6  UNL     1       6.725  28.040   4.627  1.00  0.00    -0.069 C
HETATM    5  C7  UNL     1       6.204  28.252   3.404  1.00  0.00     0.054 C
HETATM    6  C8  UNL     1       6.626  27.456   2.282  1.00  0.00     0.158 C
HETATM    7  O1  UNL     1       5.926  27.453   1.246  1.00  0.00    -0.292 OA
HETATM    8  C9  UNL     1       7.869  26.633   2.304  1.00  0.00     0.028 C
HETATM    9  C10 UNL     1       8.883  27.475   1.655  1.00  0.00     0.024 C
HETATM   10  C11 UNL     1       7.538  25.493   1.320  1.00  0.00     0.024 C
HETATM   11  C12 UNL     1       8.016  26.135   3.656  1.00  0.00     0.008 C
HETATM   12  C13 UNL     1       6.856  25.078   3.653  1.00  0.00     0.020 C
HETATM   13  C14 UNL     1       7.701  27.014   4.817  1.00  0.00     0.041 C
HETATM   14  C15 UNL     1       9.011  27.486   5.456  1.00  0.00     0.018 C
HETATM   15  C16 UNL     1       9.350  28.815   4.795  1.00  0.00     0.023 C
HETATM   16  C17 UNL     1       8.778  27.758   6.891  1.00  0.00     0.019 C
HETATM   17  C18 UNL     1       7.465  28.002   7.468  1.00  0.00     0.052 C
HETATM   18  C19 UNL     1       9.971  26.377   5.136  1.00  0.00     0.097 C
HETATM   19  C28 UNL     1       9.220  25.470   4.166  1.00  0.00     0.177 C
ENDROOT
BRANCH  18  20
HETATM   20  O3  UNL     1      10.188  25.662   6.356  1.00  0.00    -0.386 OA
ATOM     21  H3  UNL     1       9.341  25.587   6.779  1.00  0.00     0.210 HD
ENDBRANCH  18  20
BRANCH  18  22
HETATM   22  C20 UNL     1      11.339  26.692   4.750  1.00  0.00     0.045 C
BRANCH  22  23
HETATM   23  C21 UNL     1      12.409  26.456   5.754  1.00  0.00     0.030 C
BRANCH  23  24
HETATM   24  C22 UNL     1      13.522  25.586   5.414  1.00  0.00    -0.024 C
HETATM   25  C23 UNL     1      13.932  24.459   5.847  1.00  0.00    -0.084 C
HETATM   26  C24 UNL     1      15.211  23.899   5.141  1.00  0.00     0.043 C
BRANCH  25  27
HETATM   27  C25 UNL     1      13.495  23.591   6.904  1.00  0.00     0.005 C
HETATM   28  C26 UNL     1      13.574  22.101   6.475  1.00  0.00     0.014 C
HETATM   29  C27 UNL     1      14.121  23.724   8.241  1.00  0.00     0.014 C
ENDBRANCH  25  27
ENDBRANCH  23  24
ENDBRANCH  22  23
ENDBRANCH  18  22
BRANCH  19  30
HETATM   30  O4  UNL     1       9.909  24.564   3.453  1.00  0.00    -0.312 OA
BRANCH  30  31
HETATM   31  C29 UNL     1      10.921  23.740   3.645  1.00  0.00     0.255 C
HETATM   32  C30 UNL     1      12.036  23.593   2.720  1.00  0.00     0.126 C
HETATM   33  O5  UNL     1      10.858  23.088   4.686  1.00  0.00    -0.266 OA
ENDBRANCH  30  31
ENDBRANCH  19  30
BRANCH  17  34
HETATM   34  O2  UNL     1       6.762  26.845   7.916  1.00  0.00    -0.364 OA
ATOM     35  H2  UNL     1       6.278  27.021   8.714  1.00  0.00     0.217 HD
ENDBRANCH  17  34
BRANCH   1  36
HETATM   36  C2  UNL     1       5.319  28.894   7.797  1.00  0.00    -0.021 C
HETATM   37  C1  UNL     1       4.105  29.031   7.272  1.00  0.00     0.008 C
ENDBRANCH   1  36
TORSDOF 9
ENDMDL