MODEL 1
REMARK VINA RESULT: -7.965455629      0.000      0.000
REMARK  10 active torsions:
REMARK  status: ('A' for Active; 'I' for Inactive)
REMARK    1  A    between atoms: C2_2  and  C3_3
REMARK    2  A    between atoms: C2_2  and  C9_11
REMARK    3  A    between atoms: C3_3  and  C4_4
REMARK    4  A    between atoms: C4_4  and  C5_5
REMARK    5  A    between atoms: C5_5  and  C6_6
REMARK    6  A    between atoms: C6_6  and  O1_9
REMARK    7  A    between atoms: C20_25  and  O3_26
REMARK    8  A    between atoms: O3_26  and  C21_27
REMARK    9  A    between atoms: C23_30  and  C24_31
REMARK   10  A    between atoms: C24_31  and  O5_32
ROOT
HETATM    1  C9  UNL     1      13.294  24.055   5.015  1.00  0.00     0.022 C
HETATM    2  C10 UNL     1      12.660  25.110   5.967  1.00  0.00     0.010 C
HETATM    3  C11 UNL     1      13.929  25.365   6.757  1.00  0.00     0.011 C
HETATM    4  C12 UNL     1      14.464  23.946   7.110  1.00  0.00    -0.032 C
HETATM    5  C13 UNL     1      13.735  23.726   8.424  1.00  0.00     0.016 C
HETATM    6  C14 UNL     1      15.915  24.019   7.250  1.00  0.00     0.002 C
HETATM    7  C15 UNL     1      16.454  23.646   8.643  1.00  0.00     0.039 C
HETATM    8  C16 UNL     1      16.851  22.247   8.443  1.00  0.00     0.144 C
HETATM    9  O2  UNL     1      17.677  21.651   9.347  1.00  0.00    -0.355 OA
HETATM   10  C17 UNL     1      17.564  20.266   9.088  1.00  0.00     0.128 C
HETATM   11  C18 UNL     1      16.279  19.734   9.711  1.00  0.00     0.070 C
HETATM   12  C19 UNL     1      18.706  19.540   9.764  1.00  0.00     0.070 C
HETATM   13  N1  UNL     1      17.526  19.966   7.703  1.00  0.00    -0.342 N
ATOM     14  H1  UNL     1      17.499  18.977   7.454  1.00  0.00     0.164 HD
HETATM   15  C20 UNL     1      17.522  20.817   6.709  1.00  0.00     0.139 C
HETATM   16  C23 UNL     1      17.563  22.214   7.093  1.00  0.00     0.076 C
HETATM   17  C25 UNL     1      16.813  23.238   6.347  1.00  0.00     0.012 C
HETATM   18  C26 UNL     1      16.089  22.815   5.103  1.00  0.00     0.007 C
HETATM   19  C27 UNL     1      14.840  22.124   5.436  1.00  0.00     0.011 C
HETATM   20  C28 UNL     1      13.836  23.118   6.023  1.00  0.00    -0.029 C
HETATM   21  C29 UNL     1      12.702  22.251   6.515  1.00  0.00     0.016 C
ENDROOT
BRANCH   1  22
HETATM   22  C2  UNL     1      12.434  23.721   3.938  1.00  0.00    -0.084 C
HETATM   23  C1  UNL     1      12.742  23.421   2.710  1.00  0.00     0.014 C
BRANCH  22  24
HETATM   24  C3  UNL     1      10.939  23.669   4.251  1.00  0.00     0.034 C
BRANCH  24  25
HETATM   25  C4  UNL     1      10.115  24.135   3.081  1.00  0.00     0.007 C
BRANCH  25  26
HETATM   26  C5  UNL     1       9.162  25.232   3.358  1.00  0.00     0.037 C
BRANCH  26  27
HETATM   27  C6  UNL     1       9.663  26.618   3.397  1.00  0.00     0.051 C
HETATM   28  C7  UNL     1       8.763  27.565   2.579  1.00  0.00     0.045 C
HETATM   29  C8  UNL     1       9.846  27.204   4.749  1.00  0.00     0.045 C
BRANCH  27  30
HETATM   30  O1  UNL     1      10.906  26.697   2.722  1.00  0.00    -0.391 OA
ATOM     31  H1  UNL     1      11.571  26.234   3.218  1.00  0.00     0.210 HD
ENDBRANCH  27  30
ENDBRANCH  26  27
ENDBRANCH  25  26
ENDBRANCH  24  25
ENDBRANCH  22  24
ENDBRANCH   1  22
BRANCH  16  32
HETATM   32  C24 UNL     1      19.049  22.551   7.229  1.00  0.00     0.185 C
BRANCH  32  33
HETATM   33  O5  UNL     1      19.898  21.545   6.887  1.00  0.00    -0.400 OA
ATOM     34  H5  UNL     1      20.109  21.497   5.962  1.00  0.00     0.209 HD
ENDBRANCH  32  33
ENDBRANCH  16  32
BRANCH  15  35
HETATM   35  O3  UNL     1      17.481  20.237   5.476  1.00  0.00    -0.265 OA
BRANCH  35  36
HETATM   36  C21 UNL     1      18.389  19.338   4.983  1.00  0.00     0.261 C
HETATM   37  C22 UNL     1      18.116  17.890   4.800  1.00  0.00     0.126 C
HETATM   38  O4  UNL     1      19.531  19.755   4.662  1.00  0.00    -0.265 OA
ENDBRANCH  35  36
ENDBRANCH  15  35
TORSDOF 10
ENDMDL