MODEL 1
REMARK VINA RESULT: -8.079340593      0.000      0.000
REMARK  12 active torsions:
REMARK  status: ('A' for Active; 'I' for Inactive)
REMARK    1  A    between atoms: O1_2  and  C2_3
REMARK    2  A    between atoms: C5_8  and  C6_9
REMARK    3  A    between atoms: C6_9  and  N2_10
REMARK    4  A    between atoms: N2_10  and  C7_11
REMARK    5  A    between atoms: C7_11  and  C8_12
REMARK    6  A    between atoms: C8_12  and  C9_13
REMARK    7  A    between atoms: N3_16  and  C12_17
REMARK    8  A    between atoms: C12_17  and  C13_18
REMARK    9  A    between atoms: C13_18  and  C14_19
REMARK   10  A    between atoms: C14_19  and  C15_20
REMARK   11  A    between atoms: C15_20  and  N4_21
REMARK       I    between atoms: N4_21  and  C16_23
REMARK   12  A    between atoms: C23_36  and  O3_37
ROOT
HETATM    1  N2  UNL     1      45.435  20.666  39.721  1.00  0.00    -0.458 NA
ENDROOT
BRANCH   1   2
HETATM    2  C6  UNL     1      45.796  19.645  40.146  1.00  0.00     0.206 C
BRANCH   2   3
HETATM    3  C5  UNL     1      46.226  18.419  39.440  1.00  0.00     0.089 A
HETATM    4  N1  UNL     1      46.640  18.475  38.141  1.00  0.00    -0.352 N
HETATM    5  C4  UNL     1      47.035  17.401  37.448  1.00  0.00     0.050 A
ATOM      6  H1  UNL     1      46.650  19.383  37.676  1.00  0.00     0.166 HD
HETATM    7  C3  UNL     1      47.449  17.485  36.125  1.00  0.00     0.070 A
HETATM    8  C21 UNL     1      47.011  16.195  38.110  1.00  0.00     0.045 A
HETATM    9  C2  UNL     1      47.853  16.370  35.419  1.00  0.00     0.103 A
HETATM   10  C23 UNL     1      47.829  15.157  36.087  1.00  0.00     0.102 A
HETATM   11  C22 UNL     1      47.417  15.068  37.403  1.00  0.00     0.057 A
HETATM   12  C20 UNL     1      46.613  16.047  39.402  1.00  0.00     0.210 A
HETATM   13  C19 UNL     1      46.207  17.217  40.082  1.00  0.00     0.126 A
HETATM   14  O2  UNL     1      46.586  14.965  40.009  1.00  0.00    -0.285 OA
HETATM   15  N7  UNL     1      45.782  17.065  41.413  1.00  0.00    -0.096 NA
BRANCH   9  16
HETATM   16  O1  UNL     1      48.262  16.473  34.100  1.00  0.00    -0.353 OA
HETATM   17  C1  UNL     1      48.924  17.651  33.680  1.00  0.00     0.210 C
ENDBRANCH   9  16
BRANCH  10  18
HETATM   18  O3  UNL     1      48.228  14.023  35.410  1.00  0.00    -0.353 OA
HETATM   19  C24 UNL     1      47.437  12.873  35.224  1.00  0.00     0.210 C
ENDBRANCH  10  18
ENDBRANCH   2   3
ENDBRANCH   1   2
BRANCH   1  20
HETATM   20  C7  UNL     1      45.021  21.836  39.236  1.00  0.00     0.217 C
BRANCH  20  21
HETATM   21  C8  UNL     1      44.281  21.626  37.914  1.00  0.00     0.038 C
BRANCH  21  22
HETATM   22  C9  UNL     1      44.341  22.860  37.021  1.00  0.00    -0.009 C
HETATM   23  C10 UNL     1      43.896  22.567  35.646  1.00  0.00     0.035 C
HETATM   24  C11 UNL     1      44.533  23.398  34.592  1.00  0.00     0.272 C
HETATM   25  N3  UNL     1      45.974  23.284  34.742  1.00  0.00     0.088 N
HETATM   26  C17 UNL     1      46.414  23.904  35.966  1.00  0.00     0.272 C
HETATM   27  C18 UNL     1      45.689  23.434  37.168  1.00  0.00     0.035 C
BRANCH  25  28
HETATM   28  C12 UNL     1      46.615  23.782  33.554  1.00  0.00     0.272 C
BRANCH  28  29
HETATM   29  C13 UNL     1      45.742  24.646  32.706  1.00  0.00     0.032 C
BRANCH  29  30
HETATM   30  C14 UNL     1      46.002  26.096  33.013  1.00  0.00     0.021 C
BRANCH  30  31
HETATM   31  C15 UNL     1      44.709  26.837  33.191  1.00  0.00     0.122 C
BRANCH  31  32
HETATM   32  N4  UNL     1      44.518  27.714  32.042  1.00  0.00    -0.365 N
HETATM   33  C16 UNL     1      43.557  27.367  31.025  1.00  0.00     0.181 C
HETATM   34  N5  UNL     1      42.312  27.487  31.305  1.00  0.00    -0.374 N
HETATM   35  N6  UNL     1      44.056  26.914  29.784  1.00  0.00    -0.064 NA
ATOM     36  H52 UNL     1      41.952  27.815  32.201  1.00  0.00     0.158 HD
ATOM     37  H51 UNL     1      41.632  27.242  30.585  1.00  0.00     0.158 HD
ATOM     38  H4  UNL     1      45.062  28.573  31.958  1.00  0.00     0.162 HD
ENDBRANCH  31  32
ENDBRANCH  30  31
ENDBRANCH  29  30
ENDBRANCH  28  29
ENDBRANCH  25  28
ENDBRANCH  21  22
ENDBRANCH  20  21
ENDBRANCH   1  20
TORSDOF 12
ENDMDL