MODEL 3
REMARK VINA RESULT: -5.936509997      1.944      2.749
REMARK  15 active torsions:
REMARK  status: ('A' for Active; 'I' for Inactive)
REMARK    1  A    between atoms: C2_2  and  C3_3
REMARK    2  A    between atoms: C3_3  and  C5_5
REMARK    3  A    between atoms: C5_5  and  C6_6
REMARK    4  A    between atoms: C6_6  and  C7_7
REMARK    5  A    between atoms: C7_7  and  O1_8
REMARK    6  A    between atoms: C7_7  and  C8_10
REMARK    7  A    between atoms: C10_13  and  C11_14
REMARK    8  A    between atoms: C11_14  and  C13_16
REMARK    9  A    between atoms: C13_16  and  C14_17
REMARK   10  A    between atoms: C15_18  and  N1_19
REMARK   11  A    between atoms: C16_23  and  O3_24
REMARK   12  A    between atoms: C17_26  and  O4_27
REMARK   13  A    between atoms: C19_31  and  O6_32
REMARK   14  A    between atoms: C22_36  and  C23_37
REMARK   15  A    between atoms: C23_37  and  C24_38
ROOT
HETATM    1  C8  UNL     1      47.248  17.556  37.045  1.00  0.00     0.128 C
HETATM    2  C9  UNL     1      47.152  17.601  35.519  1.00  0.00     0.166 C
HETATM    3  O2  UNL     1      46.426  18.187  34.772  1.00  0.00    -0.294 OA
HETATM    4  C10 UNL     1      48.206  16.712  35.008  1.00  0.00     0.196 C
HETATM    5  O5  UNL     1      48.947  16.336  36.060  1.00  0.00    -0.363 OA
HETATM    6  C18 UNL     1      48.103  16.422  37.231  1.00  0.00     0.104 C
HETATM    7  C19 UNL     1      47.586  15.054  37.405  1.00  0.00     0.154 C
HETATM    8  C20 UNL     1      47.933  14.573  38.797  1.00  0.00     0.035 C
HETATM    9  C21 UNL     1      48.645  15.748  39.479  1.00  0.00     0.010 C
HETATM   10  C22 UNL     1      49.175  16.488  38.308  1.00  0.00     0.024 C
ENDROOT
BRANCH   4  11
HETATM   11  C11 UNL     1      49.029  17.461  33.960  1.00  0.00     0.018 C
HETATM   12  C12 UNL     1      48.775  17.043  32.581  1.00  0.00     0.013 C
BRANCH  11  13
HETATM   13  C13 UNL     1      50.413  17.755  34.356  1.00  0.00     0.016 C
BRANCH  13  14
HETATM   14  C14 UNL     1      51.415  16.701  34.049  1.00  0.00     0.050 C
HETATM   15  C15 UNL     1      52.636  17.398  33.357  1.00  0.00     0.221 C
HETATM   16  C16 UNL     1      53.245  17.545  34.703  1.00  0.00     0.178 C
HETATM   17  C17 UNL     1      52.411  16.305  35.105  1.00  0.00     0.155 C
BRANCH  15  18
HETATM   18  N1  UNL     1      52.268  18.648  32.728  1.00  0.00    -0.072 N
ATOM     19  H13 UNL     1      51.337  18.946  33.019  1.00  0.00     0.274 HD
ATOM     20  H12 UNL     1      52.812  19.424  33.105  1.00  0.00     0.274 HD
ATOM     21  H11 UNL     1      52.341  18.604  31.712  1.00  0.00     0.274 HD
ENDBRANCH  15  18
BRANCH  16  22
HETATM   22  O3  UNL     1      54.609  17.267  34.787  1.00  0.00    -0.391 OA
ATOM     23  H3  UNL     1      55.186  17.894  34.366  1.00  0.00     0.210 HD
ENDBRANCH  16  22
BRANCH  17  24
HETATM   24  O4  UNL     1      52.111  16.328  36.427  1.00  0.00    -0.392 OA
ATOM     25  H4  UNL     1      52.255  15.578  36.993  1.00  0.00     0.210 HD
ENDBRANCH  17  24
ENDBRANCH  13  14
ENDBRANCH  11  13
ENDBRANCH   4  11
BRANCH   1  26
HETATM   26  C7  UNL     1      45.872  17.749  37.494  1.00  0.00     0.155 C
BRANCH  26  27
HETATM   27  C6  UNL     1      45.427  17.560  38.865  1.00  0.00     0.006 C
BRANCH  27  28
HETATM   28  C5  UNL     1      46.021  17.965  40.099  1.00  0.00     0.001 C
BRANCH  28  29
HETATM   29  C3  UNL     1      46.492  19.243  40.572  1.00  0.00    -0.084 C
HETATM   30  C4  UNL     1      46.957  19.306  42.023  1.00  0.00     0.043 C
BRANCH  29  31
HETATM   31  C2  UNL     1      45.761  20.518  40.330  1.00  0.00     0.029 C
HETATM   32  C1  UNL     1      45.900  21.423  41.583  1.00  0.00     0.010 C
ENDBRANCH  29  31
ENDBRANCH  28  29
ENDBRANCH  27  28
ENDBRANCH  26  27
BRANCH  26  33
HETATM   33  O1  UNL     1      45.533  19.055  37.123  1.00  0.00    -0.391 OA
ATOM     34  H1  UNL     1      46.332  19.487  36.848  1.00  0.00     0.210 HD
ENDBRANCH  26  33
ENDBRANCH   1  26
BRANCH   7  35
HETATM   35  O6  UNL     1      46.256  14.832  37.091  1.00  0.00    -0.392 OA
ATOM     36  H6  UNL     1      45.610  15.026  37.760  1.00  0.00     0.210 HD
ENDBRANCH   7  35
BRANCH  10  37
HETATM   37  C23 UNL     1      49.700  17.856  38.551  1.00  0.00     0.012 C
BRANCH  37  38
HETATM   38  C24 UNL     1      49.990  18.154  40.005  1.00  0.00    -0.014 A
HETATM   39  C25 UNL     1      50.334  19.517  40.486  1.00  0.00     0.005 A
HETATM   40  C26 UNL     1      51.376  18.411  40.476  1.00  0.00     0.005 A
ENDBRANCH  37  38
ENDBRANCH  10  37
TORSDOF 15
ENDMDL