MODEL 5
REMARK VINA RESULT: -7.119161163      4.400      7.468
REMARK  17 active torsions:
REMARK  status: ('A' for Active; 'I' for Inactive)
REMARK    1  A    between atoms: C2_2  and  C3_3
REMARK    2  A    between atoms: C3_3  and  C4_4
REMARK    3  A    between atoms: C4_4  and  C5_5
REMARK    4  A    between atoms: C6_6  and  C7_7
REMARK    5  A    between atoms: C7_7  and  C8_8
REMARK    6  A    between atoms: C9_9  and  C10_10
REMARK    7  A    between atoms: C10_10  and  C11_11
REMARK    8  A    between atoms: C11_11  and  C12_12
REMARK    9  A    between atoms: C13_13  and  C14_14
REMARK   10  A    between atoms: C15_15  and  C16_16
REMARK   11  A    between atoms: C16_16  and  C18_18
REMARK   12  A    between atoms: C20_20  and  O1_21
REMARK   13  A    between atoms: C21_23  and  O2_24
REMARK   14  A    between atoms: C23_29  and  C24_30
REMARK   15  A    between atoms: C24_30  and  O4_31
REMARK   16  A    between atoms: C25_33  and  O5_34
REMARK   17  A    between atoms: C26_36  and  O6_37
ROOT
HETATM    1  C18 UNL     1      47.892  20.404  40.018  1.00  0.00     0.027 C
HETATM    2  C19 UNL     1      47.104  21.628  39.627  1.00  0.00     0.042 C
HETATM    3  C20 UNL     1      45.881  21.862  40.478  1.00  0.00     0.150 C
HETATM    4  C21 UNL     1      44.789  20.907  40.409  1.00  0.00     0.180 C
HETATM    5  C22 UNL     1      44.916  19.706  39.566  1.00  0.00     0.217 C
HETATM    6  O3  UNL     1      44.995  19.948  38.212  1.00  0.00    -0.275 OA
HETATM    7  N1  UNL     1      45.834  19.093  37.633  1.00  0.00    -0.090 NA
HETATM    8  C23 UNL     1      46.202  18.074  38.597  1.00  0.00     0.169 C
HETATM    9  C25 UNL     1      46.007  18.738  39.883  1.00  0.00     0.136 C
HETATM   10  C26 UNL     1      47.173  19.301  40.621  1.00  0.00     0.161 C
ENDROOT
BRANCH   1  11
HETATM   11  C16 UNL     1      49.046  20.856  40.893  1.00  0.00     0.011 C
HETATM   12  C17 UNL     1      49.288  22.362  40.661  1.00  0.00     0.015 C
BRANCH  11  13
HETATM   13  C15 UNL     1      50.304  20.169  40.747  1.00  0.00    -0.022 C
HETATM   14  C14 UNL     1      50.883  19.491  41.714  1.00  0.00    -0.003 C
BRANCH  14  15
HETATM   15  C13 UNL     1      50.356  19.331  43.044  1.00  0.00     0.008 C
HETATM   16  C12 UNL     1      50.360  20.224  44.002  1.00  0.00     0.055 C
BRANCH  16  17
HETATM   17  C11 UNL     1      50.861  21.512  43.953  1.00  0.00    -0.128 C
BRANCH  17  18
HETATM   18  C10 UNL     1      51.318  22.684  43.908  1.00  0.00     0.055 C
BRANCH  18  19
HETATM   19  C9  UNL     1      50.738  23.827  44.661  1.00  0.00     0.004 C
HETATM   20  C8  UNL     1      51.362  24.946  44.859  1.00  0.00    -0.022 C
BRANCH  20  21
HETATM   21  C7  UNL     1      52.713  25.330  44.408  1.00  0.00     0.054 C
BRANCH  21  22
HETATM   22  C6  UNL     1      52.637  26.525  43.538  1.00  0.00    -0.027 C
HETATM   23  C5  UNL     1      52.371  26.551  42.279  1.00  0.00    -0.030 C
BRANCH  23  24
HETATM   24  C4  UNL     1      52.081  25.403  41.428  1.00  0.00     0.027 C
BRANCH  24  25
HETATM   25  C3  UNL     1      53.334  24.836  40.754  1.00  0.00     0.003 C
BRANCH  25  26
HETATM   26  C2  UNL     1      53.427  23.340  41.093  1.00  0.00    -0.004 C
HETATM   27  C1  UNL     1      52.922  22.582  39.874  1.00  0.00     0.005 C
ENDBRANCH  25  26
ENDBRANCH  24  25
ENDBRANCH  23  24
ENDBRANCH  21  22
ENDBRANCH  20  21
ENDBRANCH  18  19
ENDBRANCH  17  18
ENDBRANCH  16  17
ENDBRANCH  14  15
ENDBRANCH  11  13
ENDBRANCH   1  11
BRANCH  10  28
HETATM   28  O6  UNL     1      46.704  19.608  41.913  1.00  0.00    -0.392 OA
ATOM     29  H6  UNL     1      46.118  18.942  42.254  1.00  0.00     0.210 HD
ENDBRANCH  10  28
BRANCH   3  30
HETATM   30  O1  UNL     1      45.429  23.150  40.117  1.00  0.00    -0.393 OA
ATOM     31  H1  UNL     1      45.035  23.500  40.907  1.00  0.00     0.210 HD
ENDBRANCH   3  30
BRANCH   9  32
HETATM   32  O5  UNL     1      45.469  17.768  40.781  1.00  0.00    -0.382 OA
ATOM     33  H5  UNL     1      44.678  17.423  40.385  1.00  0.00     0.210 HD
ENDBRANCH   9  32
BRANCH   4  34
HETATM   34  O2  UNL     1      43.586  21.563  40.026  1.00  0.00    -0.390 OA
ATOM     35  H2  UNL     1      43.681  21.946  39.162  1.00  0.00     0.210 HD
ENDBRANCH   4  34
BRANCH   8  36
HETATM   36  C24 UNL     1      47.434  17.392  38.243  1.00  0.00     0.191 C
BRANCH  36  37
HETATM   37  O4  UNL     1      47.777  17.785  36.918  1.00  0.00    -0.399 OA
ATOM     38  H4  UNL     1      48.700  17.599  36.793  1.00  0.00     0.209 HD
ENDBRANCH  36  37
ENDBRANCH   8  36
TORSDOF 17
ENDMDL