MODEL 2
REMARK VINA RESULT: -6.416115992      6.097      8.386
REMARK  15 active torsions:
REMARK  status: ('A' for Active; 'I' for Inactive)
REMARK    1  A    between atoms: C3_3  and  C5_5
REMARK    2  A    between atoms: C6_6  and  N1_7
REMARK    3  A    between atoms: C8_9  and  C9_10
REMARK    4  A    between atoms: C12_13  and  O1_14
REMARK    5  A    between atoms: C13_16  and  O2_17
REMARK    6  A    between atoms: C14_19  and  O3_20
REMARK    7  A    between atoms: C15_22  and  N2_23
REMARK    8  A    between atoms: N4_29  and  C17_30
REMARK    9  A    between atoms: C17_30  and  C18_31
REMARK   10  A    between atoms: C18_31  and  C19_32
REMARK   11  A    between atoms: C19_32  and  C20_33
REMARK   12  A    between atoms: C20_33  and  N5_34
REMARK   13  A    between atoms: N5_34  and  C21_35
REMARK   14  A    between atoms: N5_34  and  C23_37
REMARK   15  A    between atoms: C23_37  and  C24_38
ROOT
HETATM    1  C1  UNL     1      45.493  18.925  39.254  1.00  0.00     0.012 C
HETATM    2  C2  UNL     1      45.610  20.088  39.571  1.00  0.00    -0.111 C
HETATM    3  C3  UNL     1      45.725  21.525  39.950  1.00  0.00     0.095 C
HETATM    4  C4  UNL     1      45.449  21.546  41.436  1.00  0.00     0.026 C
ENDROOT
BRANCH   3   5
HETATM    5  C5  UNL     1      47.056  22.017  39.553  1.00  0.00     0.264 C
HETATM    6  C6  UNL     1      47.240  23.001  38.480  1.00  0.00     0.170 C
HETATM    7  C16 UNL     1      47.212  24.083  39.518  1.00  0.00     0.302 C
HETATM    8  N4  UNL     1      47.539  23.046  40.493  1.00  0.00     0.098 N
BRANCH   6   9
HETATM    9  N1  UNL     1      46.343  23.121  37.392  1.00  0.00    -0.292 N
HETATM   10  C7  UNL     1      46.592  23.903  36.328  1.00  0.00     0.122 A
HETATM   11  C8  UNL     1      45.560  23.797  35.451  1.00  0.00     0.011 A
HETATM   12  C15 UNL     1      44.673  22.917  36.028  1.00  0.00     0.121 A
HETATM   13  N3  UNL     1      45.189  22.527  37.214  1.00  0.00    -0.283 N
ATOM     14  H3  UNL     1      44.752  21.875  37.864  1.00  0.00     0.189 HD
BRANCH  11  15
HETATM   15  C9  UNL     1      45.387  24.477  34.127  1.00  0.00     0.055 C
HETATM   16  C10 UNL     1      46.782  24.791  33.606  1.00  0.00     0.015 C
HETATM   17  C11 UNL     1      46.687  25.197  32.151  1.00  0.00     0.035 C
HETATM   18  C12 UNL     1      45.462  26.054  31.911  1.00  0.00     0.149 C
HETATM   19  C13 UNL     1      45.020  26.749  33.178  1.00  0.00     0.176 C
HETATM   20  C14 UNL     1      44.687  25.796  34.297  1.00  0.00     0.158 C
BRANCH  18  21
HETATM   21  O1  UNL     1      44.444  25.321  31.305  1.00  0.00    -0.393 OA
ATOM     22  H1  UNL     1      44.104  25.770  30.541  1.00  0.00     0.210 HD
ENDBRANCH  18  21
BRANCH  19  23
HETATM   23  O2  UNL     1      46.035  27.641  33.529  1.00  0.00    -0.390 OA
ATOM     24  H2  UNL     1      45.979  28.376  32.930  1.00  0.00     0.210 HD
ENDBRANCH  19  23
BRANCH  20  25
HETATM   25  O3  UNL     1      43.304  25.671  34.330  1.00  0.00    -0.392 OA
ATOM     26  H3  UNL     1      42.865  26.294  33.765  1.00  0.00     0.210 HD
ENDBRANCH  20  25
ENDBRANCH  11  15
BRANCH  12  27
HETATM   27  N2  UNL     1      43.543  22.541  35.500  1.00  0.00    -0.384 N
ATOM     28  H22 UNL     1      42.611  22.884  35.731  1.00  0.00     0.157 HD
ATOM     29  H21 UNL     1      43.444  21.834  34.772  1.00  0.00     0.157 HD
ENDBRANCH  12  27
ENDBRANCH   6   9
BRANCH   8  30
HETATM   30  C17 UNL     1      48.950  22.984  40.791  1.00  0.00     0.273 C
BRANCH  30  31
HETATM   31  C18 UNL     1      49.158  22.520  42.194  1.00  0.00     0.032 C
BRANCH  31  32
HETATM   32  C19 UNL     1      50.451  23.096  42.778  1.00  0.00     0.032 C
BRANCH  32  33
HETATM   33  C20 UNL     1      51.576  22.631  41.909  1.00  0.00     0.272 C
BRANCH  33  34
HETATM   34  N5  UNL     1      52.522  23.688  41.535  1.00  0.00     0.088 N
BRANCH  34  35
HETATM   35  C21 UNL     1      53.116  23.300  40.308  1.00  0.00     0.268 C
HETATM   36  C22 UNL     1      52.580  22.084  39.644  1.00  0.00     0.037 C
ENDBRANCH  34  35
BRANCH  34  37
HETATM   37  C23 UNL     1      51.933  24.970  41.650  1.00  0.00     0.272 C
BRANCH  37  38
HETATM   38  C24 UNL     1      52.798  26.168  41.660  1.00  0.00     0.026 C
HETATM   39  C25 UNL     1      52.442  26.934  42.963  1.00  0.00     0.007 C
ENDBRANCH  37  38
ENDBRANCH  34  37
ENDBRANCH  33  34
ENDBRANCH  32  33
ENDBRANCH  31  32
ENDBRANCH  30  31
ENDBRANCH   8  30
ENDBRANCH   3   5
TORSDOF 15
ENDMDL