MODEL 5
REMARK VINA RESULT: -5.660024976      3.540      6.195
REMARK  14 active torsions:
REMARK  status: ('A' for Active; 'I' for Inactive)
REMARK    1  A    between atoms: C2_2  and  C3_3
REMARK    2  A    between atoms: C4_4  and  C5_5
REMARK    3  A    between atoms: C5_5  and  C6_6
REMARK    4  A    between atoms: C7_7  and  O1_8
REMARK    5  A    between atoms: C8_10  and  O2_11
REMARK    6  A    between atoms: C9_13  and  O3_14
REMARK    7  A    between atoms: C13_22  and  C14_23
REMARK    8  A    between atoms: C15_26  and  S1_27
REMARK    9  A    between atoms: S1_27  and  C16_28
REMARK   10  A    between atoms: C16_28  and  C17_29
REMARK   11  A    between atoms: C17_29  and  C18_30
REMARK   12  A    between atoms: C18_30  and  C19_31
REMARK   13  A    between atoms: C19_31  and  C20_32
REMARK   14  A    between atoms: C20_32  and  C21_33
ROOT
HETATM    1  C6  UNL     1      46.818  17.930  37.930  1.00  0.00     0.054 C
HETATM    2  C7  UNL     1      48.079  17.559  38.561  1.00  0.00     0.156 C
HETATM    3  C8  UNL     1      48.252  16.357  39.336  1.00  0.00     0.176 C
HETATM    4  C9  UNL     1      47.147  15.642  39.976  1.00  0.00     0.153 C
HETATM    5  C10 UNL     1      46.041  16.353  40.613  1.00  0.00     0.077 C
HETATM    6  C11 UNL     1      45.743  17.754  40.239  1.00  0.00     0.020 C
HETATM    7  C12 UNL     1      46.527  18.703  41.016  1.00  0.00     0.251 C
HETATM    8  O4  UNL     1      47.273  18.194  41.882  1.00  0.00    -0.268 OA
HETATM    9  N1  UNL     1      46.588  20.111  40.955  1.00  0.00    -0.316 N
ATOM     10  H1  UNL     1      47.096  20.580  41.706  1.00  0.00     0.169 HD
HETATM   11  C13 UNL     1      46.020  20.940  39.966  1.00  0.00     0.141 C
HETATM   12  C15 UNL     1      45.278  20.572  38.933  1.00  0.00     0.138 C
HETATM   13  O6  UNL     1      44.907  19.280  38.616  1.00  0.00    -0.331 OA
HETATM   14  C23 UNL     1      45.610  18.035  38.782  1.00  0.00     0.171 C
ENDROOT
BRANCH  12  15
HETATM   15  S1  UNL     1      44.751  21.929  37.910  1.00  0.00    -0.103 SA
BRANCH  15  16
HETATM   16  C16 UNL     1      44.562  21.451  36.187  1.00  0.00     0.081 C
BRANCH  16  17
HETATM   17  C17 UNL     1      44.321  22.639  35.278  1.00  0.00     0.010 C
BRANCH  17  18
HETATM   18  C18 UNL     1      45.573  23.545  35.272  1.00  0.00     0.001 C
BRANCH  18  19
HETATM   19  C19 UNL     1      46.174  23.506  33.904  1.00  0.00     0.000 C
BRANCH  19  20
HETATM   20  C20 UNL     1      46.398  24.790  33.219  1.00  0.00    -0.000 C
BRANCH  20  21
HETATM   21  C21 UNL     1      46.119  26.044  33.955  1.00  0.00    -0.005 C
HETATM   22  C22 UNL     1      45.432  27.134  33.219  1.00  0.00     0.005 C
ENDBRANCH  20  21
ENDBRANCH  19  20
ENDBRANCH  18  19
ENDBRANCH  17  18
ENDBRANCH  16  17
ENDBRANCH  15  16
ENDBRANCH  12  15
BRANCH  11  23
HETATM   23  C14 UNL     1      46.295  22.359  40.121  1.00  0.00     0.284 C
HETATM   24  N2  UNL     1      47.533  22.899  39.721  1.00  0.00    -0.056 NA
HETATM   25  O5  UNL     1      45.422  23.092  40.610  1.00  0.00    -0.269 OA
ENDBRANCH  11  23
BRANCH   1  26
HETATM   26  C5  UNL     1      46.457  17.231  36.628  1.00  0.00     0.037 C
BRANCH  26  27
HETATM   27  C4  UNL     1      47.097  17.757  35.423  1.00  0.00    -0.030 C
HETATM   28  C3  UNL     1      48.042  17.135  34.737  1.00  0.00    -0.031 C
BRANCH  28  29
HETATM   29  C2  UNL     1      48.616  17.772  33.526  1.00  0.00     0.022 C
HETATM   30  C1  UNL     1      50.114  17.869  33.560  1.00  0.00     0.009 C
ENDBRANCH  28  29
ENDBRANCH  26  27
ENDBRANCH   1  26
BRANCH   2  31
HETATM   31  O1  UNL     1      49.089  17.609  37.556  1.00  0.00    -0.392 OA
ATOM     32  H1  UNL     1      49.848  17.147  37.893  1.00  0.00     0.210 HD
ENDBRANCH   2  31
BRANCH   3  33
HETATM   33  O2  UNL     1      48.883  15.379  38.510  1.00  0.00    -0.390 OA
ATOM     34  H2  UNL     1      48.212  14.940  38.002  1.00  0.00     0.210 HD
ENDBRANCH   3  33
BRANCH   4  35
HETATM   35  O3  UNL     1      46.648  14.594  39.144  1.00  0.00    -0.393 OA
ATOM     36  H3  UNL     1      47.223  14.429  38.406  1.00  0.00     0.210 HD
ENDBRANCH   4  35
TORSDOF 14
ENDMDL