MODEL 3
REMARK VINA RESULT: -6.448484678      1.564      2.345
REMARK  14 active torsions:
REMARK  status: ('A' for Active; 'I' for Inactive)
REMARK    1  A    between atoms: C3_3  and  C4_4
REMARK    2  A    between atoms: C4_4  and  N1_5
REMARK    3  A    between atoms: C8_9  and  O1_10
REMARK    4  A    between atoms: N4_17  and  C11_18
REMARK    5  A    between atoms: C11_18  and  C12_19
REMARK    6  A    between atoms: C12_19  and  C13_20
REMARK    7  A    between atoms: C13_20  and  N5_21
REMARK    8  A    between atoms: N5_21  and  C14_22
REMARK    9  A    between atoms: N5_21  and  C20_30
REMARK   10  A    between atoms: C14_22  and  C15_23
REMARK   11  A    between atoms: C15_23  and  N6_24
REMARK   12  A    between atoms: N6_24  and  C16_26
REMARK   13  A    between atoms: C20_30  and  C22_32
REMARK   14  A    between atoms: C22_32  and  O2_33
ROOT
HETATM    1  C1  UNL     1      52.421  17.453  35.713  1.00  0.00     0.050 C
HETATM    2  C2  UNL     1      50.924  17.435  35.704  1.00  0.00    -0.039 A
HETATM    3  C3  UNL     1      50.203  17.446  34.485  1.00  0.00     0.028 A
HETATM    4  C8  UNL     1      48.835  17.445  34.578  1.00  0.00     0.093 A
HETATM    5  C9  UNL     1      48.237  17.431  35.848  1.00  0.00     0.069 A
HETATM    6  C10 UNL     1      46.911  17.436  36.240  1.00  0.00     0.146 A
HETATM    7  N2  UNL     1      45.773  17.447  35.402  1.00  0.00    -0.080 NA
HETATM    8  N3  UNL     1      46.919  17.425  37.576  1.00  0.00    -0.284 N
ATOM      9  H3  UNL     1      46.073  17.427  38.147  1.00  0.00     0.188 HD
HETATM   10  N4  UNL     1      48.134  17.412  38.077  1.00  0.00    -0.289 N
HETATM   11  C23 UNL     1      48.967  17.417  37.023  1.00  0.00     0.073 A
HETATM   12  C24 UNL     1      50.330  17.421  36.936  1.00  0.00    -0.026 A
HETATM   13  C25 UNL     1      51.114  17.423  38.190  1.00  0.00     0.051 C
ENDROOT
BRANCH  10  14
HETATM   14  C11 UNL     1      48.374  17.333  39.496  1.00  0.00     0.154 C
BRANCH  14  15
HETATM   15  C12 UNL     1      47.700  18.469  40.210  1.00  0.00     0.066 C
BRANCH  15  16
HETATM   16  C13 UNL     1      48.060  19.837  39.887  1.00  0.00     0.065 C
BRANCH  16  17
HETATM   17  N5  UNL     1      47.239  20.938  40.017  1.00  0.00    -0.362 N
BRANCH  17  18
HETATM   18  C14 UNL     1      47.573  22.221  39.545  1.00  0.00     0.107 C
BRANCH  18  19
HETATM   19  C15 UNL     1      48.793  22.769  40.289  1.00  0.00     0.101 C
BRANCH  19  20
HETATM   20  N6  UNL     1      48.773  22.699  41.668  1.00  0.00    -0.390 N
ATOM     21  H6  UNL     1      47.929  23.031  42.134  1.00  0.00     0.159 HD
BRANCH  20  22
HETATM   22  C16 UNL     1      49.791  22.222  42.478  1.00  0.00     0.018 C
HETATM   23  C17 UNL     1      50.248  23.071  43.616  1.00  0.00     0.037 C
HETATM   24  C18 UNL     1      51.039  22.004  41.590  1.00  0.00     0.037 C
HETATM   25  C19 UNL     1      49.526  20.834  43.064  1.00  0.00     0.037 C
ENDBRANCH  20  22
ENDBRANCH  19  20
ENDBRANCH  18  19
ENDBRANCH  17  18
BRANCH  17  26
HETATM   26  C20 UNL     1      45.849  20.658  40.250  1.00  0.00     0.108 C
HETATM   27  C21 UNL     1      45.399  21.572  41.394  1.00  0.00     0.035 C
BRANCH  26  28
HETATM   28  C22 UNL     1      44.957  20.971  39.107  1.00  0.00     0.189 C
BRANCH  28  29
HETATM   29  O2  UNL     1      45.072  19.974  38.110  1.00  0.00    -0.399 OA
ATOM     30  H2  UNL     1      45.071  20.371  37.247  1.00  0.00     0.209 HD
ENDBRANCH  28  29
ENDBRANCH  26  28
ENDBRANCH  17  26
ENDBRANCH  16  17
ENDBRANCH  15  16
ENDBRANCH  14  15
ENDBRANCH  10  14
BRANCH   4  31
HETATM   31  O1  UNL     1      48.015  17.456  33.479  1.00  0.00    -0.359 OA
ATOM     32  H1  UNL     1      47.102  17.198  33.515  1.00  0.00     0.217 HD
ENDBRANCH   4  31
BRANCH   3  33
HETATM   33  C4  UNL     1      50.993  17.448  33.288  1.00  0.00     0.215 C
BRANCH  33  34
HETATM   34  N1  UNL     1      51.421  16.338  32.555  1.00  0.00    -0.058 N
HETATM   35  C5  UNL     1      51.220  15.032  33.067  1.00  0.00     0.277 C
HETATM   36  C6  UNL     1      50.555  16.337  31.278  1.00  0.00     0.277 C
HETATM   37  C7  UNL     1      52.734  16.535  31.986  1.00  0.00     0.277 C
ENDBRANCH  33  34
ENDBRANCH   3  33
TORSDOF 14
ENDMDL