MODEL 3
REMARK VINA RESULT: -8.340970538      5.493      8.889
REMARK  12 active torsions:
REMARK  status: ('A' for Active; 'I' for Inactive)
REMARK    1  A    between atoms: C2_2  and  C3_3
REMARK    2  A    between atoms: C3_3  and  C4_4
REMARK    3  A    between atoms: C4_4  and  C5_5
REMARK    4  A    between atoms: C5_5  and  C6_6
REMARK    5  A    between atoms: C6_6  and  C7_7
REMARK    6  A    between atoms: C7_7  and  N1_8
REMARK    7  A    between atoms: N1_8  and  C8_10
REMARK    8  A    between atoms: C11_18  and  N4_19
REMARK    9  A    between atoms: C13_25  and  C14_26
REMARK   10  A    between atoms: C14_26  and  C15_27
REMARK   11  A    between atoms: C19_31  and  C20_32
REMARK   12  A    between atoms: C20_32  and  N6_33
ROOT
HETATM    1  C8  UNL     1      46.203  23.434  37.476  1.00  0.00     0.681 A
HETATM    2  N2  UNL     1      45.159  22.780  37.964  1.00  0.00    -0.176 N
ATOM      3  H2  UNL     1      44.323  22.711  37.385  1.00  0.00     0.186 HD
HETATM    4  C9  UNL     1      45.135  22.191  39.203  1.00  0.00     0.132 A
HETATM    5  N3  UNL     1      44.113  21.610  39.556  1.00  0.00    -0.384 N
ATOM      6  H31 UNL     1      44.095  21.172  40.477  1.00  0.00     0.157 HD
ATOM      7  H32 UNL     1      43.266  21.529  38.994  1.00  0.00     0.157 HD
HETATM    8  C10 UNL     1      46.287  22.301  39.966  1.00  0.00     0.096 A
HETATM    9  C11 UNL     1      46.432  21.773  41.227  1.00  0.00     0.118 A
HETATM   10  N5  UNL     1      47.565  21.923  41.894  1.00  0.00    -0.328 N
ATOM     11  H5  UNL     1      47.632  21.516  42.826  1.00  0.00     0.169 HD
HETATM   12  C12 UNL     1      48.653  22.596  41.399  1.00  0.00     0.104 A
HETATM   13  C13 UNL     1      49.776  22.687  42.300  1.00  0.00     0.028 C
HETATM   14  N8  UNL     1      48.496  23.099  40.185  1.00  0.00    -0.328 N
ATOM     15  H8  UNL     1      49.277  23.610  39.773  1.00  0.00     0.169 HD
HETATM   16  C24 UNL     1      47.374  22.976  39.467  1.00  0.00     0.140 A
HETATM   17  N9  UNL     1      47.326  23.527  38.249  1.00  0.00    -0.176 N
ATOM     18  H9  UNL     1      48.141  24.024  37.891  1.00  0.00     0.186 HD
ENDROOT
BRANCH  13  19
HETATM   19  C14 UNL     1      51.139  22.927  41.826  1.00  0.00     0.088 C
BRANCH  19  20
HETATM   20  C15 UNL     1      51.726  24.267  42.152  1.00  0.00     0.013 A
HETATM   21  C16 UNL     1      52.362  25.088  41.251  1.00  0.00     0.025 A
HETATM   22  C17 UNL     1      52.887  26.303  41.646  1.00  0.00     0.004 A
HETATM   23  C18 UNL     1      52.778  26.706  42.951  1.00  0.00     0.027 A
HETATM   24  C19 UNL     1      52.131  25.877  43.868  1.00  0.00     0.027 A
HETATM   25  N7  UNL     1      51.651  24.726  43.427  1.00  0.00    -0.361 N
ATOM     26  H7  UNL     1      51.181  24.128  44.108  1.00  0.00     0.165 HD
BRANCH  24  27
HETATM   27  C20 UNL     1      52.008  26.307  45.300  1.00  0.00     0.176 C
BRANCH  27  28
HETATM   28  N6  UNL     1      53.232  26.440  45.989  1.00  0.00    -0.385 N
HETATM   29  C21 UNL     1      53.561  27.715  46.522  1.00  0.00     0.145 C
HETATM   30  C22 UNL     1      54.250  27.318  47.836  1.00  0.00     0.189 C
HETATM   31  O1  UNL     1      54.698  26.018  47.576  1.00  0.00    -0.371 OA
HETATM   32  C23 UNL     1      53.572  25.442  46.943  1.00  0.00     0.288 C
ENDBRANCH  27  28
ENDBRANCH  24  27
ENDBRANCH  19  20
ENDBRANCH  13  19
BRANCH   9  33
HETATM   33  N4  UNL     1      45.422  21.123  41.741  1.00  0.00    -0.385 N
ATOM     34  H42 UNL     1      45.325  20.115  41.621  1.00  0.00     0.157 HD
ATOM     35  H41 UNL     1      44.728  21.653  42.270  1.00  0.00     0.157 HD
ENDBRANCH   9  33
BRANCH   1  36
HETATM   36  N1  UNL     1      46.204  23.984  36.308  1.00  0.00    -0.226 N
ATOM     37  H1  UNL     1      46.694  24.872  36.208  1.00  0.00     0.177 HD
BRANCH  36  38
HETATM   38  C7  UNL     1      45.576  23.448  35.154  1.00  0.00     0.138 C
BRANCH  38  39
HETATM   39  C6  UNL     1      46.309  23.569  33.876  1.00  0.00     0.020 C
BRANCH  39  40
HETATM   40  C5  UNL     1      45.833  24.647  32.955  1.00  0.00     0.002 C
BRANCH  40  41
HETATM   41  C4  UNL     1      45.928  26.036  33.449  1.00  0.00     0.000 C
BRANCH  41  42
HETATM   42  C3  UNL     1      45.030  27.023  32.804  1.00  0.00    -0.000 C
BRANCH  42  43
HETATM   43  C2  UNL     1      44.668  26.830  31.403  1.00  0.00    -0.005 C
HETATM   44  C1  UNL     1      43.310  27.199  30.942  1.00  0.00     0.005 C
ENDBRANCH  42  43
ENDBRANCH  41  42
ENDBRANCH  40  41
ENDBRANCH  39  40
ENDBRANCH  38  39
ENDBRANCH  36  38
ENDBRANCH   1  36
TORSDOF 12
ENDMDL