MODEL 5
REMARK VINA RESULT: -7.236657006      1.916      2.263
REMARK  15 active torsions:
REMARK  status: ('A' for Active; 'I' for Inactive)
REMARK    1  A    between atoms: C2_2  and  C3_3
REMARK    2  A    between atoms: C3_3  and  C4_4
REMARK    3  A    between atoms: C4_4  and  C5_5
REMARK    4  A    between atoms: C4_4  and  N1_8
REMARK    5  A    between atoms: C5_5  and  O1_6
REMARK    6  A    between atoms: N1_8  and  C6_10
REMARK    7  A    between atoms: C6_10  and  C8_12
REMARK    8  A    between atoms: C8_12  and  N2_13
REMARK    9  A    between atoms: N2_13  and  C9_15
REMARK   10  A    between atoms: C10_18  and  N4_19
REMARK   11  A    between atoms: C13_22  and  C14_23
REMARK   12  A    between atoms: C14_23  and  C15_24
REMARK   13  A    between atoms: C15_24  and  N5_25
REMARK   14  A    between atoms: C18_33  and  N7_34
REMARK   15  A    between atoms: N7_34  and  C19_36
ROOT
HETATM    1  C9  UNL     1      45.781  22.438  39.074  1.00  0.00     0.707 A
HETATM    2  N3  UNL     1      45.637  21.134  38.783  1.00  0.00    -0.021 N
ATOM      3  H3  UNL     1      45.146  20.847  37.937  1.00  0.00     0.203 HD
HETATM    4  C10 UNL     1      46.146  20.211  39.619  1.00  0.00     0.709 A
HETATM    5  N6  UNL     1      46.786  20.588  40.723  1.00  0.00    -0.021 N
ATOM      6  H6  UNL     1      47.161  19.866  41.339  1.00  0.00     0.203 HD
HETATM    7  C18 UNL     1      46.964  21.902  41.070  1.00  0.00     0.707 A
HETATM    8  N8  UNL     1      46.447  22.793  40.220  1.00  0.00    -0.022 N
ATOM      9  H8  UNL     1      46.552  23.784  40.433  1.00  0.00     0.203 HD
ENDROOT
BRANCH   1  10
HETATM   10  N2  UNL     1      45.325  23.320  38.277  1.00  0.00    -0.223 N
ATOM     11  H2  UNL     1      45.770  24.237  38.280  1.00  0.00     0.177 HD
BRANCH  10  12
HETATM   12  C8  UNL     1      44.235  23.116  37.383  1.00  0.00     0.162 C
BRANCH  12  13
HETATM   13  C6  UNL     1      44.833  23.095  35.949  1.00  0.00     0.091 C
HETATM   14  C7  UNL     1      44.278  21.865  35.295  1.00  0.00     0.033 C
BRANCH  13  15
HETATM   15  N1  UNL     1      44.557  24.273  35.275  1.00  0.00    -0.410 N
ATOM     16  H1  UNL     1      43.634  24.682  35.417  1.00  0.00     0.154 HD
BRANCH  15  17
HETATM   17  C4  UNL     1      45.428  24.952  34.419  1.00  0.00     0.100 C
BRANCH  17  18
HETATM   18  C3  UNL     1      45.796  24.261  33.138  1.00  0.00     0.026 C
BRANCH  18  19
HETATM   19  C2  UNL     1      46.138  25.259  32.042  1.00  0.00    -0.002 C
HETATM   20  C1  UNL     1      45.509  24.910  30.716  1.00  0.00     0.005 C
ENDBRANCH  18  19
ENDBRANCH  17  18
BRANCH  17  21
HETATM   21  C5  UNL     1      44.722  26.293  34.075  1.00  0.00     0.188 C
BRANCH  21  22
HETATM   22  O1  UNL     1      43.348  26.089  34.032  1.00  0.00    -0.399 OA
ATOM     23  H1  UNL     1      42.914  26.916  33.864  1.00  0.00     0.209 HD
ENDBRANCH  21  22
ENDBRANCH  17  21
ENDBRANCH  15  17
ENDBRANCH  13  15
ENDBRANCH  12  13
ENDBRANCH  10  12
ENDBRANCH   1  10
BRANCH   4  24
HETATM   24  N4  UNL     1      45.954  18.842  39.259  1.00  0.00    -0.217 N
HETATM   25  C11 UNL     1      46.012  17.748  40.192  1.00  0.00     0.141 C
HETATM   26  C12 UNL     1      47.111  16.813  39.743  1.00  0.00     0.025 C
HETATM   27  C13 UNL     1      47.129  16.523  38.294  1.00  0.00    -0.010 C
HETATM   28  C16 UNL     1      45.979  17.098  37.521  1.00  0.00     0.025 C
HETATM   29  C17 UNL     1      45.669  18.519  37.872  1.00  0.00     0.141 C
BRANCH  27  30
HETATM   30  C14 UNL     1      47.147  15.036  38.021  1.00  0.00     0.032 C
BRANCH  30  31
HETATM   31  C15 UNL     1      47.499  14.209  39.217  1.00  0.00     0.230 C
BRANCH  31  32
HETATM   32  N5  UNL     1      46.769  12.952  39.086  1.00  0.00    -0.079 N
ATOM     33  H53 UNL     1      45.784  13.081  38.856  1.00  0.00     0.274 HD
ATOM     34  H52 UNL     1      47.025  12.423  38.253  1.00  0.00     0.274 HD
ATOM     35  H51 UNL     1      46.918  12.436  39.953  1.00  0.00     0.274 HD
ENDBRANCH  31  32
ENDBRANCH  30  31
ENDBRANCH  27  30
ENDBRANCH   4  24
BRANCH   7  36
HETATM   36  N7  UNL     1      47.579  22.207  42.116  1.00  0.00    -0.220 N
ATOM     37  H7  UNL     1      46.927  22.461  42.858  1.00  0.00     0.178 HD
BRANCH  36  38
HETATM   38  C19 UNL     1      48.886  22.298  42.556  1.00  0.00     0.099 C
HETATM   39  C20 UNL     1      49.574  21.062  43.055  1.00  0.00     0.026 C
HETATM   40  C21 UNL     1      50.693  21.558  43.995  1.00  0.00     0.002 C
HETATM   41  C22 UNL     1      51.458  22.673  43.302  1.00  0.00     0.000 C
HETATM   42  C23 UNL     1      51.230  22.703  41.817  1.00  0.00     0.002 C
HETATM   43  C24 UNL     1      49.765  22.948  41.472  1.00  0.00     0.026 C
ENDBRANCH  36  38
ENDBRANCH   7  36
TORSDOF 15
ENDMDL