MODEL 2
REMARK VINA RESULT: -7.843069711      0.772      1.101
REMARK  13 active torsions:
REMARK  status: ('A' for Active; 'I' for Inactive)
REMARK    1  A    between atoms: C5_6  and  C6_7
REMARK    2  A    between atoms: C6_7  and  N1_8
REMARK    3  A    between atoms: N1_8  and  C7_11
REMARK    4  A    between atoms: C7_11  and  C8_12
REMARK    5  A    between atoms: C8_12  and  N2_13
REMARK    6  A    between atoms: N2_13  and  C9_16
REMARK    7  A    between atoms: C9_16  and  C10_17
REMARK    8  A    between atoms: C10_17  and  C11_18
REMARK    9  A    between atoms: C11_18  and  N3_19
REMARK   10  A    between atoms: N3_19  and  C12_21
REMARK   11  A    between atoms: C15_24  and  N4_25
REMARK   12  A    between atoms: C16_30  and  C17_31
REMARK   13  A    between atoms: C17_31  and  N6_32
ROOT
HETATM    1  C12 UNL     1      45.391  21.871  40.462  1.00  0.00     0.101 A
HETATM    2  C13 UNL     1      46.158  22.712  39.678  1.00  0.00     0.064 A
HETATM    3  C14 UNL     1      45.833  23.009  38.370  1.00  0.00     0.023 A
HETATM    4  C15 UNL     1      46.555  23.833  37.548  1.00  0.00     0.110 A
HETATM    5  N5  UNL     1      46.160  24.075  36.259  1.00  0.00    -0.344 N
ATOM      6  H5  UNL     1      46.721  24.694  35.674  1.00  0.00     0.167 HD
HETATM    7  C16 UNL     1      45.056  23.518  35.749  1.00  0.00     0.029 A
HETATM    8  C22 UNL     1      44.335  22.693  36.572  1.00  0.00     0.040 A
HETATM    9  C23 UNL     1      44.693  22.420  37.873  1.00  0.00    -0.005 A
HETATM   10  C24 UNL     1      43.921  21.585  38.641  1.00  0.00     0.102 A
HETATM   11  N7  UNL     1      44.273  21.326  39.900  1.00  0.00    -0.352 N
ATOM     12  H7  UNL     1      43.690  20.703  40.459  1.00  0.00     0.166 HD
ENDROOT
BRANCH   1  13
HETATM   13  N3  UNL     1      45.664  21.575  41.684  1.00  0.00    -0.376 N
ATOM     14  H3  UNL     1      44.963  21.747  42.405  1.00  0.00     0.161 HD
BRANCH  13  15
HETATM   15  C11 UNL     1      46.933  21.005  42.063  1.00  0.00     0.123 C
BRANCH  15  16
HETATM   16  C10 UNL     1      47.102  19.603  41.531  1.00  0.00     0.047 C
BRANCH  16  17
HETATM   17  C9  UNL     1      48.111  19.571  40.424  1.00  0.00     0.234 C
BRANCH  17  18
HETATM   18  N2  UNL     1      47.467  19.336  39.140  1.00  0.00    -0.073 N
ATOM     19  H22 UNL     1      48.134  19.127  38.397  1.00  0.00     0.277 HD
ATOM     20  H21 UNL     1      47.073  20.186  38.735  1.00  0.00     0.277 HD
BRANCH  18  21
HETATM   21  C8  UNL     1      46.485  18.295  39.315  1.00  0.00     0.259 C
BRANCH  21  22
HETATM   22  C7  UNL     1      45.660  18.076  38.075  1.00  0.00     0.260 C
BRANCH  22  23
HETATM   23  N1  UNL     1      46.445  18.220  36.876  1.00  0.00    -0.069 N
ATOM     24  H12 UNL     1      47.218  18.873  37.002  1.00  0.00     0.277 HD
ATOM     25  H11 UNL     1      45.940  18.726  36.148  1.00  0.00     0.277 HD
BRANCH  23  26
HETATM   26  C6  UNL     1      46.905  16.909  36.414  1.00  0.00     0.279 C
BRANCH  26  27
HETATM   27  C5  UNL     1      48.193  17.187  35.678  1.00  0.00     0.014 A
HETATM   28  C2  UNL     1      49.462  17.198  36.185  1.00  0.00    -0.047 A
HETATM   29  C1  UNL     1      49.683  16.905  37.662  1.00  0.00     0.049 C
HETATM   30  C3  UNL     1      50.464  17.473  35.336  1.00  0.00     0.015 A
HETATM   31  C4  UNL     1      50.130  17.719  34.028  1.00  0.00     0.051 A
HETATM   32  S1  UNL     1      48.433  17.558  34.033  1.00  0.00    -0.104 SA
ENDBRANCH  26  27
ENDBRANCH  23  26
ENDBRANCH  22  23
ENDBRANCH  21  22
ENDBRANCH  18  21
ENDBRANCH  17  18
ENDBRANCH  16  17
ENDBRANCH  15  16
ENDBRANCH  13  15
ENDBRANCH   1  13
BRANCH   4  33
HETATM   33  N4  UNL     1      47.617  24.397  37.968  1.00  0.00    -0.385 N
ATOM     34  H42 UNL     1      48.430  24.415  37.351  1.00  0.00     0.157 HD
ATOM     35  H41 UNL     1      47.650  24.817  38.897  1.00  0.00     0.157 HD
ENDBRANCH   4  33
BRANCH   7  36
HETATM   36  C17 UNL     1      44.588  23.739  34.366  1.00  0.00     0.179 C
BRANCH  36  37
HETATM   37  N6  UNL     1      45.262  24.851  33.813  1.00  0.00    -0.384 N
HETATM   38  C18 UNL     1      46.266  24.644  32.855  1.00  0.00     0.084 C
HETATM   39  C19 UNL     1      45.782  25.102  31.495  1.00  0.00     0.212 C
HETATM   40  O1  UNL     1      44.776  26.040  31.542  1.00  0.00    -0.385 OA
HETATM   41  C20 UNL     1      44.852  26.883  32.631  1.00  0.00     0.187 C
HETATM   42  C21 UNL     1      44.682  26.130  33.942  1.00  0.00     0.148 C
ENDBRANCH  36  37
ENDBRANCH   7  36
TORSDOF 13
ENDMDL