MODEL 3
REMARK VINA RESULT: -7.068067726      1.408      1.889
REMARK  14 active torsions:
REMARK  status: ('A' for Active; 'I' for Inactive)
REMARK    1  A    between atoms: N1_1  and  C1_4
REMARK    2  A    between atoms: C3_8  and  C4_9
REMARK    3  A    between atoms: C11_18  and  C12_19
REMARK    4  A    between atoms: C12_19  and  C13_20
REMARK    5  A    between atoms: C13_20  and  C14_21
REMARK    6  A    between atoms: C14_21  and  C15_22
REMARK    7  A    between atoms: C15_22  and  O1_23
REMARK    8  A    between atoms: C16_25  and  C17_26
REMARK    9  A    between atoms: C17_26  and  N4_27
REMARK   10  A    between atoms: N4_27  and  C18_28
REMARK   11  A    between atoms: N4_27  and  C20_32
REMARK   12  A    between atoms: C18_28  and  C19_29
REMARK   13  A    between atoms: C19_29  and  O2_30
REMARK   14  A    between atoms: C20_32  and  C21_33
ROOT
HETATM    1  C4  UNL     1      44.900  23.625  35.492  1.00  0.00    -0.007 A
HETATM    2  C5  UNL     1      44.144  22.489  35.407  1.00  0.00     0.016 A
HETATM    3  C6  UNL     1      44.150  21.570  36.449  1.00  0.00     0.038 A
HETATM    4  C7  UNL     1      44.937  21.842  37.558  1.00  0.00     0.081 A
HETATM    5  C8  UNL     1      45.699  22.993  37.639  1.00  0.00     0.013 A
HETATM    6  C9  UNL     1      45.694  23.902  36.608  1.00  0.00     0.029 A
HETATM    7  C10 UNL     1      46.568  23.354  38.792  1.00  0.00     0.097 C
HETATM    8  N3  UNL     1      46.050  23.112  40.065  1.00  0.00    -0.391 N
ATOM      9  H3  UNL     1      45.875  23.909  40.677  1.00  0.00     0.159 HD
HETATM   10  C11 UNL     1      45.759  21.829  40.543  1.00  0.00     0.112 C
HETATM   11  C16 UNL     1      45.846  20.694  39.576  1.00  0.00     0.179 C
HETATM   12  O3  UNL     1      44.855  20.844  38.530  1.00  0.00    -0.341 OA
ENDROOT
BRANCH  11  13
HETATM   13  C17 UNL     1      45.449  19.417  40.275  1.00  0.00     0.306 C
BRANCH  13  14
HETATM   14  N4  UNL     1      46.256  18.293  39.842  1.00  0.00     0.093 N
BRANCH  14  15
HETATM   15  C18 UNL     1      45.660  17.519  38.804  1.00  0.00     0.298 C
BRANCH  15  16
HETATM   16  C19 UNL     1      46.379  17.560  37.482  1.00  0.00     0.194 C
BRANCH  16  17
HETATM   17  O2  UNL     1      45.702  18.509  36.677  1.00  0.00    -0.399 OA
ATOM     18  H2  UNL     1      45.605  18.118  35.817  1.00  0.00     0.209 HD
ENDBRANCH  16  17
ENDBRANCH  15  16
ENDBRANCH  14  15
BRANCH  14  19
HETATM   19  C20 UNL     1      47.620  18.653  39.542  1.00  0.00     0.277 C
BRANCH  19  20
HETATM   20  C21 UNL     1      48.626  18.178  40.532  1.00  0.00     0.014 C
HETATM   21  C22 UNL     1      48.870  16.708  40.523  1.00  0.00     0.006 C
HETATM   22  C23 UNL     1      49.782  16.470  39.365  1.00  0.00     0.000 C
HETATM   23  C24 UNL     1      50.407  17.790  39.034  1.00  0.00     0.000 C
HETATM   24  C25 UNL     1      49.974  18.751  40.094  1.00  0.00     0.006 C
ENDBRANCH  19  20
ENDBRANCH  14  19
ENDBRANCH  13  14
ENDBRANCH  11  13
BRANCH  10  25
HETATM   25  C12 UNL     1      46.652  21.532  41.721  1.00  0.00     0.028 C
BRANCH  25  26
HETATM   26  C13 UNL     1      48.113  21.743  41.399  1.00  0.00     0.004 C
BRANCH  26  27
HETATM   27  C14 UNL     1      48.874  22.289  42.589  1.00  0.00     0.026 C
BRANCH  27  28
HETATM   28  C15 UNL     1      49.991  21.312  42.897  1.00  0.00     0.164 C
BRANCH  28  29
HETATM   29  O1  UNL     1      49.491  20.159  43.493  1.00  0.00    -0.401 OA
ATOM     30  H1  UNL     1      50.197  19.582  43.760  1.00  0.00     0.209 HD
ENDBRANCH  28  29
ENDBRANCH  27  28
ENDBRANCH  26  27
ENDBRANCH  25  26
ENDBRANCH  10  25
BRANCH   1  31
HETATM   31  C3  UNL     1      44.920  24.620  34.413  1.00  0.00     0.058 A
HETATM   32  N2  UNL     1      44.131  25.732  34.516  1.00  0.00    -0.361 N
HETATM   33  C2  UNL     1      44.086  26.687  33.580  1.00  0.00     0.136 A
ATOM     34  H2  UNL     1      43.549  25.838  35.347  1.00  0.00     0.165 HD
HETATM   35  C1  UNL     1      44.855  26.573  32.452  1.00  0.00     0.114 A
HETATM   36  N5  UNL     1      45.633  25.494  32.334  1.00  0.00    -0.349 N
HETATM   37  C26 UNL     1      45.683  24.519  33.283  1.00  0.00     0.120 A
ATOM     38  H5  UNL     1      46.212  25.395  31.500  1.00  0.00     0.167 HD
BRANCH  35  39
HETATM   39  N1  UNL     1      44.852  27.468  31.513  1.00  0.00    -0.384 N
ATOM     40  H12 UNL     1      44.348  28.344  31.652  1.00  0.00     0.157 HD
ATOM     41  H11 UNL     1      45.338  27.333  30.626  1.00  0.00     0.157 HD
ENDBRANCH  35  39
ENDBRANCH   1  31
TORSDOF 14
ENDMDL