MODEL 1
REMARK VINA RESULT: -7.160334736      0.000      0.000
REMARK  7 active torsions:
REMARK  status: ('A' for Active; 'I' for Inactive)
REMARK    1  A    between atoms: C2_2  and  C3_3
REMARK    2  A    between atoms: C6_8  and  C7_9
REMARK    3  A    between atoms: C7_9  and  S1_10
REMARK    4  A    between atoms: S1_10  and  C8_11
REMARK    5  A    between atoms: C9_12  and  C10_13
REMARK    6  A    between atoms: C12_19  and  C13_20
REMARK    7  A    between atoms: C13_20  and  O4_22
ROOT
HETATM    1  C8  UNL     1       9.763 -11.366  36.942  1.00  0.00     0.022 C
HETATM    2  C9  UNL     1      11.078 -11.214  37.210  1.00  0.00     0.128 C
HETATM    3  N2  UNL     1      11.606 -12.509  37.518  1.00  0.00    -0.304 N
HETATM    4  C11 UNL     1      12.290 -13.645  37.992  1.00  0.00     0.233 C
HETATM    5  O3  UNL     1      13.396 -13.781  38.528  1.00  0.00    -0.272 OA
HETATM    6  C12 UNL     1      11.187 -14.576  37.590  1.00  0.00     0.131 C
HETATM    7  C15 UNL     1      10.782 -13.421  36.711  1.00  0.00     0.121 C
HETATM    8  C16 UNL     1       9.423 -12.794  36.955  1.00  0.00     0.010 C
HETATM    9  C17 UNL     1       8.732 -13.342  38.136  1.00  0.00     0.023 C
HETATM   10  C18 UNL     1       8.618 -13.138  35.693  1.00  0.00     0.023 C
ENDROOT
BRANCH   1  11
HETATM   11  S1  UNL     1       8.768  -9.936  36.602  1.00  0.00    -0.126 SA
BRANCH  11  12
HETATM   12  C7  UNL     1       7.259  -9.983  37.594  1.00  0.00     0.127 C
BRANCH  12  13
HETATM   13  C6  UNL     1       7.231  -9.022  38.720  1.00  0.00     0.016 A
HETATM   14  C4  UNL     1       8.031  -8.923  39.834  1.00  0.00     0.019 A
HETATM   15  N1  UNL     1       7.648  -8.096  40.751  1.00  0.00    -0.357 N
HETATM   16  C5  UNL     1       9.316  -9.700  39.942  1.00  0.00     0.069 C
HETATM   17  C3  UNL     1       6.552  -7.384  40.617  1.00  0.00     0.051 A
ATOM     18  H1  UNL     1       8.209  -7.994  41.596  1.00  0.00     0.166 HD
HETATM   19  S2  UNL     1       5.992  -7.904  39.069  1.00  0.00    -0.079 SA
BRANCH  17  20
HETATM   20  C2  UNL     1       5.885  -6.382  41.536  1.00  0.00     0.060 C
HETATM   21  C1  UNL     1       4.446  -6.770  41.630  1.00  0.00     0.012 C
ENDBRANCH  17  20
ENDBRANCH  12  13
ENDBRANCH  11  12
ENDBRANCH   1  11
BRANCH   2  22
HETATM   22  C10 UNL     1      11.870 -10.002  37.258  1.00  0.00     0.228 C
HETATM   23  O1  UNL     1      12.273  -9.650  38.443  1.00  0.00    -0.643 OA
HETATM   24  O2  UNL     1      12.224  -9.191  36.233  1.00  0.00    -0.643 OA
ENDBRANCH   2  22
BRANCH   6  25
HETATM   25  C13 UNL     1      11.631 -15.803  36.855  1.00  0.00     0.129 C
HETATM   26  C14 UNL     1      10.460 -16.691  36.566  1.00  0.00     0.040 C
BRANCH  25  27
HETATM   27  O4  UNL     1      12.571 -16.545  37.584  1.00  0.00    -0.395 OA
ATOM     28  H4  UNL     1      13.397 -16.628  37.123  1.00  0.00     0.210 HD
ENDBRANCH  25  27
ENDBRANCH   6  25
TORSDOF 7
ENDMDL