MODEL 5
REMARK VINA RESULT: -9.070671832      1.459      1.865
REMARK  6 active torsions:
REMARK  status: ('A' for Active; 'I' for Inactive)
REMARK    1  A    between atoms: C2_2  and  C3_3
REMARK    2  A    between atoms: C5_7  and  C6_8
REMARK    3  A    between atoms: C8_10  and  C9_11
REMARK    4  A    between atoms: C11_19  and  S1_20
REMARK    5  A    between atoms: S1_20  and  C12_21
REMARK    6  A    between atoms: C12_21  and  C13_22
ROOT
HETATM    1  C6  UNL     1       7.746  -9.452  38.292  1.00  0.00     0.015 A
HETATM    2  C7  UNL     1       7.974 -10.794  38.501  1.00  0.00     0.032 A
HETATM    3  C8  UNL     1       8.599 -11.615  37.580  1.00  0.00     0.027 A
HETATM    4  C11 UNL     1       9.026 -11.077  36.367  1.00  0.00     0.015 A
HETATM    5  C16 UNL     1       8.790  -9.741  36.172  1.00  0.00     0.027 A
HETATM    6  C17 UNL     1       8.160  -8.903  37.095  1.00  0.00    -0.047 A
HETATM    7  C18 UNL     1       7.956  -7.475  36.752  1.00  0.00     0.049 C
ENDROOT
BRANCH   1   8
HETATM    8  C5  UNL     1       7.147  -8.626  39.333  1.00  0.00     0.118 A
HETATM    9  N1  UNL     1       6.117  -7.805  39.066  1.00  0.00    -0.351 N
HETATM   10  C4  UNL     1       5.529  -7.039  40.042  1.00  0.00     0.102 A
ATOM     11  H1  UNL     1       5.763  -7.750  38.111  1.00  0.00     0.166 HD
HETATM   12  C3  UNL     1       5.964  -7.077  41.336  1.00  0.00     0.025 A
HETATM   13  C19 UNL     1       7.027  -7.927  41.598  1.00  0.00     0.254 A
HETATM   14  N6  UNL     1       7.543  -8.631  40.609  1.00  0.00    -0.308 N
HETATM   15  O2  UNL     1       7.422  -7.949  42.798  1.00  0.00    -0.268 OA
ATOM     16  H6  UNL     1       8.324  -9.243  40.842  1.00  0.00     0.170 HD
BRANCH  12  17
HETATM   17  C2  UNL     1       5.347  -6.266  42.419  1.00  0.00     0.041 C
HETATM   18  C1  UNL     1       3.848  -6.288  42.366  1.00  0.00     0.010 C
ENDBRANCH  12  17
ENDBRANCH   1   8
BRANCH   3  19
HETATM   19  C9  UNL     1       8.837 -13.039  37.866  1.00  0.00     0.132 A
HETATM   20  N2  UNL     1       8.087 -14.098  37.541  1.00  0.00    -0.336 N
HETATM   21  C10 UNL     1       8.682 -15.208  38.005  1.00  0.00     0.199 A
ATOM     22  H2  UNL     1       7.208 -14.068  37.026  1.00  0.00     0.168 HD
HETATM   23  N3  UNL     1       9.828 -14.820  38.632  1.00  0.00    -0.295 N
HETATM   24  N4  UNL     1       9.895 -13.513  38.532  1.00  0.00    -0.284 N
ATOM     25  H3  UNL     1      10.505 -15.429  39.091  1.00  0.00     0.187 HD
ATOM     26  H4  UNL     1      10.648 -12.938  38.909  1.00  0.00     0.188 HD
ENDBRANCH   3  19
BRANCH   4  27
HETATM   27  S1  UNL     1       9.876 -12.162  35.259  1.00  0.00    -0.123 SA
BRANCH  27  28
HETATM   28  C12 UNL     1      11.585 -12.440  35.524  1.00  0.00     0.132 C
BRANCH  28  29
HETATM   29  C13 UNL     1      12.340 -11.153  35.748  1.00  0.00     0.008 A
HETATM   30  N5  UNL     1      12.815 -10.283  35.007  1.00  0.00    -0.333 N
HETATM   31  C14 UNL     1      13.297  -9.505  36.019  1.00  0.00     0.227 A
ATOM     32  H5  UNL     1      12.839 -10.182  33.993  1.00  0.00     0.168 HD
HETATM   33  O1  UNL     1      13.922  -8.383  36.146  1.00  0.00    -0.273 OA
HETATM   34  C15 UNL     1      12.794 -10.494  36.961  1.00  0.00     0.156 A
ENDBRANCH  28  29
ENDBRANCH  27  28
ENDBRANCH   4  27
TORSDOF 6
ENDMDL