MODEL 4
REMARK VINA RESULT: -8.064462312      4.520      7.722
REMARK  7 active torsions:
REMARK  status: ('A' for Active; 'I' for Inactive)
REMARK    1  A    between atoms: C5_7  and  N2_8
REMARK    2  A    between atoms: N2_8  and  C6_10
REMARK    3  A    between atoms: C6_10  and  C7_11
REMARK    4  A    between atoms: C7_11  and  C8_12
REMARK    5  A    between atoms: C8_12  and  N3_13
REMARK    6  A    between atoms: N6_24  and  C14_25
REMARK    7  A    between atoms: C14_25  and  C15_26
ROOT
HETATM    1  C1  UNL     1       9.416 -13.766  38.100  1.00  0.00     0.089 C
HETATM    2  C2  UNL     1       9.403 -12.312  37.693  1.00  0.00     0.080 A
HETATM    3  N1  UNL     1       8.466 -11.503  38.210  1.00  0.00    -0.330 N
ATOM      4  H1  UNL     1       7.777 -11.871  38.866  1.00  0.00     0.168 HD
HETATM    5  C3  UNL     1       8.439 -10.205  37.858  1.00  0.00     0.136 A
HETATM    6  C4  UNL     1       9.387  -9.700  36.957  1.00  0.00     0.118 A
HETATM    7  C5  UNL     1      10.352 -10.528  36.423  1.00  0.00     0.137 A
HETATM    8  N4  UNL     1      10.307 -11.839  36.835  1.00  0.00    -0.330 N
ATOM      9  H4  UNL     1      11.005 -12.485  36.464  1.00  0.00     0.168 HD
HETATM   10  N5  UNL     1       9.094  -8.305  36.775  1.00  0.00    -0.368 N
ATOM     11  H5  UNL     1       9.743  -7.565  36.505  1.00  0.00     0.161 HD
HETATM   12  C13 UNL     1       7.668  -8.174  37.059  1.00  0.00     0.248 C
HETATM   13  N6  UNL     1       7.597  -9.102  38.205  1.00  0.00    -0.349 N
ENDROOT
BRANCH   7  14
HETATM   14  N2  UNL     1      11.222 -10.180  35.633  1.00  0.00    -0.354 N
ATOM     15  H2  UNL     1      10.842  -9.420  35.069  1.00  0.00     0.166 HD
BRANCH  14  16
HETATM   16  C6  UNL     1      12.509 -10.412  35.208  1.00  0.00     0.064 C
BRANCH  16  17
HETATM   17  C7  UNL     1      13.597  -9.664  35.960  1.00  0.00     0.074 C
BRANCH  17  18
HETATM   18  C8  UNL     1      13.922  -8.372  35.252  1.00  0.00     0.277 C
BRANCH  18  19
HETATM   19  N3  UNL     1      15.319  -8.145  35.066  1.00  0.00     0.090 N
HETATM   20  C9  UNL     1      15.540  -6.727  34.833  1.00  0.00     0.282 C
HETATM   21  C10 UNL     1      16.937  -6.291  35.210  1.00  0.00     0.104 C
HETATM   22  S1  UNL     1      18.071  -7.235  34.146  1.00  0.00    -0.166 SA
HETATM   23  C11 UNL     1      17.424  -8.934  34.081  1.00  0.00     0.104 C
HETATM   24  C12 UNL     1      15.916  -8.964  34.062  1.00  0.00     0.282 C
ENDBRANCH  18  19
ENDBRANCH  17  18
ENDBRANCH  16  17
ENDBRANCH  14  16
ENDBRANCH   7  14
BRANCH  13  25
HETATM   25  C14 UNL     1       6.819  -8.904  39.381  1.00  0.00     0.130 C
BRANCH  25  26
HETATM   26  C15 UNL     1       6.275  -7.541  39.607  1.00  0.00     0.004 C
HETATM   27  C16 UNL     1       4.783  -7.449  39.710  1.00  0.00     0.006 C
HETATM   28  C17 UNL     1       4.299  -7.203  41.135  1.00  0.00     0.000 C
HETATM   29  C18 UNL     1       5.040  -8.072  42.094  1.00  0.00     0.000 C
HETATM   30  C19 UNL     1       6.508  -7.786  42.030  1.00  0.00     0.000 C
HETATM   31  C20 UNL     1       6.916  -6.967  40.853  1.00  0.00     0.006 C
ENDBRANCH  25  26
ENDBRANCH  13  25
TORSDOF 7
ENDMDL