MODEL 3
REMARK VINA RESULT: -8.628060891      2.953     10.016
REMARK  7 active torsions:
REMARK  status: ('A' for Active; 'I' for Inactive)
REMARK    1  A    between atoms: C2_2  and  C3_3
REMARK    2  A    between atoms: C3_3  and  N1_4
REMARK    3  A    between atoms: N1_4  and  C4_6
REMARK    4  A    between atoms: C6_10  and  C7_11
REMARK    5  A    between atoms: C9_15  and  C10_16
REMARK    6  A    between atoms: C13_19  and  S1_20
REMARK    7  A    between atoms: N5_25  and  C16_27
ROOT
HETATM    1  C7  UNL     1       7.111  -8.228  39.103  1.00  0.00     0.087 A
HETATM    2  N3  UNL     1       7.199  -7.956  37.888  1.00  0.00    -0.358 N
ATOM      3  H3  UNL     1       6.561  -7.273  37.480  1.00  0.00     0.166 HD
HETATM    4  C8  UNL     1       8.141  -8.560  37.089  1.00  0.00     0.108 A
HETATM    5  C9  UNL     1       8.949  -9.433  37.628  1.00  0.00     0.036 A
HETATM    6  S2  UNL     1       8.393  -9.444  39.373  1.00  0.00    -0.069 SA
ENDROOT
BRANCH   1   7
HETATM    7  C6  UNL     1       6.216  -7.737  40.149  1.00  0.00     0.030 A
HETATM    8  C5  UNL     1       6.714  -7.168  41.297  1.00  0.00     0.121 A
HETATM    9  N2  UNL     1       5.925  -6.702  42.284  1.00  0.00    -0.201 N
HETATM   10  C4  UNL     1       4.591  -6.793  42.147  1.00  0.00     0.677 A
ATOM     11  H2  UNL     1       6.333  -6.287  43.121  1.00  0.00     0.183 HD
HETATM   12  N6  UNL     1       4.052  -7.352  41.023  1.00  0.00    -0.201 N
HETATM   13  C18 UNL     1       4.845  -7.820  40.030  1.00  0.00     0.121 A
ATOM     14  H6  UNL     1       3.038  -7.418  40.930  1.00  0.00     0.183 HD
BRANCH  10  15
HETATM   15  N1  UNL     1       3.852  -6.349  43.094  1.00  0.00    -0.226 N
ATOM     16  H1  UNL     1       2.874  -6.126  42.909  1.00  0.00     0.177 HD
BRANCH  15  17
HETATM   17  C3  UNL     1       4.386  -6.160  44.418  1.00  0.00     0.137 C
BRANCH  17  18
HETATM   18  C2  UNL     1       3.840  -4.826  44.916  1.00  0.00     0.016 C
HETATM   19  C1  UNL     1       4.501  -4.480  46.234  1.00  0.00     0.006 C
ENDBRANCH  17  18
ENDBRANCH  15  17
ENDBRANCH  10  15
ENDBRANCH   1   7
BRANCH   5  20
HETATM   20  C10 UNL     1      10.039 -10.258  37.139  1.00  0.00     0.026 A
HETATM   21  C11 UNL     1      11.340  -9.731  37.089  1.00  0.00     0.019 A
HETATM   22  C12 UNL     1      12.397 -10.488  36.630  1.00  0.00     0.038 A
HETATM   23  C13 UNL     1      12.223 -11.787  36.204  1.00  0.00     0.070 A
HETATM   24  N4  UNL     1      10.978 -12.271  36.259  1.00  0.00    -0.337 N
HETATM   25  C15 UNL     1       9.903 -11.543  36.710  1.00  0.00     0.113 A
ATOM     26  H4  UNL     1      10.818 -13.230  35.949  1.00  0.00     0.168 HD
HETATM   27  N5  UNL     1       8.774 -12.121  36.713  1.00  0.00    -0.376 N
ATOM     28  H5  UNL     1       7.991 -11.563  37.053  1.00  0.00     0.161 HD
BRANCH  23  29
HETATM   29  S1  UNL     1      13.578 -12.783  35.606  1.00  0.00    -0.117 SA
HETATM   30  C14 UNL     1      14.811 -11.705  34.814  1.00  0.00     0.097 C
ENDBRANCH  23  29
BRANCH  27  31
HETATM   31  C16 UNL     1       8.457 -13.448  36.302  1.00  0.00     0.116 C
HETATM   32  C17 UNL     1       7.359 -14.090  37.082  1.00  0.00     0.026 C
ENDBRANCH  27  31
ENDBRANCH   5  20
TORSDOF 7
ENDMDL