MODEL 2
REMARK VINA RESULT: -9.573681255      1.107      1.256
REMARK  6 active torsions:
REMARK  status: ('A' for Active; 'I' for Inactive)
REMARK    1  A    between atoms: C2_2  and  O1_3
REMARK    2  A    between atoms: O1_3  and  C3_4
REMARK    3  A    between atoms: C8_9  and  O2_10
REMARK    4  A    between atoms: O2_10  and  C9_11
REMARK    5  A    between atoms: C9_11  and  C10_12
REMARK    6  A    between atoms: C10_12  and  O3_13
ROOT
HETATM    1  C3  UNL     1       8.900  -9.767  38.824  1.00  0.00     0.103 A
HETATM    2  C4  UNL     1       8.435  -9.318  40.027  1.00  0.00     0.054 A
HETATM    3  C5  UNL     1       7.278  -8.583  40.058  1.00  0.00     0.001 A
HETATM    4  C6  UNL     1       6.563  -8.268  38.927  1.00  0.00    -0.039 A
HETATM    5  C7  UNL     1       7.036  -8.721  37.725  1.00  0.00     0.048 A
HETATM    6  C8  UNL     1       8.199  -9.477  37.608  1.00  0.00     0.108 A
HETATM    7  C12 UNL     1       5.321  -7.455  38.923  1.00  0.00     0.067 C
HETATM    8  C13 UNL     1       4.771  -7.145  40.223  1.00  0.00    -0.006 C
HETATM    9  C14 UNL     1       5.546  -7.483  41.394  1.00  0.00     0.015 A
HETATM   10  C15 UNL     1       6.732  -8.160  41.337  1.00  0.00     0.058 A
HETATM   11  N1  UNL     1       7.346  -8.425  42.509  1.00  0.00    -0.321 N
ATOM     12  H1  UNL     1       8.231  -8.931  42.491  1.00  0.00     0.169 HD
HETATM   13  C16 UNL     1       6.838  -8.050  43.711  1.00  0.00     0.256 A
HETATM   14  O4  UNL     1       7.418  -8.297  44.799  1.00  0.00    -0.267 OA
HETATM   15  C17 UNL     1       5.640  -7.366  43.773  1.00  0.00     0.061 A
HETATM   16  C18 UNL     1       4.989  -7.078  42.614  1.00  0.00     0.056 A
HETATM   17  N2  UNL     1       3.766  -6.373  42.696  1.00  0.00    -0.363 N
ATOM     18  H2  UNL     1       3.279  -6.131  41.833  1.00  0.00     0.162 HD
HETATM   19  C19 UNL     1       3.184  -5.985  43.955  1.00  0.00     0.217 A
HETATM   20  C20 UNL     1       3.059  -4.455  43.982  1.00  0.00     0.063 C
HETATM   21  O5  UNL     1       3.852  -6.355  45.059  1.00  0.00    -0.362 OA
HETATM   22  C21 UNL     1       5.037  -6.953  45.050  1.00  0.00     0.217 A
ENDROOT
BRANCH   6  23
HETATM   23  O2  UNL     1       8.648  -9.911  36.468  1.00  0.00    -0.318 OA
BRANCH  23  24
HETATM   24  C9  UNL     1       9.093 -10.340  35.340  1.00  0.00     0.166 C
BRANCH  24  25
HETATM   25  C10 UNL     1      10.074 -11.435  35.102  1.00  0.00     0.158 C
BRANCH  25  26
HETATM   26  O3  UNL     1       9.721 -12.596  34.555  1.00  0.00    -0.366 OA
HETATM   27  C11 UNL     1       9.114 -13.590  35.225  1.00  0.00     0.209 C
ENDBRANCH  25  26
ENDBRANCH  24  25
ENDBRANCH  23  24
ENDBRANCH   6  23
BRANCH   1  28
HETATM   28  O1  UNL     1      10.044 -10.520  38.635  1.00  0.00    -0.349 OA
BRANCH  28  29
HETATM   29  C2  UNL     1      11.306 -10.004  38.422  1.00  0.00     0.171 C
HETATM   30  C1  UNL     1      12.343 -10.976  37.933  1.00  0.00     0.034 C
ENDBRANCH  28  29
ENDBRANCH   1  28
TORSDOF 6
ENDMDL