MODEL 5
REMARK VINA RESULT: -7.597242837      1.557      2.014
REMARK  6 active torsions:
REMARK  status: ('A' for Active; 'I' for Inactive)
REMARK    1  A    between atoms: C2_2  and  C3_3
REMARK    2  A    between atoms: C3_3  and  C4_4
REMARK    3  A    between atoms: C7_7  and  N1_8
REMARK    4  A    between atoms: C14_21  and  C15_22
REMARK    5  A    between atoms: C15_22  and  N5_23
REMARK       I    between atoms: N5_23  and  C16_24
REMARK    6  A    between atoms: C19_29  and  C20_30
ROOT
HETATM    1  N1  UNL     1      10.337  -9.597  37.395  1.00  0.00    -0.366 N
ATOM      2  H1  UNL     1      10.629  -8.688  37.038  1.00  0.00     0.161 HD
HETATM    3  C8  UNL     1      11.130 -10.580  37.221  1.00  0.00     0.118 A
HETATM    4  N2  UNL     1      10.911 -11.835  37.626  1.00  0.00    -0.319 N
ATOM      5  H2  UNL     1      10.056 -12.010  38.153  1.00  0.00     0.169 HD
HETATM    6  C9  UNL     1      11.716 -12.882  37.403  1.00  0.00     0.191 A
HETATM    7  C10 UNL     1      11.434 -14.218  37.854  1.00  0.00     0.137 C
HETATM    8  N3  UNL     1      11.228 -15.291  38.233  1.00  0.00    -0.188 NA
HETATM    9  N4  UNL     1      12.850 -12.665  36.710  1.00  0.00    -0.319 N
ATOM     10  H4  UNL     1      13.485 -13.440  36.523  1.00  0.00     0.169 HD
HETATM   11  C11 UNL     1      13.153 -11.413  36.256  1.00  0.00     0.123 A
HETATM   12  C12 UNL     1      12.302 -10.356  36.506  1.00  0.00     0.054 A
HETATM   13  C13 UNL     1      12.880  -9.249  35.903  1.00  0.00     0.051 A
HETATM   14  C14 UNL     1      14.058  -9.621  35.299  1.00  0.00     0.065 A
HETATM   15  N6  UNL     1      14.180 -10.935  35.540  1.00  0.00    -0.335 N
HETATM   16  C18 UNL     1      15.269 -11.763  35.085  1.00  0.00     0.158 C
ENDROOT
BRANCH   1  17
HETATM   17  C7  UNL     1       9.043  -9.673  38.066  1.00  0.00     0.128 C
HETATM   18  C6  UNL     1       9.211  -9.848  39.545  1.00  0.00     0.033 C
HETATM   19  C5  UNL     1       8.361  -8.920  40.360  1.00  0.00     0.027 C
HETATM   20  C4  UNL     1       7.055  -8.728  39.654  1.00  0.00     0.081 C
HETATM   21  N7  UNL     1       7.265  -8.134  38.402  1.00  0.00    -0.390 N
HETATM   22  C19 UNL     1       8.192  -8.563  37.638  1.00  0.00     0.005 C
ATOM     23  H7  UNL     1       6.676  -7.357  38.101  1.00  0.00     0.159 HD
BRANCH  20  24
HETATM   24  C3  UNL     1       6.004  -8.087  40.521  1.00  0.00     0.024 C
BRANCH  24  25
HETATM   25  C2  UNL     1       4.907  -7.412  39.770  1.00  0.00    -0.002 C
HETATM   26  C1  UNL     1       3.576  -7.392  40.462  1.00  0.00     0.005 C
ENDBRANCH  24  25
ENDBRANCH  20  24
BRANCH  22  27
HETATM   27  C20 UNL     1       8.353  -7.936  36.301  1.00  0.00     0.050 C
HETATM   28  C21 UNL     1       8.290  -8.954  35.180  1.00  0.00     0.011 C
ENDBRANCH  22  27
ENDBRANCH   1  17
BRANCH  14  29
HETATM   29  C15 UNL     1      14.922  -8.738  34.512  1.00  0.00     0.216 C
BRANCH  29  30
HETATM   30  N5  UNL     1      15.872  -7.943  35.055  1.00  0.00    -0.382 NA
HETATM   31  C16 UNL     1      16.829  -7.142  35.601  1.00  0.00     0.287 C
HETATM   32  C17 UNL     1      17.877  -7.735  36.562  1.00  0.00     0.135 C
HETATM   33  O1  UNL     1      16.967  -5.892  35.402  1.00  0.00    -0.258 OA
ENDBRANCH  29  30
ENDBRANCH  14  29
TORSDOF 6
ENDMDL