MODEL 2
REMARK VINA RESULT: -9.870855696      1.223      1.824
REMARK  7 active torsions:
REMARK  status: ('A' for Active; 'I' for Inactive)
REMARK    1  A    between atoms: C2_2  and  C3_3
REMARK       I    between atoms: C3_3  and  N1_5
REMARK    2  A    between atoms: N1_5  and  C4_7
REMARK    3  A    between atoms: C7_12  and  C8_13
REMARK    4  A    between atoms: C11_18  and  N4_19
REMARK    5  A    between atoms: N4_19  and  C13_21
REMARK    6  A    between atoms: C13_21  and  C14_22
REMARK    7  A    between atoms: C14_22  and  O2_23
ROOT
HETATM    1  C8  UNL     1       6.672  -7.844  41.395  1.00  0.00     0.127 A
HETATM    2  N3  UNL     1       7.710  -8.720  41.238  1.00  0.00    -0.338 N
ATOM      3  H3  UNL     1       8.203  -9.192  41.996  1.00  0.00     0.167 HD
HETATM    4  C9  UNL     1       7.977  -8.858  39.949  1.00  0.00     0.080 A
HETATM    5  C10 UNL     1       8.901  -9.596  39.202  1.00  0.00     0.065 A
HETATM    6  C11 UNL     1       8.944  -9.538  37.834  1.00  0.00     0.054 A
HETATM    7  C16 UNL     1       8.027  -8.708  37.156  1.00  0.00     0.033 A
HETATM    8  C17 UNL     1       8.057  -8.632  35.672  1.00  0.00     0.070 C
HETATM    9  N5  UNL     1       7.163  -8.022  37.908  1.00  0.00    -0.342 N
ATOM     10  H5  UNL     1       6.493  -7.418  37.431  1.00  0.00     0.167 HD
HETATM   11  C18 UNL     1       7.115  -8.074  39.250  1.00  0.00     0.134 A
HETATM   12  N6  UNL     1       6.326  -7.465  40.195  1.00  0.00    -0.326 N
ATOM     13  H6  UNL     1       5.574  -6.807  39.988  1.00  0.00     0.169 HD
ENDROOT
BRANCH   1  14
HETATM   14  C7  UNL     1       6.113  -7.455  42.688  1.00  0.00     0.074 A
HETATM   15  C5  UNL     1       5.089  -6.637  43.057  1.00  0.00     0.028 A
HETATM   16  N2  UNL     1       4.827  -6.492  44.329  1.00  0.00    -0.339 N
HETATM   17  C6  UNL     1       4.278  -5.916  41.987  1.00  0.00     0.070 C
HETATM   18  C4  UNL     1       5.568  -7.147  45.218  1.00  0.00     0.152 A
ATOM     19  H2  UNL     1       4.066  -5.886  44.635  1.00  0.00     0.168 HD
HETATM   20  S1  UNL     1       6.673  -7.998  44.248  1.00  0.00    -0.048 SA
BRANCH  18  21
HETATM   21  N1  UNL     1       5.482  -7.147  46.521  1.00  0.00    -0.307 N
HETATM   22  C3  UNL     1       4.852  -6.033  47.129  1.00  0.00     0.223 C
HETATM   23  O1  UNL     1       5.407  -4.894  47.059  1.00  0.00    -0.273 OA
ATOM     24  H1  UNL     1       5.852  -7.916  47.079  1.00  0.00     0.171 HD
BRANCH  22  25
HETATM   25  C2  UNL     1       3.562  -6.206  47.832  1.00  0.00     0.099 C
HETATM   26  C1  UNL     1       2.788  -4.917  47.765  1.00  0.00     0.014 C
ENDBRANCH  22  25
ENDBRANCH  18  21
ENDBRANCH   1  14
BRANCH   6  27
HETATM   27  N4  UNL     1       9.858 -10.316  37.104  1.00  0.00    -0.382 N
HETATM   28  C12 UNL     1       9.524 -11.760  36.974  1.00  0.00     0.150 C
BRANCH  27  29
HETATM   29  C13 UNL     1      11.040  -9.920  36.416  1.00  0.00     0.148 C
BRANCH  29  30
HETATM   30  C14 UNL     1      12.349 -10.323  36.994  1.00  0.00     0.186 C
BRANCH  30  31
HETATM   31  O2  UNL     1      13.430  -9.543  36.689  1.00  0.00    -0.394 OA
HETATM   32  C15 UNL     1      13.740  -9.723  35.323  1.00  0.00     0.201 C
ENDBRANCH  30  31
ENDBRANCH  29  30
ENDBRANCH  27  29
ENDBRANCH   6  27
TORSDOF 7
ENDMDL