MODEL 2
REMARK VINA RESULT: -6.820889734      3.979      9.454
REMARK  6 active torsions:
REMARK  status: ('A' for Active; 'I' for Inactive)
REMARK    1  A    between atoms: C5_5  and  N1_6
REMARK       I    between atoms: N1_6  and  C6_8
REMARK    2  A    between atoms: C6_8  and  C7_10
REMARK    3  A    between atoms: N3_15  and  C9_16
REMARK    4  A    between atoms: C9_16  and  C10_17
REMARK    5  A    between atoms: C10_17  and  C11_18
REMARK    6  A    between atoms: C14_21  and  C15_22
ROOT
HETATM    1  C1  UNL     1       7.870  -8.533  36.293  1.00  0.00     0.012 C
HETATM    2  C2  UNL     1       8.860  -9.193  36.163  1.00  0.00    -0.110 C
HETATM    3  C3  UNL     1      10.074  -9.993  35.981  1.00  0.00     0.089 A
HETATM    4  C4  UNL     1      10.820 -10.279  37.281  1.00  0.00     0.045 A
HETATM    5  C5  UNL     1      11.411  -9.322  36.336  1.00  0.00     0.101 A
ENDROOT
BRANCH   5   6
HETATM    6  N1  UNL     1      12.491  -9.716  35.449  1.00  0.00    -0.350 N
HETATM    7  C6  UNL     1      13.677  -8.968  35.301  1.00  0.00     0.271 C
HETATM    8  O1  UNL     1      13.856  -7.920  35.931  1.00  0.00    -0.266 OA
ATOM      9  H1  UNL     1      12.386 -10.574  34.907  1.00  0.00     0.163 HD
BRANCH   7  10
HETATM   10  C7  UNL     1      14.719  -9.453  34.372  1.00  0.00     0.131 A
HETATM   11  N2  UNL     1      14.403 -10.219  33.310  1.00  0.00    -0.327 N
HETATM   12  C8  UNL     1      15.480 -10.387  32.594  1.00  0.00     0.179 A
ATOM     13  H2  UNL     1      13.481 -10.602  33.102  1.00  0.00     0.168 HD
HETATM   14  S1  UNL     1      15.553 -11.246  31.208  1.00  0.00    -0.040 SA
HETATM   15  N3  UNL     1      16.573  -9.717  33.189  1.00  0.00    -0.321 N
HETATM   16  C14 UNL     1      16.072  -9.149  34.288  1.00  0.00     0.083 A
BRANCH  15  17
HETATM   17  C9  UNL     1      17.832  -9.857  32.562  1.00  0.00     0.132 C
BRANCH  17  18
HETATM   18  C10 UNL     1      18.573  -8.585  32.262  1.00  0.00     0.024 C
BRANCH  18  19
HETATM   19  C11 UNL     1      17.936  -7.485  31.549  1.00  0.00    -0.021 C
HETATM   20  C12 UNL     1      17.710  -7.792  30.088  1.00  0.00     0.009 C
HETATM   21  C13 UNL     1      18.914  -6.292  31.584  1.00  0.00     0.009 C
ENDBRANCH  18  19
ENDBRANCH  17  18
ENDBRANCH  15  17
BRANCH  16  22
HETATM   22  C15 UNL     1      16.866  -8.655  35.449  1.00  0.00     0.041 A
HETATM   23  C16 UNL     1      17.412  -7.419  35.696  1.00  0.00     0.036 A
HETATM   24  C17 UNL     1      16.918  -6.082  35.210  1.00  0.00     0.070 C
HETATM   25  N4  UNL     1      18.392  -7.529  36.602  1.00  0.00    -0.302 N
HETATM   26  N5  UNL     1      18.511  -8.774  36.966  1.00  0.00    -0.300 N
ATOM     27  H4  UNL     1      18.957  -6.757  36.955  1.00  0.00     0.186 HD
HETATM   28  C18 UNL     1      19.462  -9.276  37.937  1.00  0.00     0.177 C
HETATM   29  C19 UNL     1      17.592  -9.529  36.288  1.00  0.00     0.038 A
HETATM   30  C20 UNL     1      17.604 -10.981  36.457  1.00  0.00     0.071 C
ENDBRANCH  16  22
ENDBRANCH   7  10
ENDBRANCH   5   6
TORSDOF 6
ENDMDL