MODEL 2
REMARK VINA RESULT: -8.445844633      3.144      5.060
REMARK  8 active torsions:
REMARK  status: ('A' for Active; 'I' for Inactive)
REMARK    1  A    between atoms: O1_2  and  C2_3
REMARK    2  A    between atoms: C4_5  and  N1_6
REMARK    3  A    between atoms: N1_6  and  C5_8
REMARK    4  A    between atoms: C5_8  and  C6_9
REMARK    5  A    between atoms: C6_9  and  C7_10
REMARK    6  A    between atoms: C7_10  and  N2_11
REMARK    7  A    between atoms: C12_21  and  N6_22
REMARK    8  A    between atoms: N6_22  and  C13_24
ROOT
HETATM    1  N2  UNL     1       6.519  -8.301  39.025  1.00  0.00    -0.333 N
HETATM    2  C8  UNL     1       5.538  -7.553  39.559  1.00  0.00     0.183 A
HETATM    3  N3  UNL     1       5.842  -7.258  40.850  1.00  0.00    -0.359 N
ATOM      4  H3  UNL     1       5.270  -6.702  41.487  1.00  0.00     0.166 HD
HETATM    5  C9  UNL     1       7.030  -7.826  41.143  1.00  0.00     0.130 A
HETATM    6  C10 UNL     1       7.429  -8.468  39.992  1.00  0.00     0.132 A
HETATM    7  C11 UNL     1       8.638  -9.216  39.818  1.00  0.00     0.119 C
HETATM    8  N4  UNL     1       9.612  -9.823  39.680  1.00  0.00    -0.190 NA
ENDROOT
BRANCH   1   9
HETATM    9  C7  UNL     1       6.522  -8.795  37.657  1.00  0.00     0.132 C
BRANCH   9  10
HETATM   10  C6  UNL     1       7.644  -8.036  36.945  1.00  0.00     0.040 C
BRANCH  10  11
HETATM   11  C5  UNL     1       8.174  -8.915  35.807  1.00  0.00     0.123 C
BRANCH  11  12
HETATM   12  N1  UNL     1       9.567  -8.725  35.577  1.00  0.00    -0.376 N
ATOM     13  H1  UNL     1       9.854  -7.950  34.980  1.00  0.00     0.161 HD
BRANCH  12  14
HETATM   14  C4  UNL     1      10.481  -9.471  36.079  1.00  0.00     0.120 A
HETATM   15  C3  UNL     1      11.827  -9.174  35.976  1.00  0.00     0.105 A
HETATM   16  C2  UNL     1      12.771 -10.003  36.531  1.00  0.00     0.160 A
HETATM   17  N7  UNL     1      12.385 -11.113  37.181  1.00  0.00    -0.170 N
HETATM   18  C12 UNL     1      11.082 -11.424  37.293  1.00  0.00     0.686 A
ATOM     19  H7  UNL     1      13.089 -11.728  37.593  1.00  0.00     0.186 HD
HETATM   20  N5  UNL     1      10.159 -10.617  36.752  1.00  0.00    -0.177 N
ATOM     21  H5  UNL     1       9.175 -10.868  36.847  1.00  0.00     0.186 HD
BRANCH  16  22
HETATM   22  O1  UNL     1      14.104  -9.689  36.420  1.00  0.00    -0.340 OA
HETATM   23  C1  UNL     1      14.511  -8.628  35.596  1.00  0.00     0.211 C
ENDBRANCH  16  22
BRANCH  18  24
HETATM   24  N6  UNL     1      10.754 -12.493  37.924  1.00  0.00    -0.191 N
ATOM     25  H6  UNL     1      10.922 -12.515  38.929  1.00  0.00     0.184 HD
BRANCH  24  26
HETATM   26  C13 UNL     1      10.182 -13.633  37.342  1.00  0.00     0.061 A
HETATM   27  C14 UNL     1       8.828 -13.767  37.200  1.00  0.00    -0.034 A
HETATM   28  C15 UNL     1       7.962 -12.666  37.682  1.00  0.00     0.050 C
HETATM   29  C16 UNL     1       8.259 -14.907  36.617  1.00  0.00     0.015 A
HETATM   30  C17 UNL     1       9.064 -15.919  36.174  1.00  0.00    -0.061 A
HETATM   31  C18 UNL     1       8.473 -17.131  35.555  1.00  0.00     0.048 C
HETATM   32  C19 UNL     1      10.430 -15.798  36.310  1.00  0.00     0.015 A
HETATM   33  C20 UNL     1      10.991 -14.655  36.895  1.00  0.00    -0.034 A
HETATM   34  C21 UNL     1      12.467 -14.524  37.042  1.00  0.00     0.050 C
ENDBRANCH  24  26
ENDBRANCH  18  24
ENDBRANCH  12  14
ENDBRANCH  11  12
ENDBRANCH  10  11
ENDBRANCH   9  10
ENDBRANCH   1   9
TORSDOF 8
ENDMDL