MODEL 1
REMARK VINA RESULT: -7.423618033      0.000      0.000
REMARK  6 active torsions:
REMARK  status: ('A' for Active; 'I' for Inactive)
REMARK    1  A    between atoms: C2_2  and  C3_3
REMARK    2  A    between atoms: C3_3  and  N1_4
REMARK    3  A    between atoms: C7_11  and  C8_12
REMARK    4  A    between atoms: N3_22  and  C16_23
REMARK    5  A    between atoms: C16_23  and  C17_24
REMARK    6  A    between atoms: C17_24  and  N4_25
ROOT
HETATM    1  N1  UNL     1       8.239  -9.877  37.422  1.00  0.00    -0.264 N
HETATM    2  C4  UNL     1       9.140  -9.043  36.943  1.00  0.00     0.280 A
HETATM    3  O1  UNL     1       8.885  -7.817  36.803  1.00  0.00    -0.265 OA
HETATM    4  C5  UNL     1      10.368  -9.503  36.589  1.00  0.00     0.130 A
HETATM    5  N2  UNL     1      11.449  -8.861  36.128  1.00  0.00    -0.348 N
ATOM      6  H2  UNL     1      11.497  -7.858  35.948  1.00  0.00     0.166 HD
HETATM    7  C6  UNL     1      12.450  -9.715  35.936  1.00  0.00     0.063 A
HETATM    8  C7  UNL     1      13.725  -9.537  35.470  1.00  0.00     0.069 A
HETATM    9  C9  UNL     1      14.573 -10.608  35.327  1.00  0.00     0.028 A
HETATM   10  C10 UNL     1      14.112 -11.853  35.651  1.00  0.00    -0.054 A
HETATM   11  C11 UNL     1      15.045 -13.016  35.515  1.00  0.00     0.049 C
HETATM   12  C12 UNL     1      12.831 -12.072  36.124  1.00  0.00    -0.041 A
HETATM   13  C13 UNL     1      12.419 -13.465  36.008  1.00  0.00     0.050 C
HETATM   14  C14 UNL     1      12.009 -11.011  36.287  1.00  0.00     0.028 A
HETATM   15  C15 UNL     1      10.711 -10.869  36.718  1.00  0.00     0.084 A
HETATM   16  N3  UNL     1       9.786 -11.714  37.228  1.00  0.00    -0.291 N
HETATM   17  C20 UNL     1       8.580 -11.163  37.548  1.00  0.00     0.332 A
HETATM   18  O4  UNL     1       7.671 -11.918  38.004  1.00  0.00    -0.246 OA
ENDROOT
BRANCH  16  19
HETATM   19  C16 UNL     1      10.075 -13.018  37.709  1.00  0.00     0.178 C
BRANCH  19  20
HETATM   20  C17 UNL     1       9.440 -14.171  36.942  1.00  0.00     0.077 C
BRANCH  20  21
HETATM   21  N4  UNL     1       8.716 -15.162  37.615  1.00  0.00    -0.400 N
HETATM   22  C18 UNL     1       8.800 -15.175  39.051  1.00  0.00     0.148 C
HETATM   23  C19 UNL     1       7.365 -15.353  37.132  1.00  0.00     0.148 C
ENDBRANCH  20  21
ENDBRANCH  19  20
ENDBRANCH  16  19
BRANCH   1  24
HETATM   24  C3  UNL     1       6.905  -9.473  37.830  1.00  0.00     0.137 C
BRANCH  24  25
HETATM   25  C2  UNL     1       6.802  -8.861  39.175  1.00  0.00     0.016 C
HETATM   26  C1  UNL     1       5.766  -7.771  39.257  1.00  0.00     0.006 C
ENDBRANCH  24  25
ENDBRANCH   1  24
BRANCH   8  27
HETATM   27  C8  UNL     1      14.196  -8.194  35.119  1.00  0.00     0.211 C
HETATM   28  O2  UNL     1      13.627  -7.164  35.491  1.00  0.00    -0.644 OA
HETATM   29  O3  UNL     1      15.342  -8.035  34.327  1.00  0.00    -0.644 OA
ENDBRANCH   8  27
TORSDOF 6
ENDMDL