MODEL 2
REMARK VINA RESULT: -6.135973247      1.009      1.140
REMARK  4 active torsions:
REMARK  status: ('A' for Active; 'I' for Inactive)
REMARK    1  A    between atoms: N1_1  and  C1_4
REMARK    2  A    between atoms: C2_9  and  N4_10
REMARK    3  A    between atoms: C3_13  and  N5_14
REMARK    4  A    between atoms: N5_14  and  N6_16
ROOT
HETATM    1  C1  UNL     1      16.162  55.990  51.987  1.00  0.00     0.692 A
HETATM    2  N2  UNL     1      15.128  56.177  51.147  1.00  0.00    -0.131 N
ATOM      3  H2  UNL     1      15.307  56.192  50.143  1.00  0.00     0.205 HD
HETATM    4  N3  UNL     1      13.886  56.343  51.576  1.00  0.00    -0.263 N
ATOM      5  H3  UNL     1      13.144  56.481  50.890  1.00  0.00     0.189 HD
HETATM    6  C2  UNL     1      13.567  56.335  52.885  1.00  0.00     0.234 A
HETATM    7  C3  UNL     1      14.622  56.143  53.763  1.00  0.00     0.187 A
HETATM    8  N7  UNL     1      15.884  55.977  53.303  1.00  0.00    -0.170 N
ATOM      9  H7  UNL     1      16.642  55.839  53.970  1.00  0.00     0.186 HD
ENDROOT
BRANCH   7  10
HETATM   10  N5  UNL     1      14.345  56.132  55.025  1.00  0.00    -0.288 N
ATOM     11  H5  UNL     1      14.054  55.261  55.467  1.00  0.00     0.188 HD
BRANCH  10  12
HETATM   12  N6  UNL     1      14.437  57.296  55.794  1.00  0.00    -0.344 N
ATOM     13  H62 UNL     1      14.966  58.084  55.421  1.00  0.00     0.176 HD
ATOM     14  H61 UNL     1      13.989  57.360  56.708  1.00  0.00     0.176 HD
ENDBRANCH  10  12
ENDBRANCH   7  10
BRANCH   6  15
HETATM   15  N4  UNL     1      12.236  56.511  53.360  1.00  0.00    -0.092 N
HETATM   16  O1  UNL     1      11.418  57.262  52.775  1.00  0.00    -0.530 OA
HETATM   17  O2  UNL     1      11.776  55.869  54.485  1.00  0.00    -0.530 OA
ENDBRANCH   6  15
BRANCH   1  18
HETATM   18  N1  UNL     1      17.380  55.830  51.545  1.00  0.00    -0.233 N
ATOM     19  H12 UNL     1      18.068  56.582  51.591  1.00  0.00     0.174 HD
ATOM     20  H11 UNL     1      17.687  54.947  51.136  1.00  0.00     0.174 HD
ENDBRANCH   1  18
TORSDOF 4
ENDMDL