MODEL 2
REMARK VINA RESULT: -5.765995749      0.699      1.857
REMARK  4 active torsions:
REMARK  status: ('A' for Active; 'I' for Inactive)
REMARK    1  A    between atoms: N1_1  and  C1_4
REMARK    2  A    between atoms: C2_9  and  S1_10
REMARK    3  A    between atoms: S1_10  and  N4_11
REMARK    4  A    between atoms: N5_16  and  N6_17
ROOT
HETATM    1  C1  UNL     1      16.531  56.092  52.084  1.00  0.00     0.713 A
HETATM    2  N2  UNL     1      15.929  56.239  50.902  1.00  0.00    -0.128 N
ATOM      3  H2  UNL     1      16.369  56.155  49.986  1.00  0.00     0.205 HD
HETATM    4  N3  UNL     1      14.668  56.510  51.136  1.00  0.00    -0.258 N
ATOM      5  H3  UNL     1      13.970  56.672  50.410  1.00  0.00     0.190 HD
HETATM    6  C2  UNL     1      14.414  56.549  52.454  1.00  0.00     0.276 A
HETATM    7  N5  UNL     1      15.597  56.284  53.025  1.00  0.00    -0.061 N
ENDROOT
BRANCH   6   8
HETATM    8  S1  UNL     1      12.867  56.876  53.208  1.00  0.00     0.292 S
HETATM    9  O1  UNL     1      13.057  57.293  54.649  1.00  0.00    -0.198 OA
HETATM   10  O2  UNL     1      12.121  57.963  52.464  1.00  0.00    -0.198 OA
BRANCH   8  11
HETATM   11  N4  UNL     1      11.945  55.436  53.141  1.00  0.00    -0.322 N
ATOM     12  H42 UNL     1      11.159  55.266  52.513  1.00  0.00     0.169 HD
ATOM     13  H41 UNL     1      12.326  54.794  53.836  1.00  0.00     0.169 HD
ENDBRANCH   8  11
ENDBRANCH   6   8
BRANCH   7  14
HETATM   14  N6  UNL     1      15.808  56.220  54.404  1.00  0.00    -0.322 N
ATOM     15  H62 UNL     1      16.678  56.484  54.866  1.00  0.00     0.178 HD
ATOM     16  H61 UNL     1      15.126  55.907  55.095  1.00  0.00     0.178 HD
ENDBRANCH   7  14
BRANCH   1  17
HETATM   17  N1  UNL     1      17.806  55.812  52.290  1.00  0.00    -0.231 N
ATOM     18  H12 UNL     1      18.248  54.898  52.192  1.00  0.00     0.174 HD
ATOM     19  H11 UNL     1      18.534  56.466  52.578  1.00  0.00     0.174 HD
ENDBRANCH   1  17
TORSDOF 4
ENDMDL