MODEL 2
REMARK VINA RESULT: -4.206053646      1.924      2.520
REMARK  2 active torsions:
REMARK  status: ('A' for Active; 'I' for Inactive)
REMARK       I    between atoms: C1_4  and  N3_6
REMARK    1  A    between atoms: C2_7  and  N4_8
REMARK    2  A    between atoms: N4_8  and  N5_10
ROOT
HETATM    1  N1  UNL     1      11.047  55.579  54.768  1.00  0.00    -0.373 N
ATOM      2  H11 UNL     1      11.141  54.816  54.098  1.00  0.00     0.158 HD
ATOM      3  H12 UNL     1      10.297  55.589  55.459  1.00  0.00     0.158 HD
HETATM    4  C1  UNL     1      11.929  56.524  54.691  1.00  0.00     0.198 C
HETATM    5  N2  UNL     1      11.797  57.588  55.626  1.00  0.00    -0.063 NA
HETATM    6  N3  UNL     1      12.976  56.509  53.728  1.00  0.00    -0.221 N
HETATM    7  C2  UNL     1      14.133  55.902  54.060  1.00  0.00     0.138 A
HETATM    8  C3  UNL     1      15.181  55.865  53.149  1.00  0.00     0.125 A
HETATM    9  C4  UNL     1      14.982  56.463  51.921  1.00  0.00     0.252 A
HETATM   10  O1  UNL     1      15.916  56.443  51.076  1.00  0.00    -0.268 OA
HETATM   11  N6  UNL     1      13.798  57.061  51.635  1.00  0.00    -0.275 N
ATOM     12  H6  UNL     1      13.666  57.499  50.723  1.00  0.00     0.173 HD
HETATM   13  C5  UNL     1      12.800  57.087  52.526  1.00  0.00     0.337 A
HETATM   14  O2  UNL     1      11.696  57.636  52.280  1.00  0.00    -0.246 OA
ENDROOT
BRANCH   7  15
HETATM   15  N4  UNL     1      14.263  55.310  55.343  1.00  0.00    -0.291 N
ATOM     16  H4  UNL     1      14.166  55.909  56.162  1.00  0.00     0.188 HD
BRANCH  15  17
HETATM   17  N5  UNL     1      14.513  53.960  55.546  1.00  0.00    -0.344 N
ATOM     18  H52 UNL     1      15.050  53.474  54.827  1.00  0.00     0.176 HD
ATOM     19  H51 UNL     1      14.191  53.441  56.363  1.00  0.00     0.176 HD
ENDBRANCH  15  17
ENDBRANCH   7  15
TORSDOF 2
ENDMDL