MODEL 4
REMARK VINA RESULT: -4.663537992      1.102      2.672
REMARK  1 active torsions:
REMARK  status: ('A' for Active; 'I' for Inactive)
REMARK    1  A    between atoms: N1_1  and  C1_4
REMARK       I    between atoms: N4_13  and  C4_14
REMARK       I    between atoms: C4_14  and  N5_15
REMARK       I    between atoms: C4_14  and  N6_19
ROOT
HETATM    1  C1  UNL     1      14.540  55.890  52.577  1.00  0.00     0.699 A
HETATM    2  N2  UNL     1      15.315  55.740  51.508  1.00  0.00    -0.150 N
ATOM      3  H2  UNL     1      14.910  55.474  50.610  1.00  0.00     0.188 HD
HETATM    4  C2  UNL     1      16.640  55.942  51.625  1.00  0.00     0.329 A
HETATM    5  O1  UNL     1      17.410  55.806  50.621  1.00  0.00    -0.261 OA
HETATM    6  C3  UNL     1      17.120  56.298  52.864  1.00  0.00     0.329 A
HETATM    7  O2  UNL     1      18.362  56.486  52.961  1.00  0.00    -0.261 OA
HETATM    8  N3  UNL     1      16.308  56.442  53.923  1.00  0.00    -0.242 N
ATOM      9  H3  UNL     1      16.698  56.708  54.827  1.00  0.00     0.191 HD
HETATM   10  N4  UNL     1      15.002  56.241  53.803  1.00  0.00    -0.063 N
HETATM   11  C4  UNL     1      14.082  56.385  54.921  1.00  0.00     0.516 C
HETATM   12  N5  UNL     1      14.335  57.546  55.714  1.00  0.00    -0.031 N
ATOM     13  H51 UNL     1      13.690  57.647  56.498  1.00  0.00     0.279 HD
ATOM     14  H52 UNL     1      14.336  58.386  55.137  1.00  0.00     0.279 HD
ATOM     15  H53 UNL     1      15.302  57.562  56.036  1.00  0.00     0.279 HD
HETATM   16  N6  UNL     1      14.050  55.176  55.741  1.00  0.00    -0.031 N
ATOM     17  H61 UNL     1      13.405  55.277  56.525  1.00  0.00     0.279 HD
ATOM     18  H62 UNL     1      14.983  54.913  56.056  1.00  0.00     0.279 HD
ATOM     19  H63 UNL     1      13.834  54.350  55.182  1.00  0.00     0.279 HD
ENDROOT
BRANCH   1  20
HETATM   20  N1  UNL     1      13.272  55.701  52.483  1.00  0.00    -0.233 N
ATOM     21  H12 UNL     1      12.972  54.737  52.334  1.00  0.00     0.174 HD
ATOM     22  H11 UNL     1      12.632  56.491  52.558  1.00  0.00     0.174 HD
ENDBRANCH   1  20
TORSDOF 1
ENDMDL