MODEL 5
REMARK VINA RESULT: -7.091565015      2.052      5.063
REMARK  4 active torsions:
REMARK  status: ('A' for Active; 'I' for Inactive)
REMARK    1  A    between atoms: N1_1  and  N2_4
REMARK    2  A    between atoms: N2_4  and  N3_5
REMARK       I    between atoms: N3_5  and  C1_7
REMARK    3  A    between atoms: C1_7  and  C2_9
REMARK    4  A    between atoms: C4_14  and  N6_15
ROOT
HETATM    1  C2  UNL     1      13.211  56.453  53.669  1.00  0.00     0.144 A
HETATM    2  C3  UNL     1      14.217  55.562  54.071  1.00  0.00     0.153 A
HETATM    3  N4  UNL     1      14.165  54.863  55.307  1.00  0.00    -0.081 NA
HETATM    4  N5  UNL     1      15.259  55.368  53.253  1.00  0.00    -0.178 N
ATOM      5  H5  UNL     1      15.989  54.719  53.548  1.00  0.00     0.185 HD
HETATM    6  C4  UNL     1      15.397  55.978  52.070  1.00  0.00     0.680 A
HETATM    7  N7  UNL     1      14.444  56.835  51.668  1.00  0.00    -0.155 N
ATOM      8  H7  UNL     1      14.536  57.305  50.768  1.00  0.00     0.187 HD
HETATM    9  C5  UNL     1      13.349  57.083  52.453  1.00  0.00     0.278 A
HETATM   10  O2  UNL     1      12.496  57.894  52.021  1.00  0.00    -0.266 OA
ENDROOT
BRANCH   1  11
HETATM   11  C1  UNL     1      12.097  56.655  54.553  1.00  0.00     0.290 C
HETATM   12  N3  UNL     1      10.768  56.211  54.400  1.00  0.00    -0.179 N
ATOM     13  H3  UNL     1      10.505  55.673  53.574  1.00  0.00     0.207 HD
HETATM   14  O1  UNL     1      12.324  57.324  55.626  1.00  0.00    -0.265 OA
BRANCH  12  15
HETATM   15  N2  UNL     1       9.815  56.502  55.367  1.00  0.00    -0.241 NA
BRANCH  15  16
HETATM   16  N1  UNL     1       9.039  56.752  56.134  1.00  0.00    -0.260 N
ATOM     17  H12 UNL     1       9.689  57.276  55.549  1.00  0.00     0.193 HD
ATOM     18  H11 UNL     1       8.329  56.962  56.836  1.00  0.00     0.193 HD
ENDBRANCH  15  16
ENDBRANCH  12  15
ENDBRANCH   1  11
BRANCH   6  19
HETATM   19  N6  UNL     1      16.420  55.764  51.306  1.00  0.00    -0.234 N
ATOM     20  H62 UNL     1      17.268  55.363  51.707  1.00  0.00     0.174 HD
ATOM     21  H61 UNL     1      16.404  55.985  50.311  1.00  0.00     0.174 HD
ENDBRANCH   6  19
TORSDOF 4
ENDMDL