MODEL 1
REMARK VINA RESULT: -5.270559045      0.000      0.000
REMARK  5 active torsions:
REMARK  status: ('A' for Active; 'I' for Inactive)
REMARK    1  A    between atoms: N2_3  and  C2_5
REMARK    2  A    between atoms: C3_8  and  C4_9
REMARK    3  A    between atoms: C4_9  and  N4_10
REMARK    4  A    between atoms: C4_9  and  N5_14
REMARK    5  A    between atoms: C5_20  and  N7_21
ROOT
HETATM    1  N1  UNL     1       9.488  57.075  56.114  1.00  0.00    -0.171 NA
HETATM    2  C1  UNL     1      10.177  56.566  55.312  1.00  0.00     0.196 C
HETATM    3  N2  UNL     1      10.979  55.953  54.344  1.00  0.00    -0.125 N
ATOM      4  H2  UNL     1      10.561  55.274  53.708  1.00  0.00     0.197 HD
ENDROOT
BRANCH   3   5
HETATM    5  C2  UNL     1      12.213  56.221  54.238  1.00  0.00     0.707 A
HETATM    6  N3  UNL     1      12.928  55.889  53.125  1.00  0.00    -0.175 N
HETATM    7  C3  UNL     1      14.231  56.180  53.031  1.00  0.00     0.170 A
ATOM      8  H3  UNL     1      12.462  55.412  52.353  1.00  0.00     0.185 HD
HETATM    9  N6  UNL     1      14.835  56.814  54.064  1.00  0.00    -0.176 N
HETATM   10  C5  UNL     1      14.141  57.147  55.166  1.00  0.00     0.691 A
ATOM     11  H6  UNL     1      15.827  57.043  54.005  1.00  0.00     0.185 HD
HETATM   12  N8  UNL     1      12.837  56.848  55.244  1.00  0.00    -0.022 N
ATOM     13  H8  UNL     1      12.312  57.102  56.081  1.00  0.00     0.203 HD
BRANCH   7  14
HETATM   14  C4  UNL     1      15.006  55.828  51.845  1.00  0.00     0.445 C
BRANCH  14  15
HETATM   15  N4  UNL     1      16.450  55.874  52.129  1.00  0.00    -0.043 N
ATOM     16  H43 UNL     1      16.652  56.419  52.968  1.00  0.00     0.277 HD
ATOM     17  H42 UNL     1      16.800  54.970  52.444  1.00  0.00     0.277 HD
ATOM     18  H41 UNL     1      16.968  56.219  51.321  1.00  0.00     0.277 HD
ENDBRANCH  14  15
BRANCH  14  19
HETATM   19  N5  UNL     1      14.784  56.685  50.719  1.00  0.00    -0.043 N
ATOM     20  H53 UNL     1      14.448  57.597  51.027  1.00  0.00     0.277 HD
ATOM     21  H52 UNL     1      15.672  56.959  50.299  1.00  0.00     0.277 HD
ATOM     22  H51 UNL     1      14.160  56.296  50.011  1.00  0.00     0.277 HD
ENDBRANCH  14  19
ENDBRANCH   7  14
BRANCH  10  23
HETATM   23  N7  UNL     1      14.727  57.746  56.134  1.00  0.00    -0.234 N
ATOM     24  H72 UNL     1      15.336  58.545  55.954  1.00  0.00     0.174 HD
ATOM     25  H71 UNL     1      14.586  57.425  57.092  1.00  0.00     0.174 HD
ENDBRANCH  10  23
ENDBRANCH   3   5
TORSDOF 5
ENDMDL