MODEL 3
REMARK VINA RESULT: -6.783351377      2.749      5.439
REMARK  1 active torsions:
REMARK  status: ('A' for Active; 'I' for Inactive)
REMARK    1  A    between atoms: N3_8  and  C3_10
ROOT
HETATM    1  O1  UNL     1      10.339  57.130  56.032  1.00  0.00    -0.244 OA
HETATM    2  C1  UNL     1      11.284  56.807  55.269  1.00  0.00     0.354 A
HETATM    3  N1  UNL     1      11.055  55.976  54.142  1.00  0.00    -0.236 N
ATOM      4  H1  UNL     1      10.109  55.642  53.957  1.00  0.00     0.192 HD
HETATM    5  N2  UNL     1      12.077  55.608  53.288  1.00  0.00    -0.126 N
ATOM      6  H2  UNL     1      11.874  55.009  52.488  1.00  0.00     0.206 HD
HETATM    7  C2  UNL     1      13.431  56.062  53.518  1.00  0.00     0.726 A
HETATM    8  N3  UNL     1      14.298  55.679  52.691  1.00  0.00    -0.017 N
ATOM      9  H3  UNL     1      13.923  55.084  51.952  1.00  0.00     0.203 HD
HETATM   10  N8  UNL     1      13.664  56.889  54.636  1.00  0.00    -0.126 N
ATOM     11  H8  UNL     1      14.607  57.227  54.825  1.00  0.00     0.206 HD
HETATM   12  N9  UNL     1      12.610  57.253  55.493  1.00  0.00    -0.236 N
ATOM     13  H9  UNL     1      12.805  57.852  56.296  1.00  0.00     0.192 HD
ENDROOT
BRANCH   8  14
HETATM   14  C3  UNL     1      15.663  55.903  52.585  1.00  0.00     0.725 A
HETATM   15  N4  UNL     1      16.493  56.524  53.435  1.00  0.00    -0.113 N
HETATM   16  N5  UNL     1      17.731  56.534  52.972  1.00  0.00     0.009 NA
ATOM     17  H4  UNL     1      16.206  56.934  54.324  1.00  0.00     0.203 HD
HETATM   18  N6  UNL     1      17.723  55.907  51.791  1.00  0.00    -0.212 N
HETATM   19  N7  UNL     1      16.486  55.527  51.553  1.00  0.00    -0.117 N
ATOM     20  H6  UNL     1      18.529  55.753  51.184  1.00  0.00     0.206 HD
ATOM     21  H7  UNL     1      16.183  55.025  50.720  1.00  0.00     0.207 HD
ENDBRANCH   8  14
TORSDOF 1
ENDMDL