MODEL 1
REMARK VINA RESULT: -6.601352558      0.000      0.000
REMARK  2 active torsions:
REMARK  status: ('A' for Active; 'I' for Inactive)
REMARK    1  A    between atoms: N1_1  and  C1_4
REMARK    2  A    between atoms: C2_7  and  N3_8
REMARK       I    between atoms: N4_11  and  C3_12
ROOT
HETATM    1  C1  UNL     1      16.130  56.100  52.767  1.00  0.00     0.694 A
HETATM    2  N2  UNL     1      15.909  56.472  54.021  1.00  0.00    -0.022 N
ATOM      3  H2  UNL     1      16.708  56.599  54.643  1.00  0.00     0.203 HD
HETATM    4  C2  UNL     1      14.634  56.695  54.519  1.00  0.00     0.705 A
HETATM    5  N4  UNL     1      13.569  56.537  53.728  1.00  0.00    -0.045 N
HETATM    6  C3  UNL     1      12.221  56.725  54.087  1.00  0.00     0.357 C
HETATM    7  N5  UNL     1      11.792  57.117  55.368  1.00  0.00    -0.039 NA
HETATM    8  O1  UNL     1      11.278  56.543  53.238  1.00  0.00    -0.249 OA
HETATM    9  C4  UNL     1      13.829  56.154  52.438  1.00  0.00     0.363 A
HETATM   10  O2  UNL     1      12.811  56.004  51.683  1.00  0.00    -0.245 OA
HETATM   11  N6  UNL     1      15.066  55.941  51.967  1.00  0.00    -0.140 N
ATOM     12  H6  UNL     1      15.198  55.656  50.997  1.00  0.00     0.189 HD
ENDROOT
BRANCH   1  13
HETATM   13  N1  UNL     1      17.347  55.895  52.319  1.00  0.00    -0.234 N
ATOM     14  H12 UNL     1      18.155  55.993  52.934  1.00  0.00     0.174 HD
ATOM     15  H11 UNL     1      17.519  55.633  51.348  1.00  0.00     0.174 HD
ENDBRANCH   1  13
BRANCH   4  16
HETATM   16  N3  UNL     1      14.537  57.042  55.718  1.00  0.00    -0.233 N
ATOM     17  H32 UNL     1      15.070  57.818  56.109  1.00  0.00     0.174 HD
ATOM     18  H31 UNL     1      13.893  56.514  56.308  1.00  0.00     0.174 HD
ENDBRANCH   4  16
TORSDOF 2
ENDMDL