MODEL 1
REMARK VINA RESULT: -6.812852639      0.000      0.000
REMARK  5 active torsions:
REMARK  status: ('A' for Active; 'I' for Inactive)
REMARK    1  A    between atoms: N1_1  and  N2_4
REMARK    2  A    between atoms: N2_4  and  C1_6
REMARK    3  A    between atoms: C2_11  and  C3_12
REMARK       I    between atoms: C3_12  and  N5_14
REMARK    4  A    between atoms: N5_14  and  O2_16
REMARK    5  A    between atoms: O2_16  and  N6_17
ROOT
HETATM    1  C1  UNL     1      15.789  56.152  52.378  1.00  0.00     0.712 A
HETATM    2  N3  UNL     1      15.181  56.424  51.180  1.00  0.00    -0.129 N
ATOM      3  H3  UNL     1      15.622  56.424  50.260  1.00  0.00     0.205 HD
HETATM    4  N4  UNL     1      13.935  56.681  51.443  1.00  0.00    -0.266 N
ATOM      5  H4  UNL     1      13.237  56.918  50.738  1.00  0.00     0.189 HD
HETATM    6  C2  UNL     1      13.680  56.594  52.759  1.00  0.00     0.206 A
HETATM    7  N7  UNL     1      14.870  56.258  53.328  1.00  0.00    -0.167 N
ATOM      8  H7  UNL     1      15.029  56.111  54.324  1.00  0.00     0.186 HD
ENDROOT
BRANCH   6   9
HETATM    9  C3  UNL     1      12.415  56.805  53.462  1.00  0.00     0.312 C
HETATM   10  O1  UNL     1      11.378  57.065  52.819  1.00  0.00    -0.262 OA
HETATM   11  N5  UNL     1      12.353  56.721  54.876  1.00  0.00    -0.203 N
ATOM     12  H5  UNL     1      13.189  56.501  55.417  1.00  0.00     0.200 HD
BRANCH  11  13
HETATM   13  O2  UNL     1      11.192  56.931  55.487  1.00  0.00    -0.161 OA
BRANCH  13  14
HETATM   14  N6  UNL     1      10.276  55.985  55.384  1.00  0.00    -0.286 N
ATOM     15  H62 UNL     1       9.300  56.184  55.601  1.00  0.00     0.186 HD
ATOM     16  H61 UNL     1      10.590  55.064  55.080  1.00  0.00     0.186 HD
ENDBRANCH  13  14
ENDBRANCH  11  13
ENDBRANCH   6   9
BRANCH   1  17
HETATM   17  N2  UNL     1      17.024  55.888  52.406  1.00  0.00    -0.137 N
ATOM     18  H2  UNL     1      17.361  55.085  51.876  1.00  0.00     0.205 HD
BRANCH  17  19
HETATM   19  N1  UNL     1      17.933  56.630  53.116  1.00  0.00    -0.331 N
ATOM     20  H12 UNL     1      17.745  57.627  53.222  1.00  0.00     0.177 HD
ATOM     21  H11 UNL     1      18.773  56.231  53.534  1.00  0.00     0.177 HD
ENDBRANCH  17  19
ENDBRANCH   1  17
TORSDOF 5
ENDMDL