MODEL 4
REMARK VINA RESULT: -4.972824928      1.265      2.672
REMARK  3 active torsions:
REMARK  status: ('A' for Active; 'I' for Inactive)
REMARK    1  A    between atoms: N1_2  and  C2_4
REMARK    2  A    between atoms: C4_13  and  N6_14
REMARK    3  A    between atoms: N6_14  and  N7_16
ROOT
HETATM    1  N7  UNL     1      12.493  55.748  52.636  1.00  0.00    -0.235 N
ATOM      2  H7  UNL     1      11.663  55.220  52.365  1.00  0.00     0.199 HD
HETATM    3  C5  UNL     1      12.453  57.155  52.541  1.00  0.00     0.197 C
HETATM    4  N8  UNL     1      12.419  58.317  52.467  1.00  0.00    -0.170 NA
ENDROOT
BRANCH   1   5
HETATM    5  N6  UNL     1      13.596  55.055  53.078  1.00  0.00    -0.273 N
ATOM      6  H6  UNL     1      13.457  54.083  53.353  1.00  0.00     0.189 HD
BRANCH   5   7
HETATM    7  C4  UNL     1      14.780  55.528  53.172  1.00  0.00     0.169 A
HETATM    8  C2  UNL     1      15.227  56.156  54.304  1.00  0.00     0.162 A
HETATM    9  N2  UNL     1      16.499  56.642  54.352  1.00  0.00    -0.280 N
HETATM   10  N3  UNL     1      17.329  56.527  53.327  1.00  0.00    -0.272 N
ATOM     11  H2  UNL     1      16.821  57.108  55.200  1.00  0.00     0.188 HD
HETATM   12  C3  UNL     1      16.888  55.906  52.209  1.00  0.00     0.208 A
ATOM     13  H3  UNL     1      18.278  56.897  53.380  1.00  0.00     0.189 HD
HETATM   14  N4  UNL     1      17.824  55.804  51.122  1.00  0.00    -0.062 NA
HETATM   15  N5  UNL     1      15.648  55.415  52.123  1.00  0.00    -0.311 N
ATOM     16  H5  UNL     1      15.346  54.952  51.265  1.00  0.00     0.170 HD
BRANCH   8  17
HETATM   17  N1  UNL     1      14.443  56.281  55.309  1.00  0.00    -0.377 N
HETATM   18  C1  UNL     1      14.074  57.558  55.864  1.00  0.00     0.148 C
ATOM     19  H1  UNL     1      14.061  55.436  55.735  1.00  0.00     0.160 HD
ENDBRANCH   8  17
ENDBRANCH   5   7
ENDBRANCH   1   5
TORSDOF 3
ENDMDL