REMARK  16 active torsions:
REMARK  status: ('A' for Active; 'I' for Inactive)
REMARK    1  A    between atoms: C2_2  and  N1_3 
REMARK    2  A    between atoms: N1_3  and  C3_5 
REMARK    3  A    between atoms: C3_5  and  N2_7 
REMARK    4  A    between atoms: C4_9  and  C5_10 
REMARK    5  A    between atoms: C5_10  and  C6_11 
REMARK    6  A    between atoms: N3_19  and  C13_20 
REMARK    7  A    between atoms: C13_20  and  C14_21 
REMARK    8  A    between atoms: C14_21  and  C15_22 
REMARK    9  A    between atoms: C15_22  and  C16_23 
REMARK   10  A    between atoms: C16_23  and  C17_24 
REMARK   11  A    between atoms: C17_24  and  C18_25 
REMARK   12  A    between atoms: C18_25  and  N4_26 
REMARK       I    between atoms: N4_26  and  C19_28 
REMARK   13  A    between atoms: N6_30  and  C20_32 
REMARK   14  A    between atoms: C20_32  and  C21_33 
REMARK   15  A    between atoms: C21_33  and  C22_34 
REMARK   16  A    between atoms: C22_34  and  N7_35 
ROOT
HETATM    1  C6  UNL     1       4.873  -0.424   0.019  1.00  0.00    -0.052 A 
HETATM    2  C7  UNL     1       5.025  -1.270  -1.059  1.00  0.00     0.008 A 
HETATM    3  C8  UNL     1       3.959  -1.922  -1.638  1.00  0.00     0.018 A 
HETATM    4  C9  UNL     1       2.661  -1.746  -1.144  1.00  0.00     0.048 A 
HETATM    5  C10 UNL     1       2.522  -0.903  -0.072  1.00  0.00     0.048 A 
HETATM    6  C11 UNL     1       3.597  -0.247   0.510  1.00  0.00     0.025 A 
HETATM    7  C12 UNL     1       1.064  -0.903   0.232  1.00  0.00     0.262 A 
HETATM    8  O1  UNL     1       0.619  -0.217   1.179  1.00  0.00    -0.267 OA
HETATM    9  N3  UNL     1       0.406  -1.735  -0.661  1.00  0.00    -0.276 N 
HETATM   10  C23 UNL     1       1.388  -2.302  -1.566  1.00  0.00     0.262 A 
HETATM   11  O2  UNL     1       1.156  -3.111  -2.520  1.00  0.00    -0.267 OA
ENDROOT
BRANCH   9  12
HETATM   12  C13 UNL     1      -1.010  -2.058  -0.807  1.00  0.00     0.163 C 
BRANCH  12  13
HETATM   13  C14 UNL     1      -1.702  -1.191  -1.773  1.00  0.00    -0.007 C 
BRANCH  13  14
HETATM   14  C15 UNL     1      -1.919   0.224  -1.533  1.00  0.00    -0.006 C 
BRANCH  14  15
HETATM   15  C16 UNL     1      -2.910   0.731  -0.564  1.00  0.00    -0.022 C 
BRANCH  15  16
HETATM   16  C17 UNL     1      -2.896   0.420   0.850  1.00  0.00     0.071 C 
BRANCH  16  17
HETATM   17  C18 UNL     1      -3.973   1.140   1.628  1.00  0.00     0.067 C 
BRANCH  17  18
HETATM   18  N4  UNL     1      -5.311   0.900   1.299  1.00  0.00    -0.344 N 
HETATM   19  C19 UNL     1      -6.061   1.305   0.170  1.00  0.00     0.187 C 
HETATM   20  N5  UNL     1      -5.972   2.607  -0.364  1.00  0.00    -0.064 NA
HETATM   21  N6  UNL     1      -6.890   0.499  -0.433  1.00  0.00    -0.364 N 
ATOM     22  H6  UNL     1      -7.404   0.848  -1.242  1.00  0.00     0.162 HD
ATOM     23  H4  UNL     1      -5.828   0.345   1.981  1.00  0.00     0.167 HD
BRANCH  21  24
HETATM   24  C20 UNL     1      -7.113  -0.848  -0.015  1.00  0.00     0.124 C 
BRANCH  24  25
HETATM   25  C21 UNL     1      -8.358  -1.020   0.833  1.00  0.00     0.047 C 
BRANCH  25  26
HETATM   26  C22 UNL     1      -9.579  -0.587   0.053  1.00  0.00     0.231 C 
BRANCH  26  27
HETATM   27  N7  UNL     1     -10.790  -0.734   0.814  1.00  0.00    -0.079 N 
ATOM     28  H73 UNL     1     -10.894  -1.687   1.162  1.00  0.00     0.274 HD
ATOM     29  H72 UNL     1     -10.728  -0.242   1.705  1.00  0.00     0.274 HD
ATOM     30  H71 UNL     1     -11.614  -0.442   0.288  1.00  0.00     0.274 HD
ENDBRANCH  26  27
ENDBRANCH  25  26
ENDBRANCH  24  25
ENDBRANCH  21  24
ENDBRANCH  17  18
ENDBRANCH  16  17
ENDBRANCH  15  16
ENDBRANCH  14  15
ENDBRANCH  13  14
ENDBRANCH  12  13
ENDBRANCH   9  12
BRANCH   1  31
HETATM   31  C5  UNL     1       6.049   0.282   0.627  1.00  0.00     0.083 C 
BRANCH  31  32
HETATM   32  C4  UNL     1       6.687  -0.526   1.685  1.00  0.00     0.068 C 
HETATM   33  N2  UNL     1       7.860  -0.262   2.128  1.00  0.00    -0.347 N 
ATOM     34  H2  UNL     1       8.245  -0.858   2.861  1.00  0.00     0.167 HD
BRANCH  33  35
HETATM   35  C3  UNL     1       8.643   0.802   1.660  1.00  0.00     0.171 C 
HETATM   36  S1  UNL     1       8.860   2.109   2.604  1.00  0.00    -0.041 SA
BRANCH  35  37
HETATM   37  N1  UNL     1       9.255   0.772   0.382  1.00  0.00    -0.367 N 
ATOM     38  H1  UNL     1       9.113  -0.053  -0.201  1.00  0.00     0.161 HD
BRANCH  37  39
HETATM   39  C2  UNL     1      10.063   1.839  -0.136  1.00  0.00     0.117 C 
HETATM   40  C1  UNL     1      11.376   2.008   0.596  1.00  0.00     0.026 C 
ENDBRANCH  37  39
ENDBRANCH  35  37
ENDBRANCH  33  35
ENDBRANCH  31  32
ENDBRANCH   1  31
TORSDOF 16
