REMARK  3 active torsions:
REMARK  status: ('A' for Active; 'I' for Inactive)
REMARK    1  A    between atoms: C2_2  and  C3_3 
REMARK    2  A    between atoms: C3_3  and  C4_4 
REMARK    3  A    between atoms: C4_4  and  C6_6 
ROOT
HETATM    1  C6  UNL     1      -0.190  -0.638  -0.388  1.00  0.00     0.026 C 
HETATM    2  C7  UNL     1      -1.032   0.660  -0.331  1.00  0.00     0.010 C 
HETATM    3  C8  UNL     1      -2.287   0.007  -0.973  1.00  0.00     0.001 C 
HETATM    4  C9  UNL     1      -2.477  -1.151   0.035  1.00  0.00     0.001 C 
HETATM    5  C10 UNL     1      -1.030  -1.495   0.501  1.00  0.00     0.010 C 
ENDROOT
BRANCH   1   6
HETATM    6  C4  UNL     1       1.173  -0.298   0.249  1.00  0.00    -0.018 C 
HETATM    7  C5  UNL     1       1.322  -0.988   1.441  1.00  0.00     0.028 C 
BRANCH   6   8
HETATM    8  C3  UNL     1       1.910   0.599  -0.109  1.00  0.00    -0.122 C 
BRANCH   8   9
HETATM    9  C2  UNL     1       2.752   1.625  -0.519  1.00  0.00     0.046 C 
HETATM   10  C1  UNL     1       3.355   2.691   0.013  1.00  0.00     0.020 C 
ENDBRANCH   8   9
ENDBRANCH   6   8
ENDBRANCH   1   6
TORSDOF 3
