REMARK  15 active torsions:
REMARK  status: ('A' for Active; 'I' for Inactive)
REMARK    1  A    between atoms: N1_1  and  C1_5 
REMARK    2  A    between atoms: C1_5  and  C2_6 
REMARK    3  A    between atoms: C2_6  and  C3_7 
REMARK    4  A    between atoms: C3_7  and  C4_8 
REMARK    5  A    between atoms: C4_8  and  C5_9 
REMARK    6  A    between atoms: C5_9  and  C6_10 
REMARK    7  A    between atoms: C6_10  and  C7_11 
REMARK    8  A    between atoms: C7_11  and  C8_12 
REMARK    9  A    between atoms: C8_12  and  C9_13 
REMARK   10  A    between atoms: C9_13  and  C10_14 
REMARK   11  A    between atoms: C10_14  and  C11_15 
REMARK   12  A    between atoms: C11_15  and  C12_16 
REMARK   13  A    between atoms: C12_16  and  C13_17 
REMARK   14  A    between atoms: C13_17  and  C14_18 
REMARK   15  A    between atoms: C14_18  and  C15_19 
ROOT
HETATM    1  C9  UNL     1       0.507   0.843   0.761  1.00  0.00    -0.040 C 
HETATM    2  C18 UNL     1       0.330   1.036  -0.674  1.00  0.00     0.009 C 
HETATM    3  C19 UNL     1       1.122   2.331  -1.015  1.00  0.00     0.001 C 
HETATM    4  C20 UNL     1       0.950   3.175   0.201  1.00  0.00     0.001 C 
HETATM    5  C21 UNL     1       0.857   2.225   1.336  1.00  0.00     0.009 C 
ENDROOT
BRANCH   1   6
HETATM    6  C8  UNL     1      -0.891   0.605   1.412  1.00  0.00     0.009 C 
BRANCH   6   7
HETATM    7  C7  UNL     1      -1.471  -0.716   1.215  1.00  0.00     0.001 C 
BRANCH   7   8
HETATM    8  C6  UNL     1      -1.866  -1.238  -0.093  1.00  0.00     0.000 C 
BRANCH   8   9
HETATM    9  C5  UNL     1      -2.980  -0.581  -0.822  1.00  0.00     0.000 C 
BRANCH   9  10
HETATM   10  C4  UNL     1      -4.291  -0.642   0.002  1.00  0.00     0.000 C 
BRANCH  10  11
HETATM   11  C3  UNL     1      -5.349   0.041  -0.814  1.00  0.00     0.002 C 
BRANCH  11  12
HETATM   12  C2  UNL     1      -6.699   0.157  -0.218  1.00  0.00     0.027 C 
BRANCH  12  13
HETATM   13  C1  UNL     1      -7.363  -1.135   0.102  1.00  0.00     0.229 C 
BRANCH  13  14
HETATM   14  N1  UNL     1      -6.694  -1.944   1.079  1.00  0.00    -0.079 N 
ATOM     15  H13 UNL     1      -5.728  -2.108   0.796  1.00  0.00     0.274 HD
ATOM     16  H12 UNL     1      -6.542  -1.407   1.933  1.00  0.00     0.274 HD
ATOM     17  H11 UNL     1      -7.149  -2.830   1.298  1.00  0.00     0.274 HD
ENDBRANCH  13  14
ENDBRANCH  12  13
ENDBRANCH  11  12
ENDBRANCH  10  11
ENDBRANCH   9  10
ENDBRANCH   8   9
ENDBRANCH   7   8
ENDBRANCH   6   7
ENDBRANCH   1   6
BRANCH   1  18
HETATM   18  C10 UNL     1       1.444  -0.153   1.275  1.00  0.00     0.009 C 
BRANCH  18  19
HETATM   19  C11 UNL     1       2.849  -0.300   0.921  1.00  0.00     0.001 C 
BRANCH  19  20
HETATM   20  C12 UNL     1       3.834   0.759   1.237  1.00  0.00     0.000 C 
BRANCH  20  21
HETATM   21  C13 UNL     1       5.264   0.518   0.935  1.00  0.00     0.000 C 
BRANCH  21  22
HETATM   22  C14 UNL     1       5.731   0.274  -0.433  1.00  0.00     0.004 C 
BRANCH  22  23
HETATM   23  C15 UNL     1       5.271  -0.930  -1.165  1.00  0.00    -0.014 A 
HETATM   24  C16 UNL     1       5.530  -2.301  -0.673  1.00  0.00     0.005 A 
HETATM   25  C17 UNL     1       6.403  -1.805  -1.751  1.00  0.00     0.005 A 
ENDBRANCH  22  23
ENDBRANCH  21  22
ENDBRANCH  20  21
ENDBRANCH  19  20
ENDBRANCH  18  19
ENDBRANCH   1  18
TORSDOF 15
