REMARK  15 active torsions:
REMARK  status: ('A' for Active; 'I' for Inactive)
REMARK    1  A    between atoms: N1_1  and  C1_4 
REMARK    2  A    between atoms: C2_7  and  O1_8 
REMARK    3  A    between atoms: O1_8  and  C3_9 
REMARK    4  A    between atoms: C3_9  and  O2_10 
REMARK    5  A    between atoms: C3_9  and  C4_12 
REMARK    6  A    between atoms: C3_9  and  C14_39 
REMARK    7  A    between atoms: C6_14  and  O3_15 
REMARK    8  A    between atoms: C7_17  and  O4_18 
REMARK    9  A    between atoms: C8_20  and  C9_21 
REMARK   10  A    between atoms: C10_26  and  C11_27 
REMARK   11  A    between atoms: C11_27  and  C12_28 
REMARK   12  A    between atoms: C12_28  and  N5_29 
REMARK   13  A    between atoms: C12_28  and  C13_33 
REMARK   14  A    between atoms: C15_49  and  N12_50 
REMARK   15  A    between atoms: N13_53  and  N14_54 
ROOT
HETATM    1  C3  UNL     1      -2.073  -0.255   0.185  1.00  0.00     0.277 C 
ENDROOT
BRANCH   1   2
HETATM    2  O1  UNL     1      -2.870   0.585  -0.624  1.00  0.00    -0.269 OA
BRANCH   2   3
HETATM    3  C2  UNL     1      -4.141   0.991  -0.298  1.00  0.00     0.256 A 
HETATM    4  N2  UNL     1      -4.794   0.649   0.825  1.00  0.00    -0.152 N 
HETATM    5  C1  UNL     1      -6.035   1.080   1.083  1.00  0.00     0.715 A 
ATOM      6  H2  UNL     1      -4.330   0.043   1.502  1.00  0.00     0.188 HD
HETATM    7  N13 UNL     1      -6.668   1.880   0.210  1.00  0.00     0.083 N 
HETATM    8  C15 UNL     1      -6.036   2.230  -0.911  1.00  0.00     0.715 A 
HETATM    9  N11 UNL     1      -4.790   1.792  -1.161  1.00  0.00    -0.152 N 
ATOM     10  H11 UNL     1      -4.326   2.074  -2.025  1.00  0.00     0.188 HD
BRANCH   5  11
HETATM   11  N1  UNL     1      -6.650   0.734   2.180  1.00  0.00    -0.232 N 
ATOM     12  H12 UNL     1      -6.169   0.126   2.843  1.00  0.00     0.174 HD
ATOM     13  H11 UNL     1      -7.595   1.062   2.377  1.00  0.00     0.174 HD
ENDBRANCH   5  11
BRANCH   7  14
HETATM   14  N14 UNL     1      -7.958   2.307   0.516  1.00  0.00    -0.309 N 
ATOM     15 2H14 UNL     1      -8.441   2.039   1.373  1.00  0.00     0.178 HD
ATOM     16 1H14 UNL     1      -8.439   2.915  -0.147  1.00  0.00     0.178 HD
ENDBRANCH   7  14
BRANCH   8  17
HETATM   17  N12 UNL     1      -6.667   3.004  -1.743  1.00  0.00    -0.232 N 
ATOM     18 2H12 UNL     1      -6.184   3.272  -2.600  1.00  0.00     0.174 HD
ATOM     19 1H12 UNL     1      -7.612   3.336  -1.553  1.00  0.00     0.174 HD
ENDBRANCH   8  17
ENDBRANCH   2   3
ENDBRANCH   1   2
BRANCH   1  20
HETATM   20  O2  UNL     1      -1.823   0.286   1.440  1.00  0.00    -0.354 OA
ATOM     21  H2  UNL     1      -1.287  -0.279   1.984  1.00  0.00     0.214 HD
ENDBRANCH   1  20
BRANCH   1  22
HETATM   22  C4  UNL     1      -0.813  -0.502  -0.564  1.00  0.00     0.084 A 
HETATM   23  C5  UNL     1      -0.908  -0.935  -1.873  1.00  0.00     0.070 A 
HETATM   24  C6  UNL     1       0.202  -1.193  -2.649  1.00  0.00     0.103 A 
HETATM   25  C7  UNL     1       1.441  -1.009  -2.088  1.00  0.00     0.130 A 
HETATM   26  C8  UNL     1       1.520  -0.574  -0.772  1.00  0.00     0.122 A 
HETATM   27  N6  UNL     1       0.411  -0.339  -0.064  1.00  0.00    -0.349 N 
ATOM     28  H6  UNL     1       0.506  -0.021   0.901  1.00  0.00     0.166 HD
BRANCH  24  29
HETATM   29  O3  UNL     1       0.116  -1.625  -3.955  1.00  0.00    -0.358 OA
ATOM     30  H3  UNL     1       0.881  -1.803  -4.490  1.00  0.00     0.217 HD
ENDBRANCH  24  29
BRANCH  25  31
HETATM   31  O4  UNL     1       2.639  -1.232  -2.759  1.00  0.00    -0.356 OA
ATOM     32  H4  UNL     1       3.497  -1.105  -2.371  1.00  0.00     0.218 HD
ENDBRANCH  25  31
BRANCH  26  33
HETATM   33  C9  UNL     1       2.854  -0.377  -0.159  1.00  0.00     0.194 A 
HETATM   34  N3  UNL     1       3.048   0.037   1.103  1.00  0.00    -0.276 N 
HETATM   35  N4  UNL     1       4.367   0.098   1.302  1.00  0.00    -0.281 N 
ATOM     36  H3  UNL     1       2.323   0.263   1.784  1.00  0.00     0.189 HD
HETATM   37  C10 UNL     1       4.987  -0.282   0.148  1.00  0.00     0.143 A 
ATOM     38  H4  UNL     1       4.830   0.380   2.166  1.00  0.00     0.189 HD
HETATM   39  O7  UNL     1       4.018  -0.553  -0.686  1.00  0.00    -0.276 OA
BRANCH  37  40
HETATM   40  C11 UNL     1       6.456  -0.354  -0.059  1.00  0.00     0.130 C 
BRANCH  40  41
HETATM   41  C12 UNL     1       7.164   0.055   1.214  1.00  0.00     0.290 C 
BRANCH  41  42
HETATM   42  N5  UNL     1       6.755   1.417   1.513  1.00  0.00    -0.065 N 
ATOM     43  H53 UNL     1       6.918   2.062   0.740  1.00  0.00     0.275 HD
ATOM     44  H52 UNL     1       5.742   1.528   1.565  1.00  0.00     0.275 HD
ATOM     45  H51 UNL     1       7.232   1.693   2.371  1.00  0.00     0.275 HD
ENDBRANCH  41  42
BRANCH  41  46
HETATM   46  C13 UNL     1       8.624  -0.004   0.956  1.00  0.00     0.204 C 
HETATM   47  O5  UNL     1       9.131  -1.120   0.685  1.00  0.00    -0.646 OA
HETATM   48  O6  UNL     1       9.407   1.123   1.010  1.00  0.00    -0.646 OA
ENDBRANCH  41  46
ENDBRANCH  40  41
ENDBRANCH  37  40
ENDBRANCH  26  33
ENDBRANCH   1  22
BRANCH   1  49
HETATM   49  C14 UNL     1      -2.767  -1.570   0.427  1.00  0.00     0.181 A 
HETATM   50  N7  UNL     1      -3.258  -2.396  -0.514  1.00  0.00    -0.266 N 
HETATM   51  N8  UNL     1      -3.805  -3.465   0.039  1.00  0.00    -0.005 NA
ATOM     52  H7  UNL     1      -3.214  -2.221  -1.518  1.00  0.00     0.185 HD
HETATM   53  N9  UNL     1      -3.659  -3.314   1.344  1.00  0.00    -0.225 N 
HETATM   54  N10 UNL     1      -3.035  -2.178   1.593  1.00  0.00    -0.270 N 
ATOM     55  H9  UNL     1      -3.980  -3.975   2.051  1.00  0.00     0.205 HD
ATOM     56  H10 UNL     1      -2.796  -1.821   2.518  1.00  0.00     0.189 HD
ENDBRANCH   1  49
TORSDOF 15
