REMARK  1 active torsions:
REMARK  status: ('A' for Active; 'I' for Inactive)
REMARK    1  A    between atoms: C2_2  and  C4_4 
ROOT
HETATM    1  C4  UNL     1      -0.643   0.151   0.604  1.00  0.00     0.013 A 
HETATM    2  C5  UNL     1      -1.691   0.374  -0.481  1.00  0.00     0.010 A 
HETATM    3  C6  UNL     1      -1.558  -0.925   0.264  1.00  0.00     0.010 A 
ENDROOT
BRANCH   1   4
HETATM    4  C2  UNL     1       0.747   0.234   0.096  1.00  0.00    -0.089 C 
HETATM    5  C1  UNL     1       1.069   1.300  -0.619  1.00  0.00     0.014 C 
HETATM    6  C3  UNL     1       1.780  -0.791   0.337  1.00  0.00     0.043 C 
ENDBRANCH   1   4
TORSDOF 1
