REMARK  10 active torsions:
REMARK  status: ('A' for Active; 'I' for Inactive)
REMARK    1  A    between atoms: O1_2  and  C2_3 
REMARK    2  A    between atoms: C2_3  and  C3_4 
REMARK    3  A    between atoms: C3_4  and  C4_5 
REMARK    4  A    between atoms: C4_5  and  O2_6 
REMARK    5  A    between atoms: C4_5  and  C5_8 
REMARK    6  A    between atoms: C5_8  and  N1_9 
REMARK    7  A    between atoms: N1_9  and  C6_11 
REMARK    8  A    between atoms: C6_11  and  C8_13 
REMARK    9  A    between atoms: C8_13  and  C9_14 
REMARK   10  A    between atoms: C9_14  and  C10_15 
ROOT
HETATM    1  N1  UNL     1       0.905  -1.134   0.148  1.00  0.00    -0.415 N 
ATOM      2  H1  UNL     1       0.309  -1.263  -0.670  1.00  0.00     0.153 HD
ENDROOT
BRANCH   1   3
HETATM    3  C5  UNL     1       2.132  -1.832   0.303  1.00  0.00     0.145 C 
BRANCH   3   4
HETATM    4  C4  UNL     1       3.374  -0.996   0.231  1.00  0.00     0.137 C 
BRANCH   4   5
HETATM    5  C3  UNL     1       3.582  -0.421  -1.166  1.00  0.00     0.059 C 
BRANCH   5   6
HETATM    6  C2  UNL     1       4.910   0.294  -1.207  1.00  0.00     0.169 C 
BRANCH   6   7
HETATM    7  O1  UNL     1       4.969   1.334  -0.287  1.00  0.00    -0.396 OA
HETATM    8  C1  UNL     1       6.182   1.989  -0.319  1.00  0.00     0.201 C 
ENDBRANCH   6   7
ENDBRANCH   5   6
ENDBRANCH   4   5
BRANCH   4   9
HETATM    9  O2  UNL     1       4.464  -1.879   0.411  1.00  0.00    -0.394 OA
ATOM     10  H2  UNL     1       4.334  -2.237   1.281  1.00  0.00     0.210 HD
ENDBRANCH   4   9
ENDBRANCH   3   4
ENDBRANCH   1   3
BRANCH   1  11
HETATM   11  C6  UNL     1       0.556  -0.244   1.203  1.00  0.00     0.072 C 
HETATM   12  C7  UNL     1       0.355  -0.925   2.536  1.00  0.00     0.031 C 
BRANCH  11  13
HETATM   13  C8  UNL     1      -0.739   0.465   0.815  1.00  0.00     0.024 C 
BRANCH  13  14
HETATM   14  C9  UNL     1      -1.859  -0.522   0.601  1.00  0.00     0.006 C 
BRANCH  14  15
HETATM   15  C10 UNL     1      -3.147   0.150   0.221  1.00  0.00    -0.014 C 
HETATM   16  C11 UNL     1      -3.058   0.943  -1.040  1.00  0.00     0.004 C 
HETATM   17  C12 UNL     1      -4.476   1.242  -1.521  1.00  0.00     0.000 C 
HETATM   18  C13 UNL     1      -5.408   1.298  -0.340  1.00  0.00     0.000 C 
HETATM   19  C14 UNL     1      -5.587  -0.094   0.217  1.00  0.00     0.000 C 
HETATM   20  C15 UNL     1      -4.283  -0.841   0.099  1.00  0.00     0.004 C 
ENDBRANCH  14  15
ENDBRANCH  13  14
ENDBRANCH  11  13
ENDBRANCH   1  11
TORSDOF 10
