REMARK  4 active torsions:
REMARK  status: ('A' for Active; 'I' for Inactive)
REMARK    1  A    between atoms: C1_4  and  N2_5 
REMARK    2  A    between atoms: N2_5  and  N3_7 
REMARK    3  A    between atoms: C2_9  and  C3_10 
REMARK    4  A    between atoms: C4_17  and  O1_18 
ROOT
HETATM    1  C3  UNL     1      -1.197   0.719  -0.462  1.00  0.00     0.118 A 
HETATM    2  N4  UNL     1      -1.715   1.836  -0.988  1.00  0.00    -0.281 N 
ATOM      3  H4  UNL     1      -1.203   2.542  -1.517  1.00  0.00     0.188 HD
HETATM    4  N5  UNL     1      -3.003   1.865  -0.704  1.00  0.00    -0.240 N 
ATOM      5  H5  UNL     1      -3.643   2.608  -0.985  1.00  0.00     0.208 HD
HETATM    6  N6  UNL     1      -3.349   0.799  -0.005  1.00  0.00    -0.264 N 
ATOM      7  H6  UNL     1      -4.281   0.575   0.343  1.00  0.00     0.190 HD
HETATM    8  C4  UNL     1      -2.240   0.071   0.158  1.00  0.00     0.186 A 
ENDROOT
BRANCH   1   9
HETATM    9  C2  UNL     1       0.206   0.257  -0.522  1.00  0.00     0.142 C 
HETATM   10  N3  UNL     1       0.575  -0.839   0.027  1.00  0.00    -0.309 N 
ATOM     11  H3  UNL     1      -0.102  -1.419   0.522  1.00  0.00     0.186 HD
BRANCH  10  12
HETATM   12  N2  UNL     1       1.902  -1.232  -0.056  1.00  0.00    -0.297 N 
ATOM     13  H2  UNL     1       2.117  -2.223  -0.169  1.00  0.00     0.187 HD
BRANCH  12  14
HETATM   14  C1  UNL     1       2.966  -0.307   0.011  1.00  0.00     0.190 C 
HETATM   15  N1  UNL     1       4.089  -0.690   0.548  1.00  0.00    -0.394 N 
ATOM     16  H12 UNL     1       4.181  -1.640   0.907  1.00  0.00     0.156 HD
ATOM     17  H11 UNL     1       4.858  -0.022   0.596  1.00  0.00     0.156 HD
ENDBRANCH  12  14
ENDBRANCH  10  12
ENDBRANCH   1   9
BRANCH   8  18
HETATM   18  O1  UNL     1      -2.151  -1.138   0.837  1.00  0.00    -0.343 OA
ATOM     19  H1  UNL     1      -2.871  -1.586   1.265  1.00  0.00     0.219 HD
ENDBRANCH   8  18
TORSDOF 4
