REMARK  11 active torsions:
REMARK  status: ('A' for Active; 'I' for Inactive)
REMARK       I    between atoms: N2_3  and  C2_5 
REMARK       I    between atoms: C2_5  and  N6_15 
REMARK    1  A    between atoms: N3_6  and  C3_8 
REMARK    2  A    between atoms: N6_15  and  N7_17 
REMARK    3  A    between atoms: N8_19  and  C5_21 
REMARK    4  A    between atoms: N11_26  and  C6_27 
REMARK    5  A    between atoms: C7_33  and  N14_34 
REMARK    6  A    between atoms: C8_37  and  C9_38 
REMARK    7  A    between atoms: C9_38  and  O3_39 
REMARK    8  A    between atoms: C9_38  and  C10_41 
REMARK    9  A    between atoms: C10_41  and  O4_42 
REMARK   10  A    between atoms: C10_41  and  N15_44 
REMARK   11  A    between atoms: N15_44  and  O5_45 
ROOT
HETATM    1  N1  UNL     1       5.226   2.108  -2.396  1.00  0.00    -0.171 NA
HETATM    2  C1  UNL     1       4.527   1.201  -2.146  1.00  0.00     0.196 C 
HETATM    3  N2  UNL     1       3.747   0.138  -1.847  1.00  0.00    -0.124 N 
ATOM      4  H2  UNL     1       3.034  -0.076  -2.545  1.00  0.00     0.197 HD
HETATM    5  C2  UNL     1       3.754  -0.644  -0.835  1.00  0.00     0.708 C 
HETATM    6  N3  UNL     1       4.526  -0.689   0.255  1.00  0.00    -0.171 N 
ATOM      7  H3  UNL     1       3.947  -0.966   1.048  1.00  0.00     0.186 HD
HETATM    8  N6  UNL     1       2.604  -1.622  -0.876  1.00  0.00    -0.117 N 
ATOM      9  H6  UNL     1       2.752  -2.621  -1.016  1.00  0.00     0.207 HD
ENDROOT
BRANCH   6  10
HETATM   10  C3  UNL     1       5.687  -0.518   0.659  1.00  0.00     0.160 A 
HETATM   11  C4  UNL     1       6.026  -0.707   2.021  1.00  0.00     0.167 A 
HETATM   12  N4  UNL     1       7.330  -0.460   2.153  1.00  0.00    -0.249 N 
HETATM   13  O1  UNL     1       7.815  -0.141   0.987  1.00  0.00    -0.156 OA
ATOM     14  H4  UNL     1       7.860  -0.512   3.023  1.00  0.00     0.196 HD
HETATM   15  N5  UNL     1       6.850  -0.171   0.095  1.00  0.00    -0.224 N 
ATOM     16  H5  UNL     1       6.971   0.042  -0.895  1.00  0.00     0.198 HD
ENDBRANCH   6  10
BRANCH   8  17
HETATM   17  N7  UNL     1       1.392  -1.110  -0.720  1.00  0.00    -0.227 N 
HETATM   18  N8  UNL     1       0.299  -0.833  -1.053  1.00  0.00    -0.267 N 
ATOM     19  H8  UNL     1      -0.032  -1.087  -1.984  1.00  0.00     0.190 HD
ATOM     20  H7  UNL     1       1.427  -0.751   0.234  1.00  0.00     0.209 HD
BRANCH  18  21
HETATM   21  C5  UNL     1      -0.584  -0.123  -0.128  1.00  0.00     0.169 A 
HETATM   22  N9  UNL     1      -0.029   0.543   0.911  1.00  0.00    -0.267 N 
HETATM   23  N10 UNL     1      -1.014   1.128   1.493  1.00  0.00    -0.232 N 
ATOM     24  H9  UNL     1       0.956   0.574   1.175  1.00  0.00     0.190 HD
HETATM   25  N11 UNL     1      -2.193   0.903   0.911  1.00  0.00    -0.214 N 
ATOM     26  H10 UNL     1      -0.904   1.710   2.323  1.00  0.00     0.209 HD
HETATM   27  C8  UNL     1      -1.926   0.091  -0.128  1.00  0.00     0.139 A 
BRANCH  25  28
HETATM   28  C6  UNL     1      -3.358   1.635   1.281  1.00  0.00     0.196 A 
HETATM   29  N12 UNL     1      -4.647   1.430   1.295  1.00  0.00    -0.220 N 
HETATM   30  O2  UNL     1      -5.277   2.473   1.708  1.00  0.00    -0.153 OA
ATOM     31  H12 UNL     1      -5.096   0.558   1.015  1.00  0.00     0.198 HD
HETATM   32  N13 UNL     1      -4.456   3.417   1.983  1.00  0.00    -0.222 N 
HETATM   33  C7  UNL     1      -3.198   2.986   1.747  1.00  0.00     0.169 A 
ATOM     34  H13 UNL     1      -4.711   4.344   2.325  1.00  0.00     0.198 HD
BRANCH  33  35
HETATM   35  N14 UNL     1      -2.123   3.648   1.894  1.00  0.00    -0.381 N 
ATOM     36 2H14 UNL     1      -1.173   3.322   1.716  1.00  0.00     0.157 HD
ATOM     37 1H14 UNL     1      -2.010   4.606   2.225  1.00  0.00     0.157 HD
ENDBRANCH  33  35
ENDBRANCH  25  28
BRANCH  27  38
HETATM   38  C9  UNL     1      -2.824  -0.440  -1.155  1.00  0.00     0.122 C 
BRANCH  38  39
HETATM   39  O3  UNL     1      -2.286  -0.590  -2.384  1.00  0.00    -0.359 OA
ATOM     40  H3  UNL     1      -2.869  -0.935  -3.050  1.00  0.00     0.217 HD
ENDBRANCH  38  39
BRANCH  38  41
HETATM   41  C10 UNL     1      -3.836  -1.462  -0.712  1.00  0.00     0.297 C 
BRANCH  41  42
HETATM   42  O4  UNL     1      -4.124  -1.430   0.663  1.00  0.00    -0.371 OA
ATOM     43  H4  UNL     1      -4.763  -2.075   0.943  1.00  0.00     0.212 HD
ENDBRANCH  41  42
BRANCH  41  44
HETATM   44  N15 UNL     1      -3.178  -2.827  -0.869  1.00  0.00    -0.064 NA
BRANCH  44  45
HETATM   45  O5  UNL     1      -2.966  -2.965  -2.183  1.00  0.00    -0.293 OA
ATOM     46  H5  UNL     1      -2.556  -3.816  -2.281  1.00  0.00     0.238 HD
ENDBRANCH  44  45
ENDBRANCH  41  44
ENDBRANCH  38  41
ENDBRANCH  27  38
ENDBRANCH  18  21
ENDBRANCH   8  17
TORSDOF 11
