REMARK  5 active torsions:
REMARK  status: ('A' for Active; 'I' for Inactive)
REMARK    1  A    between atoms: C5_11  and  N4_12 
REMARK    2  A    between atoms: N4_12  and  C6_14 
REMARK    3  A    between atoms: C6_14  and  C7_15 
REMARK    4  A    between atoms: C7_15  and  N5_16 
REMARK    5  A    between atoms: C7_15  and  N6_20 
ROOT
HETATM    1  C1  UNL     1      -3.970  -1.930  -0.039  1.00  0.00     0.179 C 
HETATM    2  N1  UNL     1      -3.653  -0.531   0.025  1.00  0.00    -0.280 N 
HETATM    3  N2  UNL     1      -4.529   0.456   0.099  1.00  0.00    -0.307 N 
ATOM      4  H2  UNL     1      -5.542   0.340   0.120  1.00  0.00     0.186 HD
HETATM    5  C2  UNL     1      -3.885   1.635   0.143  1.00  0.00     0.128 A 
HETATM    6  C3  UNL     1      -2.531   1.343   0.093  1.00  0.00     0.095 A 
HETATM    7  C4  UNL     1      -1.377   2.104   0.102  1.00  0.00     0.275 A 
HETATM    8  O1  UNL     1      -1.511   3.349   0.170  1.00  0.00    -0.267 OA
HETATM    9  N3  UNL     1      -0.168   1.506   0.040  1.00  0.00    -0.155 N 
ATOM     10  H3  UNL     1       0.670   2.087   0.049  1.00  0.00     0.187 HD
HETATM   11  C5  UNL     1      -0.031   0.170  -0.033  1.00  0.00     0.682 A 
HETATM   12  N7  UNL     1      -1.166  -0.557  -0.041  1.00  0.00    -0.174 N 
ATOM     13  H7  UNL     1      -1.087  -1.572  -0.096  1.00  0.00     0.186 HD
HETATM   14  C8  UNL     1      -2.393  -0.020   0.019  1.00  0.00     0.154 A 
ENDROOT
BRANCH  11  15
HETATM   15  N4  UNL     1       1.126  -0.378  -0.091  1.00  0.00    -0.222 N 
ATOM     16  H4  UNL     1       1.196  -1.394  -0.145  1.00  0.00     0.177 HD
BRANCH  15  17
HETATM   17  C6  UNL     1       2.320   0.407  -0.082  1.00  0.00     0.200 C 
BRANCH  17  18
HETATM   18  C7  UNL     1       3.550  -0.452   0.092  1.00  0.00     0.396 C 
BRANCH  18  19
HETATM   19  N5  UNL     1       3.666  -1.403  -0.973  1.00  0.00    -0.049 N 
ATOM     20  H53 UNL     1       2.822  -1.968  -1.066  1.00  0.00     0.276 HD
ATOM     21  H52 UNL     1       3.650  -0.949  -1.886  1.00  0.00     0.276 HD
ATOM     22  H51 UNL     1       4.497  -1.983  -0.855  1.00  0.00     0.276 HD
ENDBRANCH  18  19
BRANCH  18  23
HETATM   23  N6  UNL     1       4.756   0.304   0.202  1.00  0.00    -0.049 N 
ATOM     24  H63 UNL     1       4.863   0.933  -0.594  1.00  0.00     0.276 HD
ATOM     25  H62 UNL     1       4.685   0.992   0.952  1.00  0.00     0.276 HD
ATOM     26  H61 UNL     1       5.587  -0.276   0.320  1.00  0.00     0.276 HD
ENDBRANCH  18  23
ENDBRANCH  17  18
ENDBRANCH  15  17
ENDBRANCH  11  15
TORSDOF 5
