REMARK  5 active torsions:
REMARK  status: ('A' for Active; 'I' for Inactive)
REMARK    1  A    between atoms: S1_2  and  N1_5 
REMARK    2  A    between atoms: N1_5  and  C2_7 
REMARK    3  A    between atoms: C2_7  and  N2_9 
REMARK    4  A    between atoms: N2_9  and  N3_11 
REMARK       I    between atoms: N3_11  and  C3_13 
REMARK       I    between atoms: C3_13  and  N4_15 
REMARK    5  A    between atoms: N4_15  and  N5_17 
REMARK       I    between atoms: N5_17  and  C4_19 
ROOT
HETATM    1  N3  UNL     1       0.156   0.546   0.822  1.00  0.00    -0.248 N 
ATOM      2  H3  UNL     1       0.025   0.929   1.758  1.00  0.00     0.192 HD
HETATM    3  C3  UNL     1       1.475   0.288   0.485  1.00  0.00     0.353 C 
HETATM    4  O3  UNL     1       1.945  -0.168  -0.553  1.00  0.00    -0.244 OA
HETATM    5  N4  UNL     1       2.483   0.591   1.512  1.00  0.00    -0.247 N 
ATOM      6  H4  UNL     1       2.185   0.986   2.404  1.00  0.00     0.192 HD
ENDROOT
BRANCH   1   7
HETATM    7  N2  UNL     1      -0.993   0.375   0.117  1.00  0.00    -0.272 N 
ATOM      8  H2  UNL     1      -1.770   0.896   0.524  1.00  0.00     0.189 HD
BRANCH   7   9
HETATM    9  C2  UNL     1      -1.374  -0.319  -1.001  1.00  0.00     0.200 C 
HETATM   10  S2  UNL     1      -0.264  -1.249  -1.806  1.00  0.00    -0.039 SA
BRANCH   9  11
HETATM   11  N1  UNL     1      -2.652  -0.349  -1.557  1.00  0.00    -0.260 N 
ATOM     12  H1  UNL     1      -2.779  -0.914  -2.397  1.00  0.00     0.181 HD
BRANCH  11  13
HETATM   13  S1  UNL     1      -4.012   0.467  -0.965  1.00  0.00     0.228 S 
HETATM   14  C1  UNL     1      -5.193  -0.676  -0.237  1.00  0.00     0.186 C 
HETATM   15  O1  UNL     1      -4.680   1.092  -2.220  1.00  0.00    -0.206 OA
HETATM   16  O2  UNL     1      -3.739   1.608  -0.062  1.00  0.00    -0.206 OA
ENDBRANCH  11  13
ENDBRANCH   9  11
ENDBRANCH   7   9
ENDBRANCH   1   7
BRANCH   5  17
HETATM   17  N5  UNL     1       3.820   0.352   1.294  1.00  0.00    -0.250 N 
HETATM   18  C4  UNL     1       4.544   1.035   0.288  1.00  0.00     0.347 C 
HETATM   19  N6  UNL     1       5.939   0.739   0.118  1.00  0.00    -0.038 NA
HETATM   20  O4  UNL     1       4.010   1.885  -0.456  1.00  0.00    -0.249 OA
ATOM     21  H5  UNL     1       4.302  -0.336   1.873  1.00  0.00     0.191 HD
ENDBRANCH   5  17
TORSDOF 5
