REMARK  7 active torsions:
REMARK  status: ('A' for Active; 'I' for Inactive)
REMARK    1  A    between atoms: C2_2  and  C3_3 
REMARK    2  A    between atoms: C7_7  and  C8_8 
REMARK       I    between atoms: C8_8  and  N1_10 
REMARK    3  A    between atoms: N1_10  and  C9_12 
REMARK    4  A    between atoms: C9_12  and  C10_13 
REMARK    5  A    between atoms: C9_12  and  C14_17 
REMARK    6  A    between atoms: C10_13  and  C11_14 
REMARK       I    between atoms: C14_17  and  N2_19 
REMARK    7  A    between atoms: N2_19  and  C15_21 
ROOT
HETATM    1  C3  UNL     1       5.332   0.706  -1.039  1.00  0.00     0.032 C 
HETATM    2  C4  UNL     1       4.137   1.570  -0.866  1.00  0.00     0.035 C 
HETATM    3  C5  UNL     1       2.845   0.859  -0.630  1.00  0.00     0.087 C 
HETATM    4  C6  UNL     1       2.288   0.895   0.773  1.00  0.00     0.060 C 
HETATM    5  C7  UNL     1       1.880  -0.528   0.458  1.00  0.00     0.178 C 
HETATM    6  N3  UNL     1       2.966  -0.559  -0.508  1.00  0.00    -0.371 N 
HETATM    7  C19 UNL     1       3.948  -1.287  -1.276  1.00  0.00     0.105 C 
HETATM    8  C20 UNL     1       5.076  -0.657  -1.517  1.00  0.00     0.042 C 
HETATM    9  C21 UNL     1       6.054  -1.404  -2.295  1.00  0.00     0.097 C 
HETATM   10  N4  UNL     1       6.818  -2.000  -2.929  1.00  0.00    -0.192 NA
ENDROOT
BRANCH   1  11
HETATM   11  C2  UNL     1       6.122   0.744   0.251  1.00  0.00     0.006 C 
HETATM   12  C1  UNL     1       7.362  -0.084   0.227  1.00  0.00     0.006 C 
ENDBRANCH   1  11
BRANCH   5  13
HETATM   13  C8  UNL     1       0.534  -0.548  -0.158  1.00  0.00     0.241 C 
HETATM   14  O1  UNL     1       0.394  -0.627  -1.399  1.00  0.00    -0.271 OA
HETATM   15  N1  UNL     1      -0.607  -0.477   0.658  1.00  0.00    -0.346 N 
ATOM     16  H1  UNL     1      -0.474  -0.413   1.667  1.00  0.00     0.163 HD
BRANCH  15  17
HETATM   17  C9  UNL     1      -1.964  -0.490   0.144  1.00  0.00     0.177 C 
BRANCH  17  18
HETATM   18  C10 UNL     1      -2.736  -1.640   0.755  1.00  0.00     0.038 C 
BRANCH  18  19
HETATM   19  C11 UNL     1      -2.141  -2.981   0.463  1.00  0.00    -0.020 C 
HETATM   20  C12 UNL     1      -2.069  -3.286  -1.003  1.00  0.00     0.009 C 
HETATM   21  C13 UNL     1      -3.057  -4.021   1.094  1.00  0.00     0.009 C 
ENDBRANCH  18  19
ENDBRANCH  17  18
BRANCH  17  22
HETATM   22  C14 UNL     1      -2.687   0.757   0.531  1.00  0.00     0.241 C 
HETATM   23  O2  UNL     1      -2.085   1.637   1.219  1.00  0.00    -0.271 OA
HETATM   24  N2  UNL     1      -4.024   1.008   0.165  1.00  0.00    -0.351 N 
ATOM     25  H2  UNL     1      -4.509   0.301  -0.388  1.00  0.00     0.163 HD
BRANCH  24  26
HETATM   26  C15 UNL     1      -4.747   2.196   0.522  1.00  0.00     0.022 C 
HETATM   27  C16 UNL     1      -4.825   2.331   2.030  1.00  0.00     0.037 C 
HETATM   28  C17 UNL     1      -4.027   3.441  -0.012  1.00  0.00     0.037 C 
HETATM   29  C18 UNL     1      -6.124   2.204  -0.093  1.00  0.00     0.037 C 
ENDBRANCH  24  26
ENDBRANCH  17  22
ENDBRANCH  15  17
ENDBRANCH   5  13
TORSDOF 7
