REMARK  0 active torsions:
REMARK  status: ('A' for Active; 'I' for Inactive)
ROOT
HETATM    1  C1  UNL     1       1.093  -0.859   1.955  1.00  0.00     0.017 C 
HETATM    2  C2  UNL     1       0.945  -0.546   0.693  1.00  0.00    -0.053 C 
HETATM    3  C3  UNL     1       2.106  -0.863  -0.226  1.00  0.00     0.196 C 
HETATM    4  C4  UNL     1       2.100  -2.275  -0.591  1.00  0.00     0.076 C 
HETATM    5  N1  UNL     1       2.093  -3.396  -0.895  1.00  0.00    -0.196 NA
HETATM    6  C5  UNL     1       1.943   0.028  -1.393  1.00  0.00     0.134 C 
HETATM    7  N2  UNL     1       2.435  -0.331  -2.521  1.00  0.00    -0.382 N 
ATOM      8  H21 UNL     1       2.322   0.284  -3.327  1.00  0.00     0.158 HD
ATOM      9  H22 UNL     1       2.935  -1.212  -2.640  1.00  0.00     0.158 HD
HETATM   10  O1  UNL     1       1.269   1.217  -1.233  1.00  0.00    -0.332 OA
HETATM   11  C6  UNL     1       0.131   1.436  -0.430  1.00  0.00     0.139 C 
HETATM   12  C7  UNL     1       0.421   2.455   0.651  1.00  0.00     0.041 C 
HETATM   13  C8  UNL     1      -0.275   0.087   0.181  1.00  0.00     0.010 C 
HETATM   14  C9  UNL     1      -1.373   0.267   1.182  1.00  0.00     0.017 C 
HETATM   15  C10 UNL     1      -2.660   0.331   0.337  1.00  0.00     0.001 C 
HETATM   16  C11 UNL     1      -2.381  -0.744  -0.673  1.00  0.00     0.001 C 
HETATM   17  C12 UNL     1      -0.921  -0.691  -0.966  1.00  0.00     0.017 C 
ENDROOT
TORSDOF 0
