REMARK  2 active torsions:
REMARK  status: ('A' for Active; 'I' for Inactive)
REMARK    1  A    between atoms: O1_1  and  N1_3 
REMARK    2  A    between atoms: C4_8  and  O2_9 
ROOT
HETATM    1  N1  UNL     1       2.504   2.363  -0.677  1.00  0.00    -0.277 N 
ATOM      2  H1  UNL     1       1.884   3.123  -0.959  1.00  0.00     0.193 HD
HETATM    3  C1  UNL     1       2.030   1.186  -0.489  1.00  0.00     0.011 C 
HETATM    4  C2  UNL     1       2.962   0.109  -0.078  1.00  0.00     0.057 C 
HETATM    5  C3  UNL     1       2.299  -1.187  -0.486  1.00  0.00     0.038 C 
HETATM    6  C4  UNL     1       0.987  -1.339   0.243  1.00  0.00     0.127 C 
HETATM    7  C5  UNL     1       0.020  -0.235  -0.025  1.00  0.00    -0.009 C 
HETATM    8  C6  UNL     1      -1.057  -0.790  -0.932  1.00  0.00     0.012 C 
HETATM    9  C7  UNL     1      -2.234  -1.338  -0.189  1.00  0.00     0.001 C 
HETATM   10  C8  UNL     1      -3.220  -0.241   0.032  1.00  0.00     0.000 C 
HETATM   11  C9  UNL     1      -2.622   1.114   0.201  1.00  0.00     0.000 C 
HETATM   12  C10 UNL     1      -1.588   1.226   1.257  1.00  0.00     0.001 C 
HETATM   13  C11 UNL     1      -0.536   0.209   1.310  1.00  0.00     0.012 C 
HETATM   14  C12 UNL     1       0.602   0.970  -0.688  1.00  0.00     0.066 C 
ENDROOT
BRANCH   6  15
HETATM   15  O2  UNL     1       0.477  -2.583  -0.152  1.00  0.00    -0.395 OA
ATOM     16  H2  UNL     1      -0.349  -2.679   0.307  1.00  0.00     0.210 HD
ENDBRANCH   6  15
BRANCH   1  17
HETATM   17  O1  UNL     1       3.825   2.598  -0.502  1.00  0.00    -0.290 OA
ATOM     18  H1  UNL     1       4.176   3.470  -0.641  1.00  0.00     0.244 HD
ENDBRANCH   1  17
TORSDOF 2
