REMARK  13 active torsions:
REMARK  status: ('A' for Active; 'I' for Inactive)
REMARK    1  A    between atoms: C2_2  and  C4_4 
REMARK    2  A    between atoms: C4_4  and  C5_5 
REMARK    3  A    between atoms: C7_10  and  C8_11 
REMARK    4  A    between atoms: C8_11  and  C9_13 
REMARK    5  A    between atoms: C18_24  and  O2_25 
REMARK    6  A    between atoms: C19_27  and  C20_28 
REMARK    7  A    between atoms: C20_28  and  C21_29 
REMARK    8  A    between atoms: C21_29  and  C22_30 
REMARK    9  A    between atoms: C22_30  and  C23_31 
REMARK   10  A    between atoms: C23_31  and  C24_32 
REMARK   11  A    between atoms: C24_32  and  C25_33 
REMARK   12  A    between atoms: C25_33  and  C26_34 
REMARK   13  A    between atoms: C26_34  and  C27_35 
ROOT
HETATM    1  C5  UNL     1      -1.811   2.331  -0.002  1.00  0.00     0.177 C 
HETATM    2  N1  UNL     1      -1.625   1.885   1.361  1.00  0.00    -0.347 N 
ATOM      3  H1  UNL     1      -1.321   2.576   2.048  1.00  0.00     0.163 HD
HETATM    4  C6  UNL     1      -1.833   0.566   1.809  1.00  0.00     0.224 C 
HETATM    5  O1  UNL     1      -1.250   0.203   2.857  1.00  0.00    -0.273 OA
HETATM    6  C7  UNL     1      -2.703  -0.431   1.120  1.00  0.00     0.099 C 
HETATM    7  C12 UNL     1      -1.909  -1.530   0.498  1.00  0.00     0.022 C 
HETATM    8  C13 UNL     1      -0.682  -2.011   1.224  1.00  0.00     0.007 C 
HETATM    9  C14 UNL     1      -0.389  -3.405   0.715  1.00  0.00     0.001 C 
HETATM   10  C15 UNL     1      -0.681  -3.729  -0.676  1.00  0.00     0.002 C 
HETATM   11  C16 UNL     1      -1.767  -2.967  -1.386  1.00  0.00     0.025 C 
HETATM   12  C17 UNL     1      -1.688  -1.462  -0.950  1.00  0.00     0.088 C 
HETATM   13  N2  UNL     1      -0.571  -0.931  -1.603  1.00  0.00    -0.364 N 
ATOM     14  H2  UNL     1      -0.735  -1.000  -2.607  1.00  0.00     0.162 HD
HETATM   15  C18 UNL     1       0.662  -0.352  -1.419  1.00  0.00     0.159 C 
HETATM   16  C19 UNL     1       1.197   0.992  -1.104  1.00  0.00     0.062 C 
HETATM   17  N3  UNL     1       0.371   2.124  -1.401  1.00  0.00    -0.325 N 
ATOM     18  H3  UNL     1       0.469   2.481  -2.351  1.00  0.00     0.169 HD
HETATM   19  C28 UNL     1      -0.550   2.826  -0.607  1.00  0.00     0.244 C 
HETATM   20  O5  UNL     1      -0.311   4.069  -0.342  1.00  0.00    -0.271 OA
ENDROOT
BRANCH  16  21
HETATM   21  C20 UNL     1       1.900   1.064   0.220  1.00  0.00     0.062 C 
BRANCH  21  22
HETATM   22  C21 UNL     1       3.086   0.217   0.444  1.00  0.00     0.006 C 
BRANCH  22  23
HETATM   23  C22 UNL     1       4.192   0.548  -0.520  1.00  0.00     0.000 C 
BRANCH  23  24
HETATM   24  C23 UNL     1       5.411  -0.352  -0.255  1.00  0.00     0.000 C 
BRANCH  24  25
HETATM   25  C24 UNL     1       5.941  -0.174   1.132  1.00  0.00     0.001 C 
BRANCH  25  26
HETATM   26  C25 UNL     1       7.143  -1.042   1.409  1.00  0.00     0.010 C 
BRANCH  26  27
HETATM   27  C26 UNL     1       8.276  -0.719   0.453  1.00  0.00     0.113 C 
BRANCH  27  28
HETATM   28  C27 UNL     1       9.460  -1.574   0.728  1.00  0.00     0.172 C 
HETATM   29  O3  UNL     1       9.422  -2.419   1.652  1.00  0.00    -0.648 OA
HETATM   30  O4  UNL     1      10.625  -1.470  -0.013  1.00  0.00    -0.648 OA
ENDBRANCH  27  28
ENDBRANCH  26  27
ENDBRANCH  25  26
ENDBRANCH  24  25
ENDBRANCH  23  24
ENDBRANCH  22  23
ENDBRANCH  21  22
ENDBRANCH  16  21
BRANCH  15  31
HETATM   31  O2  UNL     1       1.680  -1.182  -1.553  1.00  0.00    -0.345 OA
ATOM     32  H2  UNL     1       2.532  -0.782  -1.426  1.00  0.00     0.219 HD
ENDBRANCH  15  31
BRANCH   1  33
HETATM   33  C4  UNL     1      -2.851   3.462   0.096  1.00  0.00     0.038 C 
BRANCH  33  34
HETATM   34  C2  UNL     1      -3.187   4.044  -1.246  1.00  0.00    -0.020 C 
HETATM   35  C1  UNL     1      -3.764   2.992  -2.182  1.00  0.00     0.009 C 
HETATM   36  C3  UNL     1      -4.110   5.218  -1.163  1.00  0.00     0.009 C 
ENDBRANCH  33  34
ENDBRANCH   1  33
BRANCH   6  37
HETATM   37  C8  UNL     1      -3.775  -0.776   2.094  1.00  0.00     0.075 C 
HETATM   38  S1  UNL     1      -3.226  -1.556   3.625  1.00  0.00    -0.091 SA
BRANCH  37  39
HETATM   39  C9  UNL     1      -5.048  -1.351   1.662  1.00  0.00    -0.007 C 
HETATM   40  C10 UNL     1      -5.072  -2.658   0.948  1.00  0.00     0.011 C 
HETATM   41  C11 UNL     1      -5.944  -0.371   0.907  1.00  0.00     0.011 C 
ENDBRANCH  37  39
ENDBRANCH   6  37
TORSDOF 13
