REMARK  11 active torsions:
REMARK  status: ('A' for Active; 'I' for Inactive)
REMARK    1  A    between atoms: C2_2  and  N1_3 
REMARK    2  A    between atoms: N1_3  and  C4_5 
REMARK    3  A    between atoms: N1_3  and  C6_7 
REMARK    4  A    between atoms: C6_7  and  C7_8 
REMARK    5  A    between atoms: N3_14  and  C10_15 
REMARK    6  A    between atoms: C10_15  and  C11_16 
REMARK    7  A    between atoms: C11_16  and  C12_17 
REMARK    8  A    between atoms: C12_17  and  N4_18 
REMARK    9  A    between atoms: N4_18  and  C13_19 
REMARK   10  A    between atoms: C14_20  and  C15_21 
REMARK   11  A    between atoms: N5_22  and  N6_24 
ROOT
HETATM    1  C13 UNL     1      -3.514  -0.639   0.567  1.00  0.00     0.124 A 
HETATM    2  C14 UNL     1      -4.338   0.368   1.081  1.00  0.00     0.037 A 
HETATM    3  C17 UNL     1      -5.650   0.113   1.362  1.00  0.00     0.106 A 
HETATM    4  N9  UNL     1      -6.149  -1.118   1.141  1.00  0.00    -0.351 N 
ATOM      5  H9  UNL     1      -7.129  -1.305   1.353  1.00  0.00     0.166 HD
HETATM    6  C18 UNL     1      -5.381  -2.109   0.646  1.00  0.00     0.120 A 
HETATM    7  C19 UNL     1      -4.063  -1.912   0.345  1.00  0.00     0.045 A 
HETATM    8  C20 UNL     1      -3.207  -2.999  -0.224  1.00  0.00     0.173 C 
HETATM    9  N10 UNL     1      -4.089  -3.811  -1.039  1.00  0.00    -0.334 N 
HETATM   10  C21 UNL     1      -3.689  -4.270  -2.350  1.00  0.00     0.154 C 
HETATM   11  C22 UNL     1      -5.374  -4.156  -0.534  1.00  0.00     0.323 C 
HETATM   12  O1  UNL     1      -5.918  -5.181  -1.012  1.00  0.00    -0.247 OA
HETATM   13  N11 UNL     1      -6.022  -3.384   0.468  1.00  0.00    -0.294 N 
ATOM     14  H11 UNL     1      -6.838  -3.695   0.994  1.00  0.00     0.172 HD
ENDROOT
BRANCH   1  15
HETATM   15  N4  UNL     1      -2.372  -0.411   0.348  1.00  0.00    -0.446 NA
BRANCH  15  16
HETATM   16  C12 UNL     1      -1.093  -0.146   0.105  1.00  0.00     0.223 C 
BRANCH  16  17
HETATM   17  C11 UNL     1      -0.097  -0.976   0.946  1.00  0.00     0.078 C 
BRANCH  17  18
HETATM   18  C10 UNL     1       1.314  -0.674   0.701  1.00  0.00     0.068 C 
BRANCH  18  19
HETATM   19  N3  UNL     1       1.888  -0.825  -0.557  1.00  0.00    -0.343 N 
HETATM   20  C7  UNL     1       3.319  -0.618  -0.567  1.00  0.00     0.316 C 
HETATM   21  N2  UNL     1       3.871  -1.509  -1.519  1.00  0.00    -0.048 N 
HETATM   22  C8  UNL     1       2.805  -2.207  -2.202  1.00  0.00     0.279 C 
ATOM     23  H22 UNL     1       4.501  -1.037  -2.168  1.00  0.00     0.280 HD
ATOM     24  H21 UNL     1       4.545  -2.150  -1.101  1.00  0.00     0.280 HD
HETATM   25  C9  UNL     1       1.553  -1.866  -1.422  1.00  0.00     0.092 C 
BRANCH  20  26
HETATM   26  C6  UNL     1       3.652   0.809  -0.682  1.00  0.00     0.291 C 
BRANCH  26  27
HETATM   27  N1  UNL     1       5.043   1.147  -0.586  1.00  0.00    -0.068 N 
HETATM   28  C3  UNL     1       5.115   2.591  -0.434  1.00  0.00     0.272 C 
BRANCH  27  29
HETATM   29  C2  UNL     1       5.779   0.798  -1.763  1.00  0.00     0.232 C 
HETATM   30  C1  UNL     1       7.081   1.594  -1.911  1.00  0.00     0.035 C 
ENDBRANCH  27  29
BRANCH  27  31
HETATM   31  C4  UNL     1       5.701   0.598   0.575  1.00  0.00     0.232 C 
HETATM   32  C5  UNL     1       5.244   1.237   1.871  1.00  0.00     0.035 C 
ENDBRANCH  27  31
ENDBRANCH  26  27
ENDBRANCH  20  26
ENDBRANCH  18  19
ENDBRANCH  17  18
ENDBRANCH  16  17
ENDBRANCH  15  16
ENDBRANCH   1  15
BRANCH   2  33
HETATM   33  C15 UNL     1      -3.762   1.718   1.333  1.00  0.00     0.123 C 
HETATM   34  N5  UNL     1      -4.562   2.626   1.794  1.00  0.00    -0.309 N 
ATOM     35  H5  UNL     1      -5.531   2.349   1.951  1.00  0.00     0.186 HD
BRANCH  34  36
HETATM   36  N6  UNL     1      -4.238   3.905   2.087  1.00  0.00    -0.276 N 
HETATM   37  C16 UNL     1      -4.605   4.977   1.503  1.00  0.00     0.215 C 
HETATM   38  N7  UNL     1      -4.123   6.222   2.005  1.00  0.00    -0.065 NA
HETATM   39  N8  UNL     1      -5.463   4.982   0.386  1.00  0.00    -0.065 NA
ATOM     40  H6  UNL     1      -3.614   4.030   2.885  1.00  0.00     0.189 HD
ENDBRANCH  34  36
ENDBRANCH   2  33
TORSDOF 11
