REMARK  12 active torsions:
REMARK  status: ('A' for Active; 'I' for Inactive)
REMARK    1  A    between atoms: C2_2  and  C3_3 
REMARK    2  A    between atoms: C4_5  and  C5_6 
REMARK    3  A    between atoms: C5_6  and  N1_7 
REMARK       I    between atoms: N1_7  and  C6_9 
REMARK    4  A    between atoms: C6_9  and  C7_11 
REMARK    5  A    between atoms: C7_11  and  C8_13 
REMARK    6  A    between atoms: C10_15  and  O4_16 
REMARK    7  A    between atoms: C11_18  and  O5_19 
REMARK    8  A    between atoms: C12_21  and  S1_22 
REMARK    9  A    between atoms: S1_22  and  C13_23 
REMARK   10  A    between atoms: C18_29  and  O7_30 
REMARK   11  A    between atoms: C19_32  and  O8_33 
REMARK   12  A    between atoms: C20_35  and  O9_36 
ROOT
HETATM    1  N1  UNL     1      -1.922   0.021   0.287  1.00  0.00    -0.352 N 
ATOM      2  H1  UNL     1      -2.499  -0.121   1.116  1.00  0.00     0.162 HD
HETATM    3  C6  UNL     1      -0.518  -0.302   0.336  1.00  0.00     0.290 C 
HETATM    4  O2  UNL     1       0.211  -0.138  -0.667  1.00  0.00    -0.264 OA
ENDROOT
BRANCH   3   5
HETATM    5  C7  UNL     1       0.045  -0.816   1.550  1.00  0.00     0.245 C 
HETATM    6  O3  UNL     1      -0.682  -0.982   2.574  1.00  0.00    -0.284 OA
BRANCH   5   7
HETATM    7  C8  UNL     1       1.490  -1.192   1.714  1.00  0.00     0.205 C 
HETATM    8  C9  UNL     1       2.096  -0.511   2.896  1.00  0.00     0.074 C 
HETATM    9  C10 UNL     1       3.587  -0.657   2.869  1.00  0.00     0.153 C 
HETATM   10  C11 UNL     1       3.973  -1.649   1.788  1.00  0.00     0.185 C 
HETATM   11  C12 UNL     1       3.476  -1.076   0.491  1.00  0.00     0.215 C 
HETATM   12  O6  UNL     1       2.093  -0.959   0.509  1.00  0.00    -0.359 OA
BRANCH   9  13
HETATM   13  O4  UNL     1       4.157  -1.017   4.064  1.00  0.00    -0.393 OA
ATOM     14  H4  UNL     1       5.102  -1.110   4.047  1.00  0.00     0.210 HD
ENDBRANCH   9  13
BRANCH  10  15
HETATM   15  O5  UNL     1       5.332  -1.869   1.717  1.00  0.00    -0.390 OA
ATOM     16  H5  UNL     1       5.574  -2.490   1.040  1.00  0.00     0.210 HD
ENDBRANCH  10  15
BRANCH  11  17
HETATM   17  S1  UNL     1       4.254   0.520   0.210  1.00  0.00    -0.130 SA
BRANCH  17  18
HETATM   18  C13 UNL     1       6.020   0.407  -0.094  1.00  0.00     0.050 C 
HETATM   19  C14 UNL     1       6.557   1.806  -0.375  1.00  0.00     0.015 C 
HETATM   20  C15 UNL     1       7.596   1.591  -1.476  1.00  0.00     0.001 C 
HETATM   21  C16 UNL     1       6.892   0.571  -2.349  1.00  0.00     0.001 C 
HETATM   22  C17 UNL     1       6.265  -0.372  -1.353  1.00  0.00     0.015 C 
ENDBRANCH  17  18
ENDBRANCH  11  17
ENDBRANCH   5   7
ENDBRANCH   3   5
BRANCH   1  23
HETATM   23  C5  UNL     1      -2.525   0.543  -0.919  1.00  0.00     0.157 C 
BRANCH  23  24
HETATM   24  C4  UNL     1      -3.973   0.778  -0.678  1.00  0.00     0.171 C 
HETATM   25  O1  UNL     1      -4.604  -0.410  -0.327  1.00  0.00    -0.374 OA
HETATM   26  C3  UNL     1      -5.920  -0.298  -0.018  1.00  0.00     0.153 C 
HETATM   27  C20 UNL     1      -6.621   0.948  -0.379  1.00  0.00     0.178 C 
HETATM   28  C19 UNL     1      -6.015   1.827  -1.402  1.00  0.00     0.180 C 
HETATM   29  C18 UNL     1      -4.705   1.268  -1.918  1.00  0.00     0.180 C 
BRANCH  26  30
HETATM   30  C2  UNL     1      -6.653  -1.453  -0.716  1.00  0.00     0.030 C 
HETATM   31  C1  UNL     1      -6.053  -2.732  -0.175  1.00  0.00     0.007 C 
ENDBRANCH  26  30
BRANCH  27  32
HETATM   32  O9  UNL     1      -6.748   1.714   0.807  1.00  0.00    -0.390 OA
ATOM     33  H9  UNL     1      -7.200   2.517   0.574  1.00  0.00     0.210 HD
ENDBRANCH  27  32
BRANCH  28  34
HETATM   34  O8  UNL     1      -5.699   3.110  -0.897  1.00  0.00    -0.390 OA
ATOM     35  H8  UNL     1      -6.521   3.461  -0.573  1.00  0.00     0.210 HD
ENDBRANCH  28  34
BRANCH  29  36
HETATM   36  O7  UNL     1      -3.968   2.223  -2.609  1.00  0.00    -0.390 OA
ATOM     37  H7  UNL     1      -4.425   2.529  -3.383  1.00  0.00     0.210 HD
ENDBRANCH  29  36
ENDBRANCH  23  24
ENDBRANCH   1  23
TORSDOF 12
