REMARK  3 active torsions:
REMARK  status: ('A' for Active; 'I' for Inactive)
REMARK    1  A    between atoms: C7_9  and  C8_10 
REMARK    2  A    between atoms: C8_10  and  C9_11 
REMARK    3  A    between atoms: C9_11  and  C10_12 
ROOT
HETATM    1  C8  UNL     1       0.797  -0.401  -0.458  1.00  0.00     0.018 C 
ENDROOT
BRANCH   1   2
HETATM    2  C7  UNL     1      -0.670  -0.177  -0.236  1.00  0.00     0.058 C 
HETATM    3  C1  UNL     1      -1.058   1.261  -0.150  1.00  0.00     0.247 C 
HETATM    4  F1  UNL     1      -0.810   1.726   1.149  1.00  0.00    -0.206 F 
HETATM    5  F2  UNL     1      -0.230   1.963  -1.039  1.00  0.00    -0.206 F 
HETATM    6  C2  UNL     1      -2.477   1.551  -0.462  1.00  0.00     0.079 C 
HETATM    7  C3  UNL     1      -3.250   0.396  -1.022  1.00  0.00     0.006 C 
HETATM    8  C4  UNL     1      -3.397  -0.761  -0.105  1.00  0.00     0.000 C 
HETATM    9  C5  UNL     1      -2.627  -0.675   1.164  1.00  0.00     0.001 C 
HETATM   10  C6  UNL     1      -1.145  -0.925   0.977  1.00  0.00     0.010 C 
ENDBRANCH   1   2
BRANCH   1  11
HETATM   11  C9  UNL     1       1.655   0.167   0.631  1.00  0.00     0.078 C 
BRANCH  11  12
HETATM   12  C10 UNL     1       3.082  -0.136   0.267  1.00  0.00     0.098 A 
HETATM   13  N1  UNL     1       3.785  -1.238   0.612  1.00  0.00    -0.287 N 
HETATM   14  N2  UNL     1       5.015  -1.154   0.109  1.00  0.00    -0.275 N 
ATOM     15  H1  UNL     1       3.429  -2.013   1.171  1.00  0.00     0.188 HD
HETATM   16  C11 UNL     1       5.124   0.003  -0.566  1.00  0.00     0.192 A 
ATOM     17  H2  UNL     1       5.751  -1.851   0.218  1.00  0.00     0.189 HD
HETATM   18  S1  UNL     1       6.464   0.540  -1.359  1.00  0.00    -0.039 SA
HETATM   19  N3  UNL     1       3.933   0.611  -0.459  1.00  0.00    -0.321 N 
ATOM     20  H3  UNL     1       3.704   1.515  -0.871  1.00  0.00     0.169 HD
ENDBRANCH  11  12
ENDBRANCH   1  11
TORSDOF 3
