REMARK  7 active torsions:
REMARK  status: ('A' for Active; 'I' for Inactive)
REMARK    1  A    between atoms: C8_9  and  O2_10 
REMARK    2  A    between atoms: C11_13  and  O3_14 
REMARK    3  A    between atoms: O3_14  and  C12_15 
REMARK    4  A    between atoms: C12_15  and  C13_17 
REMARK    5  A    between atoms: C13_17  and  N1_18 
REMARK    6  A    between atoms: C17_22  and  C18_23 
REMARK    7  A    between atoms: C19_27  and  C20_28 
ROOT
HETATM    1  C12 UNL     1      -0.773  -0.708   0.733  1.00  0.00     0.300 C 
HETATM    2  O4  UNL     1      -0.700  -1.690   1.535  1.00  0.00    -0.262 OA
ENDROOT
BRANCH   1   3
HETATM    3  O3  UNL     1       0.281   0.187   0.760  1.00  0.00    -0.309 OA
BRANCH   3   4
HETATM    4  C11 UNL     1       1.372  -0.002   1.643  1.00  0.00     0.167 C 
HETATM    5  C2  UNL     1       1.370   1.216   2.536  1.00  0.00    -0.059 C 
HETATM    6  C1  UNL     1       0.960   1.293   3.798  1.00  0.00     0.017 C 
HETATM    7  C3  UNL     1       1.929   2.297   1.680  1.00  0.00     0.041 C 
HETATM    8  C4  UNL     1       2.887   1.587   0.785  1.00  0.00     0.008 C 
HETATM    9  C5  UNL     1       2.472   1.365  -0.634  1.00  0.00     0.051 C 
HETATM   10  C10 UNL     1       2.709   0.094   1.014  1.00  0.00     0.061 C 
HETATM   11  C6  UNL     1       3.523   1.886  -1.588  1.00  0.00     0.175 C 
HETATM   12  C8  UNL     1       2.839  -0.097  -0.462  1.00  0.00     0.094 C 
HETATM   13  O1  UNL     1       4.336   0.819  -1.934  1.00  0.00    -0.388 OA
HETATM   14  C7  UNL     1       4.280  -0.086  -0.879  1.00  0.00     0.206 C 
BRANCH  12  15
HETATM   15  O2  UNL     1       2.000  -0.991  -1.059  1.00  0.00    -0.382 OA
HETATM   16  C9  UNL     1       2.421  -2.293  -0.834  1.00  0.00     0.202 C 
ENDBRANCH  12  15
ENDBRANCH   3   4
ENDBRANCH   1   3
BRANCH   1  17
HETATM   17  C13 UNL     1      -1.946  -0.542  -0.187  1.00  0.00     0.262 A 
HETATM   18  C17 UNL     1      -3.268  -0.846   0.424  1.00  0.00     0.082 A 
HETATM   19  C20 UNL     1      -2.637  -1.777  -0.554  1.00  0.00     0.041 A 
HETATM   20  C21 UNL     1      -3.222  -2.055  -1.887  1.00  0.00     0.021 C 
BRANCH  17  21
HETATM   21  N1  UNL     1      -1.867   0.609  -1.017  1.00  0.00     0.109 N 
HETATM   22  C14 UNL     1      -2.932   0.862  -1.929  1.00  0.00     0.276 C 
HETATM   23  C15 UNL     1      -2.641   2.361  -1.752  1.00  0.00     0.060 C 
HETATM   24  C16 UNL     1      -2.201   1.878  -0.364  1.00  0.00     0.276 C 
ENDBRANCH  17  21
BRANCH  18  25
HETATM   25  C18 UNL     1      -3.319  -2.006   1.421  1.00  0.00     0.225 A 
HETATM   26  N2  UNL     1      -4.054  -3.175   1.047  1.00  0.00    -0.061 N 
HETATM   27  C19 UNL     1      -2.718  -2.870   0.467  1.00  0.00     0.229 A 
ATOM     28  H22 UNL     1      -4.480  -3.962   1.536  1.00  0.00     0.278 HD
ATOM     29  H21 UNL     1      -4.986  -3.371   0.681  1.00  0.00     0.278 HD
ENDBRANCH  18  25
ENDBRANCH   1  17
TORSDOF 7
