REMARK  6 active torsions:
REMARK  status: ('A' for Active; 'I' for Inactive)
REMARK    1  A    between atoms: C5_9  and  N3_10 
REMARK    2  A    between atoms: N3_10  and  C6_12 
REMARK    3  A    between atoms: C7_15  and  C8_16 
REMARK    4  A    between atoms: C8_16  and  N5_17 
REMARK    5  A    between atoms: N6_20  and  C11_21 
REMARK    6  A    between atoms: C11_21  and  C12_22 
ROOT
HETATM    1  C6  UNL     1       3.246   0.599  -0.424  1.00  0.00     0.704 A 
HETATM    2  N4  UNL     1       2.452   1.521  -0.993  1.00  0.00    -0.168 N 
ATOM      3  H4  UNL     1       2.768   2.261  -1.620  1.00  0.00     0.186 HD
HETATM    4  C7  UNL     1       1.178   1.322  -0.612  1.00  0.00     0.190 A 
HETATM    5  O1  UNL     1       1.216   0.280   0.185  1.00  0.00    -0.207 OA
HETATM    6  N7  UNL     1       2.426  -0.169   0.315  1.00  0.00    -0.089 N 
ATOM      7  H7  UNL     1       2.708  -0.969   0.882  1.00  0.00     0.213 HD
ENDROOT
BRANCH   1   8
HETATM    8  N3  UNL     1       4.544   0.477  -0.560  1.00  0.00    -0.186 N 
ATOM      9  H3  UNL     1       5.046   1.135  -1.156  1.00  0.00     0.184 HD
BRANCH   8  10
HETATM   10  C5  UNL     1       5.264  -0.545   0.099  1.00  0.00     0.096 A 
HETATM   11  C2  UNL     1       6.078  -0.365   1.221  1.00  0.00     0.051 A 
HETATM   12  C1  UNL     1       6.338   0.924   1.926  1.00  0.00     0.072 C 
HETATM   13  N1  UNL     1       6.552  -1.593   1.499  1.00  0.00    -0.303 N 
HETATM   14  N2  UNL     1       6.087  -2.477   0.639  1.00  0.00    -0.303 N 
ATOM     15  H1  UNL     1       7.184  -1.810   2.269  1.00  0.00     0.186 HD
HETATM   16  C3  UNL     1       5.277  -1.881  -0.259  1.00  0.00     0.051 A 
ATOM     17  H2  UNL     1       6.309  -3.473   0.651  1.00  0.00     0.186 HD
HETATM   18  C4  UNL     1       4.541  -2.517  -1.406  1.00  0.00     0.072 C 
ENDBRANCH   8  10
ENDBRANCH   1   8
BRANCH   4  19
HETATM   19  C8  UNL     1      -0.021   2.132  -1.023  1.00  0.00     0.359 C 
BRANCH  19  20
HETATM   20  N5  UNL     1      -1.199   1.601  -0.413  1.00  0.00     0.099 N 
HETATM   21  C9  UNL     1      -1.395   0.246  -0.819  1.00  0.00     0.303 C 
HETATM   22  C10 UNL     1      -2.641   0.156  -1.671  1.00  0.00     0.302 C 
HETATM   23  N6  UNL     1      -3.835   0.537  -0.956  1.00  0.00     0.092 N 
HETATM   24  C15 UNL     1      -3.603   1.755  -0.249  1.00  0.00     0.302 C 
HETATM   25  C16 UNL     1      -2.326   2.427  -0.729  1.00  0.00     0.303 C 
BRANCH  23  26
HETATM   26  C11 UNL     1      -4.241  -0.562  -0.137  1.00  0.00     0.277 C 
BRANCH  26  27
HETATM   27  C12 UNL     1      -5.487  -0.282   0.665  1.00  0.00     0.014 A 
HETATM   28  C13 UNL     1      -5.907  -1.469   1.537  1.00  0.00     0.007 A 
HETATM   29  C14 UNL     1      -6.763  -0.944   0.406  1.00  0.00     0.007 A 
ENDBRANCH  26  27
ENDBRANCH  23  26
ENDBRANCH  19  20
ENDBRANCH   4  19
TORSDOF 6
