REMARK  11 active torsions:
REMARK  status: ('A' for Active; 'I' for Inactive)
REMARK    1  A    between atoms: S1_2  and  C2_3 
REMARK    2  A    between atoms: C2_3  and  N3_9 
REMARK    3  A    between atoms: N1_4  and  N2_6 
REMARK    4  A    between atoms: N3_9  and  C3_11 
REMARK    5  A    between atoms: C6_14  and  N4_15 
REMARK    6  A    between atoms: C7_19  and  O1_20 
REMARK    7  A    between atoms: C8_22  and  N5_23 
REMARK    8  A    between atoms: C9_27  and  N6_28 
REMARK       I    between atoms: N6_28  and  C10_30 
REMARK    9  A    between atoms: C10_30  and  C11_32 
REMARK   10  A    between atoms: C11_32  and  N7_33 
REMARK   11  A    between atoms: C11_32  and  C12_37 
ROOT
HETATM    1  C3  UNL     1       0.814   0.076   0.405  1.00  0.00     0.108 C 
HETATM    2  C4  UNL     1       1.884   1.130   0.410  1.00  0.00     0.029 C 
HETATM    3  C5  UNL     1       1.860   2.041  -0.769  1.00  0.00     0.037 C 
HETATM    4  C6  UNL     1       1.010   3.223  -0.507  1.00  0.00     0.214 C 
HETATM    5  C7  UNL     1      -0.329   3.028   0.026  1.00  0.00     0.181 C 
HETATM    6  C8  UNL     1      -0.998   1.712  -0.252  1.00  0.00     0.238 C 
HETATM    7  C9  UNL     1      -0.560   0.603   0.623  1.00  0.00     0.140 C 
ENDROOT
BRANCH   7   8
HETATM    8  N6  UNL     1      -1.504  -0.486   0.515  1.00  0.00    -0.350 N 
HETATM    9  C10 UNL     1      -2.270  -0.930   1.626  1.00  0.00     0.257 C 
HETATM   10  O2  UNL     1      -2.126  -0.362   2.737  1.00  0.00    -0.271 OA
ATOM     11  H6  UNL     1      -1.624  -0.950  -0.386  1.00  0.00     0.163 HD
BRANCH   9  12
HETATM   12  C11 UNL     1      -3.232  -2.052   1.486  1.00  0.00     0.362 C 
BRANCH  12  13
HETATM   13  N7  UNL     1      -3.199  -2.518   0.105  1.00  0.00    -0.058 N 
ATOM     14  H73 UNL     1      -3.370  -1.769  -0.566  1.00  0.00     0.275 HD
ATOM     15  H72 UNL     1      -2.259  -2.767  -0.202  1.00  0.00     0.275 HD
ATOM     16  H71 UNL     1      -3.860  -3.289   0.009  1.00  0.00     0.275 HD
ENDBRANCH  12  13
BRANCH  12  17
HETATM   17  C12 UNL     1      -4.584  -1.708   1.924  1.00  0.00     0.271 C 
HETATM   18  N8  UNL     1      -5.705  -1.831   1.061  1.00  0.00    -0.060 NA
HETATM   19  O3  UNL     1      -4.774  -1.293   3.087  1.00  0.00    -0.274 OA
ENDBRANCH  12  17
ENDBRANCH   9  12
ENDBRANCH   7   8
BRANCH   1  20
HETATM   20  N3  UNL     1       0.934  -0.850  -0.681  1.00  0.00    -0.363 N 
ATOM     21  H3  UNL     1       0.176  -0.931  -1.358  1.00  0.00     0.162 HD
BRANCH  20  22
HETATM   22  C2  UNL     1       2.102  -1.663  -0.830  1.00  0.00     0.154 C 
HETATM   23  N1  UNL     1       2.598  -1.716  -1.979  1.00  0.00    -0.287 N 
ATOM     24  H1  UNL     1       2.124  -1.177  -2.704  1.00  0.00     0.188 HD
BRANCH  22  25
HETATM   25  S1  UNL     1       2.751  -2.510   0.568  1.00  0.00    -0.097 SA
HETATM   26  C1  UNL     1       4.205  -3.481   0.176  1.00  0.00     0.099 C 
ENDBRANCH  22  25
BRANCH  23  27
HETATM   27  N2  UNL     1       3.702  -2.416  -2.366  1.00  0.00    -0.343 N 
ATOM     28  H22 UNL     1       4.162  -2.949  -1.628  1.00  0.00     0.176 HD
ATOM     29  H21 UNL     1       4.106  -2.459  -3.302  1.00  0.00     0.176 HD
ENDBRANCH  23  27
ENDBRANCH  20  22
ENDBRANCH   1  20
BRANCH   6  30
HETATM   30  N5  UNL     1      -1.018   1.442  -1.646  1.00  0.00    -0.070 N 
ATOM     31  H53 UNL     1      -1.448   2.203  -2.172  1.00  0.00     0.274 HD
ATOM     32  H52 UNL     1      -0.083   1.484  -2.052  1.00  0.00     0.274 HD
ATOM     33  H51 UNL     1      -1.472   0.548  -1.835  1.00  0.00     0.274 HD
ENDBRANCH   6  30
BRANCH   5  34
HETATM   34  O1  UNL     1      -1.192   4.027  -0.484  1.00  0.00    -0.391 OA
ATOM     35  H1  UNL     1      -2.067   3.900  -0.136  1.00  0.00     0.210 HD
ENDBRANCH   5  34
BRANCH   4  36
HETATM   36  N4  UNL     1       1.764   4.098   0.407  1.00  0.00    -0.072 N 
ATOM     37  H43 UNL     1       2.066   3.624   1.258  1.00  0.00     0.274 HD
ATOM     38  H42 UNL     1       2.691   4.340   0.057  1.00  0.00     0.274 HD
ATOM     39  H41 UNL     1       1.178   4.913   0.588  1.00  0.00     0.274 HD
ENDBRANCH   4  36
TORSDOF 11
