REMARK  5 active torsions:
REMARK  status: ('A' for Active; 'I' for Inactive)
REMARK    1  A    between atoms: C4_6  and  N2_7 
REMARK    2  A    between atoms: N2_7  and  C5_9 
REMARK    3  A    between atoms: C6_10  and  C7_11 
REMARK       I    between atoms: C7_11  and  N3_13 
REMARK       I    between atoms: C8_15  and  N4_16 
REMARK       I    between atoms: C8_15  and  N7_23 
REMARK    4  A    between atoms: N4_16  and  N5_18 
REMARK       I    between atoms: N7_23  and  C9_25 
REMARK       I    between atoms: C9_25  and  N8_27 
REMARK    5  A    between atoms: N8_27  and  C11_29 
ROOT
HETATM    1  C7  UNL     1       0.721   0.523  -0.143  1.00  0.00     0.260 C 
HETATM    2  O1  UNL     1      -0.227   0.857  -0.845  1.00  0.00    -0.268 OA
HETATM    3  N3  UNL     1       0.730   0.366   1.219  1.00  0.00    -0.154 N 
ATOM      4  H3  UNL     1       1.635   0.479   1.676  1.00  0.00     0.187 HD
HETATM    5  C8  UNL     1      -0.285   0.088   2.009  1.00  0.00     0.704 C 
HETATM    6  N4  UNL     1      -0.006  -0.018   3.383  1.00  0.00    -0.118 N 
ATOM      7  H4  UNL     1      -0.726   0.307   4.029  1.00  0.00     0.207 HD
HETATM    8  N7  UNL     1      -1.543  -0.055   1.465  1.00  0.00    -0.140 N 
ATOM      9  H7  UNL     1      -1.609   0.095   0.458  1.00  0.00     0.189 HD
HETATM   10  C9  UNL     1      -2.785  -0.390   2.133  1.00  0.00     0.336 C 
HETATM   11  O2  UNL     1      -2.756  -0.590   3.360  1.00  0.00    -0.246 OA
HETATM   12  N8  UNL     1      -3.982  -0.477   1.371  1.00  0.00    -0.334 N 
HETATM   13  C10 UNL     1      -3.935  -0.250  -0.050  1.00  0.00     0.154 C 
ENDROOT
BRANCH   6  14
HETATM   14  N5  UNL     1       1.168  -0.528   3.944  1.00  0.00    -0.235 N 
HETATM   15  N6  UNL     1       1.224  -1.738   4.257  1.00  0.00    -0.330 N 
ATOM     16  H62 UNL     1       0.411  -2.333   4.098  1.00  0.00     0.178 HD
ATOM     17  H61 UNL     1       2.081  -2.110   4.666  1.00  0.00     0.178 HD
ATOM     18  H5  UNL     1       1.972   0.081   4.097  1.00  0.00     0.208 HD
ENDBRANCH   6  14
BRANCH   1  19
HETATM   19  C6  UNL     1       1.992   0.266  -0.950  1.00  0.00     0.092 C 
HETATM   20  C5  UNL     1       1.850   0.314  -2.192  1.00  0.00     0.111 C 
BRANCH  20  21
HETATM   21  N2  UNL     1       2.840   0.137  -3.181  1.00  0.00    -0.202 N 
ATOM     22  H2  UNL     1       2.575  -0.361  -4.031  1.00  0.00     0.183 HD
BRANCH  21  23
HETATM   23  C4  UNL     1       4.037   0.552  -3.090  1.00  0.00     0.682 A 
HETATM   24  N1  UNL     1       4.684   1.230  -2.134  1.00  0.00    -0.200 N 
HETATM   25  C3  UNL     1       5.975   1.370  -2.399  1.00  0.00     0.131 A 
ATOM     26  H1  UNL     1       4.234   1.598  -1.296  1.00  0.00     0.183 HD
HETATM   27  C2  UNL     1       6.211   0.761  -3.595  1.00  0.00     0.038 A 
HETATM   28  C1  UNL     1       7.543   0.647  -4.289  1.00  0.00     0.070 C 
HETATM   29  N9  UNL     1       5.037   0.270  -4.005  1.00  0.00    -0.194 N 
ATOM     30  H9  UNL     1       4.897  -0.243  -4.875  1.00  0.00     0.184 HD
ENDBRANCH  21  23
ENDBRANCH  20  21
ENDBRANCH   1  19
BRANCH  12  31
HETATM   31  C11 UNL     1      -5.218  -0.765   1.995  1.00  0.00     0.080 C 
HETATM   32  C12 UNL     1      -6.197   0.351   1.701  1.00  0.00     0.032 C 
HETATM   33  C13 UNL     1      -5.785  -2.108   1.559  1.00  0.00     0.032 C 
ENDBRANCH  12  31
TORSDOF 5
