REMARK  5 active torsions:
REMARK  status: ('A' for Active; 'I' for Inactive)
REMARK    1  A    between atoms: O1_1  and  C1_3 
REMARK    2  A    between atoms: C4_6  and  C5_7 
REMARK    3  A    between atoms: C5_7  and  C6_9 
REMARK    4  A    between atoms: C7_10  and  O2_11 
REMARK    5  A    between atoms: C11_22  and  S4_23 
ROOT
HETATM    1  C6  UNL     1       1.793   0.105   0.820  1.00  0.00     0.050 A 
HETATM    2  C7  UNL     1       2.412  -0.552  -0.219  1.00  0.00     0.153 A 
HETATM    3  N1  UNL     1       3.491  -0.023  -0.838  1.00  0.00    -0.313 N 
ATOM      4  H1  UNL     1       3.923  -0.538  -1.605  1.00  0.00     0.170 HD
HETATM    5  C8  UNL     1       4.011   1.159  -0.473  1.00  0.00     0.178 A 
HETATM    6  S2  UNL     1       5.329   1.788  -1.243  1.00  0.00    -0.040 SA
HETATM    7  N2  UNL     1       3.431   1.826   0.538  1.00  0.00    -0.323 N 
ATOM      8  H2  UNL     1       3.813   2.726   0.828  1.00  0.00     0.169 HD
HETATM    9  C9  UNL     1       2.357   1.331   1.175  1.00  0.00     0.115 A 
HETATM   10  S3  UNL     1       1.726   2.204   2.388  1.00  0.00    -0.060 SA
ENDROOT
BRANCH   1  11
HETATM   11  C5  UNL     1       0.611  -0.435   1.526  1.00  0.00     0.132 C 
HETATM   12  S1  UNL     1       1.008  -2.126   2.126  1.00  0.00    -0.082 SA
BRANCH  11  13
HETATM   13  C4  UNL     1      -0.621  -0.463   0.713  1.00  0.00    -0.037 A 
HETATM   14  C3  UNL     1      -1.115  -1.655   0.198  1.00  0.00     0.011 A 
HETATM   15  C2  UNL     1      -2.243  -1.704  -0.559  1.00  0.00     0.038 A 
HETATM   16  C1  UNL     1      -2.993  -0.547  -0.876  1.00  0.00     0.083 A 
HETATM   17  C11 UNL     1      -2.522   0.640  -0.376  1.00  0.00     0.046 A 
HETATM   18  C10 UNL     1      -1.339   0.652   0.411  1.00  0.00     0.031 A 
BRANCH  16  19
HETATM   19  O1  UNL     1      -4.114  -0.720  -1.647  1.00  0.00    -0.359 OA
ATOM     20  H1  UNL     1      -4.618   0.057  -1.860  1.00  0.00     0.217 HD
ENDBRANCH  16  19
BRANCH  17  21
HETATM   21  S4  UNL     1      -3.265   2.218  -0.622  1.00  0.00    -0.043 SA
HETATM   22  S5  UNL     1      -4.993   2.263  -1.763  1.00  0.00    -0.007 SA
ENDBRANCH  17  21
ENDBRANCH  11  13
ENDBRANCH   1  11
BRANCH   2  23
HETATM   23  O2  UNL     1       1.946  -1.785  -0.669  1.00  0.00    -0.346 OA
ATOM     24  H2  UNL     1       2.373  -2.238  -1.386  1.00  0.00     0.219 HD
ENDBRANCH   2  23
TORSDOF 5
