REMARK  1 active torsions:
REMARK  status: ('A' for Active; 'I' for Inactive)
REMARK    1  A    between atoms: C6_6  and  C7_7 
ROOT
HETATM    1  C1  UNL     1       4.480  -1.658  -0.077  1.00  0.00     0.014 C 
HETATM    2  C2  UNL     1       3.319  -1.414  -0.204  1.00  0.00    -0.084 C 
HETATM    3  C3  UNL     1       1.919  -1.141  -0.369  1.00  0.00     0.264 C 
HETATM    4  C4  UNL     1       1.681   0.249  -0.976  1.00  0.00     0.053 C 
HETATM    5  C5  UNL     1       0.216   0.579  -0.845  1.00  0.00     0.021 C 
HETATM    6  C6  UNL     1      -0.096   1.552   0.239  1.00  0.00     0.105 C 
HETATM    7  N1  UNL     1      -0.645   0.898   1.395  1.00  0.00    -0.394 N 
ATOM      8  H1  UNL     1      -0.646   1.337   2.316  1.00  0.00     0.155 HD
HETATM    9  C9  UNL     1      -1.184  -0.391   1.179  1.00  0.00     0.121 C 
HETATM   10 BR1  UNL     1      -2.107  -1.085   2.707  1.00  0.00    -0.059 Br
HETATM   11  C10 UNL     1      -0.161  -1.370   0.591  1.00  0.00     0.232 C 
HETATM   12  N2  UNL     1       1.197  -1.113   0.916  1.00  0.00    -0.053 N 
ATOM     13  H21 UNL     1       1.337  -0.253   1.447  1.00  0.00     0.279 HD
ATOM     14  H22 UNL     1       1.579  -1.749   1.616  1.00  0.00     0.279 HD
HETATM   15  C11 UNL     1      -0.539  -0.712  -0.749  1.00  0.00     0.037 C 
HETATM   16  C12 UNL     1      -1.897  -0.580  -0.129  1.00  0.00    -0.004 C 
HETATM   17  C13 UNL     1      -2.801   0.467  -0.603  1.00  0.00     0.019 C 
HETATM   18  C14 UNL     1      -2.584  -1.948  -0.133  1.00  0.00     0.019 C 
ENDROOT
BRANCH   6  19
HETATM   19  C7  UNL     1       1.061   2.430   0.577  1.00  0.00    -0.012 C 
HETATM   20  C8  UNL     1       1.353   3.413  -0.266  1.00  0.00     0.009 C 
ENDBRANCH   6  19
TORSDOF 1
