REMARK  4 active torsions:
REMARK  status: ('A' for Active; 'I' for Inactive)
REMARK    1  A    between atoms: C4_8  and  C5_9 
REMARK    2  A    between atoms: C6_12  and  N4_13 
REMARK    3  A    between atoms: N4_13  and  C7_15 
REMARK    4  A    between atoms: C13_23  and  O1_24 
ROOT
HETATM    1  C5  UNL     1       0.641  -1.038  -0.023  1.00  0.00     0.104 A 
HETATM    2  N3  UNL     1      -0.585  -0.486   0.001  1.00  0.00    -0.187 N 
ATOM      3  H3  UNL     1      -0.913   0.293  -0.570  1.00  0.00     0.184 HD
HETATM    4  C6  UNL     1      -1.286  -1.152   0.912  1.00  0.00     0.685 A 
HETATM    5  N5  UNL     1      -0.521  -2.124   1.471  1.00  0.00    -0.168 N 
ATOM      6  H5  UNL     1      -0.811  -2.780   2.196  1.00  0.00     0.186 HD
HETATM    7  C13 UNL     1       0.687  -2.060   0.892  1.00  0.00     0.183 A 
ENDROOT
BRANCH   1   8
HETATM    8  C4  UNL     1       1.704  -0.592  -0.888  1.00  0.00     0.084 C 
HETATM    9  C3  UNL     1       2.905  -0.259  -0.412  1.00  0.00     0.123 A 
HETATM   10  N2  UNL     1       3.273  -0.291   0.880  1.00  0.00    -0.284 N 
HETATM   11  N6  UNL     1       3.979   0.169  -1.095  1.00  0.00    -0.327 N 
HETATM   12  N1  UNL     1       4.540   0.106   0.992  1.00  0.00    -0.285 N 
ATOM     13  H2  UNL     1       2.675  -0.575   1.656  1.00  0.00     0.188 HD
HETATM   14  C2  UNL     1       4.997   0.398  -0.239  1.00  0.00     0.111 A 
ATOM     15  H1  UNL     1       5.071   0.176   1.860  1.00  0.00     0.188 HD
HETATM   16  C1  UNL     1       6.210   0.827  -0.542  1.00  0.00     0.065 C 
ATOM     17  H6  UNL     1       4.019   0.301  -2.106  1.00  0.00     0.169 HD
ENDBRANCH   1   8
BRANCH   7  18
HETATM   18  O1  UNL     1       1.772  -2.891   1.184  1.00  0.00    -0.344 OA
ATOM     19  H1  UNL     1       1.804  -3.598   1.817  1.00  0.00     0.219 HD
ENDBRANCH   7  18
BRANCH   4  20
HETATM   20  N4  UNL     1      -2.516  -0.934   1.243  1.00  0.00    -0.192 N 
ATOM     21  H4  UNL     1      -2.965  -1.506   1.959  1.00  0.00     0.184 HD
BRANCH  20  22
HETATM   22  C7  UNL     1      -3.237   0.107   0.603  1.00  0.00     0.049 A 
HETATM   23  C8  UNL     1      -4.286  -0.177  -0.269  1.00  0.00     0.030 A 
HETATM   24  C9  UNL     1      -5.008   0.800  -0.909  1.00  0.00     0.002 A 
HETATM   25  C10 UNL     1      -4.695   2.131  -0.688  1.00  0.00     0.000 A 
HETATM   26  C11 UNL     1      -3.653   2.442   0.177  1.00  0.00     0.002 A 
HETATM   27  C12 UNL     1      -2.943   1.439   0.806  1.00  0.00     0.030 A 
ENDBRANCH  20  22
ENDBRANCH   4  20
TORSDOF 4
