REMARK  3 active torsions:
REMARK  status: ('A' for Active; 'I' for Inactive)
REMARK    1  A    between atoms: C2_2  and  O1_3 
REMARK    2  A    between atoms: O1_3  and  C3_4 
REMARK    3  A    between atoms: C3_4  and  N1_5 
ROOT
HETATM    1  N1  UNL     1       1.015  -0.359   0.860  1.00  0.00    -0.097 NA
HETATM    2  N2  UNL     1       1.341   0.970   0.928  1.00  0.00    -0.023 NA
HETATM    3  N3  UNL     1       2.304   1.255  -0.021  1.00  0.00    -0.257 N 
ATOM      4  H3  UNL     1       2.669   2.177  -0.259  1.00  0.00     0.187 HD
HETATM    5  C4  UNL     1       2.688   0.015  -0.602  1.00  0.00     0.202 C 
HETATM    6  N4  UNL     1       3.751  -0.217  -1.334  1.00  0.00    -0.369 N 
ATOM      7  H41 UNL     1       4.026  -1.106  -1.751  1.00  0.00     0.159 HD
ATOM      8  H42 UNL     1       4.471   0.452  -1.605  1.00  0.00     0.159 HD
HETATM    9  N5  UNL     1       1.682  -0.920  -0.223  1.00  0.00    -0.271 N 
ATOM     10  H5  UNL     1       1.489  -1.822  -0.659  1.00  0.00     0.185 HD
ENDROOT
BRANCH   1  11
HETATM   11  C3  UNL     1      -0.414  -0.596   0.801  1.00  0.00     0.303 C 
BRANCH  11  12
HETATM   12  O1  UNL     1      -0.893   0.036  -0.334  1.00  0.00    -0.374 OA
BRANCH  12  13
HETATM   13  C2  UNL     1      -2.275  -0.133  -0.485  1.00  0.00     0.165 C 
HETATM   14  C1  UNL     1      -3.006   0.450   0.723  1.00  0.00     0.033 C 
ENDBRANCH  12  13
ENDBRANCH  11  12
ENDBRANCH   1  11
TORSDOF 3
