REMARK  4 active torsions:
REMARK  status: ('A' for Active; 'I' for Inactive)
REMARK    1  A    between atoms: N1_1  and  C1_5 
REMARK    2  A    between atoms: C1_5  and  C2_6 
REMARK    3  A    between atoms: C2_6  and  O1_7 
REMARK    4  A    between atoms: O1_7  and  C3_8 
ROOT
HETATM    1  C3  UNL     1      -0.424   0.228  -0.442  1.00  0.00     0.302 C 
HETATM    2  C4  UNL     1      -1.117  -0.998   0.078  1.00  0.00     0.136 C 
HETATM    3  N2  UNL     1      -2.482  -1.125  -0.233  1.00  0.00    -0.312 N 
ATOM      4  H2  UNL     1      -2.928  -2.041  -0.286  1.00  0.00     0.181 HD
HETATM    5  N3  UNL     1      -3.191   0.023  -0.462  1.00  0.00    -0.116 NA
HETATM    6  C5  UNL     1      -2.415   1.154   0.003  1.00  0.00     0.306 C 
HETATM    7  O2  UNL     1      -1.306   1.217  -0.856  1.00  0.00    -0.339 OA
ENDROOT
BRANCH   1   8
HETATM    8  O1  UNL     1       0.388   0.806   0.508  1.00  0.00    -0.355 OA
BRANCH   8   9
HETATM    9  C2  UNL     1       1.691   0.826   0.110  1.00  0.00     0.198 C 
BRANCH   9  10
HETATM   10  C1  UNL     1       2.222  -0.573  -0.011  1.00  0.00     0.255 C 
BRANCH  10  11
HETATM   11  N1  UNL     1       3.617  -0.565  -0.434  1.00  0.00    -0.077 N 
ATOM     12  H13 UNL     1       3.746  -0.037  -1.297  1.00  0.00     0.274 HD
ATOM     13  H12 UNL     1       4.195   0.005   0.184  1.00  0.00     0.274 HD
ATOM     14  H11 UNL     1       3.978  -1.516  -0.516  1.00  0.00     0.274 HD
ENDBRANCH  10  11
ENDBRANCH   9  10
ENDBRANCH   8   9
ENDBRANCH   1   8
TORSDOF 4
