REMARK  12 active torsions:
REMARK  status: ('A' for Active; 'I' for Inactive)
REMARK    1  A    between atoms: C10_10  and  O1_11 
REMARK    2  A    between atoms: C10_10  and  C11_13 
REMARK    3  A    between atoms: C11_13  and  O2_14 
REMARK    4  A    between atoms: C11_13  and  N1_16 
REMARK    5  A    between atoms: N1_16  and  C12_17 
REMARK    6  A    between atoms: N1_16  and  C14_19 
REMARK    7  A    between atoms: C14_19  and  C15_20 
REMARK    8  A    between atoms: C15_20  and  O3_21 
REMARK    9  A    between atoms: C25_32  and  C26_33 
REMARK   10  A    between atoms: C26_33  and  C28_35 
REMARK   11  A    between atoms: C28_35  and  C29_36 
REMARK   12  A    between atoms: C29_36  and  C30_37 
ROOT
HETATM    1  C1  UNL     1      -4.541  -2.576  -1.884  1.00  0.00     0.015 C 
HETATM    2  C2  UNL     1      -4.021  -2.096  -0.838  1.00  0.00    -0.084 C 
HETATM    3  C3  UNL     1      -2.747  -2.673  -0.214  1.00  0.00     0.039 C 
HETATM    4  C4  UNL     1      -1.991  -1.397  -0.381  1.00  0.00     0.003 C 
HETATM    5  C5  UNL     1      -0.570  -1.346  -0.168  1.00  0.00    -0.005 C 
HETATM    6  C6  UNL     1       0.114  -2.235   0.796  1.00  0.00     0.006 C 
HETATM    7  C7  UNL     1       1.258  -1.453   1.391  1.00  0.00     0.006 C 
HETATM    8  C8  UNL     1       2.081  -0.705   0.333  1.00  0.00    -0.003 C 
HETATM    9  C9  UNL     1       3.180  -0.075   1.134  1.00  0.00     0.052 C 
HETATM   10  C10 UNL     1       4.056   0.896   0.390  1.00  0.00     0.122 C 
HETATM   11  C16 UNL     1       3.236   1.668  -0.643  1.00  0.00     0.047 C 
HETATM   12  C17 UNL     1       1.806   1.659  -0.116  1.00  0.00     0.013 C 
HETATM   13  C18 UNL     1       1.243   0.271  -0.468  1.00  0.00    -0.036 C 
HETATM   14  C19 UNL     1       1.387   0.136  -1.946  1.00  0.00     0.016 C 
HETATM   15  C20 UNL     1      -0.172   0.120   0.024  1.00  0.00    -0.002 C 
HETATM   16  C21 UNL     1      -1.102   1.011  -0.747  1.00  0.00     0.006 C 
HETATM   17  C22 UNL     1      -2.544   0.915  -0.259  1.00  0.00     0.010 C 
HETATM   18  C23 UNL     1      -2.893  -0.393   0.324  1.00  0.00    -0.032 C 
HETATM   19  C24 UNL     1      -2.662  -0.321   1.813  1.00  0.00     0.016 C 
HETATM   20  C25 UNL     1      -4.249  -0.978   0.089  1.00  0.00     0.026 C 
ENDROOT
BRANCH  10  21
HETATM   21  O1  UNL     1       4.464   1.841   1.300  1.00  0.00    -0.381 OA
ATOM     22  H1  UNL     1       5.017   2.454   0.830  1.00  0.00     0.211 HD
ENDBRANCH  10  21
BRANCH  10  23
HETATM   23  C11 UNL     1       5.210   0.234  -0.244  1.00  0.00     0.149 C 
BRANCH  23  24
HETATM   24  O2  UNL     1       4.939  -0.583  -1.240  1.00  0.00    -0.347 OA
ATOM     25  H2  UNL     1       5.683  -1.010  -1.649  1.00  0.00     0.219 HD
ENDBRANCH  23  24
BRANCH  23  26
HETATM   26  N1  UNL     1       6.577   0.323   0.030  1.00  0.00    -0.361 N 
BRANCH  26  27
HETATM   27  C12 UNL     1       7.493  -0.448  -0.870  1.00  0.00     0.120 C 
HETATM   28  C13 UNL     1       7.845   0.484  -1.989  1.00  0.00     0.026 C 
ENDBRANCH  26  27
BRANCH  26  29
HETATM   29  C14 UNL     1       7.201   1.033   1.098  1.00  0.00     0.150 C 
BRANCH  29  30
HETATM   30  C15 UNL     1       7.449   0.222   2.337  1.00  0.00     0.183 C 
BRANCH  30  31
HETATM   31  O3  UNL     1       6.327  -0.318   2.924  1.00  0.00    -0.399 OA
ATOM     32  H3  UNL     1       6.484  -0.831   3.708  1.00  0.00     0.209 HD
ENDBRANCH  30  31
ENDBRANCH  29  30
ENDBRANCH  26  29
ENDBRANCH  23  26
ENDBRANCH  10  23
BRANCH  20  33
HETATM   33  C26 UNL     1      -5.418  -0.114  -0.155  1.00  0.00    -0.006 C 
HETATM   34  C27 UNL     1      -6.667  -1.031  -0.051  1.00  0.00     0.011 C 
BRANCH  33  35
HETATM   35  C28 UNL     1      -5.585   0.892   0.954  1.00  0.00     0.037 C 
BRANCH  35  36
HETATM   36  C29 UNL     1      -6.667   1.893   0.810  1.00  0.00     0.044 C 
BRANCH  36  37
HETATM   37  C30 UNL     1      -8.053   1.599   0.800  1.00  0.00     0.250 C 
HETATM   38  N2  UNL     1      -8.895   2.257  -0.183  1.00  0.00    -0.058 NA
HETATM   39  O4  UNL     1      -8.658   0.827   1.561  1.00  0.00    -0.272 OA
ENDBRANCH  36  37
ENDBRANCH  35  36
ENDBRANCH  33  35
ENDBRANCH  20  33
TORSDOF 12
