REMARK  11 active torsions:
REMARK  status: ('A' for Active; 'I' for Inactive)
REMARK    1  A    between atoms: C2_2  and  C3_3 
REMARK    2  A    between atoms: C3_3  and  N1_4 
REMARK    3  A    between atoms: N1_4  and  C4_5 
REMARK    4  A    between atoms: N1_4  and  C9_22 
REMARK    5  A    between atoms: C4_5  and  C5_6 
REMARK       I    between atoms: C5_6  and  N2_8 
REMARK    6  A    between atoms: N4_15  and  N5_17 
REMARK    7  A    between atoms: C9_22  and  C10_23 
REMARK    8  A    between atoms: C12_25  and  O3_26 
REMARK    9  A    between atoms: O3_26  and  C13_27 
REMARK   10  A    between atoms: C13_27  and  C14_28 
REMARK   11  A    between atoms: C14_28  and  N7_29 
ROOT
HETATM    1  N1  UNL     1      -1.751   0.355   0.436  1.00  0.00    -0.356 N 
ENDROOT
BRANCH   1   2
HETATM    2  C3  UNL     1      -1.407   1.681   0.706  1.00  0.00     0.090 C 
BRANCH   2   3
HETATM    3  C2  UNL     1      -0.047   1.977   1.158  1.00  0.00     0.007 C 
HETATM    4  C1  UNL     1       0.728   2.797   0.464  1.00  0.00     0.012 C 
ENDBRANCH   2   3
ENDBRANCH   1   2
BRANCH   1   5
HETATM    5  C4  UNL     1      -3.076   0.057   0.039  1.00  0.00     0.231 C 
BRANCH   5   6
HETATM    6  C5  UNL     1      -4.088   0.233   1.100  1.00  0.00     0.256 C 
HETATM    7  O1  UNL     1      -3.739   0.612   2.241  1.00  0.00    -0.271 OA
HETATM    8  N2  UNL     1      -5.480  -0.018   0.877  1.00  0.00    -0.139 N 
HETATM    9  C6  UNL     1      -6.512   0.128   1.875  1.00  0.00     0.254 C 
HETATM   10  C8  UNL     1      -6.110  -0.443  -0.320  1.00  0.00     0.706 C 
HETATM   11  C7  UNL     1      -7.705   0.398   1.059  1.00  0.00     0.254 C 
HETATM   12  O2  UNL     1      -8.715   1.029   1.423  1.00  0.00    -0.271 OA
HETATM   13  N3  UNL     1      -7.501  -0.196  -0.238  1.00  0.00    -0.157 N 
ATOM     14  H3  UNL     1      -8.208  -0.396  -0.946  1.00  0.00     0.187 HD
HETATM   15  N4  UNL     1      -5.512  -0.964  -1.316  1.00  0.00    -0.117 N 
ATOM     16  H4  UNL     1      -4.502  -1.079  -1.234  1.00  0.00     0.207 HD
BRANCH  15  17
HETATM   17  N5  UNL     1      -6.089  -1.388  -2.492  1.00  0.00    -0.235 N 
HETATM   18  N6  UNL     1      -6.903  -0.630  -3.092  1.00  0.00    -0.330 N 
ATOM     19  H62 UNL     1      -7.120   0.284  -2.695  1.00  0.00     0.178 HD
ATOM     20  H61 UNL     1      -7.330  -0.944  -3.963  1.00  0.00     0.178 HD
ATOM     21  H5  UNL     1      -5.862  -2.305  -2.875  1.00  0.00     0.208 HD
ENDBRANCH  15  17
ENDBRANCH   5   6
ENDBRANCH   1   5
BRANCH   1  22
HETATM   22  C9  UNL     1      -0.911  -0.715   0.777  1.00  0.00     0.121 C 
BRANCH  22  23
HETATM   23  C10 UNL     1       0.370  -0.736   0.077  1.00  0.00     0.067 A 
HETATM   24  C11 UNL     1       1.590  -0.980   0.669  1.00  0.00     0.089 A 
HETATM   25  C12 UNL     1       2.574  -0.934  -0.315  1.00  0.00     0.159 A 
HETATM   26  N8  UNL     1       1.903  -0.666  -1.447  1.00  0.00    -0.280 N 
HETATM   27  N9  UNL     1       0.606  -0.546  -1.235  1.00  0.00    -0.297 N 
ATOM     28  H8  UNL     1       2.343  -0.567  -2.362  1.00  0.00     0.189 HD
ATOM     29  H9  UNL     1      -0.098  -0.344  -1.945  1.00  0.00     0.187 HD
BRANCH  25  30
HETATM   30  O3  UNL     1       3.936  -1.130  -0.115  1.00  0.00    -0.333 OA
BRANCH  30  31
HETATM   31  C13 UNL     1       4.804  -1.052  -1.206  1.00  0.00     0.207 C 
BRANCH  31  32
HETATM   32  C14 UNL     1       6.250  -1.298  -0.798  1.00  0.00     0.298 C 
BRANCH  32  33
HETATM   33  N7  UNL     1       6.648  -0.312   0.168  1.00  0.00     0.082 N 
HETATM   34  C15 UNL     1       8.025  -0.555   0.559  1.00  0.00     0.309 C 
HETATM   35  C16 UNL     1       6.457   1.028  -0.330  1.00  0.00     0.309 C 
ENDBRANCH  32  33
ENDBRANCH  31  32
ENDBRANCH  30  31
ENDBRANCH  25  30
ENDBRANCH  22  23
ENDBRANCH   1  22
TORSDOF 11
