REMARK  12 active torsions:
REMARK  status: ('A' for Active; 'I' for Inactive)
REMARK    1  A    between atoms: N3_4  and  C2_6 
REMARK    2  A    between atoms: C2_6  and  C3_7 
REMARK    3  A    between atoms: C3_7  and  C4_8 
REMARK    4  A    between atoms: C4_8  and  C5_9 
REMARK    5  A    between atoms: C5_9  and  C6_10 
REMARK    6  A    between atoms: C6_10  and  C7_11 
REMARK       I    between atoms: C7_11  and  N4_13 
REMARK       I    between atoms: N5_16  and  C10_17 
REMARK    7  A    between atoms: C10_17  and  C11_19 
REMARK    8  A    between atoms: C11_19  and  N6_20 
REMARK    9  A    between atoms: C11_19  and  C12_24 
REMARK   10  A    between atoms: C12_24  and  C13_25 
REMARK   11  A    between atoms: C13_25  and  C14_26 
REMARK   12  A    between atoms: C14_26  and  N7_27 
ROOT
HETATM    1  C7  UNL     1       1.716   0.023   1.359  1.00  0.00     0.221 C 
HETATM    2  O1  UNL     1       2.536   0.566   2.172  1.00  0.00    -0.273 OA
HETATM    3  N4  UNL     1       0.488  -0.515   1.811  1.00  0.00    -0.334 N 
HETATM    4  C8  UNL     1       0.005  -0.535   3.160  1.00  0.00     0.147 C 
HETATM    5  C9  UNL     1      -1.461  -0.222   2.943  1.00  0.00     0.147 C 
HETATM    6  N5  UNL     1      -1.745  -1.021   1.740  1.00  0.00    -0.332 N 
HETATM    7  C10 UNL     1      -3.011  -1.549   1.412  1.00  0.00     0.251 C 
HETATM    8  O2  UNL     1      -3.988  -1.323   2.214  1.00  0.00    -0.271 OA
HETATM    9  C16 UNL     1      -0.513  -1.150   0.992  1.00  0.00     0.255 C 
ENDROOT
BRANCH   7  10
HETATM   10  C11 UNL     1      -3.304  -2.350   0.204  1.00  0.00     0.275 C 
BRANCH  10  11
HETATM   11  N6  UNL     1      -2.200  -2.572  -0.668  1.00  0.00    -0.067 N 
ATOM     12  H63 UNL     1      -1.780  -1.681  -0.933  1.00  0.00     0.275 HD
ATOM     13  H62 UNL     1      -1.426  -2.990  -0.152  1.00  0.00     0.275 HD
ATOM     14  H61 UNL     1      -2.402  -3.125  -1.501  1.00  0.00     0.275 HD
ENDBRANCH  10  11
BRANCH  10  15
HETATM   15  C12 UNL     1      -4.415  -1.711  -0.624  1.00  0.00     0.044 C 
BRANCH  15  16
HETATM   16  C13 UNL     1      -3.994  -0.333  -1.055  1.00  0.00     0.022 C 
BRANCH  16  17
HETATM   17  C14 UNL     1      -5.062   0.350  -1.883  1.00  0.00     0.122 C 
BRANCH  17  18
HETATM   18  N7  UNL     1      -6.292   0.494  -1.152  1.00  0.00    -0.367 N 
HETATM   19  C15 UNL     1      -7.170   1.414  -1.386  1.00  0.00     0.196 C 
HETATM   20  N8  UNL     1      -8.347   1.447  -0.588  1.00  0.00    -0.067 NA
HETATM   21  N9  UNL     1      -6.955   2.379  -2.431  1.00  0.00    -0.067 NA
ATOM     22  H7  UNL     1      -6.484  -0.171  -0.402  1.00  0.00     0.161 HD
ENDBRANCH  17  18
ENDBRANCH  16  17
ENDBRANCH  15  16
ENDBRANCH  10  15
ENDBRANCH   7  10
BRANCH   1  23
HETATM   23  C6  UNL     1       2.104  -0.019  -0.072  1.00  0.00     0.103 C 
BRANCH  23  24
HETATM   24  C5  UNL     1       3.494   0.664  -0.172  1.00  0.00     0.009 C 
BRANCH  24  25
HETATM   25  C4  UNL     1       3.879   0.620  -1.606  1.00  0.00     0.002 C 
BRANCH  25  26
HETATM   26  C3  UNL     1       5.154   1.278  -1.935  1.00  0.00     0.020 C 
BRANCH  26  27
HETATM   27  C2  UNL     1       6.374   0.736  -1.266  1.00  0.00     0.122 C 
BRANCH  27  28
HETATM   28  N3  UNL     1       6.309   0.887   0.144  1.00  0.00    -0.367 N 
HETATM   29  C1  UNL     1       7.189   0.496   0.984  1.00  0.00     0.196 C 
HETATM   30  N1  UNL     1       8.359  -0.152   0.541  1.00  0.00    -0.067 NA
HETATM   31  N2  UNL     1       6.986   0.716   2.361  1.00  0.00    -0.067 NA
ATOM     32  H3  UNL     1       5.483   1.351   0.522  1.00  0.00     0.161 HD
ENDBRANCH  27  28
ENDBRANCH  26  27
ENDBRANCH  25  26
ENDBRANCH  24  25
ENDBRANCH  23  24
ENDBRANCH   1  23
TORSDOF 12
