REMARK  12 active torsions:
REMARK  status: ('A' for Active; 'I' for Inactive)
REMARK    1  A    between atoms: N1_2  and  C3_4 
REMARK    2  A    between atoms: C3_4  and  C4_5 
REMARK    3  A    between atoms: C4_5  and  C5_6 
REMARK    4  A    between atoms: C5_6  and  N2_7 
REMARK    5  A    between atoms: N5_14  and  C9_15 
REMARK    6  A    between atoms: C9_15  and  C10_16 
REMARK    7  A    between atoms: C10_16  and  C11_17 
REMARK    8  A    between atoms: C11_17  and  C12_18 
REMARK    9  A    between atoms: C12_18  and  O1_19 
REMARK   10  A    between atoms: C13_21  and  C14_22 
REMARK   11  A    between atoms: C14_22  and  C15_23 
REMARK   12  A    between atoms: C15_23  and  O2_24 
ROOT
HETATM    1  N2  UNL     1       1.834   0.079   0.468  1.00  0.00    -0.373 N 
ATOM      2  H2  UNL     1       2.110   1.009   0.782  1.00  0.00     0.161 HD
HETATM    3  C6  UNL     1       0.591   0.046   0.466  1.00  0.00     0.148 A 
HETATM    4  C7  UNL     1      -0.104   1.212   0.869  1.00  0.00     0.177 A 
HETATM    5  N3  UNL     1       0.667   2.360   1.265  1.00  0.00    -0.077 NA
HETATM    6  N4  UNL     1      -1.439   1.270   0.889  1.00  0.00    -0.277 N 
HETATM    7  C8  UNL     1      -2.116   2.492   1.337  1.00  0.00     0.179 C 
HETATM    8  N5  UNL     1      -2.153   0.221   0.526  1.00  0.00    -0.277 N 
HETATM    9  C13 UNL     1      -1.488  -0.910   0.137  1.00  0.00     0.103 A 
HETATM   10  N6  UNL     1      -0.144  -1.014   0.101  1.00  0.00    -0.323 N 
HETATM   11  C16 UNL     1       0.500  -2.270  -0.317  1.00  0.00     0.159 C 
ENDROOT
BRANCH   1  12
HETATM   12  C5  UNL     1       2.980  -0.619   0.222  1.00  0.00     0.123 C 
BRANCH  12  13
HETATM   13  C4  UNL     1       4.199   0.344   0.202  1.00  0.00     0.050 C 
BRANCH  13  14
HETATM   14  C3  UNL     1       5.434  -0.502  -0.078  1.00  0.00     0.273 C 
BRANCH  14  15
HETATM   15  N1  UNL     1       6.574   0.424  -0.092  1.00  0.00     0.080 N 
HETATM   16  C1  UNL     1       7.792  -0.318  -0.355  1.00  0.00     0.309 C 
HETATM   17  C2  UNL     1       6.392   1.411  -1.113  1.00  0.00     0.309 C 
ENDBRANCH  14  15
ENDBRANCH  13  14
ENDBRANCH  12  13
ENDBRANCH   1  12
BRANCH   9  18
HETATM   18  C14 UNL     1      -2.298  -2.075  -0.231  1.00  0.00     0.104 C 
BRANCH  18  19
HETATM   19  C15 UNL     1      -2.531  -3.034   0.934  1.00  0.00     0.171 C 
BRANCH  19  20
HETATM   20  O2  UNL     1      -3.311  -4.122   0.490  1.00  0.00    -0.400 OA
ATOM     21  H2  UNL     1      -3.456  -4.719   1.215  1.00  0.00     0.209 HD
ENDBRANCH  19  20
ENDBRANCH  18  19
ENDBRANCH   9  18
BRANCH   8  22
HETATM   22  C9  UNL     1      -3.574   0.308   0.533  1.00  0.00     0.151 C 
BRANCH  22  23
HETATM   23  C10 UNL     1      -4.191   0.797  -0.762  1.00  0.00     0.024 C 
BRANCH  23  24
HETATM   24  C11 UNL     1      -5.723   0.834  -0.626  1.00  0.00     0.028 C 
BRANCH  24  25
HETATM   25  C12 UNL     1      -6.232   1.335  -1.970  1.00  0.00     0.164 C 
BRANCH  25  26
HETATM   26  O1  UNL     1      -7.602   1.426  -2.014  1.00  0.00    -0.401 OA
ATOM     27  H1  UNL     1      -7.920   1.739  -2.853  1.00  0.00     0.209 HD
ENDBRANCH  25  26
ENDBRANCH  24  25
ENDBRANCH  23  24
ENDBRANCH  22  23
ENDBRANCH   8  22
TORSDOF 12
