REMARK  13 active torsions:
REMARK  status: ('A' for Active; 'I' for Inactive)
REMARK    1  A    between atoms: C2_2  and  C4_4 
REMARK    2  A    between atoms: C4_4  and  C5_5 
REMARK    3  A    between atoms: C5_5  and  N1_6 
REMARK    4  A    between atoms: C5_5  and  C13_19 
REMARK       I    between atoms: N1_6  and  C6_8 
REMARK    5  A    between atoms: C6_8  and  C7_10 
REMARK    6  A    between atoms: C7_10  and  N2_12 
REMARK       I    between atoms: N2_12  and  C9_14 
REMARK    7  A    between atoms: C9_14  and  C10_16 
REMARK       I    between atoms: C13_19  and  N3_21 
REMARK    8  A    between atoms: C17_25  and  C18_26 
REMARK       I    between atoms: C18_26  and  N4_28 
REMARK    9  A    between atoms: N4_28  and  C19_30 
REMARK   10  A    between atoms: C19_30  and  C20_31 
REMARK   11  A    between atoms: C19_30  and  C21_33 
REMARK   12  A    between atoms: C21_33  and  C22_34 
REMARK   13  A    between atoms: C22_34  and  C23_35 
ROOT
HETATM    1  C13 UNL     1       0.342  -1.980  -1.607  1.00  0.00     0.243 C 
HETATM    2  O3  UNL     1      -0.518  -1.931  -2.578  1.00  0.00    -0.271 OA
HETATM    3  N3  UNL     1       1.569  -2.614  -1.932  1.00  0.00    -0.337 N 
HETATM    4  C14 UNL     1       1.795  -3.159  -3.297  1.00  0.00     0.127 C 
HETATM    5  C15 UNL     1       2.585  -4.422  -3.070  1.00  0.00     0.022 C 
HETATM    6  C16 UNL     1       3.494  -4.025  -1.925  1.00  0.00     0.037 C 
HETATM    7  C17 UNL     1       2.767  -2.886  -1.211  1.00  0.00     0.179 C 
ENDROOT
BRANCH   1   8
HETATM    8  C5  UNL     1      -0.038  -1.388  -0.316  1.00  0.00     0.177 C 
BRANCH   8   9
HETATM    9  C4  UNL     1      -0.058  -2.289   0.854  1.00  0.00     0.038 C 
BRANCH   9  10
HETATM   10  C2  UNL     1      -0.942  -3.469   0.872  1.00  0.00    -0.020 C 
HETATM   11  C1  UNL     1      -2.416  -3.237   0.783  1.00  0.00     0.009 C 
HETATM   12  C3  UNL     1      -0.701  -4.228   2.196  1.00  0.00     0.009 C 
ENDBRANCH   9  10
ENDBRANCH   8   9
BRANCH   8  13
HETATM   13  N1  UNL     1      -1.363  -0.801  -0.499  1.00  0.00    -0.346 N 
HETATM   14  C6  UNL     1      -1.684   0.518  -0.065  1.00  0.00     0.240 C 
HETATM   15  O1  UNL     1      -0.808   1.214   0.496  1.00  0.00    -0.271 OA
ATOM     16  H1  UNL     1      -2.087  -1.357  -0.955  1.00  0.00     0.163 HD
BRANCH  14  17
HETATM   17  C7  UNL     1      -3.033   1.048  -0.280  1.00  0.00     0.172 C 
HETATM   18  C8  UNL     1      -3.325   1.139  -1.781  1.00  0.00     0.042 C 
BRANCH  17  19
HETATM   19  N2  UNL     1      -3.108   2.423   0.225  1.00  0.00    -0.348 N 
HETATM   20  C9  UNL     1      -4.103   2.795   1.174  1.00  0.00     0.221 C 
HETATM   21  O2  UNL     1      -4.947   1.960   1.608  1.00  0.00    -0.273 OA
ATOM     22  H2  UNL     1      -2.441   3.120  -0.107  1.00  0.00     0.163 HD
BRANCH  20  23
HETATM   23  C10 UNL     1      -4.147   4.194   1.659  1.00  0.00     0.070 C 
HETATM   24  C11 UNL     1      -5.276   4.347   2.628  1.00  0.00     0.019 C 
HETATM   25  C12 UNL     1      -2.839   4.578   2.336  1.00  0.00     0.019 C 
ENDBRANCH  20  23
ENDBRANCH  17  19
ENDBRANCH  14  17
ENDBRANCH   8  13
ENDBRANCH   1   8
BRANCH   7  26
HETATM   26  C18 UNL     1       3.665  -1.725  -1.033  1.00  0.00     0.241 C 
HETATM   27  O4  UNL     1       4.784  -1.909  -0.442  1.00  0.00    -0.271 OA
HETATM   28  N4  UNL     1       3.398  -0.405  -1.462  1.00  0.00    -0.348 N 
ATOM     29  H4  UNL     1       2.513  -0.218  -1.933  1.00  0.00     0.163 HD
BRANCH  28  30
HETATM   30  C19 UNL     1       4.318   0.692  -1.265  1.00  0.00     0.146 C 
BRANCH  30  31
HETATM   31  C20 UNL     1       4.660   1.299  -2.559  1.00  0.00     0.256 C 
HETATM   32  O5  UNL     1       4.161   0.843  -3.592  1.00  0.00    -0.305 OA
ENDBRANCH  30  31
BRANCH  30  33
HETATM   33  C21 UNL     1       3.826   1.752  -0.327  1.00  0.00     0.041 C 
BRANCH  33  34
HETATM   34  C22 UNL     1       2.549   2.418  -0.759  1.00  0.00     0.102 C 
BRANCH  34  35
HETATM   35  C23 UNL     1       2.191   3.449   0.279  1.00  0.00     0.231 C 
HETATM   36  N5  UNL     1       1.015   4.234   0.141  1.00  0.00    -0.062 NA
HETATM   37  O6  UNL     1       2.926   3.639   1.292  1.00  0.00    -0.277 OA
ENDBRANCH  34  35
ENDBRANCH  33  34
ENDBRANCH  30  33
ENDBRANCH  28  30
ENDBRANCH   7  26
TORSDOF 13
