REMARK  15 active torsions:
REMARK  status: ('A' for Active; 'I' for Inactive)
REMARK       I    between atoms: C2_2  and  N1_4 
REMARK    1  A    between atoms: N1_4  and  C3_6 
REMARK    2  A    between atoms: C3_6  and  C4_7 
REMARK    3  A    between atoms: C3_6  and  C7_10 
REMARK    4  A    between atoms: C7_10  and  C8_11 
REMARK    5  A    between atoms: C7_10  and  N4_30 
REMARK    6  A    between atoms: C8_11  and  C9_12 
REMARK       I    between atoms: C9_12  and  N2_14 
REMARK    7  A    between atoms: N2_14  and  C10_16 
REMARK    8  A    between atoms: C10_16  and  C11_17 
REMARK    9  A    between atoms: C10_16  and  C15_21 
REMARK   10  A    between atoms: C11_17  and  C12_18 
REMARK       I    between atoms: C15_21  and  N3_23 
REMARK   11  A    between atoms: C19_27  and  C20_28 
REMARK   12  A    between atoms: N4_30  and  C21_32 
REMARK   13  A    between atoms: C21_32  and  C22_33 
REMARK   14  A    between atoms: C21_32  and  C23_35 
REMARK   15  A    between atoms: C23_35  and  C24_36 
ROOT
HETATM    1  C8  UNL     1      -1.081   1.143  -0.813  1.00  0.00     0.105 C 
ENDROOT
BRANCH   1   2
HETATM    2  C7  UNL     1      -2.472   0.595  -0.941  1.00  0.00     0.057 C 
BRANCH   2   3
HETATM    3  C3  UNL     1      -3.091  -0.058   0.197  1.00  0.00     0.042 C 
BRANCH   3   4
HETATM    4  N1  UNL     1      -2.449  -1.253   0.650  1.00  0.00    -0.329 N 
HETATM    5  C2  UNL     1      -2.079  -1.734   1.895  1.00  0.00     0.217 C 
HETATM    6  C1  UNL     1      -1.411  -3.107   1.967  1.00  0.00     0.117 C 
HETATM    7  O1  UNL     1      -2.222  -1.180   2.993  1.00  0.00    -0.274 OA
ATOM      8  H1  UNL     1      -2.212  -1.890  -0.110  1.00  0.00     0.168 HD
ENDBRANCH   3   4
BRANCH   3   9
HETATM    9  C4  UNL     1      -3.573   0.859   1.294  1.00  0.00     0.030 C 
HETATM   10  C5  UNL     1      -4.651   0.230   2.130  1.00  0.00     0.016 C 
HETATM   11  C6  UNL     1      -3.947   2.233   0.938  1.00  0.00     0.016 C 
ENDBRANCH   3   9
ENDBRANCH   2   3
BRANCH   2  12
HETATM   12  N4  UNL     1      -3.231   1.361  -1.869  1.00  0.00    -0.377 N 
ATOM     13  H4  UNL     1      -3.024   2.359  -1.891  1.00  0.00     0.160 HD
BRANCH  12  14
HETATM   14  C21 UNL     1      -4.192   0.942  -2.727  1.00  0.00     0.149 C 
BRANCH  14  15
HETATM   15  C22 UNL     1      -5.531   0.501  -2.403  1.00  0.00     0.256 C 
HETATM   16  O5  UNL     1      -6.106   0.547  -1.371  1.00  0.00    -0.305 OA
ENDBRANCH  14  15
BRANCH  14  17
HETATM   17  C23 UNL     1      -4.390   2.118  -3.765  1.00  0.00     0.101 C 
BRANCH  17  18
HETATM   18  C24 UNL     1      -4.807   3.281  -2.945  1.00  0.00     0.233 C 
HETATM   19  O6  UNL     1      -5.026   4.360  -3.503  1.00  0.00    -0.307 OA
ENDBRANCH  17  18
ENDBRANCH  14  17
ENDBRANCH  12  14
ENDBRANCH   2  12
ENDBRANCH   1   2
BRANCH   1  20
HETATM   20  C9  UNL     1       0.066   0.333  -0.570  1.00  0.00     0.244 C 
HETATM   21  O2  UNL     1       0.151  -0.897  -0.719  1.00  0.00    -0.269 OA
HETATM   22  N2  UNL     1       1.270   0.963  -0.103  1.00  0.00    -0.344 N 
ATOM     23  H2  UNL     1       1.256   1.974   0.035  1.00  0.00     0.163 HD
BRANCH  22  24
HETATM   24  C10 UNL     1       2.496   0.262   0.184  1.00  0.00     0.177 C 
BRANCH  24  25
HETATM   25  C11 UNL     1       2.318  -0.738   1.304  1.00  0.00     0.038 C 
BRANCH  25  26
HETATM   26  C12 UNL     1       1.865   0.101   2.519  1.00  0.00    -0.020 C 
HETATM   27  C13 UNL     1       2.962   1.115   2.809  1.00  0.00     0.009 C 
HETATM   28  C14 UNL     1       1.849  -0.857   3.698  1.00  0.00     0.009 C 
ENDBRANCH  25  26
ENDBRANCH  24  25
BRANCH  24  29
HETATM   29  C15 UNL     1       3.142  -0.257  -1.021  1.00  0.00     0.243 C 
HETATM   30  O3  UNL     1       2.493  -0.069  -2.119  1.00  0.00    -0.271 OA
HETATM   31  N3  UNL     1       4.362  -0.924  -1.150  1.00  0.00    -0.339 N 
HETATM   32  C16 UNL     1       4.930  -1.433  -2.417  1.00  0.00     0.127 C 
HETATM   33  C19 UNL     1       5.390  -1.287  -0.198  1.00  0.00     0.148 C 
HETATM   34  C17 UNL     1       6.317  -0.820  -2.351  1.00  0.00     0.022 C 
HETATM   35  C18 UNL     1       6.711  -0.972  -0.918  1.00  0.00     0.034 C 
BRANCH  33  36
HETATM   36  C20 UNL     1       5.385  -2.759  -0.022  1.00  0.00     0.256 C 
HETATM   37  O4  UNL     1       6.145  -3.358   0.716  1.00  0.00    -0.305 OA
ENDBRANCH  33  36
ENDBRANCH  24  29
ENDBRANCH  22  24
ENDBRANCH   1  20
TORSDOF 15
