REMARK  17 active torsions:
REMARK  status: ('A' for Active; 'I' for Inactive)
REMARK    1  A    between atoms: C2_2  and  C4_4 
REMARK    2  A    between atoms: C5_7  and  O1_8 
REMARK    3  A    between atoms: C6_10  and  C7_11 
REMARK    4  A    between atoms: C7_11  and  C8_12 
REMARK    5  A    between atoms: C8_12  and  O2_13 
REMARK    6  A    between atoms: C8_12  and  C9_15 
REMARK    7  A    between atoms: C9_15  and  C10_16 
REMARK    8  A    between atoms: C10_16  and  C11_17 
REMARK    9  A    between atoms: C11_17  and  C12_18 
REMARK   10  A    between atoms: C12_18  and  C13_19 
REMARK   11  A    between atoms: C13_19  and  C14_20 
REMARK   12  A    between atoms: C14_20  and  C15_21 
REMARK   13  A    between atoms: C15_21  and  C16_22 
REMARK   14  A    between atoms: C16_22  and  O3_23 
REMARK   15  A    between atoms: C16_22  and  C17_25 
REMARK   16  A    between atoms: C17_25  and  C18_26 
REMARK   17  A    between atoms: C25_44  and  C26_45 
ROOT
HETATM    1  C4  UNL     1      -4.931  -1.322  -0.251  1.00  0.00     0.033 C 
HETATM    2  N1  UNL     1      -3.626  -0.990  -0.676  1.00  0.00    -0.343 N 
ATOM      3  H1  UNL     1      -3.206  -1.831  -1.073  1.00  0.00     0.167 HD
HETATM    4  C5  UNL     1      -2.703   0.016  -0.765  1.00  0.00     0.120 C 
HETATM    5  C6  UNL     1      -1.808   0.730   0.157  1.00  0.00     0.065 C 
HETATM    6  C20 UNL     1      -2.387   1.642   1.171  1.00  0.00     0.039 C 
HETATM    7  C21 UNL     1      -2.853   2.981   0.652  1.00  0.00     0.168 C 
HETATM    8  O5  UNL     1      -3.243   2.961  -0.679  1.00  0.00    -0.389 OA
HETATM    9  C22 UNL     1      -4.290   3.893  -0.867  1.00  0.00     0.195 C 
HETATM   10  C23 UNL     1      -5.560   3.069  -0.933  1.00  0.00     0.266 C 
HETATM   11  N4  UNL     1      -5.383   1.952  -0.013  1.00  0.00    -0.003 N 
ATOM     12  H41 UNL     1      -5.598   2.210   0.950  1.00  0.00     0.284 HD
ATOM     13  H42 UNL     1      -4.400   1.712   0.115  1.00  0.00     0.284 HD
HETATM   14  C24 UNL     1      -6.143   0.855  -0.450  1.00  0.00     0.440 C 
HETATM   15  F1  UNL     1      -7.487   1.274  -0.420  1.00  0.00    -0.170 F 
HETATM   16  F2  UNL     1      -5.920   0.572  -1.784  1.00  0.00    -0.170 F 
HETATM   17  C25 UNL     1      -5.953  -0.463   0.291  1.00  0.00     0.148 C 
ENDROOT
BRANCH   5  18
HETATM   18  C7  UNL     1      -0.818  -0.148   0.901  1.00  0.00     0.044 C 
BRANCH  18  19
HETATM   19  C8  UNL     1       0.105  -0.904   0.021  1.00  0.00     0.118 C 
BRANCH  19  20
HETATM   20  O2  UNL     1       0.947  -1.658   0.842  1.00  0.00    -0.396 OA
ATOM     21  H2  UNL     1       1.538  -2.142   0.278  1.00  0.00     0.210 HD
ENDBRANCH  19  20
BRANCH  19  22
HETATM   22  C9  UNL     1       1.034   0.025  -0.773  1.00  0.00     0.032 C 
BRANCH  22  23
HETATM   23  C10 UNL     1       1.933  -0.831  -1.638  1.00  0.00     0.002 C 
BRANCH  23  24
HETATM   24  C11 UNL     1       2.874   0.019  -2.453  1.00  0.00     0.000 C 
BRANCH  24  25
HETATM   25  C12 UNL     1       3.733   0.837  -1.536  1.00  0.00     0.000 C 
BRANCH  25  26
HETATM   26  C13 UNL     1       4.572  -0.006  -0.595  1.00  0.00     0.000 C 
BRANCH  26  27
HETATM   27  C14 UNL     1       5.490  -0.906  -1.363  1.00  0.00     0.002 C 
BRANCH  27  28
HETATM   28  C15 UNL     1       6.298  -1.730  -0.396  1.00  0.00     0.032 C 
BRANCH  28  29
HETATM   29  C16 UNL     1       7.133  -0.868   0.514  1.00  0.00     0.125 C 
BRANCH  29  30
HETATM   30  O3  UNL     1       7.861  -1.702   1.383  1.00  0.00    -0.395 OA
ATOM     31  H3  UNL     1       8.388  -1.158   1.957  1.00  0.00     0.210 HD
ENDBRANCH  29  30
BRANCH  29  32
HETATM   32  C17 UNL     1       8.143  -0.065  -0.282  1.00  0.00     0.117 C 
BRANCH  32  33
HETATM   33  C18 UNL     1       8.945   0.771   0.658  1.00  0.00     0.141 A 
HETATM   34  N2  UNL     1      10.095   0.462   1.285  1.00  0.00    -0.282 N 
HETATM   35  N3  UNL     1      10.426   1.532   2.020  1.00  0.00    -0.288 N 
ATOM     36  H2  UNL     1      10.613  -0.414   1.215  1.00  0.00     0.189 HD
HETATM   37  C19 UNL     1       9.495   2.485   1.848  1.00  0.00     0.251 A 
ATOM     38  H3  UNL     1      11.251   1.610   2.614  1.00  0.00     0.188 HD
HETATM   39  O4  UNL     1       8.615   1.988   1.017  1.00  0.00    -0.290 OA
ENDBRANCH  32  33
ENDBRANCH  29  32
ENDBRANCH  28  29
ENDBRANCH  27  28
ENDBRANCH  26  27
ENDBRANCH  25  26
ENDBRANCH  24  25
ENDBRANCH  23  24
ENDBRANCH  22  23
ENDBRANCH  19  22
ENDBRANCH  18  19
ENDBRANCH   5  18
BRANCH   4  40
HETATM   40  O1  UNL     1      -2.522   0.516  -1.978  1.00  0.00    -0.349 OA
ATOM     41  H1  UNL     1      -1.881   1.215  -2.040  1.00  0.00     0.219 HD
ENDBRANCH   4  40
BRANCH   1  42
HETATM   42  C2  UNL     1      -4.942  -2.693   0.448  1.00  0.00     0.028 C 
HETATM   43  C1  UNL     1      -4.053  -2.781   1.632  1.00  0.00     0.016 C 
HETATM   44  C3  UNL     1      -4.406  -3.760  -0.538  1.00  0.00     0.016 C 
ENDBRANCH   1  42
BRANCH  17  45
HETATM   45  C26 UNL     1      -6.382  -0.435   1.704  1.00  0.00     0.423 C 
HETATM   46  F3  UNL     1      -5.487  -0.152   2.672  1.00  0.00    -0.166 F 
HETATM   47  F4  UNL     1      -7.108  -1.528   2.153  1.00  0.00    -0.166 F 
HETATM   48  F5  UNL     1      -7.382   0.583   1.885  1.00  0.00    -0.166 F 
ENDBRANCH  17  45
TORSDOF 17
