REMARK  12 active torsions:
REMARK  status: ('A' for Active; 'I' for Inactive)
REMARK    1  A    between atoms: C5_6  and  C6_7 
REMARK    2  A    between atoms: C8_9  and  O2_10 
REMARK    3  A    between atoms: O2_10  and  C9_11 
REMARK    4  A    between atoms: C10_13  and  C11_14 
REMARK    5  A    between atoms: C11_14  and  O4_15 
REMARK    6  A    between atoms: C12_17  and  O5_18 
REMARK    7  A    between atoms: C13_20  and  O6_21 
REMARK    8  A    between atoms: C14_23  and  O7_24 
REMARK    9  A    between atoms: C15_26  and  O8_27 
REMARK   10  A    between atoms: C16_29  and  C17_30 
REMARK   11  A    between atoms: C17_30  and  N1_31 
REMARK   12  A    between atoms: N1_31  and  C18_33 
ROOT
HETATM    1  C6  UNL     1      -0.789   0.876  -2.624  1.00  0.00     0.158 C 
HETATM    2  C7  UNL     1       0.578   0.897  -2.028  1.00  0.00     0.069 C 
HETATM    3  C8  UNL     1       0.673  -0.248  -1.049  1.00  0.00     0.158 C 
HETATM    4  C15 UNL     1      -0.608  -0.891  -0.674  1.00  0.00     0.177 C 
HETATM    5  C16 UNL     1      -1.839  -0.070  -0.811  1.00  0.00     0.170 C 
HETATM    6  O9  UNL     1      -1.676   1.089  -1.555  1.00  0.00    -0.373 OA
ENDROOT
BRANCH   3   7
HETATM    7  O2  UNL     1       1.394   0.189   0.032  1.00  0.00    -0.351 OA
BRANCH   7   8
HETATM    8  C9  UNL     1       2.603  -0.403   0.247  1.00  0.00     0.292 C 
HETATM    9  O3  UNL     1       3.691   0.453   0.091  1.00  0.00    -0.348 OA
HETATM   10  C10 UNL     1       4.830  -0.273  -0.231  1.00  0.00     0.179 C 
HETATM   11  C12 UNL     1       5.038  -1.514   0.542  1.00  0.00     0.180 C 
HETATM   12  C13 UNL     1       3.995  -1.929   1.505  1.00  0.00     0.183 C 
HETATM   13  C14 UNL     1       2.762  -1.072   1.568  1.00  0.00     0.204 C 
BRANCH  10  14
HETATM   14  C11 UNL     1       6.041   0.649  -0.217  1.00  0.00     0.198 C 
BRANCH  14  15
HETATM   15  O4  UNL     1       6.239   1.236   1.029  1.00  0.00    -0.398 OA
ATOM     16  H4  UNL     1       6.995   1.811   1.038  1.00  0.00     0.209 HD
ENDBRANCH  14  15
ENDBRANCH  10  14
BRANCH  11  17
HETATM   17  O5  UNL     1       5.378  -2.582  -0.325  1.00  0.00    -0.390 OA
ATOM     18  H5  UNL     1       5.512  -3.380   0.172  1.00  0.00     0.210 HD
ENDBRANCH  11  17
BRANCH  12  19
HETATM   19  O6  UNL     1       3.541  -3.221   1.145  1.00  0.00    -0.390 OA
ATOM     20  H6  UNL     1       2.871  -3.488   1.764  1.00  0.00     0.210 HD
ENDBRANCH  12  19
BRANCH  13  21
HETATM   21  O7  UNL     1       2.920  -0.183   2.625  1.00  0.00    -0.388 OA
ATOM     22  H7  UNL     1       3.021  -0.610   3.468  1.00  0.00     0.210 HD
ENDBRANCH  13  21
ENDBRANCH   7   8
ENDBRANCH   3   7
BRANCH   4  23
HETATM   23  O8  UNL     1      -0.800  -2.113  -1.362  1.00  0.00    -0.390 OA
ATOM     24  H8  UNL     1      -1.621  -2.525  -1.122  1.00  0.00     0.210 HD
ENDBRANCH   4  23
BRANCH   1  25
HETATM   25  C5  UNL     1      -0.931   2.003  -3.608  1.00  0.00     0.178 C 
HETATM   26  C2  UNL     1      -0.762   3.310  -2.937  1.00  0.00    -0.056 C 
HETATM   27  C1  UNL     1       0.328   4.040  -2.812  1.00  0.00     0.017 C 
HETATM   28  C3  UNL     1      -2.111   3.657  -2.430  1.00  0.00     0.062 C 
HETATM   29  C4  UNL     1      -3.016   2.786  -3.255  1.00  0.00     0.173 C 
HETATM   30  O1  UNL     1      -2.256   1.979  -4.043  1.00  0.00    -0.379 OA
ENDBRANCH   1  25
BRANCH   5  31
HETATM   31  C17 UNL     1      -2.421   0.344   0.535  1.00  0.00     0.149 C 
BRANCH  31  32
HETATM   32  N1  UNL     1      -2.597  -0.838   1.323  1.00  0.00    -0.415 N 
ATOM     33  H1  UNL     1      -2.356  -1.762   0.964  1.00  0.00     0.153 HD
BRANCH  32  34
HETATM   34  C18 UNL     1      -3.125  -0.659   2.630  1.00  0.00     0.076 C 
HETATM   35  C19 UNL     1      -3.276  -2.063   3.236  1.00  0.00     0.024 C 
HETATM   36  C20 UNL     1      -4.674  -2.490   2.898  1.00  0.00     0.002 C 
HETATM   37  C21 UNL     1      -5.468  -1.242   2.713  1.00  0.00     0.002 C 
HETATM   38  C22 UNL     1      -4.521  -0.077   2.682  1.00  0.00     0.024 C 
ENDBRANCH  32  34
ENDBRANCH  31  32
ENDBRANCH   5  31
TORSDOF 12
