REMARK  11 active torsions:
REMARK  status: ('A' for Active; 'I' for Inactive)
REMARK    1  A    between atoms: C2_5  and  N3_6 
REMARK    2  A    between atoms: C4_14  and  N6_15 
REMARK    3  A    between atoms: C5_18  and  N7_19 
REMARK    4  A    between atoms: N7_19  and  N8_21 
REMARK    5  A    between atoms: N8_21  and  C6_23 
REMARK    6  A    between atoms: C7_27  and  N11_28 
REMARK    7  A    between atoms: C8_33  and  N13_34 
REMARK    8  A    between atoms: N15_40  and  C10_41 
REMARK    9  A    between atoms: C10_41  and  O2_42 
REMARK   10  A    between atoms: O2_42  and  C11_43 
REMARK   11  A    between atoms: C11_43  and  C12_44 
ROOT
HETATM    1  C6  UNL     1       0.761   0.844  -0.011  1.00  0.00     0.731 A 
HETATM    2  N9  UNL     1       0.714   2.141   0.340  1.00  0.00    -0.094 N 
ATOM      3  H9  UNL     1      -0.109   2.667   0.634  1.00  0.00     0.207 HD
HETATM    4  N10 UNL     1       1.949   2.598   0.227  1.00  0.00     0.106 N 
HETATM    5  C7  UNL     1       2.397   3.845   0.471  1.00  0.00     0.727 A 
HETATM    6  N12 UNL     1       3.698   4.140   0.303  1.00  0.00    -0.020 N 
ATOM      7  H12 UNL     1       4.057   5.077   0.483  1.00  0.00     0.203 HD
HETATM    8  C8  UNL     1       4.502   3.154  -0.110  1.00  0.00     0.705 A 
HETATM    9  N14 UNL     1       4.072   1.906  -0.358  1.00  0.00    -0.019 N 
ATOM     10  H14 UNL     1       4.730   1.192  -0.671  1.00  0.00     0.203 HD
HETATM   11  C9  UNL     1       2.763   1.596  -0.192  1.00  0.00     0.752 A 
HETATM   12  N15 UNL     1       2.025   0.493  -0.343  1.00  0.00     0.013 N 
ENDROOT
BRANCH   1  13
HETATM   13  N8  UNL     1      -0.301  -0.104  -0.060  1.00  0.00    -0.129 N 
ATOM     14  H8  UNL     1      -0.218  -1.005   0.411  1.00  0.00     0.205 HD
BRANCH  13  15
HETATM   15  N7  UNL     1      -1.370   0.203  -0.713  1.00  0.00    -0.280 N 
ATOM     16  H7  UNL     1      -1.444   1.106  -1.181  1.00  0.00     0.188 HD
BRANCH  15  17
HETATM   17  C5  UNL     1      -2.457  -0.738  -0.777  1.00  0.00     0.139 A 
HETATM   18  C4  UNL     1      -2.362  -1.888  -1.528  1.00  0.00     0.135 A 
HETATM   19  N5  UNL     1      -3.433  -2.693  -1.515  1.00  0.00    -0.292 N 
HETATM   20  C3  UNL     1      -4.551  -2.407  -0.809  1.00  0.00     0.348 A 
ATOM     21  H5  UNL     1      -3.404  -3.555  -2.059  1.00  0.00     0.172 HD
HETATM   22  N4  UNL     1      -4.627  -1.279  -0.081  1.00  0.00    -0.076 N 
HETATM   23  O1  UNL     1      -5.542  -3.183  -0.816  1.00  0.00    -0.245 OA
HETATM   24  C2  UNL     1      -5.583  -0.736   0.705  1.00  0.00     0.703 A 
HETATM   25  C13 UNL     1      -3.583  -0.400  -0.036  1.00  0.00     0.182 A 
HETATM   26  N2  UNL     1      -5.101   0.446   1.202  1.00  0.00    -0.128 N 
HETATM   27  N1  UNL     1      -3.884   0.652   0.752  1.00  0.00    -0.264 N 
ATOM     28  H2  UNL     1      -5.610   1.071   1.827  1.00  0.00     0.206 HD
HETATM   29  C1  UNL     1      -3.000   1.776   1.023  1.00  0.00     0.180 C 
BRANCH  18  30
HETATM   30  N6  UNL     1      -1.299  -2.159  -2.199  1.00  0.00    -0.383 N 
ATOM     31  H62 UNL     1      -1.229  -3.011  -2.755  1.00  0.00     0.157 HD
ATOM     32  H61 UNL     1      -0.484  -1.546  -2.209  1.00  0.00     0.157 HD
ENDBRANCH  18  30
BRANCH  24  33
HETATM   33  N3  UNL     1      -6.742  -1.235   0.948  1.00  0.00    -0.233 N 
ATOM     34  H32 UNL     1      -7.464  -0.825   1.541  1.00  0.00     0.174 HD
ATOM     35  H31 UNL     1      -7.101  -2.115   0.578  1.00  0.00     0.174 HD
ENDBRANCH  24  33
ENDBRANCH  15  17
ENDBRANCH  13  15
ENDBRANCH   1  13
BRANCH  12  36
HETATM   36  C10 UNL     1       2.523  -0.777  -0.773  1.00  0.00     0.337 C 
BRANCH  36  37
HETATM   37  O2  UNL     1       2.944  -1.582   0.279  1.00  0.00    -0.360 OA
BRANCH  37  38
HETATM   38  C11 UNL     1       3.401  -2.778  -0.271  1.00  0.00     0.282 C 
BRANCH  38  39
HETATM   39  C12 UNL     1       3.877  -3.724   0.741  1.00  0.00     0.197 C 
HETATM   40  O3  UNL     1       4.315  -4.841   0.367  1.00  0.00    -0.646 OA
HETATM   41  O4  UNL     1       3.875  -3.462   2.102  1.00  0.00    -0.646 OA
ENDBRANCH  38  39
ENDBRANCH  37  38
ENDBRANCH  36  37
ENDBRANCH  12  36
BRANCH   5  42
HETATM   42  N11 UNL     1       1.588   4.786   0.873  1.00  0.00    -0.232 N 
ATOM     43 2H11 UNL     1       0.601   4.562   1.000  1.00  0.00     0.174 HD
ATOM     44 1H11 UNL     1       1.927   5.730   1.058  1.00  0.00     0.174 HD
ENDBRANCH   5  42
BRANCH   8  45
HETATM   45  N13 UNL     1       5.773   3.388  -0.289  1.00  0.00    -0.234 N 
ATOM     46 2H13 UNL     1       6.100   4.336  -0.101  1.00  0.00     0.174 HD
ATOM     47 1H13 UNL     1       6.386   2.636  -0.604  1.00  0.00     0.174 HD
ENDBRANCH   8  45
TORSDOF 11
