REMARK  9 active torsions:
REMARK  status: ('A' for Active; 'I' for Inactive)
REMARK    1  A    between atoms: C2_7  and  N3_8 
REMARK    2  A    between atoms: C4_10  and  C5_11 
REMARK    3  A    between atoms: C5_11  and  O1_12 
REMARK    4  A    between atoms: C7_15  and  C8_16 
REMARK    5  A    between atoms: C8_16  and  S1_17 
REMARK    6  A    between atoms: S1_17  and  N4_18 
REMARK    7  A    between atoms: N10_33  and  C13_34 
REMARK    8  A    between atoms: C13_34  and  O2_35 
REMARK    9  A    between atoms: C14_40  and  O3_41 
ROOT
HETATM    1  N1  UNL     1      -2.907  -2.290   4.431  1.00  0.00    -0.384 N 
ATOM      2  H11 UNL     1      -3.745  -2.027   4.950  1.00  0.00     0.157 HD
ATOM      3  H12 UNL     1      -2.494  -3.056   4.963  1.00  0.00     0.157 HD
HETATM    4  C1  UNL     1      -2.397  -1.826   3.342  1.00  0.00     0.130 A 
HETATM    5  N2  UNL     1      -1.258  -2.183   2.636  1.00  0.00    -0.324 N 
ATOM      6  H2  UNL     1      -0.627  -2.930   2.924  1.00  0.00     0.169 HD
HETATM    7  C2  UNL     1      -1.078  -1.455   1.554  1.00  0.00     0.158 A 
HETATM    8  C10 UNL     1      -2.190  -0.479   1.466  1.00  0.00     0.116 A 
HETATM    9  C11 UNL     1      -2.995  -0.717   2.572  1.00  0.00     0.108 A 
HETATM   10  N9  UNL     1      -4.007   0.155   2.511  1.00  0.00    -0.347 N 
ATOM     11  H9  UNL     1      -4.772   0.236   3.180  1.00  0.00     0.167 HD
HETATM   12  C12 UNL     1      -3.836   0.898   1.420  1.00  0.00     0.188 A 
HETATM   13  N10 UNL     1      -2.712   0.528   0.745  1.00  0.00    -0.286 N 
ENDROOT
BRANCH   7  14
HETATM   14  N3  UNL     1       0.013  -1.637   0.680  1.00  0.00    -0.248 N 
HETATM   15  C3  UNL     1       0.046  -2.767  -0.163  1.00  0.00     0.127 A 
HETATM   16  C4  UNL     1       1.048  -2.998  -0.986  1.00  0.00    -0.015 A 
HETATM   17  C6  UNL     1       2.176  -2.044  -1.029  1.00  0.00     0.038 A 
HETATM   18  C7  UNL     1       2.192  -0.971  -0.260  1.00  0.00     0.038 A 
HETATM   19  N8  UNL     1       1.079  -0.747   0.631  1.00  0.00    -0.296 N 
ATOM     20  H8  UNL     1       1.075   0.076   1.233  1.00  0.00     0.187 HD
BRANCH  16  21
HETATM   21  C5  UNL     1       1.025  -4.202  -1.845  1.00  0.00     0.204 C 
BRANCH  21  22
HETATM   22  O1  UNL     1       2.163  -4.956  -1.501  1.00  0.00    -0.396 OA
ATOM     23  H1  UNL     1       2.148  -5.729  -2.053  1.00  0.00     0.209 HD
ENDBRANCH  21  22
ENDBRANCH  16  21
BRANCH  18  24
HETATM   24  C8  UNL     1       3.344  -0.056  -0.347  1.00  0.00     0.159 C 
BRANCH  24  25
HETATM   25  S1  UNL     1       2.859   1.616  -0.842  1.00  0.00    -0.003 SA
BRANCH  25  26
HETATM   26  N4  UNL     1       4.348   2.594  -0.902  1.00  0.00    -0.152 N 
HETATM   27  N5  UNL     1       4.670   3.576  -0.065  1.00  0.00    -0.267 N 
HETATM   28  C9  UNL     1       5.853   4.090  -0.403  1.00  0.00     0.218 A 
ATOM     29  H5  UNL     1       4.097   3.889   0.719  1.00  0.00     0.190 HD
HETATM   30  N6  UNL     1       6.271   3.404  -1.481  1.00  0.00    -0.279 N 
HETATM   31  N7  UNL     1       5.340   2.510  -1.756  1.00  0.00    -0.214 N 
ATOM     32  H6  UNL     1       7.143   3.547  -1.990  1.00  0.00     0.189 HD
ATOM     33  H7  UNL     1       5.386   1.844  -2.528  1.00  0.00     0.211 HD
ENDBRANCH  25  26
ENDBRANCH  24  25
ENDBRANCH  18  24
ENDBRANCH   7  14
BRANCH  13  34
HETATM   34  C13 UNL     1      -2.172   1.061  -0.456  1.00  0.00     0.275 C 
HETATM   35  N11 UNL     1      -1.113   2.047  -0.204  1.00  0.00    -0.065 NA
HETATM   36  N12 UNL     1      -1.710   3.279  -0.201  1.00  0.00    -0.032 NA
HETATM   37  N13 UNL     1      -2.992   3.207  -0.668  1.00  0.00    -0.091 NA
HETATM   38  C14 UNL     1      -3.137   1.923  -1.233  1.00  0.00     0.304 C 
BRANCH  34  39
HETATM   39  O2  UNL     1      -1.700   0.121  -1.366  1.00  0.00    -0.353 OA
ATOM     40  H2  UNL     1      -1.339   0.477  -2.169  1.00  0.00     0.214 HD
ENDBRANCH  34  39
BRANCH  38  41
HETATM   41  O3  UNL     1      -4.403   1.418  -1.334  1.00  0.00    -0.372 OA
ATOM     42  H3  UNL     1      -5.010   1.961  -1.823  1.00  0.00     0.212 HD
ENDBRANCH  38  41
ENDBRANCH  13  34
TORSDOF 9
