REMARK  9 active torsions:
REMARK  status: ('A' for Active; 'I' for Inactive)
REMARK    1  A    between atoms: C10_11  and  C11_12 
REMARK       I    between atoms: C11_12  and  N1_14 
REMARK    2  A    between atoms: N1_14  and  C12_16 
REMARK    3  A    between atoms: C12_16  and  C13_17 
REMARK       I    between atoms: N2_23  and  C19_24 
REMARK    4  A    between atoms: C19_24  and  C20_26 
REMARK    5  A    between atoms: C20_26  and  C21_27 
REMARK    6  A    between atoms: C20_26  and  N3_34 
REMARK    7  A    between atoms: C21_27  and  C22_28 
REMARK       I    between atoms: N3_34  and  C28_36 
REMARK       I    between atoms: C28_36  and  N4_38 
REMARK    8  A    between atoms: N4_38  and  C29_40 
REMARK    9  A    between atoms: C29_40  and  C32_43 
ROOT
HETATM    1  C1  UNL     1       2.053  -5.378  -2.856  1.00  0.00     0.011 C 
HETATM    2  C2  UNL     1       1.819  -3.910  -2.844  1.00  0.00    -0.001 C 
HETATM    3  C3  UNL     1       0.460  -3.529  -3.461  1.00  0.00     0.014 C 
HETATM    4  C4  UNL     1      -0.422  -4.249  -2.540  1.00  0.00    -0.025 C 
HETATM    5  C5  UNL     1       0.155  -4.169  -1.320  1.00  0.00    -0.023 C 
HETATM    6  C6  UNL     1       1.414  -3.400  -1.443  1.00  0.00     0.042 C 
HETATM    7  C7  UNL     1       1.101  -1.980  -1.773  1.00  0.00     0.063 C 
HETATM    8  C8  UNL     1       0.434  -2.048  -3.098  1.00  0.00     0.042 C 
HETATM    9  C9  UNL     1       2.324  -1.123  -1.696  1.00  0.00     0.143 C 
HETATM   10 CL1  UNL     1       3.898  -1.895  -1.640  1.00  0.00    -0.120 Cl
HETATM   11  C10 UNL     1       1.835  -0.958  -0.231  1.00  0.00     0.201 C 
HETATM   12  N2  UNL     1       0.514  -1.151  -0.718  1.00  0.00    -0.324 N 
HETATM   13  C19 UNL     1      -0.833  -0.820  -0.455  1.00  0.00     0.244 C 
HETATM   14  O2  UNL     1      -1.748  -1.258  -1.224  1.00  0.00    -0.271 OA
ENDROOT
BRANCH  11  15
HETATM   15  C11 UNL     1       2.363   0.288   0.276  1.00  0.00     0.242 C 
HETATM   16  O1  UNL     1       1.756   1.358   0.245  1.00  0.00    -0.271 OA
HETATM   17  N1  UNL     1       3.666   0.257   0.845  1.00  0.00    -0.359 N 
ATOM     18  H1  UNL     1       4.189  -0.618   0.879  1.00  0.00     0.162 HD
BRANCH  17  19
HETATM   19  C12 UNL     1       4.246   1.466   1.374  1.00  0.00     0.127 C 
BRANCH  19  20
HETATM   20  C13 UNL     1       5.637   1.246   1.915  1.00  0.00     0.003 C 
HETATM   21  C14 UNL     1       6.133   2.583   2.449  1.00  0.00     0.006 C 
HETATM   22  C15 UNL     1       7.193   3.190   1.578  1.00  0.00     0.000 C 
HETATM   23  C16 UNL     1       6.748   3.260   0.131  1.00  0.00     0.000 C 
HETATM   24  C17 UNL     1       6.518   1.858  -0.344  1.00  0.00     0.000 C 
HETATM   25  C18 UNL     1       6.557   0.833   0.769  1.00  0.00     0.006 C 
ENDBRANCH  19  20
ENDBRANCH  17  19
ENDBRANCH  11  15
BRANCH  13  26
HETATM   26  C20 UNL     1      -1.313   0.013   0.663  1.00  0.00     0.182 C 
BRANCH  26  27
HETATM   27  C21 UNL     1      -0.956  -0.463   2.033  1.00  0.00     0.073 C 
BRANCH  27  28
HETATM   28  C22 UNL     1      -1.448  -1.779   2.421  1.00  0.00    -0.056 A 
HETATM   29  C23 UNL     1      -2.694  -1.997   2.998  1.00  0.00     0.007 A 
HETATM   30  C24 UNL     1      -3.092  -3.267   3.355  1.00  0.00     0.001 A 
HETATM   31  C25 UNL     1      -2.285  -4.354   3.158  1.00  0.00     0.000 A 
HETATM   32  C26 UNL     1      -1.046  -4.176   2.590  1.00  0.00     0.001 A 
HETATM   33  C27 UNL     1      -0.671  -2.890   2.241  1.00  0.00     0.007 A 
ENDBRANCH  27  28
ENDBRANCH  26  27
BRANCH  26  34
HETATM   34  N3  UNL     1      -2.773   0.191   0.562  1.00  0.00    -0.330 N 
HETATM   35  C28 UNL     1      -3.328   1.433   0.225  1.00  0.00     0.317 C 
HETATM   36  O3  UNL     1      -2.566   2.402   0.008  1.00  0.00    -0.247 OA
HETATM   37  N4  UNL     1      -4.727   1.639   0.118  1.00  0.00    -0.334 N 
ATOM     38  H4  UNL     1      -5.366   0.864   0.296  1.00  0.00     0.165 HD
ATOM     39  H3  UNL     1      -3.389  -0.602   0.740  1.00  0.00     0.165 HD
BRANCH  37  40
HETATM   40  C29 UNL     1      -5.252   2.921  -0.237  1.00  0.00     0.030 C 
HETATM   41  C30 UNL     1      -4.768   3.378  -1.608  1.00  0.00     0.038 C 
HETATM   42  C31 UNL     1      -4.755   3.966   0.763  1.00  0.00     0.038 C 
BRANCH  40  43
HETATM   43  C32 UNL     1      -6.750   2.908  -0.232  1.00  0.00     0.005 C 
HETATM   44  C33 UNL     1      -7.330   4.257  -0.608  1.00  0.00     0.012 C 
HETATM   45  C34 UNL     1      -7.249   1.840  -1.171  1.00  0.00     0.012 C 
ENDBRANCH  40  43
ENDBRANCH  37  40
ENDBRANCH  26  34
ENDBRANCH  13  26
TORSDOF 9
