REMARK  14 active torsions:
REMARK  status: ('A' for Active; 'I' for Inactive)
REMARK    1  A    between atoms: O1_2  and  C2_3 
REMARK    2  A    between atoms: C4_5  and  O2_6 
REMARK    3  A    between atoms: C5_8  and  C6_9 
REMARK    4  A    between atoms: C6_9  and  C7_10 
REMARK    5  A    between atoms: C7_10  and  C8_11 
REMARK    6  A    between atoms: C8_11  and  O3_12 
REMARK    7  A    between atoms: C8_11  and  C9_14 
REMARK    8  A    between atoms: C13_18  and  C14_19 
REMARK    9  A    between atoms: C15_20  and  C16_21 
REMARK   10  A    between atoms: C16_21  and  C17_23 
REMARK   11  A    between atoms: C17_23  and  C18_24 
REMARK   12  A    between atoms: C18_24  and  C19_26 
REMARK   13  A    between atoms: C20_27  and  C21_28 
REMARK   14  A    between atoms: C27_37  and  O6_38 
ROOT
HETATM    1  C2  UNL     1       6.543  -1.379  -2.372  1.00  0.00     0.073 A 
HETATM    2  C3  UNL     1       5.751  -0.273  -2.556  1.00  0.00     0.074 A 
HETATM    3  C4  UNL     1       4.823   0.091  -1.585  1.00  0.00     0.081 A 
HETATM    4  C5  UNL     1       4.694  -0.657  -0.438  1.00  0.00     0.031 A 
HETATM    5  C28 UNL     1       5.485  -1.788  -0.227  1.00  0.00     0.083 A 
HETATM    6  O7  UNL     1       5.452  -2.578   0.791  1.00  0.00    -0.355 OA
HETATM    7  C29 UNL     1       5.541  -3.450   1.729  1.00  0.00     0.210 C 
HETATM    8  C30 UNL     1       6.439  -2.128  -1.262  1.00  0.00     0.074 A 
ENDROOT
BRANCH   4   9
HETATM    9  C6  UNL     1       3.591  -0.282   0.504  1.00  0.00     0.020 C 
BRANCH   9  10
HETATM   10  C7  UNL     1       3.733  -0.444   1.768  1.00  0.00     0.038 C 
BRANCH  10  11
HETATM   11  C8  UNL     1       3.098  -0.297   3.012  1.00  0.00     0.078 C 
BRANCH  11  12
HETATM   12  O3  UNL     1       3.924  -0.719   4.021  1.00  0.00    -0.360 OA
ATOM     13  H3  UNL     1       3.494  -0.620   4.862  1.00  0.00     0.217 HD
ENDBRANCH  11  12
BRANCH  11  14
HETATM   14  C9  UNL     1       1.871   0.151   3.540  1.00  0.00     0.031 A 
HETATM   15  C10 UNL     1       1.711   0.067   4.949  1.00  0.00     0.017 A 
HETATM   16  C11 UNL     1       0.564   0.458   5.571  1.00  0.00     0.002 A 
HETATM   17  C12 UNL     1      -0.497   0.952   4.868  1.00  0.00     0.014 A 
HETATM   18  C13 UNL     1      -0.401   1.060   3.461  1.00  0.00    -0.002 A 
HETATM   19  C27 UNL     1       0.778   0.661   2.818  1.00  0.00     0.088 A 
BRANCH  18  20
HETATM   20  C14 UNL     1      -1.552   1.622   2.805  1.00  0.00     0.018 C 
HETATM   21  C15 UNL     1      -1.865   1.638   1.550  1.00  0.00     0.051 C 
BRANCH  21  22
HETATM   22  C16 UNL     1      -3.135   2.311   1.176  1.00  0.00     0.156 C 
HETATM   23  O4  UNL     1      -3.845   2.824   2.035  1.00  0.00    -0.293 OA
BRANCH  22  24
HETATM   24  C17 UNL     1      -3.507   2.337  -0.255  1.00  0.00     0.165 C 
BRANCH  24  25
HETATM   25  C18 UNL     1      -4.767   3.062  -0.411  1.00  0.00     0.156 C 
HETATM   26  O5  UNL     1      -4.740   4.303  -0.129  1.00  0.00    -0.293 OA
BRANCH  25  27
HETATM   27  C19 UNL     1      -6.015   2.442  -0.862  1.00  0.00     0.051 C 
HETATM   28  C20 UNL     1      -6.092   1.179  -1.147  1.00  0.00     0.017 C 
BRANCH  28  29
HETATM   29  C21 UNL     1      -7.171   0.356  -1.601  1.00  0.00    -0.013 A 
HETATM   30  C22 UNL     1      -6.948  -1.022  -1.735  1.00  0.00     0.038 A 
HETATM   31  C23 UNL     1      -7.866  -1.922  -2.171  1.00  0.00     0.056 A 
HETATM   32 CL1  UNL     1      -7.453  -3.624  -2.292  1.00  0.00    -0.083 Cl
HETATM   33  C24 UNL     1      -9.120  -1.459  -2.513  1.00  0.00     0.057 A 
HETATM   34 CL2  UNL     1     -10.336  -2.579  -3.082  1.00  0.00    -0.082 Cl
HETATM   35  C25 UNL     1      -9.406  -0.141  -2.408  1.00  0.00     0.050 A 
HETATM   36  C26 UNL     1      -8.420   0.767  -1.948  1.00  0.00     0.046 A 
HETATM   37 CL3  UNL     1      -8.893   2.449  -1.871  1.00  0.00    -0.083 Cl
ENDBRANCH  28  29
ENDBRANCH  25  27
ENDBRANCH  24  25
ENDBRANCH  22  24
ENDBRANCH  21  22
ENDBRANCH  18  20
BRANCH  19  38
HETATM   38  O6  UNL     1       0.863   0.776   1.510  1.00  0.00    -0.359 OA
ATOM     39  H6  UNL     1       0.124   1.121   1.022  1.00  0.00     0.217 HD
ENDBRANCH  19  38
ENDBRANCH  11  14
ENDBRANCH  10  11
ENDBRANCH   9  10
ENDBRANCH   4   9
BRANCH   3  40
HETATM   40  O2  UNL     1       4.028   1.218  -1.786  1.00  0.00    -0.360 OA
ATOM     41  H2  UNL     1       3.394   1.466  -1.123  1.00  0.00     0.217 HD
ENDBRANCH   3  40
BRANCH   1  42
HETATM   42  O1  UNL     1       7.482  -1.757  -3.337  1.00  0.00    -0.356 OA
HETATM   43  C1  UNL     1       7.664  -1.038  -4.530  1.00  0.00     0.210 C 
ENDBRANCH   1  42
TORSDOF 14
