REMARK  9 active torsions:
REMARK  status: ('A' for Active; 'I' for Inactive)
REMARK    1  A    between atoms: C7_7  and  N1_8 
REMARK    2  A    between atoms: N1_8  and  C8_10 
REMARK    3  A    between atoms: C8_10  and  C9_11 
REMARK    4  A    between atoms: C9_11  and  C10_12 
REMARK    5  A    between atoms: C10_12  and  C11_13 
REMARK    6  A    between atoms: C11_13  and  C12_14 
REMARK    7  A    between atoms: C12_14  and  C13_15 
REMARK    8  A    between atoms: C13_15  and  C14_16 
REMARK       I    between atoms: C14_16  and  N2_18 
REMARK    9  A    between atoms: N2_18  and  C15_20 
ROOT
HETATM    1  C9  UNL     1       0.101   0.122  -2.349  1.00  0.00     0.020 C 
ENDROOT
BRANCH   1   2
HETATM    2  C8  UNL     1       1.542  -0.317  -2.179  1.00  0.00     0.121 C 
BRANCH   2   3
HETATM    3  N1  UNL     1       2.197   0.422  -1.123  1.00  0.00    -0.376 N 
ATOM      4  H1  UNL     1       1.727   1.257  -0.774  1.00  0.00     0.161 HD
BRANCH   3   5
HETATM    5  C7  UNL     1       3.321   0.112  -0.590  1.00  0.00     0.102 A 
HETATM    6  C6  UNL     1       4.026  -0.995  -0.997  1.00  0.00     0.049 A 
HETATM    7  C5  UNL     1       5.239  -1.280  -0.378  1.00  0.00     0.019 A 
HETATM    8  C4  UNL     1       5.686  -0.439   0.618  1.00  0.00     0.010 A 
HETATM    9  C3  UNL     1       6.808  -0.417   1.422  1.00  0.00     0.039 A 
HETATM   10  C20 UNL     1       4.952   0.683   1.016  1.00  0.00     0.117 A 
HETATM   11  C2  UNL     1       6.776   0.664   2.277  1.00  0.00     0.007 A 
HETATM   12  C1  UNL     1       7.803   1.043   3.305  1.00  0.00     0.068 C 
HETATM   13  N5  UNL     1       5.627   1.313   2.001  1.00  0.00    -0.346 N 
ATOM     14  H5  UNL     1       5.312   2.162   2.471  1.00  0.00     0.167 HD
HETATM   15  N4  UNL     1       3.778   0.928   0.393  1.00  0.00    -0.328 N 
ATOM     16  H4  UNL     1       3.226   1.741   0.667  1.00  0.00     0.169 HD
ENDBRANCH   3   5
ENDBRANCH   2   3
ENDBRANCH   1   2
BRANCH   1  17
HETATM   17  C10 UNL     1      -0.700  -0.092  -1.088  1.00  0.00     0.002 C 
BRANCH  17  18
HETATM   18  C11 UNL     1      -0.726  -1.547  -0.674  1.00  0.00     0.001 C 
BRANCH  18  19
HETATM   19  C12 UNL     1      -1.330  -2.431  -1.711  1.00  0.00     0.009 C 
BRANCH  19  20
HETATM   20  C13 UNL     1      -2.736  -2.131  -2.086  1.00  0.00     0.103 C 
BRANCH  20  21
HETATM   21  C14 UNL     1      -3.733  -2.242  -1.013  1.00  0.00     0.223 C 
HETATM   22  O1  UNL     1      -3.419  -2.712   0.098  1.00  0.00    -0.273 OA
HETATM   23  N2  UNL     1      -5.066  -1.820  -1.225  1.00  0.00    -0.307 N 
ATOM     24  H2  UNL     1      -5.685  -2.315  -1.867  1.00  0.00     0.171 HD
BRANCH  23  25
HETATM   25  C15 UNL     1      -5.473  -0.763  -0.559  1.00  0.00     0.151 A 
HETATM   26  N3  UNL     1      -4.790  -0.018   0.306  1.00  0.00    -0.339 N 
HETATM   27  C16 UNL     1      -5.395   1.008   0.866  1.00  0.00     0.020 A 
ATOM     28  H3  UNL     1      -3.819  -0.237   0.530  1.00  0.00     0.168 HD
HETATM   29  C17 UNL     1      -4.697   1.925   1.872  1.00  0.00     0.069 C 
HETATM   30  C18 UNL     1      -6.700   1.236   0.513  1.00  0.00     0.004 A 
HETATM   31  C19 UNL     1      -7.612   2.332   1.003  1.00  0.00     0.058 C 
HETATM   32  S1  UNL     1      -7.002  -0.016  -0.596  1.00  0.00    -0.057 SA
ENDBRANCH  23  25
ENDBRANCH  20  21
ENDBRANCH  19  20
ENDBRANCH  18  19
ENDBRANCH  17  18
ENDBRANCH   1  17
TORSDOF 9
