REMARK  9 active torsions:
REMARK  status: ('A' for Active; 'I' for Inactive)
REMARK    1  A    between atoms: C5_5  and  N1_6 
REMARK    2  A    between atoms: N1_6  and  C6_8 
REMARK    3  A    between atoms: C10_14  and  N3_15 
REMARK    4  A    between atoms: N3_15  and  C11_17 
REMARK    5  A    between atoms: C11_17  and  C12_18 
REMARK    6  A    between atoms: C12_18  and  C13_19 
REMARK    7  A    between atoms: C13_19  and  O1_20 
REMARK    8  A    between atoms: O1_20  and  C14_21 
REMARK    9  A    between atoms: C14_21  and  C15_22 
ROOT
HETATM    1  C6  UNL     1      -2.971   0.245   0.002  1.00  0.00     0.684 A 
HETATM    2  N2  UNL     1      -3.237   0.062  -1.324  1.00  0.00    -0.196 N 
ATOM      3  H2  UNL     1      -3.992   0.584  -1.769  1.00  0.00     0.184 HD
HETATM    4  C7  UNL     1      -2.506  -0.805  -2.043  1.00  0.00     0.026 A 
HETATM    5  C8  UNL     1      -2.837  -0.967  -3.485  1.00  0.00     0.069 C 
HETATM    6  C9  UNL     1      -1.498  -1.493  -1.414  1.00  0.00     0.073 A 
HETATM    7  C10 UNL     1      -1.216  -1.316  -0.061  1.00  0.00     0.118 A 
HETATM    8  N5  UNL     1      -1.975  -0.440   0.607  1.00  0.00    -0.177 N 
ATOM      9  H5  UNL     1      -1.797  -0.285   1.599  1.00  0.00     0.186 HD
ENDROOT
BRANCH   7  10
HETATM   10  N3  UNL     1      -0.272  -1.982   0.464  1.00  0.00    -0.376 N 
ATOM     11  H3  UNL     1       0.242  -2.625  -0.139  1.00  0.00     0.161 HD
BRANCH  10  12
HETATM   12  C11 UNL     1       0.130  -1.902   1.841  1.00  0.00     0.123 C 
BRANCH  12  13
HETATM   13  C12 UNL     1       1.377  -2.763   2.071  1.00  0.00     0.046 C 
BRANCH  13  14
HETATM   14  C13 UNL     1       2.515  -2.261   1.188  1.00  0.00     0.169 C 
BRANCH  14  15
HETATM   15  O1  UNL     1       3.654  -3.005   1.360  1.00  0.00    -0.387 OA
BRANCH  15  16
HETATM   16  C14 UNL     1       4.754  -2.638   0.645  1.00  0.00     0.208 C 
BRANCH  16  17
HETATM   17  C15 UNL     1       5.388  -1.357   0.968  1.00  0.00    -0.011 A 
HETATM   18  C16 UNL     1       5.117  -0.443   1.959  1.00  0.00     0.035 A 
HETATM   19  C17 UNL     1       6.026   0.610   1.885  1.00  0.00     0.006 A 
HETATM   20  C18 UNL     1       6.062   1.793   2.783  1.00  0.00     0.068 C 
HETATM   21  N4  UNL     1       6.816   0.299   0.855  1.00  0.00    -0.363 N 
HETATM   22  C19 UNL     1       6.496  -0.848   0.268  1.00  0.00     0.014 A 
ATOM     23  H4  UNL     1       7.591   0.886   0.548  1.00  0.00     0.165 HD
HETATM   24  C20 UNL     1       7.149  -1.512  -0.904  1.00  0.00     0.068 C 
ENDBRANCH  16  17
ENDBRANCH  15  16
ENDBRANCH  14  15
ENDBRANCH  13  14
ENDBRANCH  12  13
ENDBRANCH  10  12
ENDBRANCH   7  10
BRANCH   1  25
HETATM   25  N1  UNL     1      -3.669   1.075   0.696  1.00  0.00    -0.192 N 
ATOM     26  H1  UNL     1      -3.472   1.212   1.687  1.00  0.00     0.184 HD
BRANCH  25  27
HETATM   27  C5  UNL     1      -4.716   1.797   0.066  1.00  0.00     0.049 A 
HETATM   28  C4  UNL     1      -4.462   2.981  -0.611  1.00  0.00     0.030 A 
HETATM   29  C3  UNL     1      -5.443   3.714  -1.235  1.00  0.00     0.009 A 
HETATM   30  C2  UNL     1      -6.739   3.271  -1.199  1.00  0.00    -0.062 A 
HETATM   31  C1  UNL     1      -7.852   4.002  -1.847  1.00  0.00     0.048 C 
HETATM   32  C22 UNL     1      -7.040   2.097  -0.537  1.00  0.00     0.009 A 
HETATM   33  C21 UNL     1      -6.026   1.370   0.090  1.00  0.00     0.030 A 
ENDBRANCH  25  27
ENDBRANCH   1  25
TORSDOF 9
