REMARK  6 active torsions:
REMARK  status: ('A' for Active; 'I' for Inactive)
REMARK    1  A    between atoms: C1_2  and  N1_3 
REMARK    2  A    between atoms: N1_3  and  C2_5 
REMARK    3  A    between atoms: C3_8  and  N3_9 
REMARK    4  A    between atoms: C8_19  and  N6_20 
REMARK    5  A    between atoms: N6_20  and  N7_22 
REMARK       I    between atoms: N7_22  and  C9_24 
REMARK    6  A    between atoms: C9_24  and  C10_26 
ROOT
HETATM    1  C2  UNL     1       0.174   2.027  -0.510  1.00  0.00     0.713 A 
HETATM    2  N2  UNL     1      -0.994   1.363  -0.534  1.00  0.00    -0.021 N 
ATOM      3  H2  UNL     1      -1.812   1.856  -0.893  1.00  0.00     0.203 HD
HETATM    4  C3  UNL     1      -1.161   0.099  -0.120  1.00  0.00     0.709 A 
HETATM    5  N5  UNL     1      -0.056  -0.534   0.354  1.00  0.00    -0.020 N 
ATOM      6  H5  UNL     1      -0.130  -1.497   0.681  1.00  0.00     0.203 HD
HETATM    7  C8  UNL     1       1.132   0.089   0.398  1.00  0.00     0.726 A 
HETATM    8  N8  UNL     1       1.252   1.378  -0.036  1.00  0.00    -0.020 N 
ATOM      9  H8  UNL     1       2.157   1.847  -0.001  1.00  0.00     0.203 HD
ENDROOT
BRANCH   4  10
HETATM   10  N3  UNL     1      -2.414  -0.563  -0.166  1.00  0.00    -0.213 N 
HETATM   11  C4  UNL     1      -3.576   0.125  -0.672  1.00  0.00     0.168 C 
HETATM   12  C5  UNL     1      -4.802  -0.203   0.190  1.00  0.00     0.252 C 
HETATM   13  N4  UNL     1      -5.014  -1.621   0.268  1.00  0.00    -0.072 N 
HETATM   14  C6  UNL     1      -3.926  -2.400  -0.239  1.00  0.00     0.252 C 
ATOM     15  H42 UNL     1      -5.238  -1.898   1.224  1.00  0.00     0.277 HD
ATOM     16  H41 UNL     1      -5.886  -1.879  -0.195  1.00  0.00     0.277 HD
HETATM   17  C7  UNL     1      -2.575  -1.922   0.284  1.00  0.00     0.168 C 
ENDBRANCH   4  10
BRANCH   1  18
HETATM   18  N1  UNL     1       0.256   3.251  -0.928  1.00  0.00    -0.166 N 
ATOM     19  H1  UNL     1      -0.595   3.693  -1.276  1.00  0.00     0.186 HD
BRANCH  18  20
HETATM   20  C1  UNL     1       1.433   4.005  -0.933  1.00  0.00     0.368 C 
HETATM   21  O1  UNL     1       2.319   3.817  -1.806  1.00  0.00    -0.283 OA
ENDBRANCH  18  20
ENDBRANCH   1  18
BRANCH   7  22
HETATM   22  N6  UNL     1       2.142  -0.555   0.854  1.00  0.00    -0.128 N 
ATOM     23  H6  UNL     1       2.007  -1.517   1.166  1.00  0.00     0.205 HD
BRANCH  22  24
HETATM   24  N7  UNL     1       3.422   0.003   0.943  1.00  0.00    -0.255 N 
HETATM   25  C9  UNL     1       4.552  -0.539   0.308  1.00  0.00     0.246 C 
HETATM   26  O2  UNL     1       4.394  -1.590  -0.380  1.00  0.00    -0.271 OA
ATOM     27  H7  UNL     1       3.541   0.850   1.499  1.00  0.00     0.190 HD
BRANCH  25  28
HETATM   28  C10 UNL     1       5.869   0.109   0.450  1.00  0.00     0.190 C 
HETATM   29  S1  UNL     1       7.109  -0.836  -0.488  1.00  0.00    -0.088 SA
ENDBRANCH  25  28
ENDBRANCH  22  24
ENDBRANCH   7  22
TORSDOF 6
