REMARK  7 active torsions:
REMARK  status: ('A' for Active; 'I' for Inactive)
REMARK    1  A    between atoms: N1_2  and  C2_4 
REMARK    2  A    between atoms: C4_11  and  N4_12 
REMARK    3  A    between atoms: N4_12  and  O2_14 
REMARK    4  A    between atoms: C5_16  and  N5_17 
REMARK    5  A    between atoms: N5_17  and  C6_19 
REMARK    6  A    between atoms: C6_19  and  C7_20 
REMARK    7  A    between atoms: C7_20  and  N6_21 
ROOT
HETATM    1  C2  UNL     1      -3.189   0.037  -0.842  1.00  0.00     0.683 C 
HETATM    2  N2  UNL     1      -4.339  -0.306  -0.239  1.00  0.00    -0.141 N 
ATOM      3  H2  UNL     1      -5.124  -0.497  -0.862  1.00  0.00     0.189 HD
HETATM    4  C3  UNL     1      -4.596  -0.432   1.074  1.00  0.00     0.340 C 
HETATM    5  O1  UNL     1      -5.816  -0.394   1.369  1.00  0.00    -0.246 OA
HETATM    6  N3  UNL     1      -3.735  -0.594   2.121  1.00  0.00    -0.290 N 
ATOM      7  H3  UNL     1      -4.163  -0.791   3.026  1.00  0.00     0.172 HD
HETATM    8  C4  UNL     1      -2.392  -0.526   2.107  1.00  0.00     0.174 C 
HETATM    9  C5  UNL     1      -1.611  -0.449   0.974  1.00  0.00     0.163 C 
HETATM   10  N9  UNL     1      -1.966  -0.063  -0.277  1.00  0.00    -0.173 N 
ATOM     11  H9  UNL     1      -1.188   0.191  -0.886  1.00  0.00     0.186 HD
ENDROOT
BRANCH   9  12
HETATM   12  N5  UNL     1      -0.389  -0.795   1.152  1.00  0.00    -0.371 N 
ATOM     13  H5  UNL     1      -0.108  -1.088   2.088  1.00  0.00     0.161 HD
BRANCH  12  14
HETATM   14  C6  UNL     1       0.615  -0.796   0.113  1.00  0.00     0.141 C 
BRANCH  14  15
HETATM   15  C7  UNL     1       1.814  -1.585   0.646  1.00  0.00     0.141 C 
BRANCH  15  16
HETATM   16  N6  UNL     1       2.885  -1.652  -0.313  1.00  0.00    -0.368 N 
HETATM   17  C8  UNL     1       3.720  -0.656  -0.385  1.00  0.00     0.161 A 
HETATM   18  N7  UNL     1       3.745   0.475   0.323  1.00  0.00    -0.279 N 
HETATM   19  S1  UNL     1       5.077  -0.449  -1.410  1.00  0.00    -0.039 SA
HETATM   20  N8  UNL     1       4.655   1.325   0.092  1.00  0.00    -0.296 N 
ATOM     21  H7  UNL     1       3.041   0.652   1.040  1.00  0.00     0.189 HD
HETATM   22  C9  UNL     1       5.571   1.098  -0.836  1.00  0.00     0.066 A 
ATOM     23  H8  UNL     1       4.682   2.193   0.627  1.00  0.00     0.187 HD
HETATM   24  C10 UNL     1       6.724   1.958  -1.268  1.00  0.00     0.078 C 
ATOM     25  H6  UNL     1       2.988  -2.463  -0.923  1.00  0.00     0.161 HD
ENDBRANCH  15  16
ENDBRANCH  14  15
ENDBRANCH  12  14
ENDBRANCH   9  12
BRANCH   8  26
HETATM   26  N4  UNL     1      -1.791  -0.533   3.270  1.00  0.00    -0.250 N 
ATOM     27  H4  UNL     1      -2.331  -0.588   4.133  1.00  0.00     0.196 HD
BRANCH  26  28
HETATM   28  O2  UNL     1      -0.419  -0.465   3.306  1.00  0.00    -0.288 OA
ATOM     29  H2  UNL     1       0.017  -0.470   4.150  1.00  0.00     0.244 HD
ENDBRANCH  26  28
ENDBRANCH   8  26
BRANCH   1  30
HETATM   30  N1  UNL     1      -3.268   0.493  -2.043  1.00  0.00    -0.230 N 
HETATM   31  C1  UNL     1      -4.565   0.607  -2.660  1.00  0.00     0.165 C 
ATOM     32  H1  UNL     1      -2.427   0.769  -2.549  1.00  0.00     0.177 HD
ENDBRANCH   1  30
TORSDOF 7
