REMARK  5 active torsions:
REMARK  status: ('A' for Active; 'I' for Inactive)
REMARK    1  A    between atoms: N1_2  and  C3_4 
REMARK    2  A    between atoms: C4_7  and  N3_8 
REMARK       I    between atoms: N3_8  and  C5_10 
REMARK       I    between atoms: C5_10  and  N4_11 
REMARK       I    between atoms: C5_10  and  N5_15 
REMARK    3  A    between atoms: C7_23  and  N7_24 
REMARK    4  A    between atoms: N7_24  and  C8_26 
REMARK    5  A    between atoms: C8_26  and  C9_27 
ROOT
HETATM    1  C3  UNL     1      -1.820  -1.639  -0.454  1.00  0.00     0.695 C 
HETATM    2  N2  UNL     1      -2.789  -0.705  -0.632  1.00  0.00    -0.171 N 
ATOM      3  H2  UNL     1      -3.706  -1.069  -0.891  1.00  0.00     0.186 HD
HETATM    4  C4  UNL     1      -2.711   0.644  -0.514  1.00  0.00     0.189 C 
HETATM    5  C6  UNL     1      -1.561   1.384  -0.622  1.00  0.00     0.304 C 
HETATM    6  O1  UNL     1      -1.647   2.557  -1.065  1.00  0.00    -0.263 OA
HETATM    7  N6  UNL     1      -0.306   0.950  -0.285  1.00  0.00    -0.152 N 
ATOM      8  H6  UNL     1       0.431   1.649  -0.383  1.00  0.00     0.187 HD
HETATM    9  C7  UNL     1       0.107  -0.246   0.153  1.00  0.00     0.699 C 
HETATM   10  N8  UNL     1      -0.532  -1.422  -0.151  1.00  0.00    -0.022 N 
ATOM     11  H8  UNL     1       0.060  -2.253  -0.146  1.00  0.00     0.203 HD
ENDROOT
BRANCH   4  12
HETATM   12  N3  UNL     1      -3.797   1.220  -0.290  1.00  0.00    -0.322 N 
HETATM   13  C5  UNL     1      -4.184   2.558  -0.101  1.00  0.00     0.481 C 
HETATM   14  N4  UNL     1      -3.584   3.046   1.154  1.00  0.00    -0.033 N 
HETATM   15  N5  UNL     1      -5.643   2.695   0.085  1.00  0.00    -0.033 N 
ATOM     16  H43 UNL     1      -3.814   2.455   1.953  1.00  0.00     0.278 HD
ATOM     17  H42 UNL     1      -2.572   2.924   1.177  1.00  0.00     0.278 HD
ATOM     18  H41 UNL     1      -3.865   4.017   1.291  1.00  0.00     0.278 HD
ATOM     19  H53 UNL     1      -6.155   2.268  -0.687  1.00  0.00     0.278 HD
ATOM     20  H52 UNL     1      -5.975   2.103   0.847  1.00  0.00     0.278 HD
ATOM     21  H51 UNL     1      -5.924   3.666   0.222  1.00  0.00     0.278 HD
ATOM     22  H3  UNL     1      -4.582   0.571  -0.231  1.00  0.00     0.165 HD
ENDBRANCH   4  12
BRANCH   1  23
HETATM   23  N1  UNL     1      -2.225  -2.988  -0.607  1.00  0.00    -0.226 N 
HETATM   24  C1  UNL     1      -2.720  -3.782   0.496  1.00  0.00     0.168 C 
HETATM   25  C2  UNL     1      -2.120  -3.555  -1.945  1.00  0.00     0.168 C 
ENDBRANCH   1  23
BRANCH   9  26
HETATM   26  N7  UNL     1       1.119  -0.407   0.889  1.00  0.00    -0.204 N 
ATOM     27  H7  UNL     1       1.356  -1.358   1.171  1.00  0.00     0.183 HD
BRANCH  26  28
HETATM   28  C8  UNL     1       1.942   0.639   1.347  1.00  0.00     0.083 C 
BRANCH  28  29
HETATM   29  C9  UNL     1       3.337   0.638   0.792  1.00  0.00     0.028 C 
HETATM   30  C10 UNL     1       4.104  -0.619   1.121  1.00  0.00     0.036 C 
HETATM   31  C11 UNL     1       5.540  -0.340   0.723  1.00  0.00     0.168 C 
HETATM   32  O2  UNL     1       5.675  -0.025  -0.609  1.00  0.00    -0.391 OA
HETATM   33  C12 UNL     1       4.909   1.057  -1.010  1.00  0.00     0.168 C 
HETATM   34  C13 UNL     1       3.432   0.850  -0.685  1.00  0.00     0.036 C 
ENDBRANCH  28  29
ENDBRANCH  26  28
ENDBRANCH   9  26
TORSDOF 5
