REMARK  7 active torsions:
REMARK  status: ('A' for Active; 'I' for Inactive)
REMARK    1  A    between atoms: N1_1  and  C1_5 
REMARK    2  A    between atoms: C1_5  and  O1_6 
REMARK    3  A    between atoms: C1_5  and  C2_8 
REMARK    4  A    between atoms: C2_8  and  N2_9 
REMARK    5  A    between atoms: C2_8  and  C3_13 
REMARK       I    between atoms: C3_13  and  N3_15 
REMARK    6  A    between atoms: N3_15  and  C4_17 
REMARK    7  A    between atoms: C5_18  and  C6_19 
ROOT
HETATM    1  C4  UNL     1       0.365  -1.469  -0.848  1.00  0.00     0.104 A 
HETATM    2  C5  UNL     1      -0.909  -0.924  -0.829  1.00  0.00     0.050 A 
HETATM    3  C12 UNL     1      -1.305  -1.956  -1.681  1.00  0.00     0.236 A 
HETATM    4  O5  UNL     1      -2.358  -2.333  -2.260  1.00  0.00    -0.283 OA
HETATM    5  C13 UNL     1      -0.040  -2.477  -1.685  1.00  0.00     0.250 A 
HETATM    6  O6  UNL     1       0.515  -3.487  -2.244  1.00  0.00    -0.282 OA
ENDROOT
BRANCH   1   7
HETATM    7  N3  UNL     1       1.650  -1.167  -0.284  1.00  0.00    -0.321 N 
HETATM    8  C3  UNL     1       2.595  -0.370  -0.957  1.00  0.00     0.257 C 
HETATM    9  O2  UNL     1       2.270   0.085  -2.091  1.00  0.00    -0.271 OA
ATOM     10  H3  UNL     1       1.886  -1.542   0.635  1.00  0.00     0.169 HD
BRANCH   8  11
HETATM   11  C2  UNL     1       3.928  -0.030  -0.444  1.00  0.00     0.330 C 
BRANCH  11  12
HETATM   12  C1  UNL     1       3.808   0.787   0.818  1.00  0.00     0.356 C 
BRANCH  12  13
HETATM   13  N1  UNL     1       5.150   1.205   1.224  1.00  0.00    -0.051 N 
ATOM     14  H13 UNL     1       5.116   1.801   2.051  1.00  0.00     0.277 HD
ATOM     15  H12 UNL     1       5.679   0.423   1.609  1.00  0.00     0.277 HD
ATOM     16  H11 UNL     1       5.659   1.657   0.465  1.00  0.00     0.277 HD
ENDBRANCH  12  13
BRANCH  12  17
HETATM   17  O1  UNL     1       3.124   0.180   1.838  1.00  0.00    -0.368 OA
ATOM     18  H1  UNL     1       2.253  -0.091   1.574  1.00  0.00     0.212 HD
ENDBRANCH  12  17
ENDBRANCH  11  12
BRANCH  11  19
HETATM   19  N2  UNL     1       4.684   0.728  -1.455  1.00  0.00    -0.062 N 
ATOM     20  H23 UNL     1       4.278   1.647  -1.629  1.00  0.00     0.275 HD
ATOM     21  H22 UNL     1       5.593   1.033  -1.107  1.00  0.00     0.275 HD
ATOM     22  H21 UNL     1       4.765   0.175  -2.309  1.00  0.00     0.275 HD
ENDBRANCH  11  19
ENDBRANCH   8  11
ENDBRANCH   1   7
BRANCH   2  23
HETATM   23  C6  UNL     1      -1.532   0.234  -0.227  1.00  0.00     0.030 C 
HETATM   24  C7  UNL     1      -2.635   0.222   0.461  1.00  0.00     0.011 C 
HETATM   25  C8  UNL     1      -3.216   1.494   1.048  1.00  0.00     0.053 C 
HETATM   26  C11 UNL     1      -3.379  -0.986   0.764  1.00  0.00     0.254 C 
HETATM   27  C9  UNL     1      -4.567   1.656   0.385  1.00  0.00     0.108 C 
HETATM   28  C10 UNL     1      -5.352   0.405   0.502  1.00  0.00     0.224 C 
HETATM   29  O3  UNL     1      -6.612   0.504   0.337  1.00  0.00    -0.273 OA
HETATM   30  N4  UNL     1      -4.801  -0.863   0.780  1.00  0.00    -0.294 N 
ATOM     31  H4  UNL     1      -5.398  -1.664   0.985  1.00  0.00     0.172 HD
HETATM   32  O4  UNL     1      -2.783  -2.052   0.997  1.00  0.00    -0.268 OA
ENDBRANCH   2  23
TORSDOF 7
