REMARK  9 active torsions:
REMARK  status: ('A' for Active; 'I' for Inactive)
REMARK    1  A    between atoms: C2_3  and  C3_4 
REMARK    2  A    between atoms: C5_10  and  N4_11 
REMARK    3  A    between atoms: N5_13  and  C6_15 
REMARK    4  A    between atoms: C7_16  and  C8_17 
REMARK       I    between atoms: C8_17  and  N6_19 
REMARK    5  A    between atoms: N6_19  and  N7_21 
REMARK    6  A    between atoms: C9_26  and  N9_27 
REMARK    7  A    between atoms: N9_27  and  N10_29 
REMARK    8  A    between atoms: N11_32  and  N12_33 
REMARK    9  A    between atoms: C10_36  and  N13_37 
ROOT
HETATM    1  C6  UNL     1      -1.629  -0.528   0.042  1.00  0.00     0.127 A 
HETATM    2  C7  UNL     1      -2.355   0.631   0.217  1.00  0.00     0.150 A 
HETATM    3  N8  UNL     1      -3.701   0.574   0.232  1.00  0.00    -0.181 N 
ATOM      4  H8  UNL     1      -4.221   1.441   0.363  1.00  0.00     0.184 HD
HETATM    5  C9  UNL     1      -4.399  -0.581   0.082  1.00  0.00     0.719 A 
HETATM    6  N11 UNL     1      -3.666  -1.692  -0.087  1.00  0.00    -0.073 N 
HETATM    7  C10 UNL     1      -2.326  -1.709  -0.113  1.00  0.00     0.169 A 
ENDROOT
BRANCH   1   8
HETATM    8  N5  UNL     1      -0.209  -0.488   0.028  1.00  0.00    -0.294 N 
HETATM    9  N4  UNL     1       0.500  -0.901   0.997  1.00  0.00    -0.294 N 
ATOM     10  H4  UNL     1       0.079  -1.286   1.843  1.00  0.00     0.187 HD
ATOM     11  H5  UNL     1       0.261  -0.112  -0.795  1.00  0.00     0.187 HD
BRANCH   9  12
HETATM   12  C5  UNL     1       1.925  -0.800   0.844  1.00  0.00     0.132 A 
HETATM   13  C4  UNL     1       2.772  -0.989   1.912  1.00  0.00     0.126 A 
HETATM   14  N3  UNL     1       4.082  -0.883   1.712  1.00  0.00    -0.345 N 
HETATM   15  C2  UNL     1       4.649  -0.595   0.501  1.00  0.00     0.176 A 
ATOM     16  H3  UNL     1       4.702  -1.025   2.510  1.00  0.00     0.167 HD
HETATM   17  N1  UNL     1       3.858  -0.405  -0.557  1.00  0.00    -0.298 N 
HETATM   18  C1  UNL     1       4.352  -0.094  -1.892  1.00  0.00     0.161 C 
HETATM   19  C11 UNL     1       2.509  -0.512  -0.362  1.00  0.00     0.278 A 
HETATM   20  O3  UNL     1       1.752  -0.335  -1.351  1.00  0.00    -0.265 OA
BRANCH  15  21
HETATM   21  C3  UNL     1       6.087  -0.498   0.375  1.00  0.00     0.299 C 
HETATM   22  N2  UNL     1       6.825  -0.210  -0.785  1.00  0.00    -0.054 NA
HETATM   23  O1  UNL     1       6.764  -0.696   1.434  1.00  0.00    -0.268 OA
ENDBRANCH  15  21
ENDBRANCH   9  12
ENDBRANCH   1   8
BRANCH   2  24
HETATM   24  C8  UNL     1      -1.656   1.927   0.381  1.00  0.00     0.289 C 
HETATM   25  O2  UNL     1      -0.392   1.929   0.341  1.00  0.00    -0.264 OA
HETATM   26  N6  UNL     1      -2.324   3.143   0.577  1.00  0.00    -0.271 N 
ATOM     27  H6  UNL     1      -3.343   3.176   0.614  1.00  0.00     0.189 HD
BRANCH  26  28
HETATM   28  N7  UNL     1      -1.563   4.317   0.722  1.00  0.00    -0.342 N 
ATOM     29  H72 UNL     1      -0.545   4.267   0.683  1.00  0.00     0.176 HD
ATOM     30  H71 UNL     1      -2.049   5.202   0.865  1.00  0.00     0.176 HD
ENDBRANCH  26  28
ENDBRANCH   2  24
BRANCH   7  31
HETATM   31  N13 UNL     1      -1.647  -2.793  -0.281  1.00  0.00    -0.382 N 
ATOM     32 2H13 UNL     1      -0.627  -2.806  -0.301  1.00  0.00     0.157 HD
ATOM     33 1H13 UNL     1      -2.162  -3.666  -0.396  1.00  0.00     0.157 HD
ENDBRANCH   7  31
BRANCH   6  34
HETATM   34  N12 UNL     1      -4.355  -2.894  -0.245  1.00  0.00    -0.322 N 
ATOM     35 2H12 UNL     1      -5.375  -2.881  -0.225  1.00  0.00     0.178 HD
ATOM     36 1H12 UNL     1      -3.798  -3.739  -0.373  1.00  0.00     0.178 HD
ENDBRANCH   6  34
BRANCH   5  37
HETATM   37  N9  UNL     1      -5.688  -0.606   0.100  1.00  0.00    -0.137 N 
ATOM     38  H9  UNL     1      -6.199  -1.481  -0.015  1.00  0.00     0.205 HD
BRANCH  37  39
HETATM   39  N10 UNL     1      -6.358   0.594   0.280  1.00  0.00    -0.331 N 
ATOM     40 2H10 UNL     1      -5.833   1.461   0.393  1.00  0.00     0.177 HD
ATOM     41 1H10 UNL     1      -7.378   0.574   0.294  1.00  0.00     0.177 HD
ENDBRANCH  37  39
ENDBRANCH   5  37
TORSDOF 9
