REMARK  15 active torsions:
REMARK  status: ('A' for Active; 'I' for Inactive)
REMARK    1  A    between atoms: C2_2  and  C3_3 
REMARK    2  A    between atoms: C3_3  and  C4_4 
REMARK    3  A    between atoms: C4_4  and  C5_5 
REMARK    4  A    between atoms: C5_5  and  C6_6 
REMARK    5  A    between atoms: C6_6  and  C7_7 
REMARK    6  A    between atoms: C7_7  and  O2_9 
REMARK    7  A    between atoms: O2_9  and  C8_10 
REMARK    8  A    between atoms: C9_12  and  C10_13 
REMARK    9  A    between atoms: C10_13  and  O4_14 
REMARK   10  A    between atoms: C14_19  and  O5_20 
REMARK   11  A    between atoms: C15_22  and  O6_23 
REMARK   12  A    between atoms: O6_23  and  C16_24 
REMARK   13  A    between atoms: C19_28  and  O8_29 
REMARK   14  A    between atoms: C20_31  and  O9_32 
REMARK   15  A    between atoms: C21_34  and  O10_35 
ROOT
HETATM    1  C8  UNL     1       0.179  -1.431  -0.397  1.00  0.00     0.301 C 
HETATM    2  O3  UNL     1       0.557  -2.640   0.043  1.00  0.00    -0.350 OA
HETATM    3  C9  UNL     1      -0.268  -3.688   0.104  1.00  0.00     0.158 C 
HETATM    4  C11 UNL     1      -1.486  -3.614  -0.738  1.00  0.00     0.009 C 
HETATM    5  C12 UNL     1      -1.060  -3.777  -2.193  1.00  0.00     0.020 C 
HETATM    6  C13 UNL     1      -2.475  -4.723  -0.461  1.00  0.00     0.020 C 
HETATM    7  C14 UNL     1      -2.174  -2.316  -0.513  1.00  0.00     0.162 C 
HETATM    8  C15 UNL     1      -1.255  -1.130  -0.567  1.00  0.00     0.209 C 
ENDROOT
BRANCH   8   9
HETATM    9  O6  UNL     1      -1.761  -0.209   0.376  1.00  0.00    -0.346 OA
BRANCH   9  10
HETATM   10  C16 UNL     1      -2.292   0.920  -0.200  1.00  0.00     0.292 C 
HETATM   11  O7  UNL     1      -1.586   1.998   0.273  1.00  0.00    -0.351 OA
HETATM   12  C17 UNL     1      -2.035   3.222  -0.191  1.00  0.00     0.152 C 
HETATM   13  C18 UNL     1      -1.133   4.287   0.428  1.00  0.00     0.042 C 
HETATM   14  C19 UNL     1      -3.419   3.459   0.380  1.00  0.00     0.178 C 
HETATM   15  C20 UNL     1      -4.306   2.386  -0.260  1.00  0.00     0.183 C 
HETATM   16  C21 UNL     1      -3.741   1.064   0.220  1.00  0.00     0.204 C 
BRANCH  14  17
HETATM   17  O8  UNL     1      -3.891   4.731   0.126  1.00  0.00    -0.390 OA
ATOM     18  H8  UNL     1      -4.758   4.880   0.484  1.00  0.00     0.210 HD
ENDBRANCH  14  17
BRANCH  15  19
HETATM   19  O9  UNL     1      -4.220   2.500  -1.651  1.00  0.00    -0.390 OA
ATOM     20  H9  UNL     1      -4.770   1.835  -2.048  1.00  0.00     0.210 HD
ENDBRANCH  15  19
BRANCH  16  21
HETATM   21  O10 UNL     1      -3.725   1.142   1.631  1.00  0.00    -0.388 OA
ATOM     22  H10 UNL     1      -4.633   1.232   1.894  1.00  0.00     0.210 HD
ENDBRANCH  16  21
ENDBRANCH   9  10
ENDBRANCH   8   9
BRANCH   1  23
HETATM   23  O2  UNL     1       0.731  -0.457   0.481  1.00  0.00    -0.287 OA
BRANCH  23  24
HETATM   24  C7  UNL     1       1.710   0.451   0.071  1.00  0.00     0.261 C 
HETATM   25  O1  UNL     1       2.143   0.440  -1.100  1.00  0.00    -0.265 OA
BRANCH  24  26
HETATM   26  C6  UNL     1       2.233   1.432   1.042  1.00  0.00     0.111 C 
BRANCH  26  27
HETATM   27  C5  UNL     1       3.441   0.907   1.752  1.00  0.00     0.010 C 
BRANCH  27  28
HETATM   28  C4  UNL     1       4.544   0.632   0.773  1.00  0.00     0.000 C 
BRANCH  28  29
HETATM   29  C3  UNL     1       4.945   1.888   0.079  1.00  0.00    -0.000 C 
BRANCH  29  30
HETATM   30  C2  UNL     1       6.067   1.541  -0.901  1.00  0.00    -0.005 C 
HETATM   31  C1  UNL     1       7.250   0.960  -0.151  1.00  0.00     0.005 C 
ENDBRANCH  29  30
ENDBRANCH  28  29
ENDBRANCH  27  28
ENDBRANCH  26  27
ENDBRANCH  24  26
ENDBRANCH  23  24
ENDBRANCH   1  23
BRANCH   7  32
HETATM   32  O5  UNL     1      -3.195  -2.220  -1.482  1.00  0.00    -0.392 OA
ATOM     33  H5  UNL     1      -3.635  -1.390  -1.338  1.00  0.00     0.210 HD
ENDBRANCH   7  32
BRANCH   3  34
HETATM   34  C10 UNL     1      -0.553  -4.031   1.552  1.00  0.00     0.197 C 
BRANCH  34  35
HETATM   35  O4  UNL     1      -1.146  -2.981   2.250  1.00  0.00    -0.398 OA
ATOM     36  H4  UNL     1      -1.325  -3.196   3.158  1.00  0.00     0.209 HD
ENDBRANCH  34  35
ENDBRANCH   3  34
TORSDOF 15
