REMARK  13 active torsions:
REMARK  status: ('A' for Active; 'I' for Inactive)
REMARK    1  A    between atoms: C2_2  and  C3_3 
REMARK    2  A    between atoms: C3_3  and  C4_4 
REMARK    3  A    between atoms: C4_4  and  C5_5 
REMARK    4  A    between atoms: C5_5  and  C6_6 
REMARK    5  A    between atoms: C8_9  and  N1_10 
REMARK    6  A    between atoms: C9_11  and  C10_12 
REMARK    7  A    between atoms: C10_12  and  O1_13 
REMARK    8  A    between atoms: C11_15  and  O2_16 
REMARK    9  A    between atoms: C12_18  and  O3_19 
REMARK   10  A    between atoms: C13_21  and  O4_22 
REMARK   11  A    between atoms: C14_24  and  C15_25 
REMARK   12  A    between atoms: C15_25  and  O5_26 
REMARK   13  A    between atoms: O5_26  and  S2_27 
ROOT
HETATM    1  C6  UNL     1       1.854  -0.703  -0.529  1.00  0.00    -0.028 A 
HETATM    2  C7  UNL     1       1.869  -1.221  -1.799  1.00  0.00     0.060 A 
HETATM    3  S1  UNL     1       0.230  -1.530  -2.111  1.00  0.00    -0.082 SA
HETATM    4  C8  UNL     1      -0.443  -0.999  -0.623  1.00  0.00     0.094 A 
HETATM    5  C16 UNL     1       0.651  -0.590   0.080  1.00  0.00     0.085 A 
HETATM    6  C17 UNL     1       0.451  -0.067   1.452  1.00  0.00     0.103 C 
HETATM    7  N2  UNL     1       0.278   0.352   2.520  1.00  0.00    -0.191 NA
ENDROOT
BRANCH   1   8
HETATM    8  C5  UNL     1       3.142  -0.224   0.147  1.00  0.00     0.041 C 
BRANCH   8   9
HETATM    9  C4  UNL     1       3.238   1.267  -0.010  1.00  0.00     0.005 C 
BRANCH   9  10
HETATM   10  C3  UNL     1       4.471   1.844   0.623  1.00  0.00    -0.000 C 
BRANCH  10  11
HETATM   11  C2  UNL     1       5.744   1.235   0.018  1.00  0.00    -0.005 C 
HETATM   12  C1  UNL     1       6.892   1.930   0.731  1.00  0.00     0.005 C 
ENDBRANCH  10  11
ENDBRANCH   9  10
ENDBRANCH   8   9
ENDBRANCH   1   8
BRANCH   4  13
HETATM   13  N1  UNL     1      -1.841  -1.030  -0.293  1.00  0.00    -0.355 N 
HETATM   14  C9  UNL     1      -2.363  -2.385  -0.055  1.00  0.00     0.140 C 
HETATM   15  C11 UNL     1      -3.169  -2.444   1.192  1.00  0.00     0.174 C 
HETATM   16  C12 UNL     1      -4.078  -1.279   1.427  1.00  0.00     0.179 C 
HETATM   17  C13 UNL     1      -3.410   0.047   1.171  1.00  0.00     0.174 C 
HETATM   18  C14 UNL     1      -2.737   0.056  -0.192  1.00  0.00     0.142 C 
BRANCH  14  19
HETATM   19  C10 UNL     1      -3.184  -2.721  -1.293  1.00  0.00     0.192 C 
BRANCH  19  20
HETATM   20  O1  UNL     1      -3.709  -4.013  -1.196  1.00  0.00    -0.399 OA
ATOM     21  H1  UNL     1      -4.221  -4.223  -1.968  1.00  0.00     0.209 HD
ENDBRANCH  19  20
ENDBRANCH  14  19
BRANCH  15  22
HETATM   22  O2  UNL     1      -2.361  -2.747   2.301  1.00  0.00    -0.391 OA
ATOM     23  H2  UNL     1      -2.876  -2.785   3.098  1.00  0.00     0.210 HD
ENDBRANCH  15  22
BRANCH  16  24
HETATM   24  O3  UNL     1      -4.472  -1.322   2.771  1.00  0.00    -0.390 OA
ATOM     25  H3  UNL     1      -5.049  -0.582   2.920  1.00  0.00     0.210 HD
ENDBRANCH  16  24
BRANCH  17  26
HETATM   26  O4  UNL     1      -4.425   1.014   1.246  1.00  0.00    -0.391 OA
ATOM     27  H4  UNL     1      -4.004   1.850   1.085  1.00  0.00     0.210 HD
ENDBRANCH  17  26
BRANCH  18  28
HETATM   28  C15 UNL     1      -2.235   1.416  -0.514  1.00  0.00     0.221 C 
BRANCH  28  29
HETATM   29  O5  UNL     1      -1.776   1.434  -1.831  1.00  0.00    -0.255 OA
BRANCH  29  30
HETATM   30  S2  UNL     1      -1.211   2.955  -2.260  1.00  0.00     0.251 S 
HETATM   31  O6  UNL     1      -1.138   3.884  -1.085  1.00  0.00    -0.572 OA
HETATM   32  O7  UNL     1      -2.137   3.626  -3.266  1.00  0.00    -0.572 OA
HETATM   33  O8  UNL     1       0.299   2.844  -2.984  1.00  0.00    -0.572 OA
ENDBRANCH  29  30
ENDBRANCH  28  29
ENDBRANCH  18  28
ENDBRANCH   4  13
TORSDOF 13
