REMARK  9 active torsions:
REMARK  status: ('A' for Active; 'I' for Inactive)
REMARK    1  A    between atoms: N1_1  and  C1_4 
REMARK    2  A    between atoms: C5_16  and  N5_17 
REMARK    3  A    between atoms: C6_19  and  C7_20 
REMARK    4  A    between atoms: C7_20  and  C8_21 
REMARK    5  A    between atoms: C8_21  and  N6_22 
REMARK    6  A    between atoms: C11_25  and  N7_26 
REMARK    7  A    between atoms: C11_25  and  C12_30 
REMARK    8  A    between atoms: C12_30  and  N8_31 
REMARK    9  A    between atoms: N8_31  and  C13_33 
ROOT
HETATM    1  N5  UNL     1      -2.540   1.814  -0.236  1.00  0.00    -0.351 N 
ATOM      2  H5  UNL     1      -2.622   2.779   0.083  1.00  0.00     0.166 HD
HETATM    3  C6  UNL     1      -1.294   1.660  -0.720  1.00  0.00     0.064 C 
ENDROOT
BRANCH   3   4
HETATM    4  C7  UNL     1      -0.871   0.261  -1.048  1.00  0.00     0.065 C 
BRANCH   4   5
HETATM    5  C8  UNL     1       0.563   0.213  -1.558  1.00  0.00     0.132 C 
BRANCH   5   6
HETATM    6  N6  UNL     1       1.508   0.704  -0.624  1.00  0.00    -0.373 N 
HETATM    7  C9  UNL     1       1.734  -0.022   0.531  1.00  0.00     0.065 C 
HETATM    8  C10 UNL     1       2.937   0.244   1.343  1.00  0.00     0.085 C 
HETATM    9  C11 UNL     1       4.064   0.797   0.507  1.00  0.00     0.148 C 
HETATM   10  C14 UNL     1       3.529   2.029  -0.187  1.00  0.00     0.085 C 
HETATM   11  C15 UNL     1       2.338   1.745  -1.027  1.00  0.00     0.065 C 
BRANCH   9  12
HETATM   12  N7  UNL     1       5.127   1.203   1.413  1.00  0.00    -0.068 N 
ATOM     13  H73 UNL     1       4.809   1.854   2.131  1.00  0.00     0.275 HD
ATOM     14  H72 UNL     1       5.426   0.452   2.035  1.00  0.00     0.275 HD
ATOM     15  H71 UNL     1       5.889   1.577   0.848  1.00  0.00     0.275 HD
ENDBRANCH   9  12
BRANCH   9  16
HETATM   16  C12 UNL     1       4.560  -0.174  -0.532  1.00  0.00     0.177 C 
BRANCH  16  17
HETATM   17  N8  UNL     1       5.061  -1.397   0.054  1.00  0.00    -0.221 N 
ATOM     18  H8  UNL     1       4.436  -1.942   0.648  1.00  0.00     0.177 HD
BRANCH  17  19
HETATM   19  C13 UNL     1       6.258  -1.832  -0.137  1.00  0.00     0.709 A 
HETATM   20  N9  UNL     1       7.265  -1.326  -0.854  1.00  0.00    -0.115 N 
HETATM   21  N10 UNL     1       8.286  -2.130  -0.737  1.00  0.00    -0.213 N 
ATOM     22  H9  UNL     1       7.240  -0.463  -1.397  1.00  0.00     0.207 HD
HETATM   23  N11 UNL     1       7.955  -3.129   0.033  1.00  0.00    -0.213 N 
ATOM     24  H10 UNL     1       9.197  -1.998  -1.177  1.00  0.00     0.210 HD
HETATM   25  N12 UNL     1       6.719  -2.970   0.414  1.00  0.00    -0.115 N 
ATOM     26  H11 UNL     1       8.563  -3.906   0.294  1.00  0.00     0.210 HD
ATOM     27  H12 UNL     1       6.193  -3.598   1.023  1.00  0.00     0.207 HD
ENDBRANCH  17  19
ENDBRANCH  16  17
ENDBRANCH   9  16
ENDBRANCH   5   6
ENDBRANCH   4   5
ENDBRANCH   3   4
BRANCH   1  28
HETATM   28  C5  UNL     1      -3.621   1.267  -0.021  1.00  0.00     0.176 A 
HETATM   29  C4  UNL     1      -4.617   2.082   0.573  1.00  0.00     0.290 A 
HETATM   30  N4  UNL     1      -5.833   1.647   0.870  1.00  0.00    -0.314 N 
HETATM   31  O1  UNL     1      -4.316   3.266   0.823  1.00  0.00    -0.264 OA
HETATM   32  C3  UNL     1      -6.199   0.365   0.614  1.00  0.00     0.125 A 
ATOM     33  H4  UNL     1      -6.504   2.285   1.297  1.00  0.00     0.169 HD
HETATM   34  C2  UNL     1      -7.451  -0.114   0.909  1.00  0.00     0.145 A 
HETATM   35  C16 UNL     1      -5.223  -0.419   0.036  1.00  0.00     0.153 A 
HETATM   36  N2  UNL     1      -7.712  -1.420   0.607  1.00  0.00    -0.175 N 
HETATM   37  N3  UNL     1      -8.362   0.603   1.444  1.00  0.00    -0.383 N 
HETATM   38  C1  UNL     1      -6.780  -2.183   0.051  1.00  0.00     0.679 A 
ATOM     39  H2  UNL     1      -8.631  -1.812   0.811  1.00  0.00     0.186 HD
HETATM   40  N14 UNL     1      -5.561  -1.715  -0.236  1.00  0.00    -0.174 N 
ATOM     41  H14 UNL     1      -4.873  -2.334  -0.664  1.00  0.00     0.186 HD
ATOM     42  H32 UNL     1      -9.292   0.247   1.663  1.00  0.00     0.157 HD
ATOM     43  H31 UNL     1      -8.167   1.578   1.670  1.00  0.00     0.157 HD
HETATM   44  N13 UNL     1      -3.986   0.016  -0.268  1.00  0.00    -0.322 N 
ATOM     45  H13 UNL     1      -3.319  -0.627  -0.695  1.00  0.00     0.169 HD
BRANCH  38  46
HETATM   46  N1  UNL     1      -7.080  -3.405  -0.212  1.00  0.00    -0.234 N 
ATOM     47  H12 UNL     1      -8.010  -3.762   0.007  1.00  0.00     0.174 HD
ATOM     48  H11 UNL     1      -6.363  -3.992  -0.639  1.00  0.00     0.174 HD
ENDBRANCH  38  46
ENDBRANCH   1  28
TORSDOF 9
