REMARK  13 active torsions:
REMARK  status: ('A' for Active; 'I' for Inactive)
REMARK    1  A    between atoms: C2_2  and  C3_3 
REMARK    2  A    between atoms: C3_3  and  C4_4 
REMARK    3  A    between atoms: C3_3  and  C5_7 
REMARK    4  A    between atoms: C3_3  and  C8_14 
REMARK    5  A    between atoms: C4_4  and  O1_5 
REMARK    6  A    between atoms: C5_7  and  C6_8 
REMARK    7  A    between atoms: C6_8  and  C7_9 
REMARK    8  A    between atoms: C7_9  and  N1_10 
REMARK    9  A    between atoms: C8_14  and  C9_15 
REMARK   10  A    between atoms: C9_15  and  N2_16 
REMARK   11  A    between atoms: N2_16  and  C10_18 
REMARK   12  A    between atoms: C11_21  and  N4_22 
REMARK   13  A    between atoms: C12_27  and  N6_28 
ROOT
HETATM    1  N2  UNL     1       1.009   0.237  -0.946  1.00  0.00    -0.204 N 
ATOM      2  H2  UNL     1       0.395   1.049  -0.892  1.00  0.00     0.183 HD
ENDROOT
BRANCH   1   3
HETATM    3  C9  UNL     1       0.359  -0.981  -1.147  1.00  0.00     0.080 C 
BRANCH   3   4
HETATM    4  C8  UNL     1      -1.051  -1.169  -0.755  1.00  0.00     0.056 C 
BRANCH   4   5
HETATM    5  C3  UNL     1      -1.475  -0.993   0.622  1.00  0.00    -0.015 C 
BRANCH   5   6
HETATM    6  C2  UNL     1      -2.974  -1.341   0.729  1.00  0.00     0.007 C 
HETATM    7  C1  UNL     1      -3.449  -1.453   2.135  1.00  0.00     0.006 C 
ENDBRANCH   5   6
BRANCH   5   8
HETATM    8  C4  UNL     1      -0.868  -2.238   1.386  1.00  0.00     0.173 C 
BRANCH   8   9
HETATM    9  O1  UNL     1      -1.276  -3.362   0.671  1.00  0.00    -0.400 OA
ATOM     10  H1  UNL     1      -0.911  -4.110   1.130  1.00  0.00     0.209 HD
ENDBRANCH   8   9
ENDBRANCH   5   8
BRANCH   5  11
HETATM   11  C5  UNL     1      -1.151   0.197   1.419  1.00  0.00     0.013 C 
BRANCH  11  12
HETATM   12  C6  UNL     1      -1.854   1.467   1.233  1.00  0.00     0.028 C 
BRANCH  12  13
HETATM   13  C7  UNL     1      -1.866   2.182  -0.050  1.00  0.00     0.229 C 
BRANCH  13  14
HETATM   14  N1  UNL     1      -2.652   3.419   0.137  1.00  0.00    -0.079 N 
ATOM     15  H13 UNL     1      -3.588   3.244   0.503  1.00  0.00     0.274 HD
ATOM     16  H12 UNL     1      -2.312   3.993   0.909  1.00  0.00     0.274 HD
ATOM     17  H11 UNL     1      -2.660   3.916  -0.754  1.00  0.00     0.274 HD
ENDBRANCH  13  14
ENDBRANCH  12  13
ENDBRANCH  11  12
ENDBRANCH   5  11
ENDBRANCH   4   5
ENDBRANCH   3   4
ENDBRANCH   1   3
BRANCH   1  18
HETATM   18  C10 UNL     1       2.241   0.490  -0.820  1.00  0.00     0.710 A 
HETATM   19  N3  UNL     1       2.677   1.750  -0.631  1.00  0.00    -0.021 N 
HETATM   20  C11 UNL     1       3.981   2.053  -0.494  1.00  0.00     0.705 A 
ATOM     21  H3  UNL     1       1.992   2.505  -0.590  1.00  0.00     0.203 HD
HETATM   22  N5  UNL     1       4.872   1.066  -0.550  1.00  0.00    -0.022 N 
HETATM   23  C12 UNL     1       4.495  -0.214  -0.737  1.00  0.00     0.705 A 
ATOM     24  H5  UNL     1       5.863   1.284  -0.449  1.00  0.00     0.203 HD
HETATM   25  N7  UNL     1       3.173  -0.475  -0.870  1.00  0.00    -0.021 N 
ATOM     26  H7  UNL     1       2.874  -1.440  -1.013  1.00  0.00     0.203 HD
BRANCH  20  27
HETATM   27  N4  UNL     1       4.355   3.277  -0.314  1.00  0.00    -0.234 N 
ATOM     28  H42 UNL     1       3.672   4.033  -0.271  1.00  0.00     0.174 HD
ATOM     29  H41 UNL     1       5.343   3.507  -0.210  1.00  0.00     0.174 HD
ENDBRANCH  20  27
BRANCH  23  30
HETATM   30  N6  UNL     1       5.400  -1.128  -0.783  1.00  0.00    -0.234 N 
ATOM     31  H62 UNL     1       6.396  -0.931  -0.683  1.00  0.00     0.174 HD
ATOM     32  H61 UNL     1       5.115  -2.097  -0.925  1.00  0.00     0.174 HD
ENDBRANCH  23  30
ENDBRANCH   1  18
TORSDOF 13
