REMARK  4 active torsions:
REMARK  status: ('A' for Active; 'I' for Inactive)
REMARK    1  A    between atoms: C2_2  and  S1_3 
REMARK    2  A    between atoms: S1_3  and  C3_4 
REMARK    3  A    between atoms: C4_7  and  C5_8 
REMARK    4  A    between atoms: C5_8  and  C7_11 
ROOT
HETATM    1  C5  UNL     1      -1.943  -0.868  -0.437  1.00  0.00     0.136 C 
HETATM    2  C6  UNL     1      -2.084  -2.143   0.271  1.00  0.00     0.067 C 
HETATM    3  N2  UNL     1      -2.199  -3.157   0.809  1.00  0.00    -0.197 NA
ENDROOT
BRANCH   1   4
HETATM    4  C4  UNL     1      -0.608  -0.301  -0.079  1.00  0.00     0.170 C 
HETATM    5  N1  UNL     1      -0.401   0.929  -0.726  1.00  0.00    -0.385 N 
HETATM    6  C3  UNL     1       0.768   1.619  -0.382  1.00  0.00     0.214 C 
ATOM      7  H1  UNL     1      -1.064   1.298  -1.407  1.00  0.00     0.156 HD
HETATM    8  S4  UNL     1       0.955   1.616   1.447  1.00  0.00    -0.059 SA
HETATM    9  S3  UNL     1      -0.504   0.040   1.731  1.00  0.00    -0.068 SA
BRANCH   6  10
HETATM   10  S1  UNL     1       2.267   1.253  -1.243  1.00  0.00    -0.133 SA
BRANCH  10  11
HETATM   11  C2  UNL     1       2.963  -0.367  -1.000  1.00  0.00     0.072 C 
HETATM   12  C1  UNL     1       3.392  -0.488   0.462  1.00  0.00     0.016 C 
ENDBRANCH  10  11
ENDBRANCH   6  10
ENDBRANCH   1   4
BRANCH   1  13
HETATM   13  C7  UNL     1      -3.095   0.051  -0.175  1.00  0.00     0.108 C 
HETATM   14  S2  UNL     1      -3.234   0.524   1.566  1.00  0.00    -0.096 SA
ENDBRANCH   1  13
TORSDOF 4
