REMARK  6 active torsions:
REMARK  status: ('A' for Active; 'I' for Inactive)
REMARK    1  A    between atoms: O1_2  and  C2_3 
REMARK    2  A    between atoms: C5_6  and  C6_7 
REMARK       I    between atoms: C6_7  and  N1_9 
REMARK    3  A    between atoms: N1_9  and  N2_11 
REMARK    4  A    between atoms: N2_11  and  C7_13 
REMARK    5  A    between atoms: C7_13  and  O3_14 
REMARK    6  A    between atoms: C7_13  and  N3_16 
REMARK       I    between atoms: N3_16  and  C8_18 
ROOT
HETATM    1  C6  UNL     1      -0.078   0.239   0.320  1.00  0.00     0.271 C 
HETATM    2  O2  UNL     1       0.325  -0.065   1.463  1.00  0.00    -0.266 OA
HETATM    3  N1  UNL     1       0.840   0.569  -0.692  1.00  0.00    -0.263 N 
ATOM      4  H1  UNL     1       0.530   0.819  -1.631  1.00  0.00     0.190 HD
ENDROOT
BRANCH   3   5
HETATM    5  N2  UNL     1       2.220   0.539  -0.350  1.00  0.00    -0.262 N 
ATOM      6  H2  UNL     1       2.764   1.401  -0.322  1.00  0.00     0.190 HD
BRANCH   5   7
HETATM    7  C7  UNL     1       2.815  -0.676  -0.055  1.00  0.00     0.238 C 
BRANCH   7   8
HETATM    8  O3  UNL     1       2.052  -1.731  -0.119  1.00  0.00    -0.331 OA
ATOM      9  H3  UNL     1       2.460  -2.565   0.083  1.00  0.00     0.221 HD
ENDBRANCH   7   8
BRANCH   7  10
HETATM   10  N3  UNL     1       4.154  -0.833   0.300  1.00  0.00    -0.292 N 
HETATM   11  C8  UNL     1       5.086   0.184   0.412  1.00  0.00     0.220 C 
HETATM   12  C9  UNL     1       6.495  -0.199   0.822  1.00  0.00     0.117 C 
HETATM   13  O4  UNL     1       4.875   1.412   0.205  1.00  0.00    -0.274 OA
ATOM     14  H3  UNL     1       4.475  -1.781   0.494  1.00  0.00     0.172 HD
ENDBRANCH   7  10
ENDBRANCH   5   7
ENDBRANCH   3   5
BRANCH   1  15
HETATM   15  C5  UNL     1      -1.513   0.240   0.079  1.00  0.00     0.049 A 
HETATM   16  C4  UNL     1      -2.096   0.775  -1.067  1.00  0.00     0.022 A 
HETATM   17  C3  UNL     1      -3.465   0.750  -1.255  1.00  0.00     0.057 A 
HETATM   18  C2  UNL     1      -4.274   0.190  -0.302  1.00  0.00     0.141 A 
HETATM   19  N4  UNL     1      -3.725  -0.327   0.802  1.00  0.00    -0.346 N 
HETATM   20  C10 UNL     1      -2.398  -0.311   1.000  1.00  0.00     0.107 A 
ATOM     21  H4  UNL     1      -4.329  -0.743   1.510  1.00  0.00     0.167 HD
BRANCH  18  22
HETATM   22  O1  UNL     1      -5.625   0.152  -0.462  1.00  0.00    -0.341 OA
HETATM   23  C1  UNL     1      -6.462  -0.424   0.516  1.00  0.00     0.211 C 
ENDBRANCH  18  22
ENDBRANCH   1  15
TORSDOF 6
