REMARK  2 active torsions:
REMARK  status: ('A' for Active; 'I' for Inactive)
REMARK    1  A    between atoms: C9_13  and  C10_14 
REMARK    2  A    between atoms: C11_15  and  C12_16 
ROOT
HETATM    1  C1  UNL     1      -4.333   1.053   2.342  1.00  0.00     0.049 C 
HETATM    2  C2  UNL     1      -3.813   0.599   1.026  1.00  0.00    -0.049 A 
HETATM    3  C3  UNL     1      -4.675   0.320  -0.013  1.00  0.00     0.039 A 
HETATM    4  C4  UNL     1      -4.187  -0.104  -1.241  1.00  0.00     0.061 A 
HETATM    5  N1  UNL     1      -4.751  -0.444  -2.413  1.00  0.00    -0.300 N 
ATOM      6  H1  UNL     1      -5.755  -0.439  -2.594  1.00  0.00     0.187 HD
HETATM    7  N2  UNL     1      -3.832  -0.786  -3.301  1.00  0.00    -0.311 N 
ATOM      8  H2  UNL     1      -3.995  -1.085  -4.262  1.00  0.00     0.186 HD
HETATM    9  C5  UNL     1      -2.640  -0.663  -2.689  1.00  0.00     0.121 A 
HETATM   10  C6  UNL     1      -2.821  -0.234  -1.383  1.00  0.00     0.020 A 
HETATM   11  C7  UNL     1      -1.974   0.051  -0.331  1.00  0.00    -0.010 A 
HETATM   12  C8  UNL     1      -0.609  -0.081  -0.479  1.00  0.00     0.034 A 
HETATM   13  C9  UNL     1       0.254   0.202   0.572  1.00  0.00     0.019 A 
HETATM   14  C17 UNL     1      -0.215   0.624   1.798  1.00  0.00     0.021 A 
HETATM   15  C18 UNL     1      -1.579   0.756   1.947  1.00  0.00     0.014 A 
HETATM   16  C19 UNL     1      -2.445   0.473   0.897  1.00  0.00    -0.019 A 
ENDROOT
BRANCH  13  17
HETATM   17  C10 UNL     1       1.672   0.064   0.413  1.00  0.00    -0.060 C 
HETATM   18  C11 UNL     1       2.861  -0.059   0.260  1.00  0.00    -0.043 C 
BRANCH  18  19
HETATM   19  C12 UNL     1       4.271  -0.208   0.053  1.00  0.00     0.086 A 
HETATM   20  C13 UNL     1       4.904  -1.430   0.054  1.00  0.00     0.039 A 
HETATM   21  C14 UNL     1       6.273  -1.511  -0.152  1.00  0.00     0.004 A 
HETATM   22  C15 UNL     1       6.991  -0.349  -0.359  1.00  0.00     0.017 A 
HETATM   23  C16 UNL     1       6.312   0.844  -0.351  1.00  0.00     0.089 A 
HETATM   24  N3  UNL     1       4.996   0.902  -0.151  1.00  0.00    -0.359 N 
ATOM     25  H3  UNL     1       4.530   1.809  -0.153  1.00  0.00     0.166 HD
ENDBRANCH  18  19
ENDBRANCH  13  17
TORSDOF 2
