REMARK  2 active torsions:
REMARK  status: ('A' for Active; 'I' for Inactive)
REMARK    1  A    between atoms: N2_12  and  C8_13 
REMARK    2  A    between atoms: C10_15  and  C11_16 
ROOT
HETATM    1  C1  UNL     1       2.524   0.376  -2.327  1.00  0.00     0.032 C 
HETATM    2  C2  UNL     1       2.034  -0.160  -0.978  1.00  0.00     0.087 C 
HETATM    3  C3  UNL     1       3.209  -0.577  -0.186  1.00  0.00     0.062 C 
HETATM    4  C4  UNL     1       3.413   0.137   1.115  1.00  0.00     0.065 C 
HETATM    5  C5  UNL     1       2.639  -0.535   2.257  1.00  0.00     0.046 C 
HETATM    6  C6  UNL     1       4.879   0.040   1.484  1.00  0.00     0.046 C 
HETATM    7  O1  UNL     1       3.090   1.520   1.063  1.00  0.00    -0.312 OA
HETATM    8  C7  UNL     1       1.856   1.807   0.442  1.00  0.00     0.216 C 
HETATM    9  N1  UNL     1       1.379   2.987   0.599  1.00  0.00    -0.365 N 
ATOM     10  H11 UNL     1       0.487   3.194   0.150  1.00  0.00     0.159 HD
ATOM     11  H12 UNL     1       1.861   3.699   1.147  1.00  0.00     0.159 HD
HETATM   12  N2  UNL     1       1.184   0.815  -0.322  1.00  0.00    -0.337 N 
ENDROOT
BRANCH  12  13
HETATM   13  C8  UNL     1      -0.239   0.818  -0.401  1.00  0.00     0.107 C 
HETATM   14  C9  UNL     1      -0.850  -0.462   0.174  1.00  0.00     0.032 C 
HETATM   15  C10 UNL     1      -2.096  -0.728  -0.599  1.00  0.00    -0.004 C 
HETATM   16  C15 UNL     1      -2.175   0.277  -1.706  1.00  0.00     0.027 C 
HETATM   17  C16 UNL     1      -0.764   0.858  -1.816  1.00  0.00     0.105 C 
HETATM   18 CL1  UNL     1      -0.945   2.505  -2.447  1.00  0.00    -0.123 Cl
BRANCH  15  19
HETATM   19  C11 UNL     1      -3.352  -0.676   0.243  1.00  0.00    -0.048 C 
HETATM   20  C12 UNL     1      -3.319  -1.693   1.349  1.00  0.00     0.015 C 
HETATM   21  C13 UNL     1      -4.521  -1.001  -0.663  1.00  0.00     0.015 C 
HETATM   22  C14 UNL     1      -3.578   0.681   0.856  1.00  0.00     0.015 C 
ENDBRANCH  15  19
ENDBRANCH  12  13
TORSDOF 2
