REMARK  8 active torsions:
REMARK  status: ('A' for Active; 'I' for Inactive)
REMARK    1  A    between atoms: C2_2  and  C3_3 
REMARK    2  A    between atoms: C3_3  and  N1_4 
REMARK    3  A    between atoms: N2_7  and  C6_8 
REMARK    4  A    between atoms: C6_8  and  C7_9 
REMARK    5  A    between atoms: C7_9  and  N3_10 
REMARK       I    between atoms: N4_18  and  C15_19 
REMARK       I    between atoms: C15_19  and  N6_23 
REMARK    6  A    between atoms: N6_23  and  C16_25 
REMARK    7  A    between atoms: C16_25  and  C17_26 
REMARK    8  A    between atoms: C20_29  and  N7_30 
ROOT
HETATM    1  N3  UNL     1       1.084   0.488  -0.500  1.00  0.00     0.090 N 
HETATM    2  C8  UNL     1       0.174   1.435   0.139  1.00  0.00     0.273 C 
HETATM    3  C9  UNL     1      -0.989   0.756   0.795  1.00  0.00     0.041 C 
HETATM    4  C10 UNL     1      -1.812  -0.056  -0.164  1.00  0.00    -0.019 C 
HETATM    5  C11 UNL     1      -1.122  -0.020  -1.499  1.00  0.00     0.041 C 
HETATM    6  C12 UNL     1       0.308  -0.425  -1.344  1.00  0.00     0.273 C 
HETATM    7  C13 UNL     1      -2.045  -1.425   0.364  1.00  0.00     0.032 C 
HETATM    8  C14 UNL     1      -3.305  -1.846  -0.372  1.00  0.00     0.142 C 
HETATM    9  N4  UNL     1      -4.088  -0.631  -0.317  1.00  0.00    -0.218 N 
HETATM   10  C15 UNL     1      -5.489  -0.548  -0.271  1.00  0.00     0.670 C 
HETATM   11  N5  UNL     1      -6.203  -1.441   0.373  1.00  0.00    -0.235 N 
ATOM     12  H51 UNL     1      -7.221  -1.381   0.406  1.00  0.00     0.174 HD
ATOM     13  H52 UNL     1      -5.694  -2.193   0.838  1.00  0.00     0.174 HD
HETATM   14  N6  UNL     1      -6.191   0.490  -0.913  1.00  0.00    -0.222 N 
ATOM     15  H6  UNL     1      -5.669   1.317  -1.203  1.00  0.00     0.178 HD
HETATM   16  C22 UNL     1      -3.202   0.528  -0.320  1.00  0.00     0.151 C 
ENDROOT
BRANCH   1  17
HETATM   17  C7  UNL     1       1.869   1.286  -1.412  1.00  0.00     0.300 C 
BRANCH  17  18
HETATM   18  C6  UNL     1       3.056   0.637  -2.016  1.00  0.00     0.268 C 
BRANCH  18  19
HETATM   19  N2  UNL     1       4.106   0.240  -1.136  1.00  0.00    -0.061 N 
HETATM   20  C5  UNL     1       4.308   1.166  -0.034  1.00  0.00     0.265 C 
HETATM   21  C4  UNL     1       5.727   0.981   0.460  1.00  0.00     0.265 C 
HETATM   22  N1  UNL     1       6.096  -0.409   0.236  1.00  0.00    -0.062 N 
HETATM   23  C24 UNL     1       6.400  -0.518  -1.177  1.00  0.00     0.265 C 
HETATM   24  C26 UNL     1       4.928  -1.202   0.567  1.00  0.00     0.265 C 
HETATM   25  C23 UNL     1       5.363   0.300  -1.904  1.00  0.00     0.265 C 
HETATM   26  C25 UNL     1       3.962  -1.080  -0.632  1.00  0.00     0.265 C 
BRANCH  22  27
HETATM   27  C3  UNL     1       7.171  -0.842   1.068  1.00  0.00     0.237 C 
BRANCH  27  28
HETATM   28  C2  UNL     1       8.321   0.122   1.168  1.00  0.00     0.023 C 
HETATM   29  C1  UNL     1       9.345  -0.530   2.102  1.00  0.00     0.007 C 
ENDBRANCH  27  28
ENDBRANCH  22  27
ENDBRANCH  18  19
ENDBRANCH  17  18
ENDBRANCH   1  17
BRANCH  14  30
HETATM   30  C16 UNL     1      -7.603   0.450  -1.183  1.00  0.00     0.178 C 
BRANCH  30  31
HETATM   31  C17 UNL     1      -8.438   0.344   0.031  1.00  0.00    -0.024 A 
HETATM   32  C18 UNL     1      -8.100   1.035   1.175  1.00  0.00     0.014 A 
HETATM   33  C19 UNL     1      -8.885   0.929   2.304  1.00  0.00     0.048 A 
HETATM   34  C20 UNL     1     -10.000   0.133   2.275  1.00  0.00     0.098 A 
HETATM   35  N8  UNL     1     -10.335  -0.539   1.173  1.00  0.00    -0.352 N 
HETATM   36  C21 UNL     1      -9.566  -0.437   0.062  1.00  0.00     0.098 A 
ATOM     37  H8  UNL     1     -11.168  -1.128   1.166  1.00  0.00     0.166 HD
BRANCH  34  38
HETATM   38  N7  UNL     1     -10.750   0.021   3.330  1.00  0.00    -0.385 N 
ATOM     39  H72 UNL     1     -10.494   0.535   4.173  1.00  0.00     0.157 HD
ATOM     40  H71 UNL     1     -11.580  -0.572   3.308  1.00  0.00     0.157 HD
ENDBRANCH  34  38
ENDBRANCH  30  31
ENDBRANCH  14  30
TORSDOF 8
