REMARK  20 active torsions:
REMARK  status: ('A' for Active; 'I' for Inactive)
REMARK    1  A    between atoms: C2_2  and  O1_5 
REMARK    2  A    between atoms: O1_5  and  C5_6 
REMARK       I    between atoms: C5_6  and  N1_8 
REMARK    3  A    between atoms: N1_8  and  C6_10 
REMARK    4  A    between atoms: C6_10  and  C7_11 
REMARK    5  A    between atoms: C6_10  and  C32_51 
REMARK    6  A    between atoms: C7_11  and  N2_12 
REMARK       I    between atoms: N2_12  and  C8_14 
REMARK    7  A    between atoms: C8_14  and  C9_16 
REMARK    8  A    between atoms: C9_16  and  C10_17 
REMARK    9  A    between atoms: C10_17  and  C11_18 
REMARK       I    between atoms: C11_18  and  N3_20 
REMARK   10  A    between atoms: N3_20  and  C12_22 
REMARK   11  A    between atoms: C12_22  and  C13_23 
REMARK   12  A    between atoms: C12_22  and  C28_47 
REMARK       I    between atoms: C13_23  and  N4_25 
REMARK   13  A    between atoms: N4_25  and  C14_27 
REMARK   14  A    between atoms: C14_27  and  C15_28 
REMARK   15  A    between atoms: C14_27  and  C22_37 
REMARK   16  A    between atoms: C15_28  and  O7_30 
REMARK   17  A    between atoms: O7_30  and  C16_31 
REMARK   18  A    between atoms: C25_40  and  N5_41 
REMARK   19  A    between atoms: C32_51  and  N6_52 
REMARK   20  A    between atoms: C32_51  and  O8_55 
ROOT
HETATM    1  C12 UNL     1      -0.983  -0.832  -0.592  1.00  0.00     0.184 C 
ENDROOT
BRANCH   1   2
HETATM    2  N3  UNL     1      -0.138   0.225  -0.072  1.00  0.00    -0.347 N 
HETATM    3  C11 UNL     1       1.121   0.616  -0.655  1.00  0.00     0.218 C 
HETATM    4  O4  UNL     1       1.480   0.005  -1.668  1.00  0.00    -0.274 OA
ATOM      5  H3  UNL     1      -0.455   0.724   0.759  1.00  0.00     0.163 HD
BRANCH   3   6
HETATM    6  C10 UNL     1       1.899   1.694  -0.031  1.00  0.00     0.112 C 
BRANCH   6   7
HETATM    7  C9  UNL     1       3.228   1.995  -0.547  1.00  0.00     0.112 C 
BRANCH   7   8
HETATM    8  C8  UNL     1       4.232   0.853  -0.430  1.00  0.00     0.221 C 
HETATM    9  N2  UNL     1       5.555   1.040  -0.739  1.00  0.00    -0.338 N 
ATOM     10  H2  UNL     1       5.663   2.012  -1.029  1.00  0.00     0.167 HD
HETATM   11  O3  UNL     1       3.713  -0.199  -0.038  1.00  0.00    -0.273 OA
BRANCH   9  12
HETATM   12  C7  UNL     1       6.794   0.451  -0.817  1.00  0.00     0.097 C 
BRANCH  12  13
HETATM   13  C6  UNL     1       7.562  -0.129   0.284  1.00  0.00     0.199 C 
BRANCH  13  14
HETATM   14  N1  UNL     1       8.938  -0.485  -0.301  1.00  0.00    -0.320 N 
HETATM   15  C5  UNL     1      10.090   0.011   0.306  1.00  0.00     0.362 C 
HETATM   16  O2  UNL     1       9.947   0.733   1.343  1.00  0.00    -0.238 OA
ATOM     17  H1  UNL     1       9.007  -1.080  -1.127  1.00  0.00     0.166 HD
BRANCH  15  18
HETATM   18  O1  UNL     1      11.373  -0.212  -0.117  1.00  0.00    -0.294 OA
BRANCH  18  19
HETATM   19  C2  UNL     1      12.518   0.301   0.535  1.00  0.00     0.061 C 
HETATM   20  C1  UNL     1      12.619  -0.231   1.953  1.00  0.00     0.046 C 
HETATM   21  C3  UNL     1      12.474   1.815   0.647  1.00  0.00     0.046 C 
HETATM   22  C4  UNL     1      13.752  -0.090  -0.234  1.00  0.00     0.046 C 
ENDBRANCH  18  19
ENDBRANCH  15  18
ENDBRANCH  13  14
BRANCH  13  23
HETATM   23  C32 UNL     1       7.213  -1.380   0.939  1.00  0.00     0.137 C 
BRANCH  23  24
HETATM   24  N6  UNL     1       5.979  -1.968   1.055  1.00  0.00    -0.382 N 
ATOM     25  H62 UNL     1       5.200  -1.465   0.631  1.00  0.00     0.158 HD
ATOM     26  H61 UNL     1       5.734  -2.845   1.514  1.00  0.00     0.158 HD
ENDBRANCH  23  24
BRANCH  23  27
HETATM   27  O8  UNL     1       8.212  -2.025   1.482  1.00  0.00    -0.348 OA
ATOM     28  H8  UNL     1       7.984  -2.842   1.910  1.00  0.00     0.219 HD
ENDBRANCH  23  27
ENDBRANCH  13  23
ENDBRANCH  12  13
ENDBRANCH   9  12
ENDBRANCH   7   8
ENDBRANCH   6   7
ENDBRANCH   3   6
ENDBRANCH   1   2
BRANCH   1  29
HETATM   29  C13 UNL     1      -2.242  -0.300  -1.101  1.00  0.00     0.241 C 
HETATM   30  O5  UNL     1      -2.148   0.726  -1.859  1.00  0.00    -0.271 OA
HETATM   31  N4  UNL     1      -3.496  -0.804  -0.829  1.00  0.00    -0.345 N 
ATOM     32  H4  UNL     1      -3.562  -1.615  -0.213  1.00  0.00     0.163 HD
BRANCH  31  33
HETATM   33  C14 UNL     1      -4.745  -0.247  -1.370  1.00  0.00     0.188 C 
BRANCH  33  34
HETATM   34  C15 UNL     1      -5.280   0.655  -0.332  1.00  0.00     0.282 C 
HETATM   35  O6  UNL     1      -4.651   0.752   0.750  1.00  0.00    -0.263 OA
BRANCH  34  36
HETATM   36  O7  UNL     1      -6.419   1.428  -0.418  1.00  0.00    -0.314 OA
BRANCH  36  37
HETATM   37  C16 UNL     1      -6.879   2.274   0.598  1.00  0.00     0.132 C 
HETATM   38  C17 UNL     1      -6.922   3.717   0.251  1.00  0.00     0.032 C 
HETATM   39  C18 UNL     1      -7.258   4.517   1.496  1.00  0.00     0.002 C 
HETATM   40  C19 UNL     1      -8.238   3.848   2.398  1.00  0.00     0.000 C 
HETATM   41  C20 UNL     1      -9.101   2.925   1.549  1.00  0.00     0.002 C 
HETATM   42  C21 UNL     1      -8.204   1.795   1.086  1.00  0.00     0.032 C 
ENDBRANCH  36  37
ENDBRANCH  34  36
ENDBRANCH  33  34
BRANCH  33  43
HETATM   43  C22 UNL     1      -5.662  -1.306  -1.847  1.00  0.00     0.018 C 
HETATM   44  C23 UNL     1      -6.081  -2.274  -0.772  1.00  0.00     0.009 C 
HETATM   45  C24 UNL     1      -7.259  -3.108  -1.120  1.00  0.00     0.033 C 
HETATM   46  C25 UNL     1      -8.341  -2.451  -1.901  1.00  0.00     0.183 C 
HETATM   47  C26 UNL     1      -7.725  -1.834  -3.150  1.00  0.00     0.033 C 
HETATM   48  C27 UNL     1      -6.792  -0.734  -2.623  1.00  0.00     0.009 C 
BRANCH  46  49
HETATM   49  N5  UNL     1      -9.099  -1.463  -1.162  1.00  0.00    -0.075 N 
ATOM     50  H53 UNL     1      -9.476  -1.871  -0.307  1.00  0.00     0.274 HD
ATOM     51  H52 UNL     1      -8.475  -0.763  -0.761  1.00  0.00     0.274 HD
ATOM     52  H51 UNL     1      -9.841  -1.012  -1.698  1.00  0.00     0.274 HD
ENDBRANCH  46  49
ENDBRANCH  33  43
ENDBRANCH  31  33
ENDBRANCH   1  29
BRANCH   1  53
HETATM   53  C28 UNL     1      -1.047  -2.004   0.325  1.00  0.00    -0.022 C 
HETATM   54  C29 UNL     1       0.426  -2.461   0.509  1.00  0.00     0.017 C 
HETATM   55  C30 UNL     1      -1.692  -3.224  -0.346  1.00  0.00     0.017 C 
HETATM   56  C31 UNL     1      -1.598  -1.748   1.678  1.00  0.00     0.017 C 
ENDBRANCH   1  53
TORSDOF 20
