REMARK  16 active torsions:
REMARK  status: ('A' for Active; 'I' for Inactive)
REMARK    1  A    between atoms: C2_2  and  C3_3 
REMARK    2  A    between atoms: C3_3  and  O1_4 
REMARK    3  A    between atoms: O1_4  and  C4_5 
REMARK    4  A    between atoms: C6_7  and  N1_8 
REMARK    5  A    between atoms: C6_7  and  C7_12 
REMARK       I    between atoms: C7_12  and  N2_14 
REMARK    6  A    between atoms: N2_14  and  C8_16 
REMARK    7  A    between atoms: C8_16  and  C10_18 
REMARK    8  A    between atoms: C8_16  and  C31_49 
REMARK    9  A    between atoms: C10_18  and  C11_19 
REMARK       I    between atoms: C11_19  and  N3_21 
REMARK   10  A    between atoms: N3_21  and  C12_23 
REMARK   11  A    between atoms: C12_23  and  C13_24 
REMARK   12  A    between atoms: C12_23  and  C22_33 
REMARK   13  A    between atoms: C13_24  and  C14_25 
REMARK   14  A    between atoms: C19_30  and  C20_31 
REMARK   15  A    between atoms: C22_33  and  C23_35 
REMARK   16  A    between atoms: C23_35  and  N4_36 
REMARK       I    between atoms: N5_39  and  C26_40 
ROOT
HETATM    1  C11 UNL     1       0.578  -1.491  -0.510  1.00  0.00     0.221 C 
HETATM    2  O3  UNL     1       0.322  -2.470  -1.244  1.00  0.00    -0.273 OA
HETATM    3  N3  UNL     1      -0.441  -0.819   0.166  1.00  0.00    -0.349 N 
ATOM      4  H3  UNL     1      -0.099  -0.049   0.741  1.00  0.00     0.163 HD
ENDROOT
BRANCH   3   5
HETATM    5  C12 UNL     1      -1.849  -0.974   0.227  1.00  0.00     0.156 C 
BRANCH   5   6
HETATM    6  C13 UNL     1      -2.418  -1.620   1.431  1.00  0.00     0.038 C 
BRANCH   6   7
HETATM    7  C14 UNL     1      -2.024  -3.025   1.665  1.00  0.00    -0.008 C 
HETATM    8  C15 UNL     1      -2.663  -3.531   2.993  1.00  0.00     0.005 C 
HETATM    9  C16 UNL     1      -1.832  -4.715   3.366  1.00  0.00     0.000 C 
HETATM   10  C17 UNL     1      -1.781  -5.758   2.298  1.00  0.00     0.000 C 
HETATM   11  C18 UNL     1      -1.580  -5.291   0.909  1.00  0.00     0.005 C 
HETATM   12  C19 UNL     1      -2.385  -4.022   0.612  1.00  0.00    -0.011 C 
BRANCH  12  13
HETATM   13  C20 UNL     1      -3.801  -4.463   0.547  1.00  0.00     0.000 C 
HETATM   14  C21 UNL     1      -4.833  -3.427   0.291  1.00  0.00     0.005 C 
ENDBRANCH  12  13
ENDBRANCH   6   7
ENDBRANCH   5   6
BRANCH   5  15
HETATM   15  C22 UNL     1      -2.487   0.365  -0.044  1.00  0.00     0.166 C 
HETATM   16  O4  UNL     1      -1.742   1.232  -0.425  1.00  0.00    -0.294 OA
BRANCH  15  17
HETATM   17  C23 UNL     1      -3.905   0.612   0.146  1.00  0.00     0.198 C 
BRANCH  17  18
HETATM   18  N4  UNL     1      -4.453   1.871  -0.176  1.00  0.00    -0.395 N 
HETATM   19  C24 UNL     1      -5.825   1.985   0.345  1.00  0.00     0.138 C 
HETATM   20  C25 UNL     1      -6.239   3.420   0.496  1.00  0.00     0.145 C 
HETATM   21  N5  UNL     1      -5.991   4.033  -0.802  1.00  0.00    -0.352 N 
HETATM   22  C26 UNL     1      -6.132   5.433  -0.995  1.00  0.00     0.184 C 
HETATM   23  C27 UNL     1      -5.611   3.118  -1.855  1.00  0.00     0.155 C 
HETATM   24  N6  UNL     1      -6.922   5.862  -1.909  1.00  0.00    -0.374 N 
HETATM   25  N7  UNL     1      -5.451   6.398  -0.228  1.00  0.00    -0.064 NA
ATOM     26  H62 UNL     1      -7.415   5.163  -2.465  1.00  0.00     0.158 HD
ATOM     27  H61 UNL     1      -7.023   6.867  -2.048  1.00  0.00     0.158 HD
HETATM   28  C28 UNL     1      -4.273   2.472  -1.421  1.00  0.00     0.037 C 
HETATM   29  C29 UNL     1      -3.292   3.620  -1.495  1.00  0.00     0.039 C 
HETATM   30  C30 UNL     1      -3.940   1.515  -2.570  1.00  0.00     0.039 C 
ENDBRANCH  17  18
ENDBRANCH  15  17
ENDBRANCH   5  15
ENDBRANCH   3   5
BRANCH   1  31
HETATM   31  C10 UNL     1       1.976  -1.047  -0.363  1.00  0.00     0.144 C 
BRANCH  31  32
HETATM   32  C8  UNL     1       3.058  -2.011  -0.687  1.00  0.00     0.126 C 
HETATM   33  C9  UNL     1       3.046  -2.670  -2.007  1.00  0.00     0.051 C 
BRANCH  32  34
HETATM   34  N2  UNL     1       4.321  -1.267  -0.472  1.00  0.00    -0.340 N 
HETATM   35  C7  UNL     1       4.812  -0.296  -1.366  1.00  0.00     0.255 C 
HETATM   36  O2  UNL     1       4.114  -0.099  -2.409  1.00  0.00    -0.271 OA
ATOM     37  H2  UNL     1       4.864  -1.469   0.368  1.00  0.00     0.163 HD
BRANCH  35  38
HETATM   38  C6  UNL     1       6.033   0.495  -1.211  1.00  0.00     0.207 C 
HETATM   39  C5  UNL     1       6.992   0.084  -0.140  1.00  0.00     0.081 C 
HETATM   40  C4  UNL     1       7.277   1.601   0.053  1.00  0.00     0.127 C 
HETATM   41  C32 UNL     1       5.791   1.770  -0.353  1.00  0.00     0.081 C 
BRANCH  40  42
HETATM   42  O1  UNL     1       7.483   1.971   1.327  1.00  0.00    -0.386 OA
BRANCH  42  43
HETATM   43  C3  UNL     1       8.484   2.754   1.714  1.00  0.00     0.167 C 
BRANCH  43  44
HETATM   44  C2  UNL     1       8.607   4.155   1.261  1.00  0.00     0.022 C 
HETATM   45  C1  UNL     1       8.751   4.313  -0.217  1.00  0.00     0.007 C 
ENDBRANCH  43  44
ENDBRANCH  42  43
ENDBRANCH  40  42
BRANCH  38  46
HETATM   46  N1  UNL     1       6.613   0.985  -2.459  1.00  0.00    -0.061 N 
ATOM     47  H13 UNL     1       7.253   1.754  -2.260  1.00  0.00     0.275 HD
ATOM     48  H12 UNL     1       7.263   0.292  -2.830  1.00  0.00     0.275 HD
ATOM     49  H11 UNL     1       5.959   1.265  -3.190  1.00  0.00     0.275 HD
ENDBRANCH  38  46
ENDBRANCH  35  38
ENDBRANCH  32  34
BRANCH  32  50
HETATM   50  C31 UNL     1       3.086  -3.140   0.339  1.00  0.00     0.202 C 
HETATM   51  O5  UNL     1       4.067  -3.280   1.130  1.00  0.00    -0.646 OA
HETATM   52  O6  UNL     1       2.056  -4.028   0.432  1.00  0.00    -0.646 OA
ENDBRANCH  32  50
ENDBRANCH  31  32
ENDBRANCH   1  31
TORSDOF 16
