REMARK  5 active torsions:
REMARK  status: ('A' for Active; 'I' for Inactive)
REMARK    1  A    between atoms: C2_2  and  C3_3 
REMARK    2  A    between atoms: C5_5  and  C6_6 
REMARK    3  A    between atoms: C6_6  and  C7_7 
REMARK    4  A    between atoms: C8_10  and  N2_11 
REMARK    5  A    between atoms: C10_17  and  C11_18 
ROOT
HETATM    1  C7  UNL     1      -0.173  -0.229   0.828  1.00  0.00     0.103 A 
HETATM    2  N1  UNL     1      -0.145  -0.316  -0.511  1.00  0.00    -0.188 N 
ATOM      3  H1  UNL     1      -1.014  -0.305  -1.045  1.00  0.00     0.184 HD
HETATM    4  C8  UNL     1       1.034  -0.417  -1.140  1.00  0.00     0.677 A 
HETATM    5  N3  UNL     1       2.206  -0.434  -0.476  1.00  0.00    -0.188 N 
ATOM      6  H3  UNL     1       3.078  -0.512  -0.999  1.00  0.00     0.184 HD
HETATM    7  C9  UNL     1       2.244  -0.350   0.865  1.00  0.00     0.103 A 
HETATM    8  C10 UNL     1       3.394  -0.364   1.545  1.00  0.00     0.063 C 
HETATM    9  C16 UNL     1       1.027  -0.247   1.503  1.00  0.00     0.226 A 
HETATM   10  O1  UNL     1       1.053  -0.166   2.778  1.00  0.00    -0.283 OA
ENDROOT
BRANCH   1  11
HETATM   11  C6  UNL     1      -1.336  -0.129   1.452  1.00  0.00     0.064 C 
BRANCH  11  12
HETATM   12  C5  UNL     1      -2.610  -0.109   0.752  1.00  0.00     0.036 A 
HETATM   13  C4  UNL     1      -3.227   1.110   0.509  1.00  0.00     0.041 A 
HETATM   14  C3  UNL     1      -4.417   1.242  -0.136  1.00  0.00    -0.028 A 
HETATM   15  C19 UNL     1      -5.061   0.097  -0.581  1.00  0.00    -0.036 A 
HETATM   16  C18 UNL     1      -4.447  -1.104  -0.338  1.00  0.00     0.098 A 
HETATM   17  C20 UNL     1      -6.374   0.179  -1.298  1.00  0.00     0.050 C 
HETATM   18  N5  UNL     1      -3.251  -1.204   0.313  1.00  0.00    -0.361 N 
HETATM   19  C17 UNL     1      -2.670  -2.491   0.531  1.00  0.00     0.155 C 
BRANCH  14  20
HETATM   20  C2  UNL     1      -5.068   2.523  -0.394  1.00  0.00     0.002 C 
HETATM   21  C1  UNL     1      -4.589   3.692  -0.038  1.00  0.00     0.012 C 
ENDBRANCH  14  20
ENDBRANCH  11  12
ENDBRANCH   1  11
BRANCH   4  22
HETATM   22  N2  UNL     1       1.034  -0.501  -2.449  1.00  0.00    -0.234 N 
ATOM     23  H22 UNL     1       0.147  -0.488  -2.952  1.00  0.00     0.174 HD
ATOM     24  H21 UNL     1       1.931  -0.578  -2.928  1.00  0.00     0.174 HD
ENDBRANCH   4  22
BRANCH   8  25
HETATM   25  C11 UNL     1       4.681  -0.472   0.897  1.00  0.00     0.034 A 
HETATM   26  C12 UNL     1       5.472  -1.608   0.822  1.00  0.00     0.031 A 
HETATM   27  C13 UNL     1       6.618  -1.298   0.122  1.00  0.00     0.027 A 
HETATM   28  C14 UNL     1       6.534   0.027  -0.235  1.00  0.00     0.005 A 
HETATM   29  C15 UNL     1       7.551   0.822  -1.014  1.00  0.00     0.068 C 
HETATM   30  N4  UNL     1       5.367   0.482   0.245  1.00  0.00    -0.360 N 
ATOM     31  H4  UNL     1       5.039   1.441   0.129  1.00  0.00     0.166 HD
ENDBRANCH   8  25
TORSDOF 5
