REMARK  8 active torsions:
REMARK  status: ('A' for Active; 'I' for Inactive)
REMARK    1  A    between atoms: C1_2  and  C2_3 
REMARK       I    between atoms: C1_2  and  N2_10 
REMARK    2  A    between atoms: N2_10  and  C6_11 
REMARK    3  A    between atoms: N2_10  and  C13_25 
REMARK    4  A    between atoms: C6_11  and  C7_12 
REMARK    5  A    between atoms: C7_12  and  O2_13 
REMARK    6  A    between atoms: C7_12  and  C8_15 
REMARK    7  A    between atoms: C8_15  and  C9_16 
REMARK    8  A    between atoms: C13_25  and  C14_26 
ROOT
HETATM    1  O1  UNL     1      -2.360   0.816  -1.935  1.00  0.00    -0.271 OA
HETATM    2  C1  UNL     1      -1.803   0.552  -0.806  1.00  0.00     0.254 C 
HETATM    3  N2  UNL     1      -0.881   1.475  -0.236  1.00  0.00    -0.319 N 
ENDROOT
BRANCH   3   4
HETATM    4  C6  UNL     1      -0.203   1.122   0.956  1.00  0.00     0.163 C 
BRANCH   4   5
HETATM    5  C7  UNL     1       1.024   0.291   0.924  1.00  0.00     0.141 C 
BRANCH   5   6
HETATM    6  O2  UNL     1       1.441   0.153   2.280  1.00  0.00    -0.394 OA
ATOM      7  H2  UNL     1       2.227  -0.380   2.259  1.00  0.00     0.210 HD
ENDBRANCH   5   6
BRANCH   5   8
HETATM    8  C8  UNL     1       2.171   0.743   0.095  1.00  0.00     0.077 C 
BRANCH   8   9
HETATM    9  C9  UNL     1       3.331  -0.219   0.203  1.00  0.00     0.008 A 
HETATM   10  C10 UNL     1       4.271  -0.342   1.188  1.00  0.00     0.112 A 
HETATM   11 CL1  UNL     1       4.436   0.615   2.615  1.00  0.00    -0.064 Cl
HETATM   12  N3  UNL     1       5.083  -1.353   0.846  1.00  0.00    -0.336 N 
HETATM   13  C11 UNL     1       4.697  -1.882  -0.324  1.00  0.00     0.127 A 
ATOM     14  H3  UNL     1       5.880  -1.673   1.397  1.00  0.00     0.168 HD
HETATM   15 CL2  UNL     1       5.463  -3.236  -1.176  1.00  0.00    -0.063 Cl
HETATM   16  C12 UNL     1       3.596  -1.179  -0.743  1.00  0.00     0.082 A 
HETATM   17 CL3  UNL     1       2.697  -1.469  -2.224  1.00  0.00    -0.080 Cl
ENDBRANCH   8   9
ENDBRANCH   5   8
ENDBRANCH   4   5
ENDBRANCH   3   4
BRANCH   3  18
HETATM   18  C13 UNL     1      -0.858   2.763  -0.856  1.00  0.00     0.182 C 
BRANCH  18  19
HETATM   19  C14 UNL     1      -0.021   3.106  -1.988  1.00  0.00     0.422 C 
HETATM   20  F1  UNL     1      -0.183   2.330  -3.127  1.00  0.00    -0.166 F 
HETATM   21  F2  UNL     1       1.268   3.456  -1.846  1.00  0.00    -0.166 F 
HETATM   22  F3  UNL     1      -0.609   4.363  -2.472  1.00  0.00    -0.166 F 
ENDBRANCH  18  19
ENDBRANCH   3  18
BRANCH   2  23
HETATM   23  C2  UNL     1      -2.178  -0.708  -0.197  1.00  0.00     0.277 C 
HETATM   24  C3  UNL     1      -3.318  -0.576   0.832  1.00  0.00     0.044 C 
HETATM   25  C4  UNL     1      -3.668  -2.060   1.023  1.00  0.00     0.030 C 
HETATM   26  C5  UNL     1      -3.472  -2.612  -0.349  1.00  0.00     0.233 C 
HETATM   27  N1  UNL     1      -2.931  -1.552  -1.166  1.00  0.00    -0.062 N 
ATOM     28  H12 UNL     1      -3.627  -1.046  -1.714  1.00  0.00     0.278 HD
ATOM     29  H11 UNL     1      -2.380  -1.873  -1.962  1.00  0.00     0.278 HD
ENDBRANCH   2  23
TORSDOF 8
