REMARK  3 active torsions:
REMARK  status: ('A' for Active; 'I' for Inactive)
REMARK    1  A    between atoms: O1_1  and  C1_3 
REMARK    2  A    between atoms: C8_10  and  O2_11 
REMARK    3  A    between atoms: C9_13  and  O3_14 
ROOT
HETATM    1  C1  UNL     1       1.755  -0.022   0.856  1.00  0.00     0.118 C 
HETATM    2  C2  UNL     1       1.654   0.990  -0.216  1.00  0.00     0.032 C 
HETATM    3  C3  UNL     1       0.961   0.527  -1.464  1.00  0.00     0.010 C 
HETATM    4  C4  UNL     1      -0.345  -0.090  -1.087  1.00  0.00     0.021 C 
HETATM    5  C5  UNL     1      -0.192  -1.253  -0.184  1.00  0.00    -0.003 C 
HETATM    6  C6  UNL     1       0.983  -1.260   0.702  1.00  0.00     0.037 C 
HETATM    7  C7  UNL     1      -1.513  -1.215   0.599  1.00  0.00     0.039 C 
HETATM    8  C8  UNL     1      -1.604   0.246   0.939  1.00  0.00     0.147 C 
HETATM    9  C9  UNL     1      -1.273   0.892  -0.404  1.00  0.00     0.151 C 
ENDROOT
BRANCH   1  10
HETATM   10  O1  UNL     1       3.126  -0.354   1.001  1.00  0.00    -0.396 OA
ATOM     11  H1  UNL     1       3.191  -1.005   1.690  1.00  0.00     0.210 HD
ENDBRANCH   1  10
BRANCH   9  12
HETATM   12  O3  UNL     1      -2.473   1.023  -1.138  1.00  0.00    -0.393 OA
ATOM     13  H3  UNL     1      -3.055   1.639  -0.709  1.00  0.00     0.210 HD
ENDBRANCH   9  12
BRANCH   8  14
HETATM   14  O2  UNL     1      -2.865   0.608   1.388  1.00  0.00    -0.393 OA
ATOM     15  H2  UNL     1      -2.923   1.532   1.603  1.00  0.00     0.210 HD
ENDBRANCH   8  14
TORSDOF 3
