REMARK  2 active torsions:
REMARK  status: ('A' for Active; 'I' for Inactive)
REMARK    1  A    between atoms: C2_2  and  C3_3 
REMARK    2  A    between atoms: N2_6  and  O1_7 
ROOT
HETATM    1  C3  UNL     1      -0.209   0.148   0.134  1.00  0.00     0.092 C 
HETATM    2  C4  UNL     1      -0.495   1.598   0.324  1.00  0.00     0.047 C 
HETATM    3  N1  UNL     1       1.073  -0.255   0.615  1.00  0.00    -0.118 NA
HETATM    4  N2  UNL     1       2.059   0.272  -0.160  1.00  0.00    -0.101 NA
HETATM    5  C5  UNL     1       1.899  -0.148  -1.530  1.00  0.00     0.217 C 
HETATM    6  S1  UNL     1       0.064  -0.203  -1.652  1.00  0.00    -0.122 SA
ENDROOT
BRANCH   1   7
HETATM    7  C2  UNL     1      -1.259  -0.763   0.705  1.00  0.00     0.034 C 
HETATM    8  C1  UNL     1      -2.619  -0.559   0.108  1.00  0.00     0.008 C 
ENDBRANCH   1   7
BRANCH   4   9
HETATM    9  O1  UNL     1       3.243  -0.225   0.273  1.00  0.00    -0.296 OA
ATOM     10  H1  UNL     1       3.932   0.143  -0.268  1.00  0.00     0.238 HD
ENDBRANCH   4   9
TORSDOF 2
