REMARK  16 active torsions:
REMARK  status: ('A' for Active; 'I' for Inactive)
REMARK    1  A    between atoms: N1_2  and  C3_4 
REMARK    2  A    between atoms: C3_4  and  C4_5 
REMARK    3  A    between atoms: C4_5  and  C5_6 
REMARK    4  A    between atoms: C5_6  and  N2_7 
REMARK    5  A    between atoms: N2_7  and  S1_9 
REMARK    6  A    between atoms: S1_9  and  C6_12 
REMARK    7  A    between atoms: C8_16  and  C9_17 
REMARK       I    between atoms: C9_17  and  N4_19 
REMARK    8  A    between atoms: N4_19  and  C10_21 
REMARK    9  A    between atoms: C10_21  and  C11_22 
REMARK       I    between atoms: C11_22  and  N5_24 
REMARK   10  A    between atoms: N5_24  and  C12_26 
REMARK   11  A    between atoms: C12_26  and  C13_27 
REMARK   12  A    between atoms: C13_27  and  C14_28 
REMARK   13  A    between atoms: C15_29  and  N6_30 
REMARK   14  A    between atoms: C16_35  and  C17_36 
REMARK   15  A    between atoms: C17_36  and  O5_37 
REMARK   16  A    between atoms: O5_37  and  C18_38 
ROOT
HETATM    1  C11 UNL     1       0.464  -1.304  -0.142  1.00  0.00     0.235 C 
HETATM    2  O4  UNL     1      -0.288  -0.652   0.648  1.00  0.00    -0.272 OA
HETATM    3  N5  UNL     1       1.767  -0.810  -0.359  1.00  0.00    -0.359 N 
ATOM      4  H5  UNL     1       2.396  -1.296  -0.998  1.00  0.00     0.162 HD
ENDROOT
BRANCH   3   5
HETATM    5  C12 UNL     1       2.210   0.381   0.321  1.00  0.00     0.127 C 
BRANCH   5   6
HETATM    6  C13 UNL     1       3.538   0.897  -0.053  1.00  0.00     0.063 C 
BRANCH   6   7
HETATM    7  C14 UNL     1       4.718   0.081   0.147  1.00  0.00    -0.002 A 
HETATM    8  C15 UNL     1       5.249  -0.073   1.422  1.00  0.00     0.106 A 
HETATM    9  N7  UNL     1       6.433  -0.681   1.623  1.00  0.00    -0.343 N 
HETATM   10  C16 UNL     1       7.149  -1.168   0.615  1.00  0.00     0.046 A 
ATOM     11  H7  UNL     1       6.790  -0.770   2.574  1.00  0.00     0.167 HD
HETATM   12  C24 UNL     1       6.674  -1.057  -0.666  1.00  0.00    -0.000 A 
HETATM   13  C25 UNL     1       7.460  -1.486  -1.708  1.00  0.00     0.014 A 
HETATM   14  C29 UNL     1       5.441  -0.424  -0.920  1.00  0.00    -0.014 A 
HETATM   15  C26 UNL     1       7.014  -1.289  -3.004  1.00  0.00     0.001 A 
HETATM   16  C27 UNL     1       5.822  -0.678  -3.270  1.00  0.00     0.001 A 
HETATM   17  C28 UNL     1       5.017  -0.238  -2.210  1.00  0.00     0.013 A 
BRANCH   8  18
HETATM   18  N6  UNL     1       4.592   0.345   2.430  1.00  0.00    -0.385 N 
ATOM     19  H62 UNL     1       3.695   0.806   2.278  1.00  0.00     0.157 HD
ATOM     20  H61 UNL     1       4.982   0.232   3.366  1.00  0.00     0.157 HD
ENDBRANCH   8  18
BRANCH  10  21
HETATM   21  C17 UNL     1       8.501  -1.862   0.893  1.00  0.00     0.233 C 
BRANCH  21  22
HETATM   22  O5  UNL     1       9.395  -0.873   0.928  1.00  0.00    -0.345 OA
BRANCH  22  23
HETATM   23  C18 UNL     1       9.984   0.238   1.219  1.00  0.00     0.071 A 
HETATM   24  C19 UNL     1       9.530   1.233   2.044  1.00  0.00     0.040 A 
HETATM   25  C20 UNL     1      10.238   2.379   2.247  1.00  0.00     0.047 A 
HETATM   26  C21 UNL     1      11.433   2.549   1.616  1.00  0.00     0.138 A 
HETATM   27  F1  UNL     1      12.085   3.730   1.823  1.00  0.00    -0.204 F 
HETATM   28  C22 UNL     1      11.957   1.593   0.776  1.00  0.00     0.075 A 
HETATM   29 CL1  UNL     1      13.490   1.883  -0.007  1.00  0.00    -0.081 Cl
HETATM   30  C23 UNL     1      11.242   0.459   0.584  1.00  0.00     0.063 A 
ENDBRANCH  22  23
ENDBRANCH  21  22
ENDBRANCH  10  21
ENDBRANCH   6   7
ENDBRANCH   5   6
ENDBRANCH   3   5
BRANCH   1  31
HETATM   31  C10 UNL     1      -0.110  -2.553  -0.777  1.00  0.00     0.225 C 
BRANCH  31  32
HETATM   32  N4  UNL     1      -1.520  -2.542  -0.329  1.00  0.00    -0.347 N 
HETATM   33  C9  UNL     1      -2.312  -1.489  -0.765  1.00  0.00     0.268 C 
HETATM   34  O3  UNL     1      -1.767  -0.674  -1.610  1.00  0.00    -0.266 OA
ATOM     35  H4  UNL     1      -1.893  -3.276   0.273  1.00  0.00     0.163 HD
BRANCH  33  36
HETATM   36  C8  UNL     1      -3.681  -1.200  -0.344  1.00  0.00     0.102 A 
HETATM   37  N3  UNL     1      -4.618  -1.888   0.271  1.00  0.00    -0.360 N 
HETATM   38  C7  UNL     1      -5.662  -1.078   0.652  1.00  0.00     0.113 A 
ATOM     39  H3  UNL     1      -4.576  -2.892   0.443  1.00  0.00     0.165 HD
HETATM   40  C6  UNL     1      -5.373   0.198   0.253  1.00  0.00     0.097 A 
HETATM   41  C30 UNL     1      -4.153   0.130  -0.370  1.00  0.00     0.062 A 
BRANCH  40  42
HETATM   42  S1  UNL     1      -6.190   1.719   0.564  1.00  0.00     0.260 S 
HETATM   43  O1  UNL     1      -6.262   1.941   2.059  1.00  0.00    -0.200 OA
HETATM   44  O2  UNL     1      -5.395   2.875   0.008  1.00  0.00    -0.200 OA
BRANCH  42  45
HETATM   45  N2  UNL     1      -7.780   1.755  -0.095  1.00  0.00    -0.315 N 
ATOM     46  H2  UNL     1      -8.040   1.820  -1.079  1.00  0.00     0.172 HD
BRANCH  45  47
HETATM   47  C5  UNL     1      -8.667   1.674   1.042  1.00  0.00     0.137 C 
BRANCH  47  48
HETATM   48  C4  UNL     1     -10.120   1.672   0.754  1.00  0.00     0.064 C 
BRANCH  48  49
HETATM   49  C3  UNL     1     -10.424   0.453  -0.089  1.00  0.00     0.058 C 
BRANCH  49  50
HETATM   50  N1  UNL     1     -11.766   0.242  -0.426  1.00  0.00    -0.402 N 
HETATM   51  C1  UNL     1     -12.421   1.115  -1.305  1.00  0.00     0.148 C 
HETATM   52  C2  UNL     1     -12.539  -0.622   0.392  1.00  0.00     0.148 C 
ENDBRANCH  49  50
ENDBRANCH  48  49
ENDBRANCH  47  48
ENDBRANCH  45  47
ENDBRANCH  42  45
ENDBRANCH  40  42
ENDBRANCH  33  36
ENDBRANCH  31  32
ENDBRANCH   1  31
TORSDOF 16
