REMARK  6 active torsions:
REMARK  status: ('A' for Active; 'I' for Inactive)
REMARK    1  A    between atoms: C4_4  and  C5_5 
REMARK    2  A    between atoms: C5_5  and  C6_6 
REMARK    3  A    between atoms: C6_6  and  O1_7 
REMARK    4  A    between atoms: O1_7  and  C7_8 
REMARK    5  A    between atoms: C11_12  and  C12_13 
REMARK    6  A    between atoms: C12_13  and  C13_14 
ROOT
HETATM    1  C7  UNL     1       0.936  -0.823  -0.317  1.00  0.00     0.069 A 
HETATM    2  C8  UNL     1       0.873  -1.488  -1.519  1.00  0.00     0.037 A 
HETATM    3  C9  UNL     1      -0.039  -1.030  -2.462  1.00  0.00     0.003 A 
HETATM    4  C10 UNL     1      -0.868   0.047  -2.238  1.00  0.00     0.007 A 
HETATM    5  C11 UNL     1      -0.815   0.727  -1.029  1.00  0.00    -0.050 A 
HETATM    6  C21 UNL     1       0.084   0.272  -0.107  1.00  0.00     0.044 A 
ENDROOT
BRANCH   5   7
HETATM    7  C12 UNL     1      -1.700   1.891  -0.764  1.00  0.00     0.095 C 
BRANCH   7   8
HETATM    8  C13 UNL     1      -2.944   1.382  -0.157  1.00  0.00     0.014 A 
HETATM    9  C14 UNL     1      -4.092   0.986  -0.840  1.00  0.00     0.039 A 
HETATM   10  C15 UNL     1      -5.033   0.575   0.057  1.00  0.00    -0.008 A 
HETATM   11  C16 UNL     1      -6.321   0.091  -0.043  1.00  0.00     0.014 A 
HETATM   12  C20 UNL     1      -4.464   0.717   1.304  1.00  0.00     0.042 A 
HETATM   13  C17 UNL     1      -7.063  -0.257   1.066  1.00  0.00     0.001 A 
HETATM   14  C18 UNL     1      -6.509  -0.120   2.310  1.00  0.00     0.002 A 
HETATM   15  C19 UNL     1      -5.213   0.367   2.411  1.00  0.00     0.030 A 
HETATM   16  N1  UNL     1      -3.215   1.203   1.135  1.00  0.00    -0.359 N 
ATOM     17  H1  UNL     1      -2.566   1.406   1.895  1.00  0.00     0.166 HD
ENDBRANCH   7   8
ENDBRANCH   5   7
BRANCH   1  18
HETATM   18  O1  UNL     1       1.783  -1.156   0.698  1.00  0.00    -0.351 OA
BRANCH  18  19
HETATM   19  C6  UNL     1       2.752  -2.112   0.860  1.00  0.00     0.180 C 
BRANCH  19  20
HETATM   20  C5  UNL     1       3.953  -2.042  -0.030  1.00  0.00     0.065 C 
BRANCH  20  21
HETATM   21  C4  UNL     1       4.716  -0.776   0.116  1.00  0.00    -0.056 A 
HETATM   22  C3  UNL     1       5.725  -0.619   1.039  1.00  0.00     0.007 A 
HETATM   23  C2  UNL     1       6.414   0.572   1.142  1.00  0.00     0.001 A 
HETATM   24  C1  UNL     1       6.114   1.630   0.330  1.00  0.00     0.000 A 
HETATM   25  C23 UNL     1       5.112   1.494  -0.595  1.00  0.00     0.001 A 
HETATM   26  C22 UNL     1       4.429   0.300  -0.691  1.00  0.00     0.007 A 
ENDBRANCH  20  21
ENDBRANCH  19  20
ENDBRANCH  18  19
ENDBRANCH   1  18
TORSDOF 6
