REMARK  2 active torsions:
REMARK  status: ('A' for Active; 'I' for Inactive)
REMARK    1  A    between atoms: N3_4  and  N4_6 
REMARK    2  A    between atoms: N5_8  and  C2_10 
ROOT
HETATM    1  N4  UNL     1       0.869   0.453   1.425  1.00  0.00    -0.238 N 
ATOM      2  H4  UNL     1       0.329   1.100   2.000  1.00  0.00     0.208 HD
HETATM    3  N5  UNL     1       0.304  -0.340   0.610  1.00  0.00    -0.257 N 
ATOM      4  H5  UNL     1       0.861  -0.980   0.044  1.00  0.00     0.191 HD
ENDROOT
BRANCH   3   5
HETATM    5  C2  UNL     1      -1.115  -0.326   0.495  1.00  0.00     0.191 C 
HETATM    6  N6  UNL     1      -1.919  -1.142   1.096  1.00  0.00    -0.360 N 
HETATM    7  C3  UNL     1      -3.292  -0.845   0.756  1.00  0.00     0.142 C 
ATOM      8  H6  UNL     1      -1.625  -1.891   1.723  1.00  0.00     0.162 HD
HETATM    9  C4  UNL     1      -3.130  -0.038  -0.512  1.00  0.00     0.142 C 
HETATM   10  N7  UNL     1      -1.845   0.588  -0.302  1.00  0.00    -0.360 N 
ATOM     11  H7  UNL     1      -1.532   1.493  -0.652  1.00  0.00     0.162 HD
ENDBRANCH   3   5
BRANCH   1  12
HETATM   12  N3  UNL     1       2.264   0.399   1.499  1.00  0.00    -0.261 N 
HETATM   13  C1  UNL     1       3.012   0.297   0.459  1.00  0.00     0.216 C 
HETATM   14  N1  UNL     1       2.410   0.234  -0.828  1.00  0.00    -0.065 NA
HETATM   15  N2  UNL     1       4.422   0.251   0.658  1.00  0.00    -0.065 NA
ATOM     16  H3  UNL     1       2.707   0.442   2.417  1.00  0.00     0.190 HD
ENDBRANCH   1  12
TORSDOF 2
