REMARK  8 active torsions:
REMARK  status: ('A' for Active; 'I' for Inactive)
REMARK    1  A    between atoms: C3_3  and  O1_4 
REMARK    2  A    between atoms: O1_4  and  N1_5 
REMARK    3  A    between atoms: N2_9  and  C5_10 
REMARK    4  A    between atoms: C5_10  and  C6_11 
REMARK    5  A    between atoms: N3_15  and  C9_16 
REMARK    6  A    between atoms: C9_16  and  C10_17 
REMARK    7  A    between atoms: C10_17  and  N4_18 
REMARK    8  A    between atoms: N4_18  and  C11_20 
ROOT
HETATM    1  C1  UNL     1      -1.536  -3.209  -1.093  1.00  0.00     0.102 C 
HETATM    2  C2  UNL     1      -1.345  -2.168  -0.473  1.00  0.00    -0.124 C 
HETATM    3  C3  UNL     1      -1.143  -0.902   0.271  1.00  0.00     0.241 C 
HETATM    4  C4  UNL     1      -2.471  -0.214   0.379  1.00  0.00     0.350 C 
HETATM    5  N2  UNL     1      -2.648   0.924  -0.443  1.00  0.00     0.105 N 
HETATM    6  C7  UNL     1      -1.510   1.816  -0.448  1.00  0.00     0.317 C 
HETATM    7  C8  UNL     1      -0.318   1.048  -0.914  1.00  0.00     0.092 C 
HETATM    8  N3  UNL     1      -0.098  -0.199  -0.333  1.00  0.00    -0.347 N 
ENDROOT
BRANCH   3   9
HETATM    9  O1  UNL     1      -0.788  -1.286   1.566  1.00  0.00    -0.239 OA
BRANCH   9  10
HETATM   10  N1  UNL     1      -0.581  -0.220   2.370  1.00  0.00    -0.307 N 
ATOM     11  H12 UNL     1      -0.677   0.745   2.054  1.00  0.00     0.184 HD
ATOM     12  H11 UNL     1      -0.322  -0.500   3.316  1.00  0.00     0.184 HD
ENDBRANCH   9  10
ENDBRANCH   3   9
BRANCH   8  13
HETATM   13  C9  UNL     1       0.876  -0.949  -1.073  1.00  0.00     0.145 C 
BRANCH  13  14
HETATM   14  C10 UNL     1       1.768  -1.824  -0.247  1.00  0.00     0.141 C 
BRANCH  14  15
HETATM   15  N4  UNL     1       2.578  -1.120   0.715  1.00  0.00    -0.374 N 
ATOM     16  H4  UNL     1       2.356  -1.268   1.699  1.00  0.00     0.161 HD
BRANCH  15  17
HETATM   17  C11 UNL     1       3.642  -0.251   0.430  1.00  0.00     0.117 A 
HETATM   18  C12 UNL     1       4.155   0.073  -0.806  1.00  0.00     0.137 A 
HETATM   19  N5  UNL     1       5.182   0.955  -0.667  1.00  0.00    -0.358 N 
HETATM   20  C13 UNL     1       5.316   1.184   0.643  1.00  0.00     0.182 A 
ATOM     21  H5  UNL     1       5.741   1.362  -1.417  1.00  0.00     0.166 HD
HETATM   22  N6  UNL     1       4.400   0.468   1.303  1.00  0.00    -0.338 N 
ATOM     23  H6  UNL     1       4.285   0.461   2.317  1.00  0.00     0.168 HD
ENDBRANCH  15  17
ENDBRANCH  14  15
ENDBRANCH  13  14
ENDBRANCH   8  13
BRANCH   5  24
HETATM   24  C5  UNL     1      -3.791   1.704  -0.037  1.00  0.00     0.342 C 
BRANCH  24  25
HETATM   25  C6  UNL     1      -5.093   1.081  -0.272  1.00  0.00     0.261 C 
HETATM   26  O2  UNL     1      -5.253   0.021  -0.837  1.00  0.00    -0.305 OA
ENDBRANCH  24  25
ENDBRANCH   5  24
TORSDOF 8
