REMARK  2 active torsions:
REMARK  status: ('A' for Active; 'I' for Inactive)
REMARK    1  A    between atoms: O1_2  and  N1_3 
REMARK    2  A    between atoms: C3_7  and  N3_8 
ROOT
HETATM    1  N1  UNL     1       0.299  -0.333  -0.458  1.00  0.00    -0.142 N 
HETATM    2  C2  UNL     1      -0.372  -1.453  -0.199  1.00  0.00     0.251 A 
HETATM    3  N2  UNL     1      -1.639  -1.199   0.182  1.00  0.00    -0.183 N 
ATOM      4  H2  UNL     1      -2.359  -1.876   0.436  1.00  0.00     0.185 HD
HETATM    5  C3  UNL     1      -1.748   0.142   0.154  1.00  0.00     0.693 A 
HETATM    6  N4  UNL     1      -0.572   0.657  -0.234  1.00  0.00    -0.105 N 
ATOM      7  H4  UNL     1      -0.372   1.651  -0.342  1.00  0.00     0.208 HD
ENDROOT
BRANCH   5   8
HETATM    8  N3  UNL     1      -2.803   0.822   0.450  1.00  0.00    -0.233 N 
ATOM      9  H32 UNL     1      -3.697   0.430   0.745  1.00  0.00     0.174 HD
ATOM     10  H31 UNL     1      -2.886   1.838   0.429  1.00  0.00     0.174 HD
ENDBRANCH   5   8
BRANCH   1  11
HETATM   11  O1  UNL     1       1.607  -0.209  -0.869  1.00  0.00    -0.262 OA
HETATM   12  C1  UNL     1       2.511   0.461   0.018  1.00  0.00     0.240 C 
ENDBRANCH   1  11
TORSDOF 2
