REMARK  14 active torsions:
REMARK  status: ('A' for Active; 'I' for Inactive)
REMARK    1  A    between atoms: N1_1  and  C1_5 
REMARK    2  A    between atoms: C1_5  and  C2_6 
REMARK    3  A    between atoms: C2_6  and  N2_7 
REMARK    4  A    between atoms: N2_7  and  C3_10 
REMARK    5  A    between atoms: C3_10  and  C4_11 
REMARK    6  A    between atoms: C4_11  and  N3_12 
REMARK    7  A    between atoms: N3_12  and  C5_14 
REMARK    8  A    between atoms: C6_15  and  O1_16 
REMARK    9  A    between atoms: C7_18  and  O2_19 
REMARK   10  A    between atoms: C8_21  and  N4_22 
REMARK   11  A    between atoms: N4_22  and  C9_24 
REMARK   12  A    between atoms: C10_26  and  N5_27 
REMARK   13  A    between atoms: C11_31  and  C12_32 
REMARK   14  A    between atoms: C12_32  and  N6_33 
ROOT
HETATM    1  C5  UNL     1      -0.311  -0.318   0.264  1.00  0.00     0.115 C 
HETATM    2  C6  UNL     1      -0.421   1.140  -0.007  1.00  0.00     0.171 C 
HETATM    3  C7  UNL     1      -1.738   1.558  -0.618  1.00  0.00     0.173 C 
HETATM    4  C8  UNL     1      -2.893   0.915   0.075  1.00  0.00     0.146 C 
HETATM    5  C10 UNL     1      -2.735  -0.605  -0.116  1.00  0.00     0.216 C 
HETATM    6  C11 UNL     1      -1.567  -0.989   0.746  1.00  0.00     0.068 C 
ENDROOT
BRANCH   1   7
HETATM    7  N3  UNL     1       0.266  -1.081  -0.787  1.00  0.00    -0.412 N 
ATOM      8  H3  UNL     1      -0.267  -1.796  -1.282  1.00  0.00     0.153 HD
BRANCH   7   9
HETATM    9  C4  UNL     1       1.626  -0.801  -1.118  1.00  0.00     0.142 C 
BRANCH   9  10
HETATM   10  C3  UNL     1       2.581  -1.244  -0.057  1.00  0.00     0.251 C 
BRANCH  10  11
HETATM   11  N2  UNL     1       3.968  -0.978  -0.325  1.00  0.00    -0.072 N 
ATOM     12  H22 UNL     1       4.260  -1.373  -1.219  1.00  0.00     0.277 HD
ATOM     13  H21 UNL     1       4.579  -1.516   0.290  1.00  0.00     0.277 HD
BRANCH  11  14
HETATM   14  C2  UNL     1       4.249   0.425  -0.252  1.00  0.00     0.259 C 
BRANCH  14  15
HETATM   15  C1  UNL     1       5.721   0.693  -0.504  1.00  0.00     0.257 C 
BRANCH  15  16
HETATM   16  N1  UNL     1       6.004   2.109  -0.414  1.00  0.00    -0.078 N 
ATOM     17  H13 UNL     1       5.408   2.654  -1.037  1.00  0.00     0.274 HD
ATOM     18  H12 UNL     1       5.695   2.501   0.475  1.00  0.00     0.274 HD
ATOM     19  H11 UNL     1       6.994   2.289  -0.583  1.00  0.00     0.274 HD
ENDBRANCH  15  16
ENDBRANCH  14  15
ENDBRANCH  11  14
ENDBRANCH  10  11
ENDBRANCH   9  10
ENDBRANCH   7   9
ENDBRANCH   1   7
BRANCH   2  20
HETATM   20  O1  UNL     1      -0.222   1.860   1.149  1.00  0.00    -0.391 OA
ATOM     21  H1  UNL     1      -0.292   2.791   0.976  1.00  0.00     0.210 HD
ENDBRANCH   2  20
BRANCH   6  22
HETATM   22  C12 UNL     1      -1.328  -2.456   0.893  1.00  0.00     0.238 C 
BRANCH  22  23
HETATM   23  N6  UNL     1      -2.544  -3.091   1.356  1.00  0.00    -0.079 N 
ATOM     24  H63 UNL     1      -2.900  -2.668   2.214  1.00  0.00     0.274 HD
ATOM     25  H62 UNL     1      -3.341  -2.887   0.754  1.00  0.00     0.274 HD
ATOM     26  H61 UNL     1      -2.381  -4.093   1.456  1.00  0.00     0.274 HD
ENDBRANCH  22  23
ENDBRANCH   6  22
BRANCH   3  27
HETATM   27  O2  UNL     1      -1.832   2.949  -0.441  1.00  0.00    -0.391 OA
ATOM     28  H2  UNL     1      -2.660   3.212  -0.825  1.00  0.00     0.210 HD
ENDBRANCH   3  27
BRANCH   5  29
HETATM   29  N5  UNL     1      -3.966  -1.269   0.297  1.00  0.00    -0.072 N 
ATOM     30  H53 UNL     1      -4.238  -1.024   1.249  1.00  0.00     0.274 HD
ATOM     31  H52 UNL     1      -4.786  -0.901  -0.186  1.00  0.00     0.274 HD
ATOM     32  H51 UNL     1      -3.861  -2.276   0.171  1.00  0.00     0.274 HD
ENDBRANCH   5  29
BRANCH   4  33
HETATM   33  N4  UNL     1      -4.156   1.378  -0.380  1.00  0.00    -0.359 N 
ATOM     34  H4  UNL     1      -4.438   1.235  -1.350  1.00  0.00     0.162 HD
BRANCH  33  35
HETATM   35  C9  UNL     1      -5.022   2.041   0.525  1.00  0.00     0.348 C 
HETATM   36  O3  UNL     1      -4.718   2.243   1.725  1.00  0.00    -0.284 OA
ENDBRANCH  33  35
ENDBRANCH   4  33
TORSDOF 14
