REMARK  7 active torsions:
REMARK  status: ('A' for Active; 'I' for Inactive)
REMARK    1  A    between atoms: N1_1  and  C1_4 
REMARK    2  A    between atoms: N5_15  and  C5_17 
REMARK    3  A    between atoms: C5_17  and  C6_18 
REMARK    4  A    between atoms: C6_18  and  N6_19 
REMARK    5  A    between atoms: C7_25  and  O2_26 
REMARK    6  A    between atoms: O2_26  and  C8_27 
REMARK    7  A    between atoms: C8_27  and  C9_28 
ROOT
HETATM    1  C1  UNL     1      -2.245  -1.745  -0.420  1.00  0.00     0.114 A 
HETATM    2  C2  UNL     1      -2.205  -3.078  -0.787  1.00  0.00     0.287 A 
HETATM    3  O1  UNL     1      -3.292  -3.712  -0.770  1.00  0.00    -0.264 OA
HETATM    4  N2  UNL     1      -1.031  -3.642  -1.144  1.00  0.00    -0.263 N 
ATOM      5  H2  UNL     1      -1.013  -4.626  -1.413  1.00  0.00     0.190 HD
HETATM    6  N3  UNL     1       0.105  -2.945  -1.153  1.00  0.00    -0.281 N 
ATOM      7  H3  UNL     1       0.972  -3.406  -1.428  1.00  0.00     0.188 HD
HETATM    8  C3  UNL     1       0.130  -1.635  -0.803  1.00  0.00     0.152 A 
HETATM    9  N4  UNL     1       1.303  -0.977  -0.829  1.00  0.00    -0.174 N 
ATOM     10  H4  UNL     1       2.164  -1.448  -1.106  1.00  0.00     0.186 HD
HETATM   11  C4  UNL     1       1.304   0.317  -0.479  1.00  0.00     0.681 A 
HETATM   12  N5  UNL     1       2.359   1.031  -0.469  1.00  0.00    -0.224 N 
ATOM     13  H5  UNL     1       2.279   2.009  -0.191  1.00  0.00     0.177 HD
HETATM   14  N7  UNL     1       0.140   0.939  -0.108  1.00  0.00    -0.170 N 
ATOM     15  H7  UNL     1       0.172   1.924   0.153  1.00  0.00     0.186 HD
HETATM   16  C7  UNL     1      -1.029   0.306  -0.076  1.00  0.00     0.174 A 
HETATM   17  C10 UNL     1      -1.048  -1.022  -0.432  1.00  0.00     0.093 A 
ENDROOT
BRANCH  12  18
HETATM   18  C5  UNL     1       3.638   0.534  -0.825  1.00  0.00     0.165 C 
BRANCH  18  19
HETATM   19  C6  UNL     1       4.284  -0.190   0.355  1.00  0.00     0.249 C 
BRANCH  19  20
HETATM   20  N6  UNL     1       4.410   0.776   1.432  1.00  0.00    -0.078 N 
ATOM     21  H63 UNL     1       4.913   1.619   1.156  1.00  0.00     0.274 HD
ATOM     22  H62 UNL     1       3.526   1.224   1.673  1.00  0.00     0.274 HD
ATOM     23  H61 UNL     1       4.841   0.293   2.220  1.00  0.00     0.274 HD
ENDBRANCH  19  20
ENDBRANCH  18  19
ENDBRANCH  12  18
BRANCH  16  24
HETATM   24  O2  UNL     1      -2.224   0.904   0.293  1.00  0.00    -0.326 OA
BRANCH  24  25
HETATM   25  C8  UNL     1      -2.191   2.271   0.657  1.00  0.00     0.276 C 
BRANCH  25  26
HETATM   26  C9  UNL     1      -3.568   2.697   1.012  1.00  0.00     0.255 C 
HETATM   27  N8  UNL     1      -3.733   4.042   1.404  1.00  0.00    -0.060 NA
HETATM   28  O3  UNL     1      -4.576   1.953   0.985  1.00  0.00    -0.274 OA
ENDBRANCH  25  26
ENDBRANCH  24  25
ENDBRANCH  16  24
BRANCH   1  29
HETATM   29  N1  UNL     1      -3.327  -1.179  -0.079  1.00  0.00    -0.394 N 
ATOM     30  H12 UNL     1      -4.200  -1.706  -0.070  1.00  0.00     0.156 HD
ATOM     31  H11 UNL     1      -3.356  -0.196   0.192  1.00  0.00     0.156 HD
ENDBRANCH   1  29
TORSDOF 7
