REMARK  8 active torsions:
REMARK  status: ('A' for Active; 'I' for Inactive)
REMARK    1  A    between atoms: N1_2  and  C2_4 
REMARK    2  A    between atoms: C3_7  and  N3_8 
REMARK    3  A    between atoms: C6_13  and  N5_14 
REMARK    4  A    between atoms: N5_14  and  N6_16 
REMARK    5  A    between atoms: N6_16  and  C7_18 
REMARK    6  A    between atoms: C7_18  and  C8_19 
REMARK    7  A    between atoms: C8_19  and  N7_20 
REMARK    8  A    between atoms: N7_20  and  C9_22 
ROOT
HETATM    1  C2  UNL     1      -1.600   1.205   0.215  1.00  0.00     0.706 A 
HETATM    2  N2  UNL     1      -2.729   0.588  -0.180  1.00  0.00    -0.021 N 
ATOM      3  H2  UNL     1      -3.624   1.045  -0.005  1.00  0.00     0.203 HD
HETATM    4  C3  UNL     1      -2.723  -0.608  -0.797  1.00  0.00     0.708 A 
HETATM    5  N4  UNL     1      -1.514  -1.167  -1.003  1.00  0.00    -0.020 N 
ATOM      6  H4  UNL     1      -1.459  -2.074  -1.467  1.00  0.00     0.203 HD
HETATM    7  C6  UNL     1      -0.372  -0.557  -0.611  1.00  0.00     0.725 A 
HETATM    8  N9  UNL     1      -0.397   0.639   0.005  1.00  0.00    -0.020 N 
ATOM      9  H9  UNL     1       0.463   1.099   0.302  1.00  0.00     0.203 HD
ENDROOT
BRANCH   7  10
HETATM   10  N5  UNL     1       0.774  -1.111  -0.821  1.00  0.00    -0.135 N 
ATOM     11  H5  UNL     1       0.774  -2.017  -1.290  1.00  0.00     0.205 HD
BRANCH  10  12
HETATM   12  N6  UNL     1       1.994  -0.588  -0.468  1.00  0.00    -0.321 N 
ATOM     13  H6  UNL     1       2.499  -0.053  -1.174  1.00  0.00     0.180 HD
BRANCH  12  14
HETATM   14  C7  UNL     1       2.615  -0.737   0.822  1.00  0.00     0.159 C 
BRANCH  14  15
HETATM   15  C8  UNL     1       3.962  -0.056   0.890  1.00  0.00     0.143 C 
BRANCH  15  16
HETATM   16  N7  UNL     1       4.885  -0.590  -0.078  1.00  0.00    -0.368 N 
ATOM     17  H7  UNL     1       4.585  -1.338  -0.704  1.00  0.00     0.161 HD
BRANCH  16  18
HETATM   18  C9  UNL     1       6.201  -0.087  -0.168  1.00  0.00     0.181 C 
HETATM   19  N8  UNL     1       6.611   0.954   0.706  1.00  0.00    -0.070 NA
HETATM   20  S1  UNL     1       7.297  -0.643  -1.240  1.00  0.00    -0.044 SA
ENDBRANCH  16  18
ENDBRANCH  15  16
ENDBRANCH  14  15
ENDBRANCH  12  14
ENDBRANCH  10  12
ENDBRANCH   7  10
BRANCH   4  21
HETATM   21  N3  UNL     1      -3.930  -1.255  -1.213  1.00  0.00    -0.225 N 
HETATM   22  C4  UNL     1      -4.701  -2.142  -0.395  1.00  0.00     0.168 C 
HETATM   23  C5  UNL     1      -4.394  -0.983  -2.562  1.00  0.00     0.168 C 
ENDBRANCH   4  21
BRANCH   1  24
HETATM   24  N1  UNL     1      -1.599   2.350   0.809  1.00  0.00    -0.229 N 
HETATM   25  C1  UNL     1      -2.882   2.980   1.049  1.00  0.00     0.165 C 
ATOM     26  H1  UNL     1      -0.728   2.795   1.099  1.00  0.00     0.177 HD
ENDBRANCH   1  24
TORSDOF 8
