REMARK  5 active torsions:
REMARK  status: ('A' for Active; 'I' for Inactive)
REMARK    1  A    between atoms: C2_2  and  N1_3 
REMARK       I    between atoms: C3_5  and  N2_6 
REMARK       I    between atoms: C3_5  and  N4_10 
REMARK    2  A    between atoms: N4_10  and  C5_12 
REMARK    3  A    between atoms: C5_12  and  C6_13 
REMARK    4  A    between atoms: C6_13  and  N5_14 
REMARK    5  A    between atoms: N5_14  and  C7_16 
ROOT
HETATM    1  N1  UNL     1      -3.036  -0.962  -1.073  1.00  0.00    -0.226 N 
ATOM      2  H1  UNL     1      -2.277  -1.303  -1.663  1.00  0.00     0.177 HD
HETATM    3  C3  UNL     1      -2.790  -0.077  -0.171  1.00  0.00     0.682 C 
HETATM    4  N2  UNL     1      -3.822   0.422   0.671  1.00  0.00    -0.126 N 
ATOM      5  H2  UNL     1      -4.496   1.100   0.315  1.00  0.00     0.197 HD
HETATM    6  C4  UNL     1      -3.902  -0.029   1.996  1.00  0.00     0.196 C 
HETATM    7  N3  UNL     1      -3.955  -0.389   3.095  1.00  0.00    -0.171 NA
HETATM    8  N4  UNL     1      -1.463   0.408  -0.017  1.00  0.00    -0.224 N 
ATOM      9  H4  UNL     1      -1.045   0.959  -0.767  1.00  0.00     0.177 HD
ENDROOT
BRANCH   1  10
HETATM   10  C2  UNL     1      -4.373  -1.480  -1.262  1.00  0.00     0.133 C 
HETATM   11  C1  UNL     1      -5.310  -0.507  -1.892  1.00  0.00     0.027 C 
ENDBRANCH   1  10
BRANCH   8  12
HETATM   12  C5  UNL     1      -0.689   0.139   1.180  1.00  0.00     0.158 C 
BRANCH  12  13
HETATM   13  C6  UNL     1       0.676   0.750   1.115  1.00  0.00     0.158 C 
BRANCH  13  14
HETATM   14  N5  UNL     1       1.458   0.264   0.015  1.00  0.00    -0.224 N 
ATOM     15  H5  UNL     1       0.969  -0.190  -0.756  1.00  0.00     0.177 HD
BRANCH  14  16
HETATM   16  C7  UNL     1       2.722   0.365  -0.057  1.00  0.00     0.685 C 
HETATM   17  N6  UNL     1       3.278  -0.157  -1.178  1.00  0.00    -0.141 N 
HETATM   18  C8  UNL     1       4.571  -0.387  -1.492  1.00  0.00     0.341 C 
ATOM     19  H6  UNL     1       2.610  -0.419  -1.903  1.00  0.00     0.189 HD
HETATM   20  O1  UNL     1       4.869  -0.567  -2.698  1.00  0.00    -0.246 OA
HETATM   21  N7  UNL     1       5.597  -0.443  -0.622  1.00  0.00    -0.270 N 
HETATM   22  C9  UNL     1       5.670   0.072   0.636  1.00  0.00     0.318 C 
ATOM     23  H7  UNL     1       6.428  -0.936  -0.948  1.00  0.00     0.174 HD
HETATM   24  O2  UNL     1       6.703  -0.169   1.284  1.00  0.00    -0.262 OA
HETATM   25  C10 UNL     1       4.711   0.834   1.259  1.00  0.00     0.328 C 
HETATM   26  O3  UNL     1       5.124   1.485   2.247  1.00  0.00    -0.261 OA
HETATM   27  N8  UNL     1       3.409   0.953   0.932  1.00  0.00    -0.151 N 
ATOM     28  H8  UNL     1       2.867   1.583   1.524  1.00  0.00     0.188 HD
ENDBRANCH  14  16
ENDBRANCH  13  14
ENDBRANCH  12  13
ENDBRANCH   8  12
TORSDOF 5
