REMARK  5 active torsions:
REMARK  status: ('A' for Active; 'I' for Inactive)
REMARK    1  A    between atoms: C1_2  and  C2_4 
REMARK    2  A    between atoms: C2_4  and  N2_5 
REMARK       I    between atoms: N2_5  and  C3_7 
REMARK    3  A    between atoms: C3_7  and  C4_9 
REMARK    4  A    between atoms: C4_9  and  N3_10 
REMARK       I    between atoms: N3_10  and  C5_12 
REMARK    5  A    between atoms: C5_12  and  C6_14 
REMARK       I    between atoms: C6_14  and  N4_16 
ROOT
HETATM    1  N2  UNL     1      -1.320  -0.110   0.177  1.00  0.00    -0.320 N 
ATOM      2  H2  UNL     1      -0.779  -0.673   0.833  1.00  0.00     0.165 HD
HETATM    3  C3  UNL     1      -0.619   0.472  -0.868  1.00  0.00     0.237 C 
HETATM    4  O2  UNL     1      -1.234   1.177  -1.712  1.00  0.00    -0.272 OA
ENDROOT
BRANCH   3   5
HETATM    5  C4  UNL     1       0.824   0.340  -1.096  1.00  0.00     0.225 C 
BRANCH   5   6
HETATM    6  N3  UNL     1       1.567  -0.444  -0.175  1.00  0.00    -0.344 N 
HETATM    7  C5  UNL     1       2.960  -0.585  -0.374  1.00  0.00     0.310 C 
HETATM    8  O3  UNL     1       3.519  -0.029  -1.341  1.00  0.00    -0.262 OA
ATOM      9  H3  UNL     1       1.106  -0.896   0.614  1.00  0.00     0.163 HD
BRANCH   7  10
HETATM   10  C6  UNL     1       3.766  -1.374   0.535  1.00  0.00     0.315 C 
HETATM   11  O4  UNL     1       3.255  -1.960   1.531  1.00  0.00    -0.262 OA
HETATM   12  N4  UNL     1       5.167  -1.526   0.348  1.00  0.00    -0.295 N 
HETATM   13  C7  UNL     1       6.000  -0.567   0.402  1.00  0.00     0.203 C 
ATOM     14  H4  UNL     1       5.526  -2.462   0.159  1.00  0.00     0.171 HD
HETATM   15  N5  UNL     1       5.646   0.782   0.654  1.00  0.00    -0.066 NA
HETATM   16  N6  UNL     1       7.380  -0.875   0.192  1.00  0.00    -0.066 NA
ENDBRANCH   7  10
ENDBRANCH   5   6
ENDBRANCH   3   5
BRANCH   1  17
HETATM   17  C2  UNL     1      -2.733  -0.002   0.433  1.00  0.00     0.278 C 
HETATM   18  C8  UNL     1      -3.629  -0.409  -0.654  1.00  0.00     0.073 C 
HETATM   19  C9  UNL     1      -4.784   0.595  -0.560  1.00  0.00     0.032 C 
HETATM   20  C10 UNL     1      -4.099   1.817  -0.075  1.00  0.00     0.236 C 
HETATM   21  N7  UNL     1      -3.041   1.361   0.769  1.00  0.00    -0.040 N 
ATOM     22  H72 UNL     1      -3.255   1.479   1.759  1.00  0.00     0.280 HD
ATOM     23  H71 UNL     1      -2.221   1.967   0.728  1.00  0.00     0.280 HD
BRANCH  17  24
HETATM   24  C1  UNL     1      -3.069  -0.806   1.664  1.00  0.00     0.288 C 
HETATM   25  N1  UNL     1      -4.388  -0.897   2.177  1.00  0.00    -0.058 NA
HETATM   26  O1  UNL     1      -2.169  -1.424   2.273  1.00  0.00    -0.272 OA
ENDBRANCH  17  24
ENDBRANCH   1  17
TORSDOF 5
