REMARK  3 active torsions:
REMARK  status: ('A' for Active; 'I' for Inactive)
REMARK       I    between atoms: N1_4  and  C4_5 
REMARK    1  A    between atoms: C4_5  and  C5_7 
REMARK    2  A    between atoms: C13_16  and  C14_17 
REMARK       I    between atoms: C14_17  and  N2_19 
REMARK    3  A    between atoms: N2_19  and  C15_21 
ROOT
HETATM    1  C1  UNL     1       1.772  -0.012   2.699  1.00  0.00     0.012 C 
HETATM    2  C2  UNL     1       2.148   0.934   1.582  1.00  0.00     0.004 C 
HETATM    3  C3  UNL     1       3.319   0.328   0.812  1.00  0.00     0.130 C 
HETATM    4  N1  UNL     1       3.902   1.299  -0.067  1.00  0.00    -0.347 N 
HETATM    5  C4  UNL     1       5.056   0.922  -0.756  1.00  0.00     0.260 C 
HETATM    6  O1  UNL     1       5.564   1.798  -1.535  1.00  0.00    -0.267 OA
HETATM    7  C9  UNL     1       3.391   2.650  -0.302  1.00  0.00     0.126 C 
HETATM    8  C10 UNL     1       2.133   2.576  -1.125  1.00  0.00     0.025 C 
HETATM    9  C11 UNL     1       1.384   1.332  -0.767  1.00  0.00    -0.008 C 
HETATM   10  C12 UNL     1      -0.003   1.345  -1.420  1.00  0.00     0.019 C 
HETATM   11  C13 UNL     1      -0.663   0.196  -0.691  1.00  0.00     0.078 C 
HETATM   12  C21 UNL     1      -0.083   0.214   0.696  1.00  0.00     0.019 C 
HETATM   13  C22 UNL     1       1.005   1.286   0.696  1.00  0.00    -0.004 C 
ENDROOT
BRANCH  11  14
HETATM   14  C14 UNL     1      -2.125   0.278  -0.722  1.00  0.00     0.222 C 
HETATM   15  O2  UNL     1      -2.637   1.263  -1.332  1.00  0.00    -0.273 OA
HETATM   16  N2  UNL     1      -3.003  -0.649  -0.131  1.00  0.00    -0.356 N 
ATOM     17  H2  UNL     1      -2.590  -1.443   0.359  1.00  0.00     0.162 HD
BRANCH  16  18
HETATM   18  C15 UNL     1      -4.429  -0.564  -0.164  1.00  0.00     0.084 C 
HETATM   19  C16 UNL     1      -4.966  -0.435   1.222  1.00  0.00     0.025 C 
HETATM   20  C17 UNL     1      -6.228  -1.178   1.493  1.00  0.00     0.002 C 
HETATM   21  C18 UNL     1      -7.213  -1.151   0.351  1.00  0.00     0.000 C 
HETATM   22  C19 UNL     1      -6.559  -1.416  -0.982  1.00  0.00     0.002 C 
HETATM   23  C20 UNL     1      -5.086  -1.733  -0.843  1.00  0.00     0.025 C 
ENDBRANCH  16  18
ENDBRANCH  11  14
BRANCH   5  24
HETATM   24  C5  UNL     1       5.747  -0.357  -0.689  1.00  0.00     0.072 A 
HETATM   25  C6  UNL     1       6.886  -0.732  -1.368  1.00  0.00     0.025 A 
HETATM   26  C7  UNL     1       7.352  -1.961  -1.156  1.00  0.00     0.009 A 
HETATM   27  C8  UNL     1       6.677  -2.768  -0.283  1.00  0.00     0.050 A 
HETATM   28  S1  UNL     1       5.397  -1.772   0.219  1.00  0.00    -0.097 SA
ENDBRANCH   5  24
TORSDOF 3
