REMARK  3 active torsions:
REMARK  status: ('A' for Active; 'I' for Inactive)
REMARK    1  A    between atoms: C6_10  and  C7_11 
REMARK    2  A    between atoms: N3_17  and  C13_18 
REMARK    3  A    between atoms: N4_21  and  C16_22 
ROOT
HETATM    1  N1  UNL     1      -1.159  -2.267  -3.017  1.00  0.00    -0.234 N 
ATOM      2  H11 UNL     1      -0.140  -2.299  -3.011  1.00  0.00     0.174 HD
ATOM      3  H12 UNL     1      -1.477  -2.748  -3.859  1.00  0.00     0.174 HD
HETATM    4  C1  UNL     1      -1.753  -1.688  -2.060  1.00  0.00     0.677 C 
HETATM    5  N2  UNL     1      -3.170  -1.643  -2.068  1.00  0.00    -0.208 N 
HETATM    6  C2  UNL     1      -4.406  -2.148  -2.590  1.00  0.00     0.142 C 
HETATM    7  C3  UNL     1      -5.193  -2.306  -1.271  1.00  0.00     0.023 C 
HETATM    8  C4  UNL     1      -4.315  -1.601  -0.207  1.00  0.00     0.033 C 
HETATM    9  C5  UNL     1      -3.573  -0.666  -1.119  1.00  0.00     0.149 C 
HETATM   10  C6  UNL     1      -2.313  -0.056  -0.687  1.00  0.00     0.035 C 
HETATM   11  N3  UNL     1      -1.294  -0.993  -0.844  1.00  0.00    -0.184 N 
ENDROOT
BRANCH  11  12
HETATM   12  C13 UNL     1      -0.062  -1.469  -0.275  1.00  0.00     0.110 C 
HETATM   13  C14 UNL     1       1.109  -1.543  -1.234  1.00  0.00     0.045 C 
HETATM   14  C15 UNL     1       2.463  -1.280  -0.558  1.00  0.00     0.119 C 
HETATM   15  N4  UNL     1       2.472   0.007  -0.021  1.00  0.00    -0.408 N 
HETATM   16  C23 UNL     1       1.344   0.382   0.753  1.00  0.00     0.119 C 
HETATM   17  C24 UNL     1       0.473  -0.854   0.951  1.00  0.00     0.045 C 
BRANCH  15  18
HETATM   18  C16 UNL     1       3.721   0.603   0.290  1.00  0.00     0.079 C 
HETATM   19  C17 UNL     1       4.388  -0.244   1.364  1.00  0.00     0.025 C 
HETATM   20  C18 UNL     1       5.615   0.391   1.929  1.00  0.00     0.002 C 
HETATM   21  C19 UNL     1       6.622   0.596   0.816  1.00  0.00     0.000 C 
HETATM   22  C20 UNL     1       6.312   1.939   0.188  1.00  0.00     0.000 C 
HETATM   23  C21 UNL     1       5.532   1.713  -1.063  1.00  0.00     0.002 C 
HETATM   24  C22 UNL     1       4.551   0.581  -0.994  1.00  0.00     0.025 C 
ENDBRANCH  15  18
ENDBRANCH  11  12
BRANCH  10  25
HETATM   25  C7  UNL     1      -2.470   0.955   0.390  1.00  0.00     0.034 C 
HETATM   26  C8  UNL     1      -3.382   2.083  -0.133  1.00  0.00     0.010 C 
HETATM   27  C9  UNL     1      -4.738   2.127   0.435  1.00  0.00     0.001 C 
HETATM   28  C10 UNL     1      -4.735   2.101   1.953  1.00  0.00     0.000 C 
HETATM   29  C11 UNL     1      -3.953   0.958   2.488  1.00  0.00     0.001 C 
HETATM   30  C12 UNL     1      -2.781   0.502   1.751  1.00  0.00     0.010 C 
ENDBRANCH  10  25
TORSDOF 3
