REMARK  5 active torsions:
REMARK  status: ('A' for Active; 'I' for Inactive)
REMARK    1  A    between atoms: C2_2  and  C3_3 
REMARK    2  A    between atoms: C3_3  and  O1_4 
REMARK    3  A    between atoms: O1_4  and  C4_5 
REMARK       I    between atoms: C4_5  and  N1_7 
REMARK    4  A    between atoms: N1_7  and  C5_8 
REMARK    5  A    between atoms: N1_7  and  C11_15 
ROOT
HETATM    1  C4  UNL     1      -1.454  -1.332   1.374  1.00  0.00     0.363 C 
HETATM    2  O2  UNL     1      -2.405  -1.168   2.179  1.00  0.00    -0.238 OA
HETATM    3  N1  UNL     1      -1.013  -0.351   0.443  1.00  0.00    -0.318 N 
ENDROOT
BRANCH   3   4
HETATM    4  C5  UNL     1      -1.701   0.909   0.432  1.00  0.00     0.093 C 
HETATM    5  C6  UNL     1      -1.577   1.662   1.748  1.00  0.00     0.055 C 
HETATM    6  C7  UNL     1      -2.208   3.046   1.516  1.00  0.00     0.274 C 
HETATM    7  N2  UNL     1      -3.562   2.941   1.069  1.00  0.00     0.084 N 
HETATM    8  C8  UNL     1      -4.486   3.729   1.866  1.00  0.00     0.309 C 
HETATM    9  C9  UNL     1      -4.037   1.588   1.017  1.00  0.00     0.274 C 
HETATM   10  C10 UNL     1      -3.167   0.734   0.122  1.00  0.00     0.055 C 
ENDBRANCH   3   4
BRANCH   3  11
HETATM   11  C11 UNL     1       0.099  -0.683  -0.426  1.00  0.00     0.094 C 
HETATM   12  C12 UNL     1      -0.342  -0.824  -1.852  1.00  0.00     0.026 C 
HETATM   13  C13 UNL     1      -0.206   0.384  -2.701  1.00  0.00     0.002 C 
HETATM   14  C14 UNL     1       1.147   0.986  -2.568  1.00  0.00     0.005 C 
HETATM   15  C15 UNL     1       1.621   1.206  -1.186  1.00  0.00    -0.004 C 
HETATM   16  C16 UNL     1       3.085   1.286  -1.087  1.00  0.00    -0.006 C 
HETATM   17  C22 UNL     1       1.308   0.139  -0.197  1.00  0.00     0.013 C 
HETATM   18  C17 UNL     1       3.900   1.756  -2.194  1.00  0.00     0.005 C 
HETATM   19  C20 UNL     1       3.428  -0.222  -1.119  1.00  0.00    -0.010 C 
HETATM   20  C18 UNL     1       5.207   0.966  -2.004  1.00  0.00     0.001 C 
HETATM   21  C19 UNL     1       4.886  -0.096  -0.934  1.00  0.00     0.005 C 
HETATM   22  C21 UNL     1       2.586  -0.703  -0.028  1.00  0.00     0.012 C 
ENDBRANCH   3  11
BRANCH   1  23
HETATM   23  O1  UNL     1      -0.839  -2.586   1.458  1.00  0.00    -0.304 OA
BRANCH  23  24
HETATM   24  C3  UNL     1      -1.264  -3.571   2.376  1.00  0.00     0.180 C 
BRANCH  24  25
HETATM   25  C2  UNL     1      -0.350  -4.785   2.160  1.00  0.00     0.022 C 
HETATM   26  C1  UNL     1      -0.510  -5.254   0.729  1.00  0.00     0.007 C 
ENDBRANCH  24  25
ENDBRANCH  23  24
ENDBRANCH   1  23
TORSDOF 5
