REMARK  4 active torsions:
REMARK  status: ('A' for Active; 'I' for Inactive)
REMARK    1  A    between atoms: C4_4  and  N1_5 
REMARK    2  A    between atoms: N2_8  and  C7_9 
REMARK    3  A    between atoms: C7_9  and  C8_10 
REMARK    4  A    between atoms: N3_13  and  C11_14 
ROOT
HETATM    1  C8  UNL     1      -0.095  -0.829   0.509  1.00  0.00     0.006 C 
HETATM    2  C9  UNL     1      -1.091  -1.960   0.539  1.00  0.00     0.026 C 
HETATM    3  C10 UNL     1      -2.492  -1.621   0.215  1.00  0.00     0.117 C 
HETATM    4  N3  UNL     1      -2.926  -0.404   0.791  1.00  0.00    -0.408 N 
HETATM    5  C18 UNL     1      -1.990   0.661   0.871  1.00  0.00     0.117 C 
HETATM    6  C19 UNL     1      -0.836   0.399  -0.041  1.00  0.00     0.026 C 
ENDROOT
BRANCH   1   7
HETATM    7  C7  UNL     1       1.101  -1.146  -0.326  1.00  0.00     0.126 C 
BRANCH   7   8
HETATM    8  N2  UNL     1       2.091  -0.144  -0.421  1.00  0.00    -0.390 N 
HETATM    9  C6  UNL     1       3.126  -0.449  -1.385  1.00  0.00     0.141 C 
HETATM   10  C5  UNL     1       4.221  -1.262  -0.732  1.00  0.00     0.143 C 
HETATM   11  N1  UNL     1       4.800  -0.380   0.276  1.00  0.00    -0.375 N 
HETATM   12  C21 UNL     1       3.873   0.056   1.302  1.00  0.00     0.167 C 
HETATM   13  C20 UNL     1       2.544   0.497   0.742  1.00  0.00     0.078 C 
BRANCH  11  14
HETATM   14  C4  UNL     1       6.147   0.027   0.232  1.00  0.00     0.030 A 
HETATM   15  C3  UNL     1       6.940  -0.039  -0.909  1.00  0.00     0.029 A 
HETATM   16  C2  UNL     1       8.244   0.353  -0.908  1.00  0.00     0.002 A 
HETATM   17  C1  UNL     1       8.844   0.841   0.248  1.00  0.00     0.000 A 
HETATM   18  C23 UNL     1       8.071   0.913   1.397  1.00  0.00     0.002 A 
HETATM   19  C22 UNL     1       6.749   0.512   1.380  1.00  0.00     0.029 A 
ENDBRANCH  11  14
ENDBRANCH   7   8
ENDBRANCH   1   7
BRANCH   4  20
HETATM   20  C11 UNL     1      -4.209   0.078   0.397  1.00  0.00     0.079 C 
HETATM   21  C12 UNL     1      -4.350   0.390  -1.068  1.00  0.00     0.025 C 
HETATM   22  C13 UNL     1      -5.192   1.563  -1.401  1.00  0.00     0.002 C 
HETATM   23  C14 UNL     1      -6.181   1.964  -0.346  1.00  0.00     0.000 C 
HETATM   24  C15 UNL     1      -7.082   0.862   0.102  1.00  0.00     0.000 C 
HETATM   25  C16 UNL     1      -6.531   0.016   1.214  1.00  0.00     0.002 C 
HETATM   26  C17 UNL     1      -5.350  -0.828   0.806  1.00  0.00     0.025 C 
ENDBRANCH   4  20
TORSDOF 4
