REMARK  15 active torsions:
REMARK  status: ('A' for Active; 'I' for Inactive)
REMARK    1  A    between atoms: O1_1  and  C1_3 
REMARK    2  A    between atoms: C1_3  and  C2_4 
REMARK    3  A    between atoms: C5_7  and  C6_8 
REMARK    4  A    between atoms: C6_8  and  C7_9 
REMARK    5  A    between atoms: C7_9  and  C8_10 
REMARK    6  A    between atoms: C8_10  and  C9_11 
REMARK    7  A    between atoms: C9_11  and  C10_12 
REMARK    8  A    between atoms: C10_12  and  C11_13 
REMARK    9  A    between atoms: C11_13  and  C12_14 
REMARK   10  A    between atoms: C12_14  and  C13_15 
REMARK   11  A    between atoms: C13_15  and  C14_16 
REMARK   12  A    between atoms: C14_16  and  C15_17 
REMARK   13  A    between atoms: C15_17  and  C16_18 
REMARK   14  A    between atoms: C16_18  and  C17_19 
REMARK   15  A    between atoms: C17_19  and  C18_20 
ROOT
HETATM    1  C9  UNL     1       2.118   0.936  -1.134  1.00  0.00     0.000 C 
ENDROOT
BRANCH   1   2
HETATM    2  C8  UNL     1       3.480   1.435  -1.335  1.00  0.00     0.000 C 
BRANCH   2   3
HETATM    3  C7  UNL     1       4.635   0.599  -1.093  1.00  0.00     0.006 C 
BRANCH   3   4
HETATM    4  C6  UNL     1       4.916   0.031   0.244  1.00  0.00     0.057 C 
BRANCH   4   5
HETATM    5  C5  UNL     1       6.266  -0.664   0.107  1.00  0.00     0.009 A 
HETATM    6  C4  UNL     1       6.456  -1.954  -0.251  1.00  0.00     0.027 A 
HETATM    7  C3  UNL     1       7.840  -2.178  -0.254  1.00  0.00     0.029 A 
HETATM    8  C2  UNL     1       8.441  -0.988   0.110  1.00  0.00     0.033 A 
HETATM    9  N1  UNL     1       7.435  -0.081   0.323  1.00  0.00    -0.361 N 
ATOM     10  H1  UNL     1       7.567   0.891   0.604  1.00  0.00     0.165 HD
BRANCH   8  11
HETATM   11  C1  UNL     1       9.876  -0.657   0.266  1.00  0.00     0.220 C 
BRANCH  11  12
HETATM   12  O1  UNL     1      10.232  -0.919   1.584  1.00  0.00    -0.395 OA
ATOM     13  H1  UNL     1      11.153  -0.707   1.684  1.00  0.00     0.209 HD
ENDBRANCH  11  12
ENDBRANCH   8  11
ENDBRANCH   4   5
ENDBRANCH   3   4
ENDBRANCH   2   3
ENDBRANCH   1   2
BRANCH   1  14
HETATM   14  C10 UNL     1       1.724   0.644   0.259  1.00  0.00     0.000 C 
BRANCH  14  15
HETATM   15  C11 UNL     1       0.252   0.145   0.261  1.00  0.00     0.000 C 
BRANCH  15  16
HETATM   16  C12 UNL     1      -0.624   1.201  -0.292  1.00  0.00     0.000 C 
BRANCH  16  17
HETATM   17  C13 UNL     1      -2.122   0.758  -0.251  1.00  0.00     0.000 C 
BRANCH  17  18
HETATM   18  C14 UNL     1      -2.271  -0.460  -1.054  1.00  0.00     0.000 C 
BRANCH  18  19
HETATM   19  C15 UNL     1      -3.590  -1.067  -1.286  1.00  0.00     0.000 C 
BRANCH  19  20
HETATM   20  C16 UNL     1      -4.411  -1.570  -0.180  1.00  0.00     0.000 C 
BRANCH  20  21
HETATM   21  C17 UNL     1      -4.901  -0.554   0.781  1.00  0.00     0.004 C 
BRANCH  21  22
HETATM   22  C18 UNL     1      -5.704   0.506   0.059  1.00  0.00    -0.014 C 
HETATM   23  C19 UNL     1      -6.150   1.520   1.115  1.00  0.00     0.004 C 
HETATM   24  C20 UNL     1      -7.191   0.727   1.878  1.00  0.00     0.000 C 
HETATM   25  C21 UNL     1      -7.762  -0.269   0.905  1.00  0.00     0.000 C 
HETATM   26  C22 UNL     1      -7.012  -0.110  -0.403  1.00  0.00     0.004 C 
ENDBRANCH  21  22
ENDBRANCH  20  21
ENDBRANCH  19  20
ENDBRANCH  18  19
ENDBRANCH  17  18
ENDBRANCH  16  17
ENDBRANCH  15  16
ENDBRANCH  14  15
ENDBRANCH   1  14
TORSDOF 15
