REMARK  3 active torsions:
REMARK  status: ('A' for Active; 'I' for Inactive)
REMARK       I    between atoms: C1_2  and  N2_4 
REMARK    1  A    between atoms: N2_4  and  N3_6 
REMARK       I    between atoms: N3_6  and  C2_8 
REMARK    2  A    between atoms: C2_8  and  C3_10 
REMARK    3  A    between atoms: C3_10  and  N4_12 
ROOT
HETATM    1  C3  UNL     1       0.813   0.853  -0.975  1.00  0.00     0.264 C 
HETATM    2  S1  UNL     1       0.983   0.008  -2.548  1.00  0.00    -0.059 SA
ENDROOT
BRANCH   1   3
HETATM    3  C2  UNL     1      -0.435   0.548  -0.257  1.00  0.00     0.270 C 
HETATM    4  N3  UNL     1      -1.683   0.765  -0.889  1.00  0.00    -0.264 N 
ATOM      5  H3  UNL     1      -1.703   1.133  -1.840  1.00  0.00     0.190 HD
HETATM    6  O2  UNL     1      -0.425   0.096   0.911  1.00  0.00    -0.268 OA
BRANCH   4   7
HETATM    7  N2  UNL     1      -2.893   0.485  -0.237  1.00  0.00    -0.251 N 
HETATM    8  C1  UNL     1      -3.173  -0.830   0.173  1.00  0.00     0.347 C 
HETATM    9  N1  UNL     1      -4.413  -1.090   0.837  1.00  0.00    -0.038 NA
HETATM   10  O1  UNL     1      -2.393  -1.795  -0.010  1.00  0.00    -0.249 OA
ATOM     11  H2  UNL     1      -3.566   1.231  -0.061  1.00  0.00     0.191 HD
ENDBRANCH   4   7
ENDBRANCH   1   3
BRANCH   1  12
HETATM   12  N4  UNL     1       1.935   0.473  -0.117  1.00  0.00    -0.237 N 
HETATM   13  C4  UNL     1       2.926   1.306   0.430  1.00  0.00     0.334 A 
HETATM   14  O3  UNL     1       3.052   2.546   0.294  1.00  0.00    -0.246 OA
HETATM   15  N5  UNL     1       3.810   0.517   1.196  1.00  0.00    -0.271 N 
HETATM   16  C5  UNL     1       3.360  -0.828   1.123  1.00  0.00     0.318 A 
ATOM     17  H5  UNL     1       4.625   0.852   1.709  1.00  0.00     0.174 HD
HETATM   18  O4  UNL     1       3.869  -1.857   1.668  1.00  0.00    -0.262 OA
HETATM   19  C6  UNL     1       2.168  -0.861   0.290  1.00  0.00     0.321 A 
HETATM   20  O5  UNL     1       1.468  -1.885  -0.018  1.00  0.00    -0.262 OA
ENDBRANCH   1  12
TORSDOF 3
