REMARK  12 active torsions:
REMARK  status: ('A' for Active; 'I' for Inactive)
REMARK    1  A    between atoms: C2_2  and  N1_3 
REMARK    2  A    between atoms: C2_2  and  C3_7 
REMARK    3  A    between atoms: C6_12  and  N3_13 
REMARK    4  A    between atoms: C11_27  and  N7_28 
REMARK    5  A    between atoms: N9_37  and  C15_39 
REMARK    6  A    between atoms: C15_39  and  C16_40 
REMARK       I    between atoms: C16_40  and  N10_42 
REMARK    7  A    between atoms: N10_42  and  C17_44 
REMARK    8  A    between atoms: C17_44  and  C18_45 
REMARK    9  A    between atoms: C17_44  and  C19_47 
REMARK   10  A    between atoms: C19_47  and  C20_48 
REMARK   11  A    between atoms: C20_48  and  C21_49 
REMARK   12  A    between atoms: C21_49  and  N11_50 
ROOT
HETATM    1  C3  UNL     1      -1.740  -2.966  -0.422  1.00  0.00     0.114 A 
HETATM    2  N2  UNL     1      -2.782  -2.196  -0.095  1.00  0.00    -0.341 N 
ATOM      3  H2  UNL     1      -3.669  -2.594   0.214  1.00  0.00     0.167 HD
HETATM    4  C4  UNL     1      -2.593  -0.843  -0.197  1.00  0.00     0.081 A 
HETATM    5  C5  UNL     1      -1.414  -0.290  -0.606  1.00  0.00     0.080 A 
HETATM    6  C6  UNL     1      -1.222   1.082  -0.710  1.00  0.00     0.115 A 
HETATM    7  N4  UNL     1      -2.301   1.887  -0.373  1.00  0.00    -0.339 N 
ATOM      8  H4  UNL     1      -2.199   2.900  -0.436  1.00  0.00     0.167 HD
HETATM    9  C7  UNL     1      -3.448   1.388   0.024  1.00  0.00     0.081 A 
HETATM   10  C8  UNL     1      -3.644   0.003   0.130  1.00  0.00     0.091 A 
HETATM   11  N5  UNL     1      -4.800  -0.539   0.530  1.00  0.00    -0.318 N 
ATOM     12  H5  UNL     1      -4.900  -1.552   0.593  1.00  0.00     0.169 HD
HETATM   13  C9  UNL     1      -5.821   0.261   0.846  1.00  0.00     0.274 A 
HETATM   14  O1  UNL     1      -6.935  -0.224   1.231  1.00  0.00    -0.266 OA
HETATM   15  C10 UNL     1      -5.708   1.630   0.768  1.00  0.00     0.135 A 
HETATM   16  N6  UNL     1      -6.733   2.433   1.084  1.00  0.00    -0.185 N 
ATOM     17  H6  UNL     1      -7.617   2.026   1.390  1.00  0.00     0.184 HD
HETATM   18  C11 UNL     1      -6.611   3.765   1.003  1.00  0.00     0.679 A 
HETATM   19  N8  UNL     1      -5.465   4.344   0.605  1.00  0.00    -0.156 N 
ATOM     20  H8  UNL     1      -5.400   5.361   0.553  1.00  0.00     0.187 HD
HETATM   21  C12 UNL     1      -4.385   3.574   0.270  1.00  0.00     0.274 A 
HETATM   22  O2  UNL     1      -3.385   4.191  -0.081  1.00  0.00    -0.267 OA
HETATM   23  C13 UNL     1      -4.509   2.221   0.352  1.00  0.00     0.094 A 
HETATM   24  C14 UNL     1      -0.337  -1.134  -0.941  1.00  0.00     0.119 A 
HETATM   25  N9  UNL     1       0.769  -0.602  -1.311  1.00  0.00    -0.367 N 
ATOM     26  H9  UNL     1       0.783   0.418  -1.333  1.00  0.00     0.161 HD
HETATM   27  N12 UNL     1      -0.556  -2.441  -0.831  1.00  0.00    -0.330 N 
ATOM     28  H12 UNL     1       0.203  -3.081  -1.065  1.00  0.00     0.168 HD
ENDROOT
BRANCH  25  29
HETATM   29  C15 UNL     1       1.981  -1.243  -1.696  1.00  0.00     0.224 C 
BRANCH  29  30
HETATM   30  C16 UNL     1       3.177  -0.780  -0.957  1.00  0.00     0.235 C 
HETATM   31  O3  UNL     1       4.269  -1.350  -1.314  1.00  0.00    -0.272 OA
HETATM   32  N10 UNL     1       3.143   0.194   0.046  1.00  0.00    -0.349 N 
ATOM     33  H10 UNL     1       2.246   0.611   0.295  1.00  0.00     0.163 HD
BRANCH  32  34
HETATM   34  C17 UNL     1       4.363   0.643   0.761  1.00  0.00     0.146 C 
BRANCH  34  35
HETATM   35  C18 UNL     1       4.780  -0.431   1.630  1.00  0.00     0.256 C 
HETATM   36  O4  UNL     1       4.212  -1.539   1.542  1.00  0.00    -0.305 OA
ENDBRANCH  34  35
BRANCH  34  37
HETATM   37  C19 UNL     1       5.255   1.338  -0.168  1.00  0.00     0.034 C 
BRANCH  37  38
HETATM   38  C20 UNL     1       6.529   1.864   0.330  1.00  0.00     0.029 C 
BRANCH  38  39
HETATM   39  C21 UNL     1       7.544   0.873   0.711  1.00  0.00     0.230 C 
BRANCH  39  40
HETATM   40  N11 UNL     1       8.777   1.536   1.184  1.00  0.00    -0.079 N 
ATOM     41 3H11 UNL     1       9.136   2.198   0.496  1.00  0.00     0.274 HD
ATOM     42 2H11 UNL     1       8.586   2.190   1.943  1.00  0.00     0.274 HD
ATOM     43 1H11 UNL     1       9.482   0.848   1.449  1.00  0.00     0.274 HD
ENDBRANCH  39  40
ENDBRANCH  38  39
ENDBRANCH  37  38
ENDBRANCH  34  37
ENDBRANCH  32  34
ENDBRANCH  29  30
ENDBRANCH  25  29
BRANCH   6  44
HETATM   44  N3  UNL     1      -0.184   1.554  -1.090  1.00  0.00    -0.385 N 
ATOM     45  H32 UNL     1       0.609   0.962  -1.338  1.00  0.00     0.157 HD
ATOM     46  H31 UNL     1      -0.043   2.561  -1.166  1.00  0.00     0.157 HD
ENDBRANCH   6  44
BRANCH   1  47
HETATM   47  C2  UNL     1      -1.818  -4.462  -0.357  1.00  0.00     0.246 C 
HETATM   48  C1  UNL     1      -3.085  -4.932   0.283  1.00  0.00     0.048 C 
BRANCH  47  49
HETATM   49  N1  UNL     1      -0.633  -5.001   0.280  1.00  0.00    -0.069 N 
ATOM     50  H13 UNL     1      -0.633  -4.801   1.280  1.00  0.00     0.275 HD
ATOM     51  H12 UNL     1      -0.668  -6.020   0.315  1.00  0.00     0.275 HD
ATOM     52  H11 UNL     1       0.231  -4.680  -0.157  1.00  0.00     0.275 HD
ENDBRANCH  47  49
ENDBRANCH   1  47
BRANCH  18  53
HETATM   53  N7  UNL     1      -7.594   4.548   1.304  1.00  0.00    -0.234 N 
ATOM     54  H72 UNL     1      -8.464   4.109   1.606  1.00  0.00     0.174 HD
ATOM     55  H71 UNL     1      -7.501   5.562   1.242  1.00  0.00     0.174 HD
ENDBRANCH  18  53
TORSDOF 12
