REMARK  9 active torsions:
REMARK  status: ('A' for Active; 'I' for Inactive)
REMARK    1  A    between atoms: N1_3  and  C4_5 
REMARK    2  A    between atoms: C4_5  and  C5_6 
REMARK    3  A    between atoms: C5_6  and  C6_7 
REMARK    4  A    between atoms: C9_10  and  C10_11 
REMARK    5  A    between atoms: C10_11  and  C11_12 
REMARK    6  A    between atoms: C11_12  and  N2_13 
REMARK    7  A    between atoms: N2_13  and  C14_16 
REMARK    8  A    between atoms: C14_16  and  C15_17 
REMARK    9  A    between atoms: C20_24  and  O1_25 
ROOT
HETATM    1  C1  UNL     1      -6.418  -3.127   0.800  1.00  0.00     0.037 C 
HETATM    2  C2  UNL     1      -7.161  -2.196   0.600  1.00  0.00    -0.004 C 
HETATM    3  N1  UNL     1      -8.001  -1.110   0.383  1.00  0.00    -0.346 N 
HETATM    4  C3  UNL     1      -8.666  -0.495   1.501  1.00  0.00     0.160 C 
ENDROOT
BRANCH   3   5
HETATM    5  C4  UNL     1      -8.186  -0.622  -0.956  1.00  0.00     0.136 C 
BRANCH   5   6
HETATM    6  C5  UNL     1      -7.597   0.714  -1.242  1.00  0.00     0.059 C 
BRANCH   6   7
HETATM    7  C6  UNL     1      -6.146   0.824  -1.081  1.00  0.00    -0.057 A 
HETATM    8  C7  UNL     1      -5.623   1.206   0.133  1.00  0.00     0.007 A 
HETATM    9  C8  UNL     1      -4.263   1.325   0.349  1.00  0.00     0.007 A 
HETATM   10  C9  UNL     1      -3.387   1.058  -0.671  1.00  0.00    -0.057 A 
HETATM   11  C27 UNL     1      -3.871   0.675  -1.896  1.00  0.00     0.007 A 
HETATM   12  C28 UNL     1      -5.227   0.561  -2.097  1.00  0.00     0.007 A 
BRANCH  10  13
HETATM   13  C10 UNL     1      -1.910   1.190  -0.423  1.00  0.00     0.066 C 
BRANCH  13  14
HETATM   14  C11 UNL     1      -1.403  -0.155   0.047  1.00  0.00     0.241 C 
BRANCH  14  15
HETATM   15  N2  UNL     1       0.004  -0.180   0.338  1.00  0.00    -0.070 N 
HETATM   16  C12 UNL     1       0.279  -1.487   0.953  1.00  0.00     0.272 C 
HETATM   17  C13 UNL     1       0.403   0.871   1.253  1.00  0.00     0.272 C 
BRANCH  15  18
HETATM   18  C14 UNL     1       0.750  -0.110  -0.877  1.00  0.00     0.282 C 
BRANCH  18  19
HETATM   19  C15 UNL     1       2.185   0.228  -0.648  1.00  0.00     0.011 A 
HETATM   20  C16 UNL     1       3.251  -0.601  -0.538  1.00  0.00     0.047 A 
HETATM   21  C17 UNL     1       4.464  -0.021  -0.324  1.00  0.00     0.051 A 
HETATM   22  N3  UNL     1       5.672  -0.665  -0.181  1.00  0.00    -0.354 N 
HETATM   23  C26 UNL     1       4.495   1.340  -0.240  1.00  0.00     0.033 A 
HETATM   24  C18 UNL     1       6.795   0.016   0.026  1.00  0.00     0.045 A 
ATOM     25  H3  UNL     1       5.706  -1.683  -0.235  1.00  0.00     0.166 HD
HETATM   26  C19 UNL     1       8.014  -0.646   0.170  1.00  0.00     0.067 A 
HETATM   27  C24 UNL     1       6.868   1.387   0.117  1.00  0.00    -0.008 A 
HETATM   28  C20 UNL     1       9.202  -0.000   0.386  1.00  0.00     0.070 A 
HETATM   29  C22 UNL     1       9.243   1.378   0.472  1.00  0.00     0.038 A 
HETATM   30  C23 UNL     1       8.046   2.065   0.333  1.00  0.00     0.016 A 
HETATM   31  C25 UNL     1       5.677   2.062  -0.022  1.00  0.00     0.034 A 
HETATM   32  S1  UNL     1       2.860   1.777  -0.458  1.00  0.00    -0.091 SA
BRANCH  28  33
HETATM   33  O1  UNL     1      10.405  -0.730   0.524  1.00  0.00    -0.356 OA
HETATM   34  C21 UNL     1      10.410  -2.142   0.442  1.00  0.00     0.210 C 
ENDBRANCH  28  33
ENDBRANCH  18  19
ENDBRANCH  15  18
ENDBRANCH  14  15
ENDBRANCH  13  14
ENDBRANCH  10  13
ENDBRANCH   6   7
ENDBRANCH   5   6
ENDBRANCH   3   5
TORSDOF 9
