REMARK  4 active torsions:
REMARK  status: ('A' for Active; 'I' for Inactive)
REMARK    1  A    between atoms: C2_2  and  C3_3 
REMARK    2  A    between atoms: C3_3  and  O1_4 
REMARK    3  A    between atoms: C12_14  and  O2_16 
REMARK    4  A    between atoms: C19_23  and  O3_24 
ROOT
HETATM    1  C3  UNL     1       1.598  -0.647  -0.214  1.00  0.00     0.114 C 
HETATM    2  C4  UNL     1       0.238  -0.438  -0.922  1.00  0.00    -0.011 C 
HETATM    3  C5  UNL     1       0.278   0.872  -1.519  1.00  0.00    -0.013 C 
HETATM    4  C6  UNL     1      -0.893   1.723  -1.759  1.00  0.00     0.061 C 
HETATM    5  C7  UNL     1      -1.264   2.417  -0.482  1.00  0.00    -0.084 C 
HETATM    6  C8  UNL     1      -1.857   3.773  -0.644  1.00  0.00     0.043 C 
HETATM    7  C9  UNL     1      -1.188   2.098   0.804  1.00  0.00    -0.019 C 
HETATM    8  C10 UNL     1      -0.672   0.851   1.517  1.00  0.00     0.022 C 
HETATM    9  C11 UNL     1       0.742   0.879   1.665  1.00  0.00     0.050 C 
HETATM   10  C12 UNL     1       1.769   0.012   1.058  1.00  0.00     0.090 C 
HETATM   11  C13 UNL     1       3.084   0.829   1.146  1.00  0.00     0.049 C 
HETATM   12  C14 UNL     1      -1.470  -0.264   0.972  1.00  0.00    -0.002 C 
HETATM   13  C15 UNL     1      -2.895   0.257   0.792  1.00  0.00     0.019 C 
HETATM   14  C16 UNL     1      -1.669  -1.337   2.066  1.00  0.00     0.013 C 
HETATM   15  C17 UNL     1      -2.128  -2.468   1.118  1.00  0.00     0.004 C 
HETATM   16  C18 UNL     1      -0.837  -2.392   0.254  1.00  0.00     0.044 C 
HETATM   17  C19 UNL     1      -0.938  -0.972  -0.234  1.00  0.00     0.094 C 
ENDROOT
BRANCH   1  18
HETATM   18  C2  UNL     1       2.614  -0.340  -1.322  1.00  0.00     0.041 C 
HETATM   19  C1  UNL     1       4.008  -0.833  -0.980  1.00  0.00     0.009 C 
ENDBRANCH   1  18
BRANCH   1  20
HETATM   20  O1  UNL     1       1.783  -2.062  -0.223  1.00  0.00    -0.382 OA
ATOM     21  H1  UNL     1       1.154  -2.252   0.463  1.00  0.00     0.211 HD
ENDBRANCH   1  20
BRANCH  10  22
HETATM   22  O2  UNL     1       2.057  -1.016   2.008  1.00  0.00    -0.387 OA
ATOM     23  H2  UNL     1       2.170  -0.582   2.846  1.00  0.00     0.210 HD
ENDBRANCH  10  22
BRANCH  17  24
HETATM   24  O3  UNL     1      -1.994  -1.010  -1.137  1.00  0.00    -0.380 OA
HETATM   25  C20 UNL     1      -1.926  -1.754  -2.240  1.00  0.00     0.203 C 
ENDBRANCH  17  24
TORSDOF 4
