REMARK  5 active torsions:
REMARK  status: ('A' for Active; 'I' for Inactive)
REMARK    1  A    between atoms: N1_2  and  C4_5 
REMARK    2  A    between atoms: C4_5  and  C5_6 
REMARK    3  A    between atoms: C7_8  and  O1_9 
REMARK    4  A    between atoms: C8_11  and  O2_12 
REMARK    5  A    between atoms: C9_14  and  N2_15 
ROOT
HETATM    1  C5  UNL     1       0.335   0.549   0.567  1.00  0.00     0.047 C 
HETATM    2  C6  UNL     1       1.451   1.556   0.249  1.00  0.00     0.043 C 
HETATM    3  C7  UNL     1       2.745   0.829   0.513  1.00  0.00     0.149 C 
HETATM    4  C8  UNL     1       2.444  -0.618   0.703  1.00  0.00     0.177 C 
HETATM    5  C9  UNL     1       0.972  -0.802   0.376  1.00  0.00     0.220 C 
ENDROOT
BRANCH   1   6
HETATM    6  C4  UNL     1      -0.822   0.837  -0.323  1.00  0.00     0.243 C 
BRANCH   6   7
HETATM    7  N1  UNL     1      -1.976   0.025  -0.191  1.00  0.00    -0.078 N 
HETATM    8  C1  UNL     1      -1.982  -0.917   0.886  1.00  0.00     0.271 C 
HETATM    9  C2  UNL     1      -3.168   0.877  -0.013  1.00  0.00     0.271 C 
HETATM   10  C3  UNL     1      -2.258  -0.755  -1.408  1.00  0.00     0.271 C 
ENDBRANCH   6   7
ENDBRANCH   1   6
BRANCH   5  11
HETATM   11  N2  UNL     1       0.914  -1.299  -0.963  1.00  0.00    -0.072 N 
ATOM     12  H23 UNL     1      -0.050  -1.310  -1.297  1.00  0.00     0.274 HD
ATOM     13  H22 UNL     1       1.316  -0.622  -1.611  1.00  0.00     0.274 HD
ATOM     14  H21 UNL     1       1.345  -2.214  -1.092  1.00  0.00     0.274 HD
ENDBRANCH   5  11
BRANCH   3  15
HETATM   15  O1  UNL     1       3.685   1.058  -0.508  1.00  0.00    -0.393 OA
ATOM     16  H1  UNL     1       4.500   0.600  -0.342  1.00  0.00     0.210 HD
ENDBRANCH   3  15
BRANCH   4  17
HETATM   17  O2  UNL     1       3.250  -1.369  -0.150  1.00  0.00    -0.391 OA
ATOM     18  H2  UNL     1       3.058  -2.291  -0.029  1.00  0.00     0.210 HD
ENDBRANCH   4  17
TORSDOF 5
