REMARK  4 active torsions:
REMARK  status: ('A' for Active; 'I' for Inactive)
REMARK    1  A    between atoms: C2_3  and  N2_4 
REMARK    2  A    between atoms: C3_5  and  N3_6 
REMARK    3  A    between atoms: N3_6  and  C4_8 
REMARK    4  A    between atoms: C10_16  and  C11_17 
ROOT
HETATM    1  N1  UNL     1       0.305  -5.218   0.985  1.00  0.00    -0.191 NA
HETATM    2  C1  UNL     1       0.590  -4.193   0.493  1.00  0.00     0.106 C 
HETATM    3  C2  UNL     1       0.994  -2.964  -0.102  1.00  0.00     0.210 C 
ENDROOT
BRANCH   3   4
HETATM    4  N2  UNL     1      -0.052  -2.025  -0.387  1.00  0.00    -0.133 N 
HETATM    5  C3  UNL     1       0.338  -0.749  -0.984  1.00  0.00     0.683 A 
HETATM    6  N4  UNL     1      -0.538   0.103  -1.236  1.00  0.00    -0.213 N 
HETATM    7  C10 UNL     1      -1.960   0.042  -1.016  1.00  0.00     0.171 A 
ATOM      8  H4  UNL     1      -0.198   0.967  -1.659  1.00  0.00     0.178 HD
HETATM    9  C17 UNL     1      -2.395  -1.222  -0.468  1.00  0.00     0.039 A 
HETATM   10  C18 UNL     1      -3.726  -1.496  -0.245  1.00  0.00     0.060 A 
HETATM   11  C21 UNL     1      -1.426  -2.190  -0.155  1.00  0.00     0.139 A 
HETATM   12  N5  UNL     1      -4.783  -0.571  -0.578  1.00  0.00    -0.102 NA
HETATM   13  C19 UNL     1      -4.059  -2.725   0.286  1.00  0.00     0.044 A 
HETATM   14  C20 UNL     1      -3.125  -3.678   0.597  1.00  0.00     0.091 A 
HETATM   15  N6  UNL     1      -1.846  -3.358   0.358  1.00  0.00    -0.351 N 
ATOM     16  H6  UNL     1      -1.136  -4.055   0.583  1.00  0.00     0.166 HD
BRANCH   5  17
HETATM   17  N3  UNL     1       1.735  -0.593  -1.232  1.00  0.00    -0.221 N 
ATOM     18  H3  UNL     1       2.208  -1.305  -1.788  1.00  0.00     0.178 HD
BRANCH  17  19
HETATM   19  C4  UNL     1       2.509   0.509  -0.742  1.00  0.00     0.099 C 
HETATM   20  C5  UNL     1       2.509   0.605   0.763  1.00  0.00     0.026 C 
HETATM   21  C6  UNL     1       3.417   1.697   1.218  1.00  0.00     0.002 C 
HETATM   22  C7  UNL     1       4.793   1.644   0.640  1.00  0.00     0.000 C 
HETATM   23  C8  UNL     1       4.942   0.387  -0.162  1.00  0.00     0.002 C 
HETATM   24  C9  UNL     1       3.909   0.416  -1.264  1.00  0.00     0.026 C 
ENDBRANCH  17  19
ENDBRANCH   5  17
BRANCH   7  25
HETATM   25  C11 UNL     1      -2.324   1.250  -0.215  1.00  0.00    -0.030 A 
HETATM   26  C12 UNL     1      -2.113   2.462  -0.869  1.00  0.00     0.009 A 
HETATM   27  C13 UNL     1      -2.361   3.681  -0.276  1.00  0.00     0.001 A 
HETATM   28  C14 UNL     1      -2.837   3.694   1.018  1.00  0.00     0.000 A 
HETATM   29  C15 UNL     1      -3.044   2.482   1.663  1.00  0.00     0.001 A 
HETATM   30  C16 UNL     1      -2.789   1.264   1.053  1.00  0.00     0.009 A 
ENDBRANCH   7  25
ENDBRANCH   3   4
TORSDOF 4
