REMARK  9 active torsions:
REMARK  status: ('A' for Active; 'I' for Inactive)
REMARK    1  A    between atoms: S1_2  and  C1_4 
REMARK    2  A    between atoms: S1_2  and  N3_17 
REMARK    3  A    between atoms: C1_4  and  C2_5 
REMARK    4  A    between atoms: C2_5  and  N1_6 
REMARK    5  A    between atoms: N1_6  and  C3_9 
REMARK    6  A    between atoms: C3_9  and  C4_10 
REMARK    7  A    between atoms: N3_17  and  C9_19 
REMARK    8  A    between atoms: C9_19  and  C10_20 
REMARK    9  A    between atoms: C10_20  and  C11_21 
ROOT
HETATM    1  O1  UNL     1      -0.417   1.275  -3.710  1.00  0.00    -0.206 OA
HETATM    2  S1  UNL     1       0.259   0.403  -2.690  1.00  0.00     0.228 S 
HETATM    3  O2  UNL     1       0.640  -0.888  -3.394  1.00  0.00    -0.206 OA
ENDROOT
BRANCH   2   4
HETATM    4  C1  UNL     1      -0.881   0.075  -1.362  1.00  0.00     0.190 C 
BRANCH   4   5
HETATM    5  C2  UNL     1      -2.081  -0.640  -1.899  1.00  0.00     0.249 C 
BRANCH   5   6
HETATM    6  N1  UNL     1      -3.072  -0.966  -0.928  1.00  0.00    -0.070 N 
ATOM      7  H12 UNL     1      -3.746  -1.630  -1.308  1.00  0.00     0.277 HD
ATOM      8  H11 UNL     1      -2.674  -1.537  -0.183  1.00  0.00     0.277 HD
BRANCH   6   9
HETATM    9  C3  UNL     1      -3.746   0.192  -0.382  1.00  0.00     0.270 C 
BRANCH   9  10
HETATM   10  C4  UNL     1      -4.770  -0.216   0.615  1.00  0.00    -0.030 A 
HETATM   11  C5  UNL     1      -5.094  -1.546   0.820  1.00  0.00     0.026 A 
HETATM   12  C6  UNL     1      -6.043  -1.913   1.748  1.00  0.00     0.088 A 
HETATM   13  N2  UNL     1      -6.671  -0.976   2.469  1.00  0.00    -0.375 N 
HETATM   14  C7  UNL     1      -6.370   0.323   2.285  1.00  0.00     0.088 A 
ATOM     15  H2  UNL     1      -7.375  -1.246   3.156  1.00  0.00     0.164 HD
HETATM   16  C8  UNL     1      -5.425   0.717   1.364  1.00  0.00     0.026 A 
ENDBRANCH   9  10
ENDBRANCH   6   9
ENDBRANCH   5   6
ENDBRANCH   4   5
ENDBRANCH   2   4
BRANCH   2  17
HETATM   17  N3  UNL     1       1.652   1.224  -2.145  1.00  0.00    -0.319 N 
ATOM     18  H3  UNL     1       1.918   2.152  -2.474  1.00  0.00     0.172 HD
BRANCH  17  19
HETATM   19  C9  UNL     1       2.422   0.477  -1.170  1.00  0.00     0.136 C 
BRANCH  19  20
HETATM   20  C10 UNL     1       3.610   1.354  -0.805  1.00  0.00     0.058 C 
BRANCH  20  21
HETATM   21  C11 UNL     1       4.489   0.706   0.201  1.00  0.00    -0.057 A 
HETATM   22  C12 UNL     1       4.312   0.873   1.563  1.00  0.00     0.007 A 
HETATM   23  C13 UNL     1       5.169   0.238   2.441  1.00  0.00     0.001 A 
HETATM   24  C14 UNL     1       6.204  -0.562   2.004  1.00  0.00     0.000 A 
HETATM   25  C15 UNL     1       6.383  -0.731   0.642  1.00  0.00     0.001 A 
HETATM   26  C16 UNL     1       5.530  -0.099  -0.208  1.00  0.00     0.007 A 
ENDBRANCH  20  21
ENDBRANCH  19  20
ENDBRANCH  17  19
ENDBRANCH   2  17
TORSDOF 9
