REMARK  6 active torsions:
REMARK  status: ('A' for Active; 'I' for Inactive)
REMARK    1  A    between atoms: N1_2  and  C3_4 
REMARK    2  A    between atoms: C3_4  and  C4_5 
REMARK    3  A    between atoms: C4_5  and  O1_6 
REMARK    4  A    between atoms: C4_5  and  N2_8 
REMARK    5  A    between atoms: N2_8  and  N3_9 
REMARK       I    between atoms: N3_9  and  C5_11 
REMARK       I    between atoms: C5_11  and  N4_13 
REMARK    6  A    between atoms: N4_13  and  N5_15 
REMARK       I    between atoms: N5_15  and  C6_17 
ROOT
HETATM    1  N3  UNL     1       1.348   0.176   0.504  1.00  0.00    -0.181 N 
ATOM      2  H3  UNL     1       1.436  -0.466   1.291  1.00  0.00     0.207 HD
HETATM    3  C5  UNL     1       2.656   0.456  -0.046  1.00  0.00     0.363 C 
HETATM    4  O2  UNL     1       2.621   1.424  -0.899  1.00  0.00    -0.243 OA
HETATM    5  N4  UNL     1       3.621  -0.338   0.443  1.00  0.00    -0.247 N 
ATOM      6  H4  UNL     1       3.121  -0.989   1.048  1.00  0.00     0.192 HD
ENDROOT
BRANCH   1   7
HETATM    7  N2  UNL     1       0.119   0.471   0.325  1.00  0.00    -0.295 NA
BRANCH   7   8
HETATM    8  C4  UNL     1      -1.105   0.805   0.143  1.00  0.00     0.286 C 
BRANCH   8   9
HETATM    9  C3  UNL     1      -2.445   0.262  -0.025  1.00  0.00     0.430 C 
HETATM   10  C7  UNL     1      -3.539   1.269   0.020  1.00  0.00     0.116 C 
HETATM   11  C8  UNL     1      -3.300   1.473  -1.516  1.00  0.00     0.281 C 
HETATM   12  N8  UNL     1      -2.736   0.188  -1.534  1.00  0.00     0.134 N 
HETATM   13  C9  UNL     1      -1.530  -0.044  -2.265  1.00  0.00     0.314 C 
BRANCH   9  14
HETATM   14  N1  UNL     1      -2.682  -1.081   0.400  1.00  0.00     0.130 N 
HETATM   15  C1  UNL     1      -3.762  -1.717  -0.380  1.00  0.00     0.313 C 
HETATM   16  C2  UNL     1      -2.938  -1.349   1.723  1.00  0.00     0.313 C 
ENDBRANCH   9  14
ENDBRANCH   8   9
BRANCH   8  17
HETATM   17  O1  UNL     1      -1.331   2.245   0.001  1.00  0.00    -0.334 OA
ATOM     18  H1  UNL     1      -0.456   2.599   0.111  1.00  0.00     0.220 HD
ENDBRANCH   8  17
ENDBRANCH   7   8
ENDBRANCH   1   7
BRANCH   5  19
HETATM   19  N5  UNL     1       4.859  -0.704   0.543  1.00  0.00    -0.270 N 
HETATM   20  C6  UNL     1       6.083  -0.116   0.683  1.00  0.00     0.200 C 
HETATM   21  N6  UNL     1       7.055  -0.813   0.039  1.00  0.00    -0.372 N 
HETATM   22  N7  UNL     1       6.573   1.033   1.343  1.00  0.00    -0.062 NA
ATOM     23  H62 UNL     1       6.701  -1.643  -0.438  1.00  0.00     0.158 HD
ATOM     24  H61 UNL     1       7.970  -0.374   0.144  1.00  0.00     0.158 HD
ATOM     25  H5  UNL     1       4.944  -1.720   0.507  1.00  0.00     0.189 HD
ENDBRANCH   5  19
TORSDOF 6
