REMARK  8 active torsions:
REMARK  status: ('A' for Active; 'I' for Inactive)
REMARK    1  A    between atoms: N1_1  and  N2_4 
REMARK    2  A    between atoms: C1_6  and  N3_7 
REMARK    3  A    between atoms: C1_6  and  C9_25 
REMARK    4  A    between atoms: N3_7  and  N4_9 
REMARK    5  A    between atoms: N4_9  and  C2_11 
REMARK    6  A    between atoms: C2_11  and  N5_13 
REMARK    7  A    between atoms: N5_13  and  C3_15 
REMARK    8  A    between atoms: C8_20  and  N6_21 
ROOT
HETATM    1  C2  UNL     1       0.910   0.373  -0.925  1.00  0.00     0.186 C 
HETATM    2  S1  UNL     1       0.914   1.748  -0.052  1.00  0.00    -0.040 SA
ENDROOT
BRANCH   1   3
HETATM    3  N4  UNL     1       2.160  -0.156  -1.360  1.00  0.00    -0.275 N 
ATOM      4  H4  UNL     1       2.167  -1.010  -1.918  1.00  0.00     0.189 HD
BRANCH   3   5
HETATM    5  N3  UNL     1       3.372   0.455  -1.048  1.00  0.00    -0.278 N 
ATOM      6  H3  UNL     1       3.731   1.161  -1.691  1.00  0.00     0.189 HD
BRANCH   5   7
HETATM    7  C1  UNL     1       4.133   0.160   0.099  1.00  0.00     0.200 C 
HETATM    8  N2  UNL     1       5.004   1.004   0.521  1.00  0.00    -0.287 N 
ATOM      9  H2  UNL     1       5.559   0.797   1.351  1.00  0.00     0.188 HD
BRANCH   8  10
HETATM   10  N1  UNL     1       5.186   2.205  -0.163  1.00  0.00    -0.343 N 
ATOM     11  H12 UNL     1       4.623   2.397  -0.992  1.00  0.00     0.176 HD
ATOM     12  H11 UNL     1       5.878   2.875   0.172  1.00  0.00     0.176 HD
ENDBRANCH   8  10
BRANCH   7  13
HETATM   13  C9  UNL     1       3.942  -1.093   0.812  1.00  0.00     0.301 C 
HETATM   14  N7  UNL     1       3.011  -2.078   0.423  1.00  0.00    -0.054 NA
HETATM   15  O1  UNL     1       4.635  -1.350   1.847  1.00  0.00    -0.268 OA
ENDBRANCH   7  13
ENDBRANCH   5   7
ENDBRANCH   3   5
ENDBRANCH   1   3
BRANCH   1  16
HETATM   16  N5  UNL     1      -0.327  -0.239  -1.236  1.00  0.00    -0.359 N 
ATOM     17  H5  UNL     1      -0.343  -1.090  -1.799  1.00  0.00     0.162 HD
BRANCH  16  18
HETATM   18  C3  UNL     1      -1.557   0.325  -0.768  1.00  0.00     0.114 C 
HETATM   19  C4  UNL     1      -2.736  -0.398  -1.381  1.00  0.00     0.027 C 
HETATM   20  C5  UNL     1      -4.047  -0.054  -0.773  1.00  0.00     0.002 C 
HETATM   21  C6  UNL     1      -4.062   0.331   0.644  1.00  0.00     0.002 C 
HETATM   22  C7  UNL     1      -2.796   0.932   1.197  1.00  0.00     0.035 C 
HETATM   23  C8  UNL     1      -1.657   0.036   0.732  1.00  0.00     0.206 C 
BRANCH  23  24
HETATM   24  N6  UNL     1      -2.173  -1.336   0.885  1.00  0.00    -0.073 N 
ATOM     25  H63 UNL     1      -3.053  -1.488   0.391  1.00  0.00     0.274 HD
ATOM     26  H62 UNL     1      -1.617  -2.028   0.383  1.00  0.00     0.274 HD
ATOM     27  H61 UNL     1      -2.240  -1.529   1.884  1.00  0.00     0.274 HD
ENDBRANCH  23  24
ENDBRANCH  16  18
ENDBRANCH   1  16
TORSDOF 8
