REMARK  13 active torsions:
REMARK  status: ('A' for Active; 'I' for Inactive)
REMARK    1  A    between atoms: O1_2  and  C2_3 
REMARK    2  A    between atoms: C2_3  and  C3_5 
REMARK    3  A    between atoms: C3_5  and  N1_6 
REMARK    4  A    between atoms: C3_5  and  C24_38 
REMARK       I    between atoms: N1_6  and  C4_8 
REMARK    5  A    between atoms: C4_8  and  C5_10 
REMARK    6  A    between atoms: C5_10  and  N2_11 
REMARK    7  A    between atoms: C5_10  and  C21_35 
REMARK       I    between atoms: N2_11  and  C6_13 
REMARK    8  A    between atoms: C6_13  and  C7_15 
REMARK    9  A    between atoms: C7_15  and  C8_16 
REMARK   10  A    between atoms: C7_15  and  N3_20 
REMARK   11  A    between atoms: C8_16  and  C9_17 
REMARK       I    between atoms: N3_20  and  C12_21 
REMARK   12  A    between atoms: C12_21  and  O6_23 
REMARK   13  A    between atoms: O6_23  and  C13_24 
ROOT
HETATM    1  N2  UNL     1       1.317  -0.386   1.012  1.00  0.00    -0.345 N 
ATOM      2  H2  UNL     1       1.312  -0.370   2.032  1.00  0.00     0.163 HD
HETATM    3  C6  UNL     1       0.118  -0.014   0.392  1.00  0.00     0.254 C 
HETATM    4  O4  UNL     1       0.015   0.002  -0.846  1.00  0.00    -0.270 OA
ENDROOT
BRANCH   3   5
HETATM    5  C7  UNL     1      -1.105   0.388   1.211  1.00  0.00     0.261 C 
BRANCH   5   6
HETATM    6  C8  UNL     1      -1.379  -0.645   2.256  1.00  0.00     0.053 C 
BRANCH   6   7
HETATM    7  C9  UNL     1      -1.657  -2.027   1.848  1.00  0.00    -0.019 C 
HETATM    8  C10 UNL     1      -1.857  -2.804   3.181  1.00  0.00     0.009 C 
HETATM    9  C11 UNL     1      -2.964  -2.256   1.114  1.00  0.00     0.009 C 
ENDBRANCH   6   7
ENDBRANCH   5   6
BRANCH   5  10
HETATM   10  N3  UNL     1      -2.117   0.800   0.371  1.00  0.00    -0.375 NA
HETATM   11  C12 UNL     1      -3.103   1.215  -0.450  1.00  0.00     0.435 C 
HETATM   12  O5  UNL     1      -3.315   2.391  -0.910  1.00  0.00    -0.221 OA
BRANCH  11  13
HETATM   13  O6  UNL     1      -4.108   0.323  -0.941  1.00  0.00    -0.287 OA
BRANCH  13  14
HETATM   14  C13 UNL     1      -5.143   0.756  -1.790  1.00  0.00     0.147 C 
HETATM   15  C14 UNL     1      -5.158  -0.127  -3.013  1.00  0.00     0.136 C 
HETATM   16  C15 UNL     1      -6.191   0.247  -4.003  1.00  0.00     0.224 C 
HETATM   17  O7  UNL     1      -5.796   0.303  -5.196  1.00  0.00    -0.273 OA
HETATM   18  N4  UNL     1      -7.552   0.543  -3.762  1.00  0.00    -0.335 N 
HETATM   19  C16 UNL     1      -8.134   1.069  -2.749  1.00  0.00    -0.014 C 
ATOM     20  H4  UNL     1      -8.179   0.295  -4.527  1.00  0.00     0.168 HD
HETATM   21  C17 UNL     1      -9.603   1.211  -2.894  1.00  0.00     0.063 C 
HETATM   22  C18 UNL     1      -7.513   1.536  -1.481  1.00  0.00     0.059 C 
HETATM   23  C19 UNL     1      -6.431   0.606  -0.990  1.00  0.00     0.017 C 
HETATM   24  C20 UNL     1      -6.124   0.997   0.440  1.00  0.00     0.013 C 
ENDBRANCH  13  14
ENDBRANCH  11  13
ENDBRANCH   5  10
ENDBRANCH   3   5
BRANCH   1  25
HETATM   25  C5  UNL     1       2.547  -0.785   0.404  1.00  0.00     0.180 C 
BRANCH  25  26
HETATM   26  C4  UNL     1       3.546   0.340   0.410  1.00  0.00     0.241 C 
HETATM   27  N1  UNL     1       4.814   0.141  -0.096  1.00  0.00    -0.345 N 
ATOM     28  H1  UNL     1       5.024  -0.786  -0.466  1.00  0.00     0.163 HD
HETATM   29  O3  UNL     1       3.216   1.464   0.881  1.00  0.00    -0.271 OA
BRANCH  27  30
HETATM   30  C3  UNL     1       5.875   1.127  -0.151  1.00  0.00     0.187 C 
BRANCH  30  31
HETATM   31  C2  UNL     1       6.980   0.810   0.767  1.00  0.00     0.281 C 
HETATM   32  O2  UNL     1       7.008  -0.214   1.494  1.00  0.00    -0.263 OA
BRANCH  31  33
HETATM   33  O1  UNL     1       8.052   1.678   0.848  1.00  0.00    -0.325 OA
HETATM   34  C1  UNL     1       9.160   1.451   1.709  1.00  0.00     0.213 C 
ENDBRANCH  31  33
ENDBRANCH  30  31
BRANCH  30  35
HETATM   35  C24 UNL     1       6.281   1.392  -1.562  1.00  0.00     0.010 C 
HETATM   36  C25 UNL     1       6.987   0.229  -2.208  1.00  0.00     0.012 C 
HETATM   37  C26 UNL     1       7.158   2.608  -1.746  1.00  0.00     0.012 C 
ENDBRANCH  30  35
ENDBRANCH  27  30
ENDBRANCH  25  26
BRANCH  25  38
HETATM   38  C21 UNL     1       3.170  -1.936   1.123  1.00  0.00     0.009 C 
HETATM   39  C22 UNL     1       2.326  -3.165   1.233  1.00  0.00     0.012 C 
HETATM   40  C23 UNL     1       3.719  -1.527   2.483  1.00  0.00     0.012 C 
ENDBRANCH  25  38
ENDBRANCH   1  25
TORSDOF 13
