REMARK  10 active torsions:
REMARK  status: ('A' for Active; 'I' for Inactive)
REMARK    1  A    between atoms: N1_1  and  C1_4 
REMARK    2  A    between atoms: C2_7  and  N3_8 
REMARK    3  A    between atoms: N5_15  and  C5_16 
REMARK    4  A    between atoms: C9_22  and  C10_23 
REMARK    5  A    between atoms: N8_26  and  C11_27 
REMARK    6  A    between atoms: C11_27  and  C12_28 
REMARK    7  A    between atoms: C12_28  and  O1_29 
REMARK    8  A    between atoms: N9_35  and  C16_36 
REMARK    9  A    between atoms: C16_36  and  C17_37 
REMARK   10  A    between atoms: C17_37  and  N10_38 
ROOT
HETATM    1  C1  UNL     1       5.769  -2.220   0.633  1.00  0.00     0.679 A 
HETATM    2  N2  UNL     1       4.879  -3.207   0.802  1.00  0.00    -0.175 N 
ATOM      3  H2  UNL     1       5.219  -4.138   1.045  1.00  0.00     0.186 HD
HETATM    4  C2  UNL     1       3.533  -3.014   0.661  1.00  0.00     0.146 A 
HETATM    5  C3  UNL     1       3.071  -1.762   0.335  1.00  0.00     0.145 A 
HETATM    6  C4  UNL     1       4.018  -0.773   0.170  1.00  0.00     0.171 A 
HETATM    7  N4  UNL     1       5.345  -0.985   0.313  1.00  0.00    -0.174 N 
ATOM      8  H4  UNL     1       6.011  -0.224   0.181  1.00  0.00     0.186 HD
HETATM    9  N5  UNL     1       3.402   0.372  -0.142  1.00  0.00    -0.160 N 
HETATM   10  C8  UNL     1       2.075   0.133  -0.179  1.00  0.00     0.694 A 
HETATM   11  N6  UNL     1       0.895   0.712  -0.398  1.00  0.00    -0.186 N 
ATOM     12  H6  UNL     1       0.755   1.693  -0.638  1.00  0.00     0.184 HD
HETATM   13  C9  UNL     1      -0.077  -0.195  -0.254  1.00  0.00     0.111 A 
HETATM   14  C18 UNL     1       0.577  -1.394   0.073  1.00  0.00     0.149 A 
HETATM   15  N11 UNL     1       1.883  -1.180   0.115  1.00  0.00    -0.148 N 
ENDROOT
BRANCH  13  16
HETATM   16  C10 UNL     1      -1.515  -0.066  -0.386  1.00  0.00     0.155 A 
HETATM   17  N7  UNL     1      -2.400  -1.065  -0.214  1.00  0.00    -0.277 N 
HETATM   18  N8  UNL     1      -3.624  -0.613  -0.407  1.00  0.00    -0.238 N 
ATOM     19  H7  UNL     1      -2.161  -2.026   0.029  1.00  0.00     0.189 HD
HETATM   20  C15 UNL     1      -3.519   0.690  -0.706  1.00  0.00     0.345 A 
HETATM   21  O2  UNL     1      -4.504   1.430  -0.950  1.00  0.00    -0.245 OA
HETATM   22  N9  UNL     1      -2.196   1.041  -0.694  1.00  0.00    -0.279 N 
BRANCH  18  23
HETATM   23  C11 UNL     1      -4.828  -1.421  -0.303  1.00  0.00     0.192 C 
BRANCH  23  24
HETATM   24  C12 UNL     1      -5.382  -1.410   1.093  1.00  0.00     0.076 A 
HETATM   25  C13 UNL     1      -6.835  -1.707   1.293  1.00  0.00     0.042 A 
HETATM   26  C14 UNL     1      -6.354  -0.320   1.501  1.00  0.00     0.042 A 
BRANCH  24  27
HETATM   27  O1  UNL     1      -4.501  -1.906   2.052  1.00  0.00    -0.388 OA
ATOM     28  H1  UNL     1      -4.851  -1.899   2.935  1.00  0.00     0.210 HD
ENDBRANCH  24  27
ENDBRANCH  23  24
ENDBRANCH  18  23
BRANCH  22  29
HETATM   29  C16 UNL     1      -1.706   2.360  -0.969  1.00  0.00     0.162 C 
BRANCH  29  30
HETATM   30  C17 UNL     1      -1.398   2.612  -2.422  1.00  0.00     0.250 C 
BRANCH  30  31
HETATM   31  N10 UNL     1      -0.917   3.962  -2.557  1.00  0.00    -0.078 N 
ATOM     32 3H10 UNL     1      -1.563   4.649  -2.168  1.00  0.00     0.274 HD
ATOM     33 2H10 UNL     1      -0.122   4.158  -1.948  1.00  0.00     0.274 HD
ATOM     34 1H10 UNL     1      -0.708   4.133  -3.541  1.00  0.00     0.274 HD
ENDBRANCH  30  31
ENDBRANCH  29  30
ENDBRANCH  22  29
ENDBRANCH  13  16
BRANCH   9  35
HETATM   35  C5  UNL     1       3.995   1.663  -0.402  1.00  0.00     0.110 A 
HETATM   36  C6  UNL     1       4.997   2.263   0.493  1.00  0.00     0.028 A 
HETATM   37  C7  UNL     1       3.568   2.741   0.586  1.00  0.00     0.028 A 
ENDBRANCH   9  35
BRANCH   4  38
HETATM   38  N3  UNL     1       2.719  -3.965   0.827  1.00  0.00    -0.383 N 
ATOM     39  H32 UNL     1       3.062  -4.895   1.069  1.00  0.00     0.157 HD
ATOM     40  H31 UNL     1       1.715  -3.821   0.722  1.00  0.00     0.157 HD
ENDBRANCH   4  38
BRANCH   1  41
HETATM   41  N1  UNL     1       7.049  -2.414   0.769  1.00  0.00    -0.234 N 
ATOM     42  H12 UNL     1       7.371  -3.351   1.012  1.00  0.00     0.174 HD
ATOM     43  H11 UNL     1       7.727  -1.663   0.640  1.00  0.00     0.174 HD
ENDBRANCH   1  41
TORSDOF 10
