REMARK  6 active torsions:
REMARK  status: ('A' for Active; 'I' for Inactive)
REMARK    1  A    between atoms: O1_1  and  C1_3 
REMARK    2  A    between atoms: C1_3  and  C2_4 
REMARK    3  A    between atoms: C5_8  and  C6_9 
REMARK    4  A    between atoms: C6_9  and  O2_10 
REMARK    5  A    between atoms: C8_13  and  C9_14 
REMARK    6  A    between atoms: C9_14  and  C10_15 
ROOT
HETATM    1  C1  UNL     1       1.838  -0.688  -0.815  1.00  0.00     0.118 C 
HETATM    2  N1  UNL     1       0.725   0.033  -0.501  1.00  0.00    -0.348 N 
HETATM    3  C5  UNL     1       0.739   1.508  -0.767  1.00  0.00     0.111 C 
HETATM    4  C7  UNL     1       0.392   1.935   0.642  1.00  0.00     0.035 C 
HETATM    5  C8  UNL     1      -0.280   0.724   1.315  1.00  0.00     0.022 C 
HETATM    6  C11 UNL     1      -0.591  -0.048   0.054  1.00  0.00     0.049 C 
HETATM    7  C12 UNL     1      -1.597   0.915  -0.590  1.00  0.00     0.059 C 
HETATM    8  C13 UNL     1      -2.253   0.269  -1.771  1.00  0.00     0.235 C 
HETATM    9  N2  UNL     1      -3.231  -0.662  -1.197  1.00  0.00    -0.074 N 
ATOM     10  H21 UNL     1      -3.340  -1.489  -1.785  1.00  0.00     0.277 HD
ATOM     11  H22 UNL     1      -4.177  -0.288  -1.264  1.00  0.00     0.277 HD
HETATM   12  C14 UNL     1      -2.918  -1.023   0.139  1.00  0.00     0.244 C 
HETATM   13  C15 UNL     1      -1.377  -1.262   0.188  1.00  0.00     0.009 A 
HETATM   14  C16 UNL     1      -0.982  -2.539   0.812  1.00  0.00     0.014 A 
HETATM   15  C17 UNL     1      -1.142  -2.549  -0.623  1.00  0.00     0.014 A 
ENDROOT
BRANCH   5  16
HETATM   16  C9  UNL     1      -1.345   1.230   2.170  1.00  0.00     0.078 C 
BRANCH  16  17
HETATM   17  C10 UNL     1      -0.615   2.138   3.211  1.00  0.00     0.353 C 
HETATM   18  F1  UNL     1      -1.527   2.672   4.073  1.00  0.00    -0.214 F 
HETATM   19  F2  UNL     1       0.326   1.359   3.819  1.00  0.00    -0.214 F 
ENDBRANCH  16  17
ENDBRANCH   5  16
BRANCH   1  20
HETATM   20  O1  UNL     1       2.832  -0.080  -1.488  1.00  0.00    -0.349 OA
ATOM     21  H1  UNL     1       2.512   0.805  -1.617  1.00  0.00     0.219 HD
ENDBRANCH   1  20
BRANCH   1  22
HETATM   22  C2  UNL     1       2.338  -2.070  -0.613  1.00  0.00     0.060 A 
HETATM   23  C3  UNL     1       3.344  -2.675  -1.510  1.00  0.00     0.013 A 
HETATM   24  C4  UNL     1       3.877  -2.117  -0.274  1.00  0.00     0.013 A 
ENDBRANCH   1  22
BRANCH   3  25
HETATM   25  C6  UNL     1       1.998   2.165  -1.135  1.00  0.00     0.189 C 
BRANCH  25  26
HETATM   26  O2  UNL     1       1.775   3.593  -1.257  1.00  0.00    -0.399 OA
ATOM     27  H2  UNL     1       2.590   4.018  -1.495  1.00  0.00     0.209 HD
ENDBRANCH  25  26
ENDBRANCH   3  25
TORSDOF 6
