REMARK  22 active torsions:
REMARK  status: ('A' for Active; 'I' for Inactive)
REMARK    1  A    between atoms: C5_5  and  C6_6 
REMARK    2  A    between atoms: C10_10  and  S1_11 
REMARK    3  A    between atoms: S1_11  and  N1_14 
REMARK       I    between atoms: C11_16  and  N3_18 
REMARK    4  A    between atoms: N3_18  and  C12_20 
REMARK    5  A    between atoms: C12_20  and  C13_21 
REMARK    6  A    between atoms: C12_20  and  N5_29 
REMARK    7  A    between atoms: C13_21  and  C14_22 
REMARK    8  A    between atoms: C14_22  and  C15_23 
REMARK    9  A    between atoms: C15_23  and  C16_24 
REMARK   10  A    between atoms: C16_24  and  N4_25 
REMARK   11  A    between atoms: N5_29  and  C17_31 
REMARK   12  A    between atoms: C17_31  and  C18_32 
REMARK   13  A    between atoms: C18_32  and  C19_33 
REMARK   14  A    between atoms: C19_33  and  C20_34 
REMARK   15  A    between atoms: C20_34  and  N6_35 
REMARK   16  A    between atoms: N6_35  and  C21_37 
REMARK   17  A    between atoms: C21_37  and  C22_38 
REMARK   18  A    between atoms: C22_38  and  N7_39 
REMARK   19  A    between atoms: N7_39  and  C23_42 
REMARK   20  A    between atoms: C23_42  and  C24_43 
REMARK   21  A    between atoms: C24_43  and  C25_44 
REMARK   22  A    between atoms: C25_44  and  N8_45 
ROOT
HETATM    1  C12 UNL     1      -0.404  -1.003  -0.351  1.00  0.00     0.079 C 
ENDROOT
BRANCH   1   2
HETATM    2  N3  UNL     1       0.359  -1.924  -1.085  1.00  0.00    -0.320 N 
HETATM    3  C11 UNL     1       1.796  -2.044  -0.996  1.00  0.00     0.203 C 
HETATM    4  N1  UNL     1       2.407  -2.880  -1.692  1.00  0.00    -0.253 N 
HETATM    5  N2  UNL     1       2.423  -1.170  -0.096  1.00  0.00    -0.062 NA
ATOM      6  H1  UNL     1       1.831  -3.455  -2.307  1.00  0.00     0.181 HD
ATOM      7  H3  UNL     1      -0.133  -2.550  -1.723  1.00  0.00     0.169 HD
BRANCH   4   8
HETATM    8  S1  UNL     1       4.048  -3.175  -1.743  1.00  0.00     0.272 S 
HETATM    9  O1  UNL     1       4.485  -3.180  -3.210  1.00  0.00    -0.200 OA
HETATM   10  O2  UNL     1       4.382  -4.584  -1.267  1.00  0.00    -0.200 OA
BRANCH   8  11
HETATM   11  C10 UNL     1       5.070  -2.084  -0.839  1.00  0.00     0.127 A 
HETATM   12  C8  UNL     1       5.546  -2.188   0.446  1.00  0.00    -0.030 A 
HETATM   13  C7  UNL     1       6.316  -1.192   0.896  1.00  0.00     0.028 A 
HETATM   14  C9  UNL     1       5.170  -3.416   1.264  1.00  0.00     0.050 C 
HETATM   15  C6  UNL     1       6.569  -0.147   0.043  1.00  0.00     0.017 A 
HETATM   16  S2  UNL     1       5.718  -0.599  -1.360  1.00  0.00    -0.075 SA
BRANCH  15  17
HETATM   17  C5  UNL     1       7.375   1.068   0.314  1.00  0.00    -0.018 A 
HETATM   18  C4  UNL     1       8.007   1.277   1.491  1.00  0.00     0.013 A 
HETATM   19  C3  UNL     1       8.735   2.457   1.673  1.00  0.00     0.008 A 
HETATM   20  C2  UNL     1       8.821   3.408   0.676  1.00  0.00    -0.056 A 
HETATM   21  C1  UNL     1       9.577   4.674   0.832  1.00  0.00     0.049 C 
HETATM   22  C27 UNL     1       8.173   3.188  -0.527  1.00  0.00    -0.055 A 
HETATM   23  C26 UNL     1       7.454   2.011  -0.690  1.00  0.00     0.020 A 
HETATM   24  C28 UNL     1       8.200   4.144  -1.663  1.00  0.00     0.049 C 
ENDBRANCH  15  17
ENDBRANCH   8  11
ENDBRANCH   4   8
ENDBRANCH   1   2
BRANCH   1  25
HETATM   25  C13 UNL     1      -0.541  -1.043   1.105  1.00  0.00     0.076 C 
BRANCH  25  26
HETATM   26  C14 UNL     1      -1.009  -2.358   1.637  1.00  0.00     0.009 C 
BRANCH  26  27
HETATM   27  C15 UNL     1      -2.356  -2.767   1.128  1.00  0.00     0.027 C 
BRANCH  27  28
HETATM   28  C16 UNL     1      -2.761  -4.120   1.712  1.00  0.00     0.229 C 
BRANCH  28  29
HETATM   29  N4  UNL     1      -2.821  -4.086   3.150  1.00  0.00    -0.079 N 
ATOM     30  H43 UNL     1      -1.943  -3.757   3.550  1.00  0.00     0.274 HD
ATOM     31  H42 UNL     1      -3.436  -3.341   3.478  1.00  0.00     0.274 HD
ATOM     32  H41 UNL     1      -3.091  -4.989   3.540  1.00  0.00     0.274 HD
ENDBRANCH  28  29
ENDBRANCH  27  28
ENDBRANCH  26  27
ENDBRANCH  25  26
ENDBRANCH   1  25
BRANCH   1  33
HETATM   33  N5  UNL     1      -1.011  -0.043  -1.009  1.00  0.00    -0.380 N 
ATOM     34  H5  UNL     1      -1.571   0.632  -0.489  1.00  0.00     0.160 HD
BRANCH  33  35
HETATM   35  C17 UNL     1      -0.915   0.090  -2.427  1.00  0.00     0.121 C 
BRANCH  35  36
HETATM   36  C18 UNL     1      -2.220  -0.098  -3.149  1.00  0.00     0.021 C 
BRANCH  36  37
HETATM   37  C19 UNL     1      -3.193   0.971  -2.647  1.00  0.00     0.021 C 
BRANCH  37  38
HETATM   38  C20 UNL     1      -4.511   0.850  -3.368  1.00  0.00     0.113 C 
BRANCH  38  39
HETATM   39  N6  UNL     1      -5.475   1.804  -2.974  1.00  0.00    -0.420 N 
ATOM     40  H6  UNL     1      -5.769   2.550  -3.604  1.00  0.00     0.153 HD
BRANCH  39  41
HETATM   41  C21 UNL     1      -6.023   1.686  -1.661  1.00  0.00     0.141 C 
BRANCH  41  42
HETATM   42  C22 UNL     1      -6.881   0.465  -1.521  1.00  0.00     0.251 C 
BRANCH  42  43
HETATM   43  N7  UNL     1      -7.476   0.302  -0.221  1.00  0.00    -0.074 N 
ATOM     44  H72 UNL     1      -7.857  -0.634  -0.082  1.00  0.00     0.277 HD
ATOM     45  H71 UNL     1      -6.781   0.285   0.525  1.00  0.00     0.277 HD
BRANCH  43  46
HETATM   46  C23 UNL     1      -8.467   1.333  -0.027  1.00  0.00     0.234 C 
BRANCH  46  47
HETATM   47  C24 UNL     1      -9.118   1.093   1.320  1.00  0.00     0.055 C 
BRANCH  47  48
HETATM   48  C25 UNL     1      -8.167   1.139   2.468  1.00  0.00     0.231 C 
BRANCH  48  49
HETATM   49  N8  UNL     1      -7.478   2.380   2.640  1.00  0.00    -0.079 N 
ATOM     50  H83 UNL     1      -6.999   2.637   1.777  1.00  0.00     0.274 HD
ATOM     51  H82 UNL     1      -8.148   3.146   2.709  1.00  0.00     0.274 HD
ATOM     52  H81 UNL     1      -6.828   2.411   3.425  1.00  0.00     0.274 HD
ENDBRANCH  48  49
ENDBRANCH  47  48
ENDBRANCH  46  47
ENDBRANCH  43  46
ENDBRANCH  42  43
ENDBRANCH  41  42
ENDBRANCH  39  41
ENDBRANCH  38  39
ENDBRANCH  37  38
ENDBRANCH  36  37
ENDBRANCH  35  36
ENDBRANCH  33  35
ENDBRANCH   1  33
TORSDOF 22
