REMARK  11 active torsions:
REMARK  status: ('A' for Active; 'I' for Inactive)
REMARK    1  A    between atoms: C2_2  and  O1_3 
REMARK    2  A    between atoms: C2_2  and  C3_5 
REMARK    3  A    between atoms: C2_2  and  C4_8 
REMARK    4  A    between atoms: C3_5  and  O2_6 
REMARK    5  A    between atoms: C4_8  and  N1_9 
REMARK       I    between atoms: C5_11  and  N2_12 
REMARK       I    between atoms: C5_11  and  N4_20 
REMARK    6  A    between atoms: N2_12  and  N3_14 
REMARK    7  A    between atoms: N3_14  and  S1_16 
REMARK    8  A    between atoms: N4_20  and  C7_22 
REMARK    9  A    between atoms: N5_26  and  C10_27 
REMARK   10  A    between atoms: N6_33  and  N7_34 
REMARK       I    between atoms: N7_34  and  C13_36 
REMARK   11  A    between atoms: C13_36  and  C14_38 
ROOT
HETATM    1  C7  UNL     1      -0.009  -0.236  -0.297  1.00  0.00     0.083 A 
HETATM    2  C8  UNL     1      -0.587  -0.961  -1.299  1.00  0.00     0.107 A 
HETATM    3  C9  UNL     1       0.215  -1.480  -2.249  1.00  0.00     0.258 A 
HETATM    4  O5  UNL     1      -0.316  -2.161  -3.192  1.00  0.00    -0.267 OA
HETATM    5  N5  UNL     1       1.586  -1.358  -2.324  1.00  0.00    -0.222 N 
HETATM    6  C11 UNL     1       2.153  -0.640  -1.329  1.00  0.00     0.146 A 
HETATM    7  C12 UNL     1       3.516  -0.434  -1.276  1.00  0.00     0.297 A 
HETATM    8  O6  UNL     1       4.191  -0.941  -2.182  1.00  0.00    -0.264 OA
HETATM    9  N6  UNL     1       4.096   0.285  -0.285  1.00  0.00    -0.211 N 
HETATM   10  C16 UNL     1       3.266   0.807   0.674  1.00  0.00     0.211 A 
HETATM   11  N11 UNL     1       1.946   0.637   0.668  1.00  0.00    -0.347 N 
ATOM     12  H11 UNL     1       1.377   1.048   1.408  1.00  0.00     0.167 HD
HETATM   13  C17 UNL     1       1.358  -0.079  -0.316  1.00  0.00     0.094 A 
ENDROOT
BRANCH   1  14
HETATM   14  N4  UNL     1      -0.803   0.330   0.724  1.00  0.00    -0.188 N 
HETATM   15  C5  UNL     1      -2.235   0.179   0.764  1.00  0.00     0.693 C 
HETATM   16  N1  UNL     1      -3.004   0.939   0.068  1.00  0.00    -0.222 N 
HETATM   17  N2  UNL     1      -2.838  -0.815   1.578  1.00  0.00    -0.123 N 
ATOM     18  H1  UNL     1      -2.583   1.658  -0.521  1.00  0.00     0.177 HD
ATOM     19  H2  UNL     1      -2.622  -0.837   2.575  1.00  0.00     0.206 HD
ATOM     20  H4  UNL     1      -0.345   0.866   1.461  1.00  0.00     0.184 HD
BRANCH  16  21
HETATM   21  C4  UNL     1      -4.425   0.813   0.090  1.00  0.00     0.177 C 
BRANCH  21  22
HETATM   22  C2  UNL     1      -5.118   2.110  -0.276  1.00  0.00     0.091 C 
HETATM   23  C1  UNL     1      -6.620   1.940  -0.260  1.00  0.00     0.050 C 
BRANCH  22  24
HETATM   24  O1  UNL     1      -4.752   2.524  -1.562  1.00  0.00    -0.386 OA
ATOM     25  H1  UNL     1      -3.808   2.631  -1.572  1.00  0.00     0.210 HD
ENDBRANCH  22  24
BRANCH  22  26
HETATM   26  C3  UNL     1      -4.739   3.160   0.748  1.00  0.00     0.203 C 
BRANCH  26  27
HETATM   27  O2  UNL     1      -5.369   4.365   0.491  1.00  0.00    -0.398 OA
ATOM     28  H2  UNL     1      -5.131   5.023   1.133  1.00  0.00     0.209 HD
ENDBRANCH  26  27
ENDBRANCH  22  26
ENDBRANCH  21  22
ENDBRANCH  16  21
BRANCH  17  29
HETATM   29  N3  UNL     1      -3.716  -1.762   1.056  1.00  0.00    -0.213 N 
ATOM     30  H3  UNL     1      -4.373  -1.568   0.300  1.00  0.00     0.200 HD
BRANCH  29  31
HETATM   31  S1  UNL     1      -3.573  -3.301   1.827  1.00  0.00     0.240 S 
HETATM   32  C6  UNL     1      -4.639  -3.450   3.233  1.00  0.00     0.187 C 
HETATM   33  O3  UNL     1      -3.986  -4.355   0.816  1.00  0.00    -0.205 OA
HETATM   34  O4  UNL     1      -2.161  -3.498   2.283  1.00  0.00    -0.205 OA
ENDBRANCH  29  31
ENDBRANCH  17  29
ENDBRANCH   1  14
BRANCH   5  35
HETATM   35  C10 UNL     1       2.334  -1.941  -3.361  1.00  0.00     0.354 C 
HETATM   36  F1  UNL     1       2.767  -1.160  -4.412  1.00  0.00    -0.152 F 
HETATM   37  F2  UNL     1       3.008  -3.120  -3.141  1.00  0.00    -0.152 F 
ENDBRANCH   5  35
BRANCH   9  38
HETATM   38  N7  UNL     1       5.442   0.524  -0.167  1.00  0.00    -0.254 N 
HETATM   39  C13 UNL     1       6.578   0.165  -0.888  1.00  0.00     0.292 C 
HETATM   40  O7  UNL     1       6.601  -0.539  -1.958  1.00  0.00    -0.264 OA
ATOM     41  H7  UNL     1       5.664   1.103   0.643  1.00  0.00     0.191 HD
BRANCH  39  42
HETATM   42  C14 UNL     1       7.930   0.606  -0.443  1.00  0.00     0.171 A 
HETATM   43  N8  UNL     1       8.946   0.727  -1.347  1.00  0.00    -0.232 N 
HETATM   44  O8  UNL     1       9.987   1.089  -0.701  1.00  0.00    -0.155 OA
ATOM     45  H8  UNL     1       8.885   0.560  -2.351  1.00  0.00     0.197 HD
HETATM   46  N9  UNL     1       9.775   1.222   0.546  1.00  0.00    -0.224 N 
HETATM   47  C15 UNL     1       8.444   0.916   0.760  1.00  0.00     0.155 A 
ATOM     48  H9  UNL     1      10.456   1.501   1.252  1.00  0.00     0.198 HD
HETATM   49  N10 UNL     1       7.921   0.905   1.901  1.00  0.00    -0.382 N 
ATOM     50 2H10 UNL     1       6.939   0.679   2.059  1.00  0.00     0.157 HD
ATOM     51 1H10 UNL     1       8.311   1.140   2.814  1.00  0.00     0.157 HD
ENDBRANCH  39  42
ENDBRANCH   9  38
TORSDOF 11
