REMARK  5 active torsions:
REMARK  status: ('A' for Active; 'I' for Inactive)
REMARK    1  A    between atoms: C2_3  and  C3_5 
REMARK       I    between atoms: C3_5  and  N2_7 
REMARK    2  A    between atoms: N2_7  and  N3_9 
REMARK    3  A    between atoms: N3_9  and  C4_11 
REMARK    4  A    between atoms: C4_11  and  N4_13 
REMARK    5  A    between atoms: N4_13  and  C5_15 
ROOT
HETATM    1  C1  UNL     1       7.259  -1.335  -0.976  1.00  0.00     0.264 C 
HETATM    2  N1  UNL     1       5.923  -1.165  -1.252  1.00  0.00    -0.412 NA
HETATM    3  C2  UNL     1       4.618  -0.999  -1.522  1.00  0.00     0.380 C 
HETATM    4  O1  UNL     1       4.006  -1.182  -2.617  1.00  0.00    -0.246 OA
ENDROOT
BRANCH   3   5
HETATM    5  C3  UNL     1       3.683  -0.531  -0.454  1.00  0.00     0.342 C 
HETATM    6  O2  UNL     1       4.182  -0.284   0.656  1.00  0.00    -0.259 OA
HETATM    7  N2  UNL     1       2.321  -0.380  -0.695  1.00  0.00    -0.259 N 
ATOM      8  H2  UNL     1       1.973  -0.610  -1.626  1.00  0.00     0.190 HD
BRANCH   7   9
HETATM    9  N3  UNL     1       1.410   0.062   0.245  1.00  0.00    -0.273 N 
ATOM     10  H3  UNL     1       1.723   0.310   1.183  1.00  0.00     0.189 HD
BRANCH   9  11
HETATM   11  C4  UNL     1       0.008   0.172  -0.106  1.00  0.00     0.186 C 
HETATM   12  S1  UNL     1      -0.450  -0.212  -1.595  1.00  0.00    -0.040 SA
BRANCH  11  13
HETATM   13  N4  UNL     1      -0.894   0.629   0.859  1.00  0.00    -0.361 N 
ATOM     14  H4  UNL     1      -0.564   0.889   1.788  1.00  0.00     0.162 HD
BRANCH  13  15
HETATM   15  C5  UNL     1      -2.298   0.731   0.531  1.00  0.00     0.083 C 
HETATM   16  C6  UNL     1      -2.957   1.544   1.652  1.00  0.00     0.025 C 
HETATM   17  C7  UNL     1      -4.461   1.513   1.525  1.00  0.00     0.002 C 
HETATM   18  C8  UNL     1      -4.836   0.969   0.188  1.00  0.00     0.000 C 
HETATM   19  C9  UNL     1      -4.367  -0.461   0.028  1.00  0.00     0.002 C 
HETATM   20  C10 UNL     1      -2.944  -0.654   0.499  1.00  0.00     0.025 C 
ENDBRANCH  13  15
ENDBRANCH  11  13
ENDBRANCH   9  11
ENDBRANCH   7   9
ENDBRANCH   3   5
TORSDOF 4
