REMARK  5 active torsions:
REMARK  status: ('A' for Active; 'I' for Inactive)
REMARK       I    between atoms: C2_2  and  N1_4 
REMARK    1  A    between atoms: N1_4  and  N2_6 
REMARK    2  A    between atoms: N2_6  and  C3_8 
REMARK    3  A    between atoms: C3_8  and  N3_10 
REMARK    4  A    between atoms: C4_12  and  N4_13 
REMARK       I    between atoms: N4_13  and  C5_15 
REMARK       I    between atoms: C5_15  and  N5_17 
REMARK    5  A    between atoms: N5_17  and  C6_19 
ROOT
HETATM    1  N3  UNL     1      -1.129  -1.597   1.239  1.00  0.00    -0.328 N 
ATOM      2  H3  UNL     1      -1.502  -2.366   1.796  1.00  0.00     0.169 HD
HETATM    3  C4  UNL     1       0.102  -1.516   1.187  1.00  0.00     0.186 C 
ENDROOT
BRANCH   1   4
HETATM    4  C3  UNL     1      -2.067  -0.776   0.636  1.00  0.00     0.191 C 
HETATM    5  S1  UNL     1      -2.250   0.786   1.122  1.00  0.00    -0.039 SA
BRANCH   4   6
HETATM    6  N2  UNL     1      -2.894  -1.248  -0.423  1.00  0.00    -0.274 N 
ATOM      7  H2  UNL     1      -2.779  -2.205  -0.756  1.00  0.00     0.189 HD
BRANCH   6   8
HETATM    8  N1  UNL     1      -3.860  -0.430  -1.016  1.00  0.00    -0.268 N 
HETATM    9  C2  UNL     1      -5.057  -0.192  -0.256  1.00  0.00     0.232 C 
HETATM   10  C1  UNL     1      -6.137   0.658  -0.799  1.00  0.00     0.119 C 
HETATM   11  O1  UNL     1      -5.194  -0.712   0.886  1.00  0.00    -0.272 OA
ATOM     12  H1  UNL     1      -3.723  -0.023  -1.941  1.00  0.00     0.190 HD
ENDBRANCH   6   8
ENDBRANCH   4   6
ENDBRANCH   1   4
BRANCH   3  13
HETATM   13  N4  UNL     1       0.833  -0.552   0.489  1.00  0.00    -0.305 N 
HETATM   14  C5  UNL     1       2.269  -0.610   0.543  1.00  0.00     0.321 C 
HETATM   15  O2  UNL     1       2.796  -1.544   1.231  1.00  0.00    -0.247 OA
HETATM   16  N5  UNL     1       3.071   0.336  -0.145  1.00  0.00    -0.338 N 
ATOM     17  H5  UNL     1       2.637   1.077  -0.696  1.00  0.00     0.164 HD
ATOM     18  H4  UNL     1       0.360   0.176  -0.046  1.00  0.00     0.171 HD
BRANCH  16  19
HETATM   19  C6  UNL     1       4.504   0.240  -0.058  1.00  0.00     0.086 A 
HETATM   20  C7  UNL     1       5.432   0.982  -0.934  1.00  0.00     0.027 A 
HETATM   21  C8  UNL     1       5.131   1.582   0.389  1.00  0.00     0.027 A 
ENDBRANCH  16  19
ENDBRANCH   3  13
TORSDOF 5
