REMARK  2 active torsions:
REMARK  status: ('A' for Active; 'I' for Inactive)
REMARK    1  A    between atoms: C2_2  and  N1_3 
REMARK       I    between atoms: N1_3  and  C3_5 
REMARK       I    between atoms: C3_5  and  N3_9 
REMARK       I    between atoms: N3_9  and  C4_11 
REMARK       I    between atoms: C4_11  and  N4_13 
REMARK    2  A    between atoms: C7_16  and  C8_17 
REMARK       I    between atoms: C8_17  and  N5_19 
ROOT
HETATM    1  N1  UNL     1      -4.199   0.675   0.270  1.00  0.00    -0.227 N 
ATOM      2  H1  UNL     1      -4.126   1.388   0.996  1.00  0.00     0.177 HD
HETATM    3  C3  UNL     1      -3.562   0.831  -1.000  1.00  0.00     0.675 C 
HETATM    4  N2  UNL     1      -4.212   1.125  -2.062  1.00  0.00    -0.235 N 
ATOM      5  H21 UNL     1      -3.757   1.236  -2.968  1.00  0.00     0.174 HD
ATOM      6  H22 UNL     1      -5.223   1.259  -2.029  1.00  0.00     0.174 HD
HETATM    7  N3  UNL     1      -2.156   0.645  -1.046  1.00  0.00    -0.142 N 
ATOM      8  H3  UNL     1      -1.681   0.752  -1.942  1.00  0.00     0.189 HD
HETATM    9  C4  UNL     1      -1.377   0.317   0.098  1.00  0.00     0.336 C 
HETATM   10  O1  UNL     1      -1.967   0.186   1.204  1.00  0.00    -0.246 OA
HETATM   11  N4  UNL     1       0.020   0.152  -0.054  1.00  0.00    -0.334 N 
HETATM   12  C5  UNL     1       0.814  -0.180   1.107  1.00  0.00     0.128 C 
HETATM   13  C6  UNL     1       1.726  -1.308   0.718  1.00  0.00     0.034 C 
HETATM   14  C7  UNL     1       2.660  -0.878  -0.360  1.00  0.00     0.081 C 
HETATM   15  C10 UNL     1       2.146   0.176  -1.273  1.00  0.00     0.034 C 
HETATM   16  C11 UNL     1       0.661   0.304  -1.316  1.00  0.00     0.128 C 
ENDROOT
BRANCH   1  17
HETATM   17  C2  UNL     1      -4.951  -0.541   0.477  1.00  0.00     0.133 C 
HETATM   18  C1  UNL     1      -5.576  -0.602   1.835  1.00  0.00     0.027 C 
ENDBRANCH   1  17
BRANCH  14  19
HETATM   19  C8  UNL     1       3.890  -0.313   0.310  1.00  0.00     0.221 C 
HETATM   20  O2  UNL     1       3.975  -0.276   1.562  1.00  0.00    -0.273 OA
HETATM   21  N5  UNL     1       4.958   0.178  -0.459  1.00  0.00    -0.365 N 
HETATM   22  C9  UNL     1       6.125   0.714   0.204  1.00  0.00     0.149 C 
ATOM     23  H5  UNL     1       4.910   0.156  -1.478  1.00  0.00     0.161 HD
ENDBRANCH  14  19
TORSDOF 2
