REMARK  4 active torsions:
REMARK  status: ('A' for Active; 'I' for Inactive)
REMARK       I    between atoms: C1_4  and  N3_6 
REMARK    1  A    between atoms: C4_9  and  N4_10 
REMARK    2  A    between atoms: N4_10  and  C5_12 
REMARK    3  A    between atoms: C5_12  and  N5_14 
REMARK    4  A    between atoms: N5_14  and  C6_16 
ROOT
HETATM    1  N4  UNL     1       0.533   0.326   0.313  1.00  0.00    -0.361 N 
ATOM      2  H4  UNL     1       0.568   1.223   0.797  1.00  0.00     0.162 HD
ENDROOT
BRANCH   1   3
HETATM    3  C4  UNL     1       1.752  -0.416   0.067  1.00  0.00     0.103 C 
HETATM    4  C3  UNL     1       1.963  -0.575  -1.393  1.00  0.00     0.046 C 
HETATM    5  C2  UNL     1       3.383  -0.164  -1.652  1.00  0.00     0.127 C 
HETATM    6  N3  UNL     1       3.986   0.199  -0.396  1.00  0.00    -0.354 N 
HETATM    7  C1  UNL     1       5.363   0.406  -0.168  1.00  0.00     0.184 C 
HETATM    8  C11 UNL     1       2.948   0.318   0.600  1.00  0.00     0.150 C 
HETATM    9  N1  UNL     1       6.111  -0.590   0.114  1.00  0.00    -0.374 N 
HETATM   10  N2  UNL     1       5.888   1.719  -0.258  1.00  0.00    -0.064 NA
ATOM     11  H12 UNL     1       7.106  -0.440   0.279  1.00  0.00     0.158 HD
ATOM     12  H11 UNL     1       5.733  -1.535   0.179  1.00  0.00     0.158 HD
ENDBRANCH   1   3
BRANCH   1  13
HETATM   13  C5  UNL     1      -0.708  -0.200  -0.122  1.00  0.00     0.168 C 
HETATM   14  S1  UNL     1      -0.796  -1.630  -0.899  1.00  0.00    -0.041 SA
BRANCH  13  15
HETATM   15  N5  UNL     1      -1.917   0.502   0.102  1.00  0.00    -0.363 N 
ATOM     16  H5  UNL     1      -1.872   1.400   0.584  1.00  0.00     0.162 HD
BRANCH  15  17
HETATM   17  C6  UNL     1      -3.196   0.019  -0.311  1.00  0.00     0.083 C 
HETATM   18  C7  UNL     1      -4.298   1.026   0.010  1.00  0.00     0.025 C 
HETATM   19  C8  UNL     1      -5.489   0.268   0.484  1.00  0.00     0.002 C 
HETATM   20  C9  UNL     1      -5.162  -1.171   0.154  1.00  0.00     0.002 C 
HETATM   21  C10 UNL     1      -3.665  -1.193   0.497  1.00  0.00     0.025 C 
ENDBRANCH  15  17
ENDBRANCH  13  15
ENDBRANCH   1  13
TORSDOF 4
