REMARK  25 active torsions:
REMARK  status: ('A' for Active; 'I' for Inactive)
REMARK    1  A    between atoms: C2_2  and  C3_3 
REMARK    2  A    between atoms: C3_3  and  N1_4 
REMARK       I    between atoms: N1_4  and  C4_6 
REMARK    3  A    between atoms: C4_6  and  C5_8 
REMARK       I    between atoms: C5_8  and  N2_10 
REMARK    4  A    between atoms: N2_10  and  C6_12 
REMARK    5  A    between atoms: C6_12  and  C7_13 
REMARK    6  A    between atoms: C7_13  and  C8_14 
REMARK    7  A    between atoms: C8_14  and  N3_15 
REMARK    8  A    between atoms: N3_15  and  C9_17 
REMARK    9  A    between atoms: C9_17  and  O3_18 
REMARK   10  A    between atoms: C9_17  and  N4_20 
REMARK   11  A    between atoms: N4_20  and  C10_22 
REMARK   12  A    between atoms: C10_22  and  O4_23 
REMARK   13  A    between atoms: C10_22  and  C11_25 
REMARK   14  A    between atoms: C11_25  and  C12_26 
REMARK   15  A    between atoms: C12_26  and  C13_27 
REMARK   16  A    between atoms: C13_27  and  C14_28 
REMARK   17  A    between atoms: C14_28  and  N5_29 
REMARK       I    between atoms: N5_29  and  C15_31 
REMARK   18  A    between atoms: C15_31  and  C16_33 
REMARK   19  A    between atoms: C16_33  and  C17_34 
REMARK   20  A    between atoms: C17_34  and  C18_35 
REMARK   21  A    between atoms: N6_38  and  C21_39 
REMARK   22  A    between atoms: C21_39  and  C22_40 
REMARK   23  A    between atoms: C22_40  and  C23_41 
REMARK   24  A    between atoms: C23_41  and  N7_42 
REMARK   25  A    between atoms: C25_46  and  N9_47 
ROOT
HETATM    1  C13 UNL     1       0.430   0.330   0.199  1.00  0.00     0.047 C 
ENDROOT
BRANCH   1   2
HETATM    2  C12 UNL     1       1.844   0.497   0.491  1.00  0.00    -0.021 C 
BRANCH   2   3
HETATM    3  C11 UNL     1       3.009   0.040  -0.234  1.00  0.00     0.052 C 
BRANCH   3   4
HETATM    4  C10 UNL     1       3.370   0.447  -1.572  1.00  0.00     0.142 C 
BRANCH   4   5
HETATM    5  N4  UNL     1       4.586   0.968  -2.018  1.00  0.00    -0.303 N 
ATOM      6  H4  UNL     1       4.668   1.010  -3.034  1.00  0.00     0.171 HD
BRANCH   5   7
HETATM    7  C9  UNL     1       5.690   1.433  -1.355  1.00  0.00     0.218 C 
BRANCH   7   8
HETATM    8  N3  UNL     1       6.095   1.529  -0.020  1.00  0.00    -0.356 N 
ATOM      9  H3  UNL     1       5.508   1.174   0.735  1.00  0.00     0.163 HD
BRANCH   8  10
HETATM   10  C8  UNL     1       7.399   2.160   0.262  1.00  0.00     0.125 C 
BRANCH  10  11
HETATM   11  C7  UNL     1       7.660   2.205   1.726  1.00  0.00     0.039 C 
BRANCH  11  12
HETATM   12  C6  UNL     1       7.749   0.871   2.392  1.00  0.00     0.125 C 
BRANCH  12  13
HETATM   13  N2  UNL     1       8.779   0.031   1.849  1.00  0.00    -0.353 N 
HETATM   14  C5  UNL     1      10.152   0.346   1.771  1.00  0.00     0.309 C 
HETATM   15  O2  UNL     1      10.551   1.450   2.196  1.00  0.00    -0.262 OA
ATOM     16  H2  UNL     1       8.491  -0.878   1.486  1.00  0.00     0.162 HD
BRANCH  14  17
HETATM   17  C4  UNL     1      11.145  -0.567   1.201  1.00  0.00     0.309 C 
HETATM   18  N1  UNL     1      12.480  -0.140   1.019  1.00  0.00    -0.349 N 
ATOM     19  H1  UNL     1      12.746   0.808   1.285  1.00  0.00     0.163 HD
HETATM   20  O1  UNL     1      10.783  -1.745   0.867  1.00  0.00    -0.262 OA
BRANCH  18  21
HETATM   21  C3  UNL     1      13.474  -1.030   0.461  1.00  0.00     0.149 C 
BRANCH  21  22
HETATM   22  C2  UNL     1      14.754  -0.288   0.337  1.00  0.00    -0.018 C 
HETATM   23  C1  UNL     1      15.285  -0.157  -0.849  1.00  0.00     0.008 C 
ENDBRANCH  21  22
ENDBRANCH  18  21
ENDBRANCH  14  17
ENDBRANCH  12  13
ENDBRANCH  11  12
ENDBRANCH  10  11
ENDBRANCH   8  10
ENDBRANCH   7   8
BRANCH   7  24
HETATM   24  O3  UNL     1       6.618   1.928  -2.179  1.00  0.00    -0.332 OA
ATOM     25  H3  UNL     1       6.343   1.863  -3.086  1.00  0.00     0.220 HD
ENDBRANCH   7  24
ENDBRANCH   5   7
ENDBRANCH   4   5
BRANCH   4  26
HETATM   26  O4  UNL     1       2.500   0.348  -2.548  1.00  0.00    -0.346 OA
ATOM     27  H4  UNL     1       1.673  -0.007  -2.245  1.00  0.00     0.219 HD
ENDBRANCH   4  26
ENDBRANCH   3   4
ENDBRANCH   2   3
ENDBRANCH   1   2
BRANCH   1  28
HETATM   28  C14 UNL     1      -0.181   0.876  -1.041  1.00  0.00     0.126 C 
BRANCH  28  29
HETATM   29  N5  UNL     1      -1.642   0.770  -1.061  1.00  0.00    -0.361 N 
HETATM   30  C15 UNL     1      -2.355  -0.423  -0.995  1.00  0.00     0.217 C 
HETATM   31  O5  UNL     1      -1.820  -1.551  -0.908  1.00  0.00    -0.274 OA
ATOM     32  H5  UNL     1      -2.177   1.636  -1.128  1.00  0.00     0.162 HD
BRANCH  30  33
HETATM   33  C16 UNL     1      -3.849  -0.409  -1.031  1.00  0.00     0.107 C 
BRANCH  33  34
HETATM   34  C17 UNL     1      -4.429  -1.809  -1.031  1.00  0.00     0.048 C 
BRANCH  34  35
HETATM   35  C18 UNL     1      -5.914  -1.731  -1.087  1.00  0.00    -0.055 A 
HETATM   36  C19 UNL     1      -6.573  -1.688  -2.303  1.00  0.00     0.024 A 
HETATM   37  C20 UNL     1      -7.943  -1.626  -2.379  1.00  0.00     0.091 A 
HETATM   38  N6  UNL     1      -8.739  -1.601  -1.254  1.00  0.00    -0.366 N 
HETATM   39  C26 UNL     1      -8.104  -1.643  -0.088  1.00  0.00     0.091 A 
HETATM   40  C27 UNL     1      -6.709  -1.707   0.039  1.00  0.00     0.024 A 
BRANCH  38  41
HETATM   41  C21 UNL     1     -10.177  -1.565  -1.420  1.00  0.00     0.129 C 
BRANCH  41  42
HETATM   42  C22 UNL     1     -10.790  -0.234  -1.560  1.00  0.00     0.042 C 
BRANCH  42  43
HETATM   43  C23 UNL     1     -10.754   0.753  -0.467  1.00  0.00     0.152 C 
BRANCH  43  44
HETATM   44  N7  UNL     1     -11.446   0.418   0.743  1.00  0.00    -0.273 N 
HETATM   45  C24 UNL     1     -12.777   0.716   0.880  1.00  0.00     0.218 A 
HETATM   46  N8  UNL     1     -13.171   0.327   2.092  1.00  0.00    -0.185 N 
HETATM   47  C25 UNL     1     -12.131  -0.216   2.747  1.00  0.00     0.691 A 
ATOM     48  H8  UNL     1     -14.115   0.426   2.465  1.00  0.00     0.185 HD
HETATM   49  N10 UNL     1     -11.095  -0.135   1.877  1.00  0.00    -0.129 N 
ATOM     50  H10 UNL     1     -10.152  -0.466   2.082  1.00  0.00     0.206 HD
BRANCH  47  51
HETATM   51  N9  UNL     1     -12.111  -0.697   3.932  1.00  0.00    -0.233 N 
ATOM     52  H92 UNL     1     -12.891  -0.758   4.587  1.00  0.00     0.174 HD
ATOM     53  H91 UNL     1     -11.322  -1.109   4.429  1.00  0.00     0.174 HD
ENDBRANCH  47  51
ENDBRANCH  43  44
ENDBRANCH  42  43
ENDBRANCH  41  42
ENDBRANCH  38  41
ENDBRANCH  34  35
ENDBRANCH  33  34
ENDBRANCH  30  33
ENDBRANCH  28  29
ENDBRANCH   1  28
TORSDOF 25
