REMARK  9 active torsions:
REMARK  status: ('A' for Active; 'I' for Inactive)
REMARK    1  A    between atoms: N1_1  and  C1_4 
REMARK    2  A    between atoms: N3_9  and  C3_10 
REMARK    3  A    between atoms: C4_11  and  O2_12 
REMARK    4  A    between atoms: C5_14  and  O3_15 
REMARK    5  A    between atoms: C6_17  and  N4_18 
REMARK       I    between atoms: N5_22  and  C7_23 
REMARK       I    between atoms: C7_23  and  N6_25 
REMARK    6  A    between atoms: N6_25  and  N7_26 
REMARK    7  A    between atoms: C8_31  and  C9_32 
REMARK    8  A    between atoms: C9_32  and  O5_33 
REMARK    9  A    between atoms: C9_32  and  O6_35 
ROOT
HETATM    1  C3  UNL     1       1.149   0.638   0.565  1.00  0.00     0.252 C 
HETATM    2  C4  UNL     1       1.376   0.059   1.948  1.00  0.00     0.195 C 
HETATM    3  C5  UNL     1       2.109  -1.221   1.691  1.00  0.00     0.201 C 
HETATM    4  C6  UNL     1       1.738  -1.573   0.270  1.00  0.00     0.322 C 
HETATM    5  N5  UNL     1       1.736  -0.279  -0.354  1.00  0.00    -0.264 N 
HETATM    6  C7  UNL     1       2.244   0.039  -1.645  1.00  0.00     0.417 C 
HETATM    7  O4  UNL     1       2.702  -0.952  -2.288  1.00  0.00    -0.228 OA
HETATM    8  N6  UNL     1       2.212   1.316  -2.093  1.00  0.00    -0.272 NA
ENDROOT
BRANCH   1   9
HETATM    9  N3  UNL     1      -0.298   0.824   0.349  1.00  0.00    -0.215 N 
HETATM   10  C2  UNL     1      -0.845   2.039   0.442  1.00  0.00     0.344 A 
HETATM   11  N2  UNL     1      -2.140   2.290   0.282  1.00  0.00    -0.292 N 
HETATM   12  O1  UNL     1      -0.084   3.037   0.705  1.00  0.00    -0.245 OA
HETATM   13  C1  UNL     1      -3.015   1.247  -0.004  1.00  0.00     0.132 A 
ATOM     14  H2  UNL     1      -2.491   3.244   0.369  1.00  0.00     0.172 HD
HETATM   15  C8  UNL     1      -2.441   0.005  -0.098  1.00  0.00     0.124 A 
HETATM   16  N8  UNL     1      -1.085  -0.177   0.082  1.00  0.00    -0.288 N 
ATOM     17  H8  UNL     1      -0.692  -1.115   0.004  1.00  0.00     0.187 HD
BRANCH  13  18
HETATM   18  N1  UNL     1      -4.209   1.553  -0.126  1.00  0.00    -0.384 N 
ATOM     19  H12 UNL     1      -4.636   2.477  -0.056  1.00  0.00     0.157 HD
ATOM     20  H11 UNL     1      -4.851   0.788  -0.336  1.00  0.00     0.157 HD
ENDBRANCH  13  18
BRANCH  15  21
HETATM   21  C9  UNL     1      -3.261  -1.187  -0.409  1.00  0.00     0.310 C 
BRANCH  21  22
HETATM   22  O5  UNL     1      -2.602  -1.995  -1.367  1.00  0.00    -0.366 OA
ATOM     23  H5  UNL     1      -3.128  -2.760  -1.567  1.00  0.00     0.213 HD
ENDBRANCH  21  22
BRANCH  21  24
HETATM   24  O6  UNL     1      -4.480  -0.850  -0.923  1.00  0.00    -0.366 OA
ATOM     25  H6  UNL     1      -5.006  -1.615  -1.123  1.00  0.00     0.213 HD
ENDBRANCH  21  24
ENDBRANCH  15  21
ENDBRANCH   1   9
BRANCH   2  26
HETATM   26  O2  UNL     1       0.161  -0.255   2.561  1.00  0.00    -0.389 OA
ATOM     27  H2  UNL     1       0.303  -0.618   3.427  1.00  0.00     0.210 HD
ENDBRANCH   2  26
BRANCH   3  28
HETATM   28  O3  UNL     1       1.597  -2.193   2.552  1.00  0.00    -0.389 OA
ATOM     29  H3  UNL     1       2.062  -3.005   2.389  1.00  0.00     0.210 HD
ENDBRANCH   3  28
BRANCH   4  30
HETATM   30  N4  UNL     1       2.696  -2.483  -0.329  1.00  0.00    -0.055 N 
ATOM     31  H43 UNL     1       3.644  -2.112  -0.274  1.00  0.00     0.276 HD
ATOM     32  H42 UNL     1       2.819  -3.320   0.241  1.00  0.00     0.276 HD
ATOM     33  H41 UNL     1       2.445  -2.721  -1.289  1.00  0.00     0.276 HD
ENDBRANCH   4  30
BRANCH   8  34
HETATM   34  N7  UNL     1       2.181   2.578  -2.536  1.00  0.00    -0.275 N 
ATOM     35  H72 UNL     1       2.229   1.613  -2.208  1.00  0.00     0.191 HD
ATOM     36  H71 UNL     1       2.157   3.540  -2.874  1.00  0.00     0.191 HD
ENDBRANCH   8  34
TORSDOF 9
