REMARK  9 active torsions:
REMARK  status: ('A' for Active; 'I' for Inactive)
REMARK    1  A    between atoms: C2_3  and  O1_4 
REMARK    2  A    between atoms: C3_6  and  O2_7 
REMARK    3  A    between atoms: C4_9  and  N2_10 
REMARK    4  A    between atoms: C6_12  and  C7_13 
REMARK    5  A    between atoms: C8_16  and  N4_17 
REMARK    6  A    between atoms: C10_24  and  O5_25 
REMARK    7  A    between atoms: C11_27  and  O6_28 
REMARK    8  A    between atoms: C11_27  and  C12_30 
REMARK    9  A    between atoms: C12_30  and  O7_31 
ROOT
HETATM    1  N1  UNL     1      -3.187   3.020  -1.536  1.00  0.00    -0.194 NA
HETATM    2  C1  UNL     1      -2.737   1.987  -1.259  1.00  0.00     0.104 C 
HETATM    3  C2  UNL     1      -2.172   0.693  -0.918  1.00  0.00     0.210 C 
HETATM    4  C3  UNL     1      -0.672   0.768  -0.748  1.00  0.00     0.196 C 
HETATM    5  C4  UNL     1      -0.378   0.072   0.591  1.00  0.00     0.159 C 
HETATM    6  C10 UNL     1      -1.525  -0.820   0.737  1.00  0.00     0.184 C 
HETATM    7  C11 UNL     1      -2.670   0.168   0.412  1.00  0.00     0.153 C 
ENDROOT
BRANCH   3   8
HETATM    8  O1  UNL     1      -2.538  -0.201  -1.922  1.00  0.00    -0.370 OA
ATOM      9  H1  UNL     1      -2.168  -1.047  -1.699  1.00  0.00     0.212 HD
ENDBRANCH   3   8
BRANCH   4  10
HETATM   10  O2  UNL     1       0.005   0.150  -1.792  1.00  0.00    -0.389 OA
ATOM     11  H2  UNL     1       0.948   0.197  -1.685  1.00  0.00     0.210 HD
ENDBRANCH   4  10
BRANCH   7  12
HETATM   12  O6  UNL     1      -2.737   1.169   1.379  1.00  0.00    -0.381 OA
ATOM     13  H6  UNL     1      -3.049   0.840   2.213  1.00  0.00     0.211 HD
ENDBRANCH   7  12
BRANCH   7  14
HETATM   14  C12 UNL     1      -3.966  -0.588   0.288  1.00  0.00     0.209 C 
BRANCH  14  15
HETATM   15  O7  UNL     1      -4.218  -1.163   1.546  1.00  0.00    -0.398 OA
ATOM     16  H7  UNL     1      -5.036  -1.640   1.468  1.00  0.00     0.209 HD
ENDBRANCH  14  15
ENDBRANCH   7  14
BRANCH   5  17
HETATM   17  N2  UNL     1       0.941  -0.420   0.666  1.00  0.00    -0.299 N 
HETATM   18  C5  UNL     1       1.893   0.383   0.093  1.00  0.00     0.117 A 
HETATM   19  C6  UNL     1       3.222   0.024   0.094  1.00  0.00     0.088 A 
HETATM   20  C8  UNL     1       3.529  -1.178   0.701  1.00  0.00     0.119 A 
HETATM   21  N5  UNL     1       2.565  -1.949   1.258  1.00  0.00    -0.294 N 
HETATM   22  C9  UNL     1       1.270  -1.583   1.249  1.00  0.00     0.328 A 
ATOM     23  H5  UNL     1       2.828  -2.832   1.697  1.00  0.00     0.172 HD
HETATM   24  O4  UNL     1       0.377  -2.311   1.773  1.00  0.00    -0.246 OA
BRANCH  19  25
HETATM   25  C7  UNL     1       4.258   0.858  -0.509  1.00  0.00     0.270 C 
HETATM   26  N3  UNL     1       3.893   2.088  -1.122  1.00  0.00    -0.057 NA
HETATM   27  O3  UNL     1       5.468   0.517  -0.500  1.00  0.00    -0.271 OA
ENDBRANCH  19  25
BRANCH  20  28
HETATM   28  N4  UNL     1       4.756  -1.550   0.723  1.00  0.00    -0.385 N 
ATOM     29  H42 UNL     1       5.482  -0.969   0.303  1.00  0.00     0.157 HD
ATOM     30  H41 UNL     1       4.983  -2.438   1.171  1.00  0.00     0.157 HD
ENDBRANCH  20  28
ENDBRANCH   5  17
BRANCH   6  31
HETATM   31  O5  UNL     1      -1.655  -1.810  -0.211  1.00  0.00    -0.390 OA
ATOM     32  H5  UNL     1      -2.401  -2.390  -0.116  1.00  0.00     0.210 HD
ENDBRANCH   6  31
TORSDOF 9
