REMARK  7 active torsions:
REMARK  status: ('A' for Active; 'I' for Inactive)
REMARK    1  A    between atoms: O1_2  and  C2_3 
REMARK    2  A    between atoms: C2_3  and  C3_5 
REMARK    3  A    between atoms: C3_5  and  C5_13 
REMARK    4  A    between atoms: N1_6  and  N2_8 
REMARK    5  A    between atoms: C6_14  and  N5_15 
REMARK    6  A    between atoms: N5_15  and  C7_17 
REMARK       I    between atoms: N7_23  and  C11_24 
REMARK    7  A    between atoms: C12_29  and  N10_30 
ROOT
HETATM    1  C5  UNL     1       0.956   0.279  -1.231  1.00  0.00     0.100 A 
HETATM    2  C6  UNL     1      -0.252  -0.261  -1.495  1.00  0.00     0.115 A 
HETATM    3  C12 UNL     1      -0.684   0.257  -2.737  1.00  0.00     0.173 A 
HETATM    4  C13 UNL     1       0.280   1.098  -3.183  1.00  0.00     0.154 A 
HETATM    5  N11 UNL     1       0.234   1.844  -4.422  1.00  0.00    -0.080 NA
HETATM    6  N12 UNL     1       1.270   1.113  -2.274  1.00  0.00    -0.334 N 
HETATM    7  C14 UNL     1       2.460   1.935  -2.467  1.00  0.00     0.158 C 
ENDROOT
BRANCH   2   8
HETATM    8  N5  UNL     1      -1.118  -1.140  -0.772  1.00  0.00    -0.187 N 
ATOM      9  H5  UNL     1      -1.022  -2.154  -0.833  1.00  0.00     0.184 HD
BRANCH   8  10
HETATM   10  C7  UNL     1      -2.135  -0.526   0.048  1.00  0.00     0.683 C 
HETATM   11  N6  UNL     1      -2.091   0.708   0.360  1.00  0.00    -0.226 N 
HETATM   12  C8  UNL     1      -3.125   1.286   1.181  1.00  0.00     0.139 C 
ATOM     13  H6  UNL     1      -1.321   1.289   0.028  1.00  0.00     0.177 HD
HETATM   14  C9  UNL     1      -3.381   0.318   2.319  1.00  0.00     0.041 C 
HETATM   15  C10 UNL     1      -3.892  -0.965   1.725  1.00  0.00     0.152 C 
HETATM   16  N7  UNL     1      -3.201  -1.335   0.512  1.00  0.00    -0.155 N 
HETATM   17  C11 UNL     1      -3.620  -2.504  -0.160  1.00  0.00     0.203 C 
HETATM   18  N8  UNL     1      -4.403  -2.403  -1.168  1.00  0.00    -0.373 N 
HETATM   19  N9  UNL     1      -3.188  -3.783   0.263  1.00  0.00    -0.063 NA
ATOM     20  H82 UNL     1      -4.714  -1.481  -1.473  1.00  0.00     0.158 HD
ATOM     21  H81 UNL     1      -4.706  -3.247  -1.653  1.00  0.00     0.158 HD
ENDBRANCH   8  10
ENDBRANCH   2   8
BRANCH   1  22
HETATM   22  C3  UNL     1       1.861   0.045  -0.143  1.00  0.00     0.153 C 
HETATM   23  N1  UNL     1       2.941   0.803  -0.115  1.00  0.00    -0.291 N 
ATOM     24  H1  UNL     1       3.042   1.509  -0.845  1.00  0.00     0.187 HD
BRANCH  22  25
HETATM   25  C2  UNL     1       1.761  -0.936   0.904  1.00  0.00     0.313 C 
HETATM   26  O2  UNL     1       0.879  -1.779   1.112  1.00  0.00    -0.257 OA
BRANCH  25  27
HETATM   27  O1  UNL     1       2.796  -1.013   1.890  1.00  0.00    -0.321 OA
HETATM   28  C1  UNL     1       2.714  -1.970   2.924  1.00  0.00     0.213 C 
ENDBRANCH  25  27
ENDBRANCH  22  25
BRANCH  23  29
HETATM   29  N2  UNL     1       3.922   0.713   0.809  1.00  0.00    -0.275 N 
HETATM   30  C4  UNL     1       4.388   1.619   1.567  1.00  0.00     0.215 C 
HETATM   31  N3  UNL     1       3.907   2.952   1.547  1.00  0.00    -0.065 NA
HETATM   32  N4  UNL     1       5.432   1.287   2.473  1.00  0.00    -0.065 NA
ATOM     33  H2  UNL     1       4.347  -0.209   0.912  1.00  0.00     0.189 HD
ENDBRANCH  23  29
ENDBRANCH   1  22
BRANCH   3  34
HETATM   34  N10 UNL     1      -1.920  -0.075  -3.386  1.00  0.00    -0.110 N 
HETATM   35  O3  UNL     1      -3.019   0.353  -3.025  1.00  0.00    -0.532 OA
HETATM   36  O4  UNL     1      -1.875  -0.914  -4.476  1.00  0.00    -0.532 OA
ENDBRANCH   3  34
TORSDOF 7
