REMARK  15 active torsions:
REMARK  status: ('A' for Active; 'I' for Inactive)
REMARK    1  A    between atoms: C2_2  and  C3_3 
REMARK    2  A    between atoms: C3_3  and  C4_4 
REMARK    3  A    between atoms: C4_4  and  N1_5 
REMARK       I    between atoms: N1_5  and  C5_7 
REMARK    4  A    between atoms: C5_7  and  C6_9 
REMARK    5  A    between atoms: C6_9  and  C7_10 
REMARK    6  A    between atoms: C6_9  and  N2_17 
REMARK    7  A    between atoms: C7_10  and  C8_11 
REMARK    8  A    between atoms: N2_17  and  C14_19 
REMARK    9  A    between atoms: C14_19  and  O2_20 
REMARK   10  A    between atoms: C14_19  and  C15_22 
REMARK   11  A    between atoms: C15_22  and  C16_23 
REMARK   12  A    between atoms: C15_22  and  N3_27 
REMARK   13  A    between atoms: C16_23  and  C17_24 
REMARK       I    between atoms: N3_27  and  C20_29 
REMARK   14  A    between atoms: C20_29  and  C21_31 
REMARK   15  A    between atoms: C22_32  and  C23_33 
ROOT
HETATM    1  C14 UNL     1       0.008  -0.024   0.220  1.00  0.00     0.135 C 
ENDROOT
BRANCH   1   2
HETATM    2  N2  UNL     1      -1.370  -0.287   0.330  1.00  0.00    -0.359 N 
ATOM      3  H2  UNL     1      -1.829  -0.162   1.232  1.00  0.00     0.162 HD
BRANCH   2   4
HETATM    4  C6  UNL     1      -2.158  -0.733  -0.809  1.00  0.00     0.179 C 
BRANCH   4   5
HETATM    5  C5  UNL     1      -2.901   0.527  -1.237  1.00  0.00     0.240 C 
HETATM    6  N1  UNL     1      -4.232   0.463  -1.673  1.00  0.00    -0.359 N 
ATOM      7  H1  UNL     1      -4.653  -0.466  -1.702  1.00  0.00     0.162 HD
HETATM    8  O1  UNL     1      -2.238   1.614  -1.167  1.00  0.00    -0.271 OA
BRANCH   6   9
HETATM    9  C4  UNL     1      -5.070   1.550  -2.083  1.00  0.00     0.122 C 
BRANCH   9  10
HETATM   10  C3  UNL     1      -5.522   2.552  -1.120  1.00  0.00     0.019 C 
BRANCH  10  11
HETATM   11  C2  UNL     1      -4.569   3.374  -0.339  1.00  0.00    -0.003 C 
HETATM   12  C1  UNL     1      -5.459   4.348   0.490  1.00  0.00     0.005 C 
ENDBRANCH  10  11
ENDBRANCH   9  10
ENDBRANCH   6   9
ENDBRANCH   4   5
BRANCH   4  13
HETATM   13  C7  UNL     1      -3.081  -1.838  -0.696  1.00  0.00     0.073 C 
BRANCH  13  14
HETATM   14  C8  UNL     1      -2.550  -3.158  -0.273  1.00  0.00    -0.056 A 
HETATM   15  C9  UNL     1      -1.963  -4.038  -1.163  1.00  0.00     0.007 A 
HETATM   16  C10 UNL     1      -1.536  -5.262  -0.701  1.00  0.00     0.001 A 
HETATM   17  C11 UNL     1      -1.682  -5.628   0.627  1.00  0.00     0.000 A 
HETATM   18  C12 UNL     1      -2.265  -4.759   1.520  1.00  0.00     0.001 A 
HETATM   19  C13 UNL     1      -2.688  -3.530   1.036  1.00  0.00     0.007 A 
ENDBRANCH  13  14
ENDBRANCH   4  13
ENDBRANCH   2   4
ENDBRANCH   1   2
BRANCH   1  20
HETATM   20  O2  UNL     1       0.448  -0.259  -1.002  1.00  0.00    -0.348 OA
ATOM     21  H2  UNL     1       1.378  -0.081  -1.076  1.00  0.00     0.219 HD
ENDBRANCH   1  20
BRANCH   1  22
HETATM   22  C15 UNL     1       1.005   0.447   1.125  1.00  0.00     0.159 C 
BRANCH  22  23
HETATM   23  C16 UNL     1       1.486  -0.199   2.346  1.00  0.00     0.037 C 
BRANCH  23  24
HETATM   24  C17 UNL     1       0.605  -0.493   3.501  1.00  0.00    -0.020 C 
HETATM   25  C18 UNL     1       1.544  -1.103   4.614  1.00  0.00     0.009 C 
HETATM   26  C19 UNL     1      -0.364  -1.627   3.264  1.00  0.00     0.009 C 
ENDBRANCH  23  24
ENDBRANCH  22  23
BRANCH  22  27
HETATM   27  N3  UNL     1       2.269   0.756   0.362  1.00  0.00    -0.346 N 
HETATM   28  C20 UNL     1       3.092  -0.226  -0.193  1.00  0.00     0.241 C 
HETATM   29  O3  UNL     1       2.810  -1.442  -0.079  1.00  0.00    -0.269 OA
ATOM     30  H3  UNL     1       2.536   1.733   0.245  1.00  0.00     0.163 HD
BRANCH  28  31
HETATM   31  C21 UNL     1       4.304   0.103  -0.923  1.00  0.00     0.075 C 
HETATM   32  C22 UNL     1       4.724   1.320  -1.126  1.00  0.00     0.017 C 
BRANCH  32  33
HETATM   33  C23 UNL     1       5.940   1.644  -1.858  1.00  0.00    -0.036 A 
HETATM   34  C24 UNL     1       6.332   2.969  -2.050  1.00  0.00     0.011 A 
HETATM   35  C25 UNL     1       7.455   3.347  -2.721  1.00  0.00     0.001 A 
HETATM   36  C26 UNL     1       8.288   2.393  -3.263  1.00  0.00     0.000 A 
HETATM   37  C27 UNL     1       7.935   1.078  -3.095  1.00  0.00     0.001 A 
HETATM   38  C28 UNL     1       6.778   0.696  -2.403  1.00  0.00     0.011 A 
ENDBRANCH  32  33
ENDBRANCH  28  31
ENDBRANCH  22  27
ENDBRANCH   1  22
TORSDOF 15
