REMARK  3 active torsions:
REMARK  status: ('A' for Active; 'I' for Inactive)
REMARK    1  A    between atoms: N3_10  and  C5_11 
REMARK    2  A    between atoms: C5_11  and  C6_12 
REMARK    3  A    between atoms: C6_12  and  N4_13 
ROOT
HETATM    1  N1  UNL     1      -0.467   2.268  -0.394  1.00  0.00    -0.388 N 
ATOM      2  H11 UNL     1       0.404   2.635  -0.010  1.00  0.00     0.157 HD
ATOM      3  H12 UNL     1      -1.092   2.954  -0.817  1.00  0.00     0.157 HD
HETATM    4  C1  UNL     1      -0.836   1.043  -0.390  1.00  0.00     0.090 C 
HETATM    5  C2  UNL     1      -2.104   0.509  -0.949  1.00  0.00     0.190 C 
HETATM    6  N2  UNL     1      -2.778  -0.207   0.077  1.00  0.00    -0.413 N 
ATOM      7  H2  UNL     1      -3.789  -0.135   0.194  1.00  0.00     0.153 HD
HETATM    8  C3  UNL     1      -2.000  -1.023   0.930  1.00  0.00     0.134 C 
HETATM    9  C4  UNL     1      -0.555  -1.177   0.611  1.00  0.00     0.143 C 
HETATM   10  N3  UNL     1       0.042   0.078   0.205  1.00  0.00    -0.367 N 
ENDROOT
BRANCH  10  11
HETATM   11  C5  UNL     1       1.427   0.405   0.353  1.00  0.00     0.151 C 
BRANCH  11  12
HETATM   12  C6  UNL     1       2.308  -0.440  -0.570  1.00  0.00     0.249 C 
BRANCH  12  13
HETATM   13  N4  UNL     1       3.692  -0.030  -0.340  1.00  0.00    -0.078 N 
ATOM     14  H43 UNL     1       3.837   0.973  -0.458  1.00  0.00     0.274 HD
ATOM     15  H42 UNL     1       3.969  -0.088   0.640  1.00  0.00     0.274 HD
ATOM     16  H41 UNL     1       4.279  -0.593  -0.955  1.00  0.00     0.274 HD
ENDBRANCH  12  13
ENDBRANCH  11  12
ENDBRANCH  10  11
TORSDOF 3
