REMARK  15 active torsions:
REMARK  status: ('A' for Active; 'I' for Inactive)
REMARK       I    between atoms: N2_6  and  C4_8 
REMARK    1  A    between atoms: C4_8  and  C5_10 
REMARK    2  A    between atoms: C8_15  and  C9_16 
REMARK    3  A    between atoms: C9_16  and  C10_17 
REMARK    4  A    between atoms: C10_17  and  C11_18 
REMARK    5  A    between atoms: C11_18  and  O5_20 
REMARK    6  A    between atoms: O5_20  and  C12_21 
REMARK    7  A    between atoms: C12_21  and  C13_22 
REMARK    8  A    between atoms: C13_22  and  C14_23 
REMARK    9  A    between atoms: C14_23  and  C15_24 
REMARK   10  A    between atoms: C21_30  and  C22_31 
REMARK   11  A    between atoms: C22_31  and  C23_32 
REMARK   12  A    between atoms: C26_35  and  C27_36 
REMARK   13  A    between atoms: C27_36  and  C28_37 
REMARK   14  A    between atoms: C28_37  and  C29_38 
REMARK   15  A    between atoms: C29_38  and  N3_39 
REMARK       I    between atoms: N3_39  and  C30_41 
ROOT
HETATM    1  C15 UNL     1       1.027  -0.549  -1.353  1.00  0.00    -0.057 A 
HETATM    2  C16 UNL     1       1.145  -1.825  -1.860  1.00  0.00     0.009 A 
HETATM    3  C17 UNL     1       0.103  -2.422  -2.561  1.00  0.00     0.031 A 
HETATM    4  C18 UNL     1      -1.082  -1.747  -2.766  1.00  0.00     0.046 A 
HETATM    5  C19 UNL     1      -1.236  -0.471  -2.273  1.00  0.00     0.003 A 
HETATM    6  C20 UNL     1      -0.179   0.103  -1.576  1.00  0.00     0.021 A 
HETATM    7  C21 UNL     1      -2.457  -0.028  -2.596  1.00  0.00     0.027 A 
HETATM    8  C33 UNL     1      -3.101  -1.102  -3.338  1.00  0.00     0.253 A 
HETATM    9  O6  UNL     1      -4.258  -1.156  -3.852  1.00  0.00    -0.268 OA
HETATM   10  N6  UNL     1      -2.134  -2.155  -3.390  1.00  0.00    -0.322 N 
ATOM     11  H6  UNL     1      -2.255  -3.063  -3.839  1.00  0.00     0.169 HD
ENDROOT
BRANCH   1  12
HETATM   12  C14 UNL     1       2.134   0.106  -0.602  1.00  0.00     0.041 C 
BRANCH  12  13
HETATM   13  C13 UNL     1       2.084  -0.112   0.873  1.00  0.00     0.031 C 
BRANCH  13  14
HETATM   14  C12 UNL     1       2.165  -1.562   1.280  1.00  0.00     0.179 C 
BRANCH  14  15
HETATM   15  O5  UNL     1       3.315  -2.231   0.897  1.00  0.00    -0.321 OA
BRANCH  15  16
HETATM   16  C11 UNL     1       4.611  -1.962   1.236  1.00  0.00     0.259 C 
HETATM   17  O4  UNL     1       4.838  -0.987   1.992  1.00  0.00    -0.265 OA
BRANCH  16  18
HETATM   18  C10 UNL     1       5.729  -2.778   0.742  1.00  0.00     0.116 C 
BRANCH  18  19
HETATM   19  C9  UNL     1       6.437  -2.210  -0.445  1.00  0.00     0.050 C 
BRANCH  19  20
HETATM   20  C8  UNL     1       7.037  -0.882  -0.224  1.00  0.00    -0.035 A 
HETATM   21  C2  UNL     1       8.194  -0.751   0.475  1.00  0.00     0.013 A 
HETATM   22  C1  UNL     1       8.903  -1.952   1.042  1.00  0.00     0.068 C 
HETATM   23  N1  UNL     1       8.775   0.453   0.700  1.00  0.00    -0.346 N 
HETATM   24  C3  UNL     1       8.193   1.563   0.218  1.00  0.00     0.108 A 
ATOM     25  H1  UNL     1       9.645   0.515   1.230  1.00  0.00     0.167 HD
HETATM   26  N2  UNL     1       8.714   2.712   0.410  1.00  0.00    -0.304 N 
HETATM   27  C6  UNL     1       7.010   1.479  -0.501  1.00  0.00     0.049 A 
HETATM   28  C4  UNL     1       9.915   2.849   1.133  1.00  0.00     0.323 C 
ATOM     29  H2  UNL     1       8.255   3.542   0.035  1.00  0.00     0.171 HD
HETATM   30  O1  UNL     1       9.972   2.663   2.374  1.00  0.00    -0.260 OA
HETATM   31  C7  UNL     1       6.423   0.264  -0.729  1.00  0.00     0.013 A 
BRANCH  28  32
HETATM   32  C5  UNL     1      11.131   3.218   0.426  1.00  0.00     0.270 C 
HETATM   33  O2  UNL     1      11.100   3.406  -0.817  1.00  0.00    -0.640 OA
HETATM   34  O3  UNL     1      12.348   3.375   1.073  1.00  0.00    -0.640 OA
ENDBRANCH  28  32
ENDBRANCH  19  20
ENDBRANCH  18  19
ENDBRANCH  16  18
ENDBRANCH  15  16
ENDBRANCH  14  15
ENDBRANCH  13  14
ENDBRANCH  12  13
ENDBRANCH   1  12
BRANCH   7  35
HETATM   35  C22 UNL     1      -3.040   1.276  -2.272  1.00  0.00     0.083 C 
BRANCH  35  36
HETATM   36  C23 UNL     1      -4.278   1.238  -1.484  1.00  0.00    -0.054 A 
HETATM   37  C24 UNL     1      -5.531   1.231  -2.059  1.00  0.00     0.008 A 
HETATM   38  C25 UNL     1      -6.686   1.196  -1.285  1.00  0.00     0.007 A 
HETATM   39  C26 UNL     1      -6.596   1.168   0.093  1.00  0.00    -0.058 A 
HETATM   40  C31 UNL     1      -5.358   1.175   0.673  1.00  0.00     0.007 A 
HETATM   41  C32 UNL     1      -4.217   1.209  -0.112  1.00  0.00     0.008 A 
BRANCH  39  42
HETATM   42  C27 UNL     1      -7.882   1.135   0.847  1.00  0.00     0.040 C 
BRANCH  42  43
HETATM   43  C28 UNL     1      -8.318  -0.295   1.090  1.00  0.00     0.024 C 
BRANCH  43  44
HETATM   44  C29 UNL     1      -9.612  -0.363   1.847  1.00  0.00     0.122 C 
BRANCH  44  45
HETATM   45  N3  UNL     1     -10.681   0.282   1.128  1.00  0.00    -0.365 N 
HETATM   46  C30 UNL     1     -12.002   0.377   1.630  1.00  0.00     0.181 C 
HETATM   47  N4  UNL     1     -12.582  -0.625   2.167  1.00  0.00    -0.374 N 
HETATM   48  N5  UNL     1     -12.702   1.631   1.529  1.00  0.00    -0.064 NA
ATOM     49  H42 UNL     1     -12.086  -1.513   2.239  1.00  0.00     0.158 HD
ATOM     50  H41 UNL     1     -13.533  -0.557   2.529  1.00  0.00     0.158 HD
ATOM     51  H3  UNL     1     -10.477   0.689   0.215  1.00  0.00     0.162 HD
ENDBRANCH  44  45
ENDBRANCH  43  44
ENDBRANCH  42  43
ENDBRANCH  39  42
ENDBRANCH  35  36
ENDBRANCH   7  35
TORSDOF 15
