REMARK  6 active torsions:
REMARK  status: ('A' for Active; 'I' for Inactive)
REMARK       I    between atoms: C2_2  and  N1_4 
REMARK    1  A    between atoms: N1_4  and  C3_6 
REMARK    2  A    between atoms: C6_9  and  C7_10 
REMARK    3  A    between atoms: C10_13  and  N2_14 
REMARK    4  A    between atoms: C22_28  and  C23_29 
REMARK    5  A    between atoms: C26_34  and  N5_35 
REMARK       I    between atoms: N5_35  and  C27_37 
REMARK    6  A    between atoms: C27_37  and  C28_39 
ROOT
HETATM    1  C7  UNL     1      -2.985  -0.736  -0.425  1.00  0.00    -0.025 A 
HETATM    2  C8  UNL     1      -3.204   0.417  -1.138  1.00  0.00     0.014 A 
HETATM    3  C9  UNL     1      -2.174   1.249  -1.428  1.00  0.00     0.032 A 
HETATM    4  C10 UNL     1      -0.851   0.952  -1.006  1.00  0.00     0.053 A 
HETATM    5  C22 UNL     1      -0.601  -0.180  -0.300  1.00  0.00     0.019 A 
HETATM    6  C34 UNL     1      -1.677  -1.008  -0.020  1.00  0.00     0.028 A 
ENDROOT
BRANCH   5   7
HETATM    7  C23 UNL     1       0.728  -0.530   0.157  1.00  0.00     0.063 A 
HETATM    8  C24 UNL     1       0.893  -1.701   0.894  1.00  0.00     0.048 A 
HETATM    9  C25 UNL     1       2.167  -2.059   1.348  1.00  0.00     0.108 A 
HETATM   10  N4  UNL     1       3.226  -1.299   1.087  1.00  0.00    -0.202 N 
HETATM   11  C26 UNL     1       3.054  -0.172   0.375  1.00  0.00     0.685 A 
ATOM     12  H4  UNL     1       4.152  -1.566   1.421  1.00  0.00     0.183 HD
HETATM   13  N6  UNL     1       1.837   0.171  -0.058  1.00  0.00    -0.191 N 
ATOM     14  H6  UNL     1       1.753   1.035  -0.593  1.00  0.00     0.184 HD
BRANCH  11  15
HETATM   15  N5  UNL     1       4.105   0.570   0.124  1.00  0.00    -0.155 N 
HETATM   16  C27 UNL     1       5.379   0.200   0.585  1.00  0.00     0.269 C 
HETATM   17  O2  UNL     1       5.818   0.700   1.666  1.00  0.00    -0.267 OA
ATOM     18  H5  UNL     1       3.996   1.429  -0.414  1.00  0.00     0.187 HD
BRANCH  16  19
HETATM   19  C28 UNL     1       6.253  -0.732  -0.097  1.00  0.00     0.032 A 
HETATM   20  C29 UNL     1       5.818  -1.300  -1.274  1.00  0.00     0.017 A 
HETATM   21  C30 UNL     1       6.602  -2.199  -1.978  1.00  0.00     0.001 A 
HETATM   22  C31 UNL     1       7.832  -2.533  -1.500  1.00  0.00     0.000 A 
HETATM   23  C32 UNL     1       8.306  -1.988  -0.327  1.00  0.00     0.001 A 
HETATM   24  C33 UNL     1       7.502  -1.095   0.353  1.00  0.00     0.017 A 
ENDBRANCH  16  19
ENDBRANCH  11  15
ENDBRANCH   5   7
BRANCH   4  25
HETATM   25  N2  UNL     1       0.158   1.883  -1.357  1.00  0.00    -0.307 N 
HETATM   26  C11 UNL     1       0.854   1.850  -2.531  1.00  0.00     0.100 A 
HETATM   27  C12 UNL     1       1.722   2.913  -2.608  1.00  0.00     0.033 A 
HETATM   28  C13 UNL     1       1.575   3.638  -1.459  1.00  0.00     0.011 A 
HETATM   29  C14 UNL     1       2.200   4.790  -1.030  1.00  0.00     0.029 A 
HETATM   30  C21 UNL     1       0.614   2.980  -0.721  1.00  0.00     0.123 A 
HETATM   31  C15 UNL     1       1.818   5.286   0.215  1.00  0.00    -0.009 A 
HETATM   32  C16 UNL     1       2.404   6.438   0.705  1.00  0.00     0.014 A 
HETATM   33  C20 UNL     1       0.845   4.597   0.933  1.00  0.00     0.044 A 
HETATM   34  C17 UNL     1       2.011   6.910   1.937  1.00  0.00     0.001 A 
HETATM   35  C18 UNL     1       1.049   6.257   2.683  1.00  0.00     0.002 A 
HETATM   36  C19 UNL     1       0.478   5.112   2.175  1.00  0.00     0.030 A 
HETATM   37  N3  UNL     1       0.267   3.473   0.462  1.00  0.00    -0.341 N 
ATOM     38  H3  UNL     1      -0.443   2.998   1.019  1.00  0.00     0.167 HD
ENDBRANCH   4  25
BRANCH   1  39
HETATM   39  C6  UNL     1      -4.071  -1.651  -0.098  1.00  0.00    -0.026 A 
HETATM   40  C5  UNL     1      -3.895  -3.007   0.026  1.00  0.00     0.014 A 
HETATM   41  C4  UNL     1      -4.910  -3.868   0.333  1.00  0.00     0.030 A 
HETATM   42  C3  UNL     1      -6.203  -3.370   0.535  1.00  0.00     0.034 A 
HETATM   43  C36 UNL     1      -6.406  -2.033   0.417  1.00  0.00     0.030 A 
HETATM   44  C35 UNL     1      -5.342  -1.180   0.102  1.00  0.00     0.014 A 
BRANCH  42  45
HETATM   45  N1  UNL     1      -7.231  -4.279   0.823  1.00  0.00    -0.328 N 
HETATM   46  C2  UNL     1      -8.438  -3.973   1.433  1.00  0.00     0.218 C 
HETATM   47  C1  UNL     1      -9.448  -5.078   1.663  1.00  0.00     0.117 C 
HETATM   48  O1  UNL     1      -8.738  -2.817   1.806  1.00  0.00    -0.274 OA
ATOM     49  H1  UNL     1      -7.077  -5.252   0.560  1.00  0.00     0.169 HD
ENDBRANCH  42  45
ENDBRANCH   1  39
TORSDOF 6
