REMARK  8 active torsions:
REMARK  status: ('A' for Active; 'I' for Inactive)
REMARK    1  A    between atoms: C2_2  and  C5_5 
REMARK    2  A    between atoms: C8_8  and  C9_9 
REMARK    3  A    between atoms: C9_9  and  O1_10 
REMARK    4  A    between atoms: N1_12  and  C10_14 
REMARK    5  A    between atoms: C12_16  and  N2_17 
REMARK    6  A    between atoms: C17_26  and  C18_27 
REMARK    7  A    between atoms: C19_28  and  C20_29 
REMARK    8  A    between atoms: C28_38  and  C29_39 
ROOT
HETATM    1  C20 UNL     1       5.620   2.576   0.573  1.00  0.00    -0.035 A 
HETATM    2  C21 UNL     1       6.218   3.427   1.507  1.00  0.00     0.011 A 
HETATM    3  C22 UNL     1       6.591   4.700   1.120  1.00  0.00     0.002 A 
HETATM    4  C23 UNL     1       6.369   5.112  -0.171  1.00  0.00     0.023 A 
HETATM    5  C24 UNL     1       5.774   4.287  -1.095  1.00  0.00     0.045 A 
HETATM    6  C25 UNL     1       5.581   4.741  -2.432  1.00  0.00     0.099 C 
HETATM    7  N5  UNL     1       5.448   5.141  -3.535  1.00  0.00    -0.191 NA
HETATM    8  C26 UNL     1       5.402   3.008  -0.712  1.00  0.00     0.034 A 
ENDROOT
BRANCH   1   9
HETATM    9  C19 UNL     1       5.296   1.239   0.971  1.00  0.00     0.014 C 
HETATM   10  C18 UNL     1       4.581   0.346   0.350  1.00  0.00     0.033 C 
BRANCH  10  11
HETATM   11  C17 UNL     1       4.407  -0.980   0.960  1.00  0.00     0.071 A 
HETATM   12  N2  UNL     1       3.443  -1.830   0.762  1.00  0.00    -0.254 N 
HETATM   13  N3  UNL     1       3.756  -2.976   1.437  1.00  0.00    -0.277 N 
HETATM   14  C13 UNL     1       4.919  -2.827   2.060  1.00  0.00     0.133 A 
ATOM     15  H3  UNL     1       3.182  -3.819   1.459  1.00  0.00     0.189 HD
HETATM   16  N4  UNL     1       5.839  -3.466   2.851  1.00  0.00    -0.350 N 
HETATM   17  C16 UNL     1       5.402  -1.572   1.797  1.00  0.00     0.039 A 
HETATM   18  C14 UNL     1       6.866  -2.612   3.071  1.00  0.00     0.091 A 
ATOM     19  H4  UNL     1       5.763  -4.418   3.210  1.00  0.00     0.166 HD
HETATM   20  C15 UNL     1       6.611  -1.429   2.424  1.00  0.00     0.034 A 
BRANCH  12  21
HETATM   21  C12 UNL     1       2.161  -1.781   0.114  1.00  0.00     0.062 A 
HETATM   22  C11 UNL     1       1.299  -0.825   0.554  1.00  0.00     0.080 A 
HETATM   23  C10 UNL     1      -0.057  -0.853   0.128  1.00  0.00     0.109 A 
HETATM   24  N7  UNL     1      -0.451  -1.828  -0.711  1.00  0.00    -0.342 N 
HETATM   25  C28 UNL     1       0.371  -2.799  -1.184  1.00  0.00     0.047 A 
ATOM     26  H7  UNL     1      -1.426  -1.838  -1.010  1.00  0.00     0.167 HD
HETATM   27  C27 UNL     1       1.689  -2.745  -0.744  1.00  0.00     0.062 A 
BRANCH  23  28
HETATM   28  N1  UNL     1      -0.843  -0.010   0.619  1.00  0.00    -0.323 N 
HETATM   29  C9  UNL     1      -2.052   0.420   0.646  1.00  0.00     0.151 C 
ATOM     30  H1  UNL     1      -0.301   0.572   1.258  1.00  0.00     0.169 HD
BRANCH  29  31
HETATM   31  C8  UNL     1      -3.373   0.887   0.668  1.00  0.00     0.015 A 
HETATM   32  C7  UNL     1      -4.161   1.483   1.603  1.00  0.00     0.016 A 
HETATM   33  C6  UNL     1      -5.491   1.816   1.379  1.00  0.00     0.009 A 
HETATM   34  C5  UNL     1      -6.089   1.565   0.209  1.00  0.00    -0.051 A 
HETATM   35  C35 UNL     1      -5.359   0.955  -0.800  1.00  0.00     0.009 A 
HETATM   36  C34 UNL     1      -4.060   0.631  -0.575  1.00  0.00     0.016 A 
BRANCH  34  37
HETATM   37  C2  UNL     1      -7.524   1.937  -0.012  1.00  0.00    -0.024 C 
HETATM   38  C1  UNL     1      -8.007   2.967   1.005  1.00  0.00     0.019 C 
HETATM   39  C3  UNL     1      -7.691   2.503  -1.390  1.00  0.00     0.019 C 
HETATM   40  C4  UNL     1      -8.414   0.723   0.110  1.00  0.00     0.019 C 
ENDBRANCH  34  37
ENDBRANCH  29  31
BRANCH  29  41
HETATM   41  O1  UNL     1      -1.873   0.709   2.204  1.00  0.00    -0.345 OA
ATOM     42  H1  UNL     1      -0.977   0.392   2.189  1.00  0.00     0.219 HD
ENDBRANCH  29  41
ENDBRANCH  23  28
BRANCH  25  43
HETATM   43  C29 UNL     1      -0.118  -3.898  -2.028  1.00  0.00     0.006 A 
HETATM   44  C30 UNL     1       0.758  -4.827  -2.549  1.00  0.00     0.016 A 
HETATM   45  C31 UNL     1       0.318  -5.942  -3.296  1.00  0.00     0.018 A 
HETATM   46  C32 UNL     1      -1.025  -6.083  -3.495  1.00  0.00     0.087 A 
HETATM   47  N6  UNL     1      -1.874  -5.166  -2.985  1.00  0.00    -0.374 N 
HETATM   48  C33 UNL     1      -1.428  -4.098  -2.269  1.00  0.00     0.101 A 
ATOM     49  H6  UNL     1      -2.876  -5.276  -3.140  1.00  0.00     0.164 HD
ENDBRANCH  25  43
ENDBRANCH  12  21
ENDBRANCH  10  11
ENDBRANCH   1   9
TORSDOF 8
