REMARK  7 active torsions:
REMARK  status: ('A' for Active; 'I' for Inactive)
REMARK       I    between atoms: C1_2  and  N1_3 
REMARK    1  A    between atoms: C1_2  and  C27_40 
REMARK    2  A    between atoms: N1_3  and  C2_5 
REMARK    3  A    between atoms: C3_8  and  N3_9 
REMARK    4  A    between atoms: N3_9  and  C4_11 
REMARK    5  A    between atoms: C4_11  and  C5_12 
REMARK    6  A    between atoms: N4_28  and  C20_29 
REMARK    7  A    between atoms: C20_29  and  C21_30 
ROOT
HETATM    1  C2  UNL     1       1.039   0.751   1.423  1.00  0.00     0.688 A 
HETATM    2  N2  UNL     1       0.231  -0.226   0.973  1.00  0.00    -0.176 N 
ATOM      3  H2  UNL     1       0.559  -1.192   0.988  1.00  0.00     0.186 HD
HETATM    4  C3  UNL     1      -1.002   0.044   0.503  1.00  0.00     0.132 A 
HETATM    5  C13 UNL     1      -1.393   1.371   0.506  1.00  0.00     0.066 A 
HETATM    6  C14 UNL     1      -2.581   1.951   0.097  1.00  0.00     0.009 A 
HETATM    7  C15 UNL     1      -3.734   1.416  -0.433  1.00  0.00     0.015 A 
HETATM    8  C16 UNL     1      -4.791   2.239  -0.753  1.00  0.00     0.001 A 
HETATM    9  C17 UNL     1      -4.628   3.586  -0.518  1.00  0.00     0.002 A 
HETATM   10  C18 UNL     1      -3.471   4.117   0.012  1.00  0.00     0.030 A 
HETATM   11  C19 UNL     1      -2.413   3.299   0.333  1.00  0.00     0.047 A 
HETATM   12  N4  UNL     1      -1.203   3.568   0.855  1.00  0.00    -0.327 N 
HETATM   13  C26 UNL     1      -0.575   2.379   0.962  1.00  0.00     0.139 A 
HETATM   14  N6  UNL     1       0.645   2.032   1.418  1.00  0.00    -0.175 N 
ATOM     15  H6  UNL     1       1.277   2.754   1.764  1.00  0.00     0.186 HD
ENDROOT
BRANCH   1  16
HETATM   16  N1  UNL     1       2.228   0.507   1.878  1.00  0.00    -0.155 N 
HETATM   17  C1  UNL     1       2.793  -0.785   1.951  1.00  0.00     0.269 C 
HETATM   18  O1  UNL     1       2.289  -1.599   2.767  1.00  0.00    -0.267 OA
ATOM     19  H1  UNL     1       2.789   1.295   2.202  1.00  0.00     0.187 HD
BRANCH  17  20
HETATM   20  C27 UNL     1       3.919  -1.210   1.133  1.00  0.00     0.033 A 
HETATM   21  C28 UNL     1       4.498  -0.339   0.224  1.00  0.00     0.018 A 
HETATM   22  C29 UNL     1       5.561  -0.749  -0.545  1.00  0.00     0.013 A 
HETATM   23  C30 UNL     1       6.088  -2.029  -0.445  1.00  0.00    -0.026 A 
HETATM   24  C31 UNL     1       7.160  -2.422  -1.229  1.00  0.00     0.012 A 
HETATM   25  C35 UNL     1       5.501  -2.884   0.464  1.00  0.00    -0.025 A 
HETATM   26  C32 UNL     1       7.667  -3.687  -1.118  1.00  0.00     0.001 A 
HETATM   27  C33 UNL     1       7.111  -4.569  -0.226  1.00  0.00     0.001 A 
HETATM   28  C34 UNL     1       6.041  -4.164   0.552  1.00  0.00     0.012 A 
HETATM   29  C36 UNL     1       4.430  -2.484   1.244  1.00  0.00     0.029 A 
ENDBRANCH  17  20
ENDBRANCH   1  16
BRANCH   4  30
HETATM   30  N3  UNL     1      -1.764  -0.902   0.077  1.00  0.00    -0.369 N 
ATOM     31  H3  UNL     1      -2.689  -0.647  -0.270  1.00  0.00     0.161 HD
BRANCH  30  32
HETATM   32  C4  UNL     1      -1.404  -2.284   0.057  1.00  0.00     0.186 C 
BRANCH  32  33
HETATM   33  C5  UNL     1      -2.680  -3.066  -0.093  1.00  0.00     0.072 A 
HETATM   34  C6  UNL     1      -3.495  -3.551   0.899  1.00  0.00     0.048 A 
HETATM   35  C7  UNL     1      -4.539  -4.197   0.273  1.00  0.00     0.000 A 
HETATM   36  C8  UNL     1      -5.646  -4.868   0.743  1.00  0.00     0.014 A 
HETATM   37  C12 UNL     1      -4.305  -4.072  -1.096  1.00  0.00     0.086 A 
HETATM   38  C9  UNL     1      -6.552  -5.433  -0.148  1.00  0.00     0.001 A 
HETATM   39  C10 UNL     1      -6.313  -5.304  -1.500  1.00  0.00     0.003 A 
HETATM   40  C11 UNL     1      -5.207  -4.634  -1.972  1.00  0.00     0.038 A 
HETATM   41  O2  UNL     1      -3.190  -3.392  -1.234  1.00  0.00    -0.313 OA
ENDBRANCH  32  33
ENDBRANCH  30  32
ENDBRANCH   4  30
BRANCH  12  42
HETATM   42  C20 UNL     1      -0.671   4.873   1.229  1.00  0.00     0.170 C 
BRANCH  42  43
HETATM   43  C21 UNL     1       0.033   5.551   0.153  1.00  0.00    -0.025 A 
HETATM   44  C22 UNL     1       1.372   5.337  -0.078  1.00  0.00     0.011 A 
HETATM   45  C23 UNL     1       2.061   5.989  -1.109  1.00  0.00     0.018 A 
HETATM   46  C24 UNL     1       1.314   6.862  -1.880  1.00  0.00     0.087 A 
HETATM   47  N5  UNL     1       0.006   7.074  -1.657  1.00  0.00    -0.375 N 
HETATM   48  C25 UNL     1      -0.614   6.434  -0.666  1.00  0.00     0.096 A 
ATOM     49  H5  UNL     1      -0.513   7.725  -2.246  1.00  0.00     0.164 HD
ENDBRANCH  42  43
ENDBRANCH  12  42
TORSDOF 7
