REMARK  10 active torsions:
REMARK  status: ('A' for Active; 'I' for Inactive)
REMARK    1  A    between atoms: N1_1  and  S1_4 
REMARK    2  A    between atoms: S1_4  and  N2_5 
REMARK    3  A    between atoms: S1_4  and  C1_9 
REMARK    4  A    between atoms: C4_12  and  C5_13 
REMARK    5  A    between atoms: C5_13  and  C6_14 
REMARK    6  A    between atoms: C6_14  and  C7_15 
REMARK       I    between atoms: C7_15  and  N3_17 
REMARK    7  A    between atoms: N3_17  and  N4_19 
REMARK    8  A    between atoms: N4_19  and  C8_21 
REMARK    9  A    between atoms: C9_23  and  N5_24 
REMARK   10  A    between atoms: N5_24  and  N6_26 
ROOT
HETATM    1  C1  UNL     1       3.220  -0.596  -0.489  1.00  0.00     0.125 C 
HETATM    2  C2  UNL     1       2.217  -1.130  -1.281  1.00  0.00     0.030 C 
HETATM    3  C3  UNL     1       0.854  -1.074  -1.092  1.00  0.00     0.012 C 
HETATM    4  C4  UNL     1       0.095  -0.624  -0.033  1.00  0.00    -0.012 C 
HETATM    5  C9  UNL     1       0.617  -0.063   1.113  1.00  0.00     0.128 C 
HETATM    6  N7  UNL     1       1.906   0.169   1.455  1.00  0.00    -0.307 N 
ATOM      7  H7  UNL     1       2.040   0.629   2.355  1.00  0.00     0.170 HD
HETATM    8  C10 UNL     1       3.049  -0.120   0.777  1.00  0.00     0.268 C 
HETATM    9  O4  UNL     1       4.133   0.077   1.405  1.00  0.00    -0.267 OA
ENDROOT
BRANCH   4  10
HETATM   10  C5  UNL     1      -1.352  -0.719  -0.078  1.00  0.00     0.052 C 
BRANCH  10  11
HETATM   11  C6  UNL     1      -2.126   0.509  -0.382  1.00  0.00     0.109 C 
BRANCH  11  12
HETATM   12  C7  UNL     1      -3.587   0.132  -0.370  1.00  0.00     0.236 C 
HETATM   13  O2  UNL     1      -3.957  -1.042  -0.114  1.00  0.00    -0.272 OA
HETATM   14  N3  UNL     1      -4.572   1.098  -0.649  1.00  0.00    -0.268 N 
ATOM     15  H3  UNL     1      -4.298   2.058  -0.860  1.00  0.00     0.190 HD
BRANCH  14  16
HETATM   16  N4  UNL     1      -5.923   0.745  -0.637  1.00  0.00    -0.275 N 
ATOM     17  H4  UNL     1      -6.462   0.822  -1.499  1.00  0.00     0.189 HD
BRANCH  16  18
HETATM   18  C8  UNL     1      -6.561   0.288   0.526  1.00  0.00     0.368 C 
HETATM   19  O3  UNL     1      -5.935   0.178   1.609  1.00  0.00    -0.282 OA
ENDBRANCH  16  18
ENDBRANCH  14  16
ENDBRANCH  11  12
ENDBRANCH  10  11
ENDBRANCH   4  10
BRANCH   5  20
HETATM   20  N5  UNL     1      -0.243   0.293   1.994  1.00  0.00    -0.292 N 
ATOM     21  H5  UNL     1      -1.239   0.155   1.823  1.00  0.00     0.188 HD
BRANCH  20  22
HETATM   22  N6  UNL     1       0.187   0.866   3.179  1.00  0.00    -0.344 N 
ATOM     23  H62 UNL     1       1.187   0.997   3.334  1.00  0.00     0.176 HD
ATOM     24  H61 UNL     1      -0.497   1.149   3.880  1.00  0.00     0.176 HD
ENDBRANCH  20  22
ENDBRANCH   5  20
BRANCH   1  25
HETATM   25  S1  UNL     1       4.841  -0.523  -1.162  1.00  0.00     0.136 S 
HETATM   26  O1  UNL     1       5.790  -1.302  -0.326  1.00  0.00    -0.224 OA
BRANCH  25  27
HETATM   27  N1  UNL     1       4.842  -1.050  -2.632  1.00  0.00    -0.341 N 
ATOM     28  H12 UNL     1       5.103  -0.508  -3.455  1.00  0.00     0.167 HD
ATOM     29  H11 UNL     1       4.537  -2.023  -2.608  1.00  0.00     0.167 HD
ENDBRANCH  25  27
BRANCH  25  30
HETATM   30  N2  UNL     1       5.358   1.125  -1.202  1.00  0.00    -0.341 N 
ATOM     31  H22 UNL     1       5.614   1.645  -2.041  1.00  0.00     0.167 HD
ATOM     32  H21 UNL     1       5.357   1.469  -0.242  1.00  0.00     0.167 HD
ENDBRANCH  25  30
ENDBRANCH   1  25
TORSDOF 10
