REMARK  12 active torsions:
REMARK  status: ('A' for Active; 'I' for Inactive)
REMARK    1  A    between atoms: N1_1  and  N2_4 
REMARK    2  A    between atoms: N2_4  and  C1_6 
REMARK    3  A    between atoms: C1_6  and  N3_7 
REMARK    4  A    between atoms: C1_6  and  C6_30 
REMARK       I    between atoms: N3_7  and  C2_9 
REMARK       I    between atoms: C2_9  and  N4_11 
REMARK    5  A    between atoms: N4_11  and  N5_13 
REMARK    6  A    between atoms: N5_13  and  C3_15 
REMARK    7  A    between atoms: C4_21  and  C5_22 
REMARK       I    between atoms: C5_22  and  N8_24 
REMARK    8  A    between atoms: N8_24  and  N9_26 
REMARK    9  A    between atoms: N9_26  and  O4_28 
REMARK   10  A    between atoms: N12_35  and  C7_36 
REMARK   11  A    between atoms: C10_39  and  O5_40 
REMARK   12  A    between atoms: C12_43  and  O6_44 
ROOT
HETATM    1  C1  UNL     1      -0.280   2.837   1.494  1.00  0.00     0.171 C 
ENDROOT
BRANCH   1   2
HETATM    2  N2  UNL     1      -0.613   3.894   2.234  1.00  0.00    -0.289 N 
ATOM      3  H2  UNL     1       0.071   4.311   2.865  1.00  0.00     0.188 HD
BRANCH   2   4
HETATM    4  N1  UNL     1      -1.881   4.422   2.146  1.00  0.00    -0.344 N 
ATOM      5  H12 UNL     1      -2.553   3.993   1.510  1.00  0.00     0.176 HD
ATOM      6  H11 UNL     1      -2.136   5.231   2.712  1.00  0.00     0.176 HD
ENDBRANCH   2   4
ENDBRANCH   1   2
BRANCH   1   7
HETATM    7  N3  UNL     1       1.025   2.393   1.667  1.00  0.00    -0.289 N 
HETATM    8  C2  UNL     1       1.605   1.319   0.977  1.00  0.00     0.340 C 
HETATM    9  O1  UNL     1       0.994   0.636   0.108  1.00  0.00    -0.245 OA
HETATM   10  N4  UNL     1       2.979   0.979   1.284  1.00  0.00    -0.250 N 
ATOM     11  H4  UNL     1       3.505   1.507   1.981  1.00  0.00     0.192 HD
ATOM     12  H3  UNL     1       1.605   2.885   2.347  1.00  0.00     0.172 HD
BRANCH  10  13
HETATM   13  N5  UNL     1       3.556  -0.070   0.615  1.00  0.00    -0.278 N 
ATOM     14  H5  UNL     1       3.001  -0.918   0.499  1.00  0.00     0.189 HD
BRANCH  13  15
HETATM   15  C3  UNL     1       4.745  -0.066   0.123  1.00  0.00     0.176 A 
HETATM   16  N6  UNL     1       5.610   0.983   0.194  1.00  0.00    -0.222 N 
HETATM   17  O2  UNL     1       6.692   0.629  -0.400  1.00  0.00    -0.155 OA
ATOM     18  H6  UNL     1       5.431   1.884   0.637  1.00  0.00     0.198 HD
HETATM   19  N7  UNL     1       6.621  -0.567  -0.860  1.00  0.00    -0.232 N 
HETATM   20  C4  UNL     1       5.371  -1.073  -0.549  1.00  0.00     0.172 A 
ATOM     21  H7  UNL     1       7.357  -1.059  -1.366  1.00  0.00     0.197 HD
BRANCH  20  22
HETATM   22  C5  UNL     1       4.924  -2.405  -0.909  1.00  0.00     0.293 C 
HETATM   23  O3  UNL     1       5.713  -3.151  -1.543  1.00  0.00    -0.264 OA
HETATM   24  N8  UNL     1       3.668  -2.896  -0.589  1.00  0.00    -0.245 N 
ATOM     25  H8  UNL     1       3.022  -2.296  -0.075  1.00  0.00     0.192 HD
BRANCH  24  26
HETATM   26  N9  UNL     1       3.248  -4.199  -0.949  1.00  0.00    -0.207 N 
ATOM     27  H9  UNL     1       2.396  -4.306  -1.500  1.00  0.00     0.215 HD
BRANCH  26  28
HETATM   28  O4  UNL     1       3.874  -5.210  -0.621  1.00  0.00    -0.274 OA
ATOM     29  H4  UNL     1       3.592  -6.084  -0.863  1.00  0.00     0.246 HD
ENDBRANCH  26  28
ENDBRANCH  24  26
ENDBRANCH  20  22
ENDBRANCH  13  15
ENDBRANCH  10  13
ENDBRANCH   1   7
BRANCH   1  30
HETATM   30  C6  UNL     1      -1.268   2.285   0.617  1.00  0.00     0.184 A 
HETATM   31  N10 UNL     1      -1.993   2.968  -0.333  1.00  0.00    -0.265 N 
HETATM   32  N11 UNL     1      -2.834   2.119  -0.894  1.00  0.00    -0.219 N 
ATOM     33  H10 UNL     1      -1.897   3.957  -0.563  1.00  0.00     0.190 HD
HETATM   34  N12 UNL     1      -2.694   0.925  -0.360  1.00  0.00    -0.178 N 
ATOM     35  H11 UNL     1      -3.496   2.354  -1.634  1.00  0.00     0.210 HD
HETATM   36  N13 UNL     1      -1.746   1.052   0.546  1.00  0.00    -0.258 N 
ATOM     37  H13 UNL     1      -1.416   0.284   1.130  1.00  0.00     0.191 HD
BRANCH  34  38
HETATM   38  C7  UNL     1      -3.367  -0.292  -0.633  1.00  0.00     0.109 A 
HETATM   39  C8  UNL     1      -2.863  -1.119  -1.610  1.00  0.00     0.039 A 
HETATM   40  C9  UNL     1      -3.526  -2.297  -1.866  1.00  0.00     0.039 A 
HETATM   41  C10 UNL     1      -4.663  -2.647  -1.170  1.00  0.00     0.068 A 
HETATM   42  C11 UNL     1      -5.153  -1.808  -0.196  1.00  0.00     0.075 A 
HETATM   43  C12 UNL     1      -4.501  -0.625   0.071  1.00  0.00     0.098 A 
BRANCH  41  44
HETATM   44  O5  UNL     1      -5.315  -3.865  -1.462  1.00  0.00    -0.361 OA
ATOM     45  H5  UNL     1      -6.099  -4.106  -0.982  1.00  0.00     0.217 HD
ENDBRANCH  41  44
BRANCH  43  46
HETATM   46  O6  UNL     1      -4.996   0.233   1.062  1.00  0.00    -0.358 OA
ATOM     47  H6  UNL     1      -5.779   0.003   1.548  1.00  0.00     0.217 HD
ENDBRANCH  43  46
ENDBRANCH  34  38
ENDBRANCH   1  30
TORSDOF 12
