REMARK  11 active torsions:
REMARK  status: ('A' for Active; 'I' for Inactive)
REMARK    1  A    between atoms: N1_1  and  N2_4 
REMARK    2  A    between atoms: N2_4  and  C1_6 
REMARK    3  A    between atoms: C1_6  and  O1_7 
REMARK    4  A    between atoms: C1_6  and  C2_9 
REMARK    5  A    between atoms: C3_10  and  S1_11 
REMARK    6  A    between atoms: S1_11  and  S2_12 
REMARK    7  A    between atoms: S2_12  and  C4_13 
REMARK    8  A    between atoms: N5_22  and  N6_23 
REMARK    9  A    between atoms: C9_31  and  C10_32 
REMARK   10  A    between atoms: C11_35  and  O6_36 
REMARK   11  A    between atoms: C12_38  and  O7_39 
ROOT
HETATM    1  C2  UNL     1      -2.632   0.981   1.170  1.00  0.00     0.086 A 
HETATM    2  C3  UNL     1      -1.830   1.179   0.076  1.00  0.00     0.099 A 
HETATM    3  N8  UNL     1      -2.066   0.632  -1.141  1.00  0.00    -0.342 N 
ATOM      4  H8  UNL     1      -1.417   0.832  -1.902  1.00  0.00     0.167 HD
HETATM    5  C9  UNL     1      -3.125  -0.167  -1.386  1.00  0.00     0.147 A 
HETATM    6  C11 UNL     1      -3.953  -0.396  -0.334  1.00  0.00     0.134 A 
HETATM    7  C12 UNL     1      -3.754   0.153   0.968  1.00  0.00     0.118 A 
ENDROOT
BRANCH   2   8
HETATM    8  S1  UNL     1      -0.346   2.201   0.233  1.00  0.00    -0.032 SA
BRANCH   8   9
HETATM    9  S2  UNL     1       1.266   0.915   0.767  1.00  0.00    -0.030 SA
BRANCH   9  10
HETATM   10  C4  UNL     1       2.067   0.301  -0.699  1.00  0.00     0.125 A 
HETATM   11  C5  UNL     1       1.742   0.577  -1.997  1.00  0.00     0.145 A 
HETATM   12  N3  UNL     1       2.582  -0.077  -2.833  1.00  0.00    -0.198 N 
HETATM   13  C6  UNL     1       3.431  -0.761  -2.051  1.00  0.00     0.697 A 
ATOM     14  H3  UNL     1       2.572  -0.054  -3.853  1.00  0.00     0.183 HD
HETATM   15  N4  UNL     1       4.458  -1.571  -2.347  1.00  0.00    -0.139 N 
HETATM   16  N7  UNL     1       3.117  -0.531  -0.744  1.00  0.00    -0.086 N 
HETATM   17  C7  UNL     1       5.181  -2.158  -1.375  1.00  0.00     0.363 A 
ATOM     18  H4  UNL     1       4.695  -1.745  -3.324  1.00  0.00     0.189 HD
HETATM   19  O2  UNL     1       6.149  -2.923  -1.591  1.00  0.00    -0.244 OA
HETATM   20  N5  UNL     1       4.849  -1.914  -0.081  1.00  0.00    -0.158 N 
HETATM   21  C8  UNL     1       3.823  -1.105   0.247  1.00  0.00     0.371 A 
HETATM   22  O3  UNL     1       3.501  -0.867   1.439  1.00  0.00    -0.243 OA
BRANCH  20  23
HETATM   23  N6  UNL     1       5.562  -2.495   0.979  1.00  0.00    -0.330 N 
ATOM     24  H62 UNL     1       6.339  -3.108   0.731  1.00  0.00     0.177 HD
ATOM     25  H61 UNL     1       5.313  -2.312   1.951  1.00  0.00     0.177 HD
ENDBRANCH  20  23
ENDBRANCH   9  10
ENDBRANCH   8   9
ENDBRANCH   2   8
BRANCH   1  26
HETATM   26  C1  UNL     1      -2.410   1.553   2.476  1.00  0.00     0.170 C 
BRANCH  26  27
HETATM   27  N2  UNL     1      -1.402   2.403   2.948  1.00  0.00    -0.286 N 
ATOM     28  H2  UNL     1      -0.652   2.728   2.338  1.00  0.00     0.188 HD
BRANCH  27  29
HETATM   29  N1  UNL     1      -1.470   2.799   4.334  1.00  0.00    -0.343 N 
ATOM     30  H12 UNL     1      -2.227   2.465   4.931  1.00  0.00     0.176 HD
ATOM     31  H11 UNL     1      -0.736   3.418   4.678  1.00  0.00     0.176 HD
ENDBRANCH  27  29
ENDBRANCH  26  27
BRANCH  26  32
HETATM   32  O1  UNL     1      -3.289   1.237   3.386  1.00  0.00    -0.344 OA
ATOM     33  H1  UNL     1      -3.973   0.660   3.066  1.00  0.00     0.219 HD
ENDBRANCH  26  32
ENDBRANCH   1  26
BRANCH   7  34
HETATM   34  O7  UNL     1      -4.635  -0.144   1.925  1.00  0.00    -0.357 OA
ATOM     35  H7  UNL     1      -5.391  -0.702   1.789  1.00  0.00     0.217 HD
ENDBRANCH   7  34
BRANCH   5  36
HETATM   36  C10 UNL     1      -3.288  -0.704  -2.732  1.00  0.00     0.229 C 
HETATM   37  O4  UNL     1      -4.233  -1.441  -3.026  1.00  0.00    -0.643 OA
HETATM   38  O5  UNL     1      -2.346  -0.374  -3.713  1.00  0.00    -0.643 OA
ENDBRANCH   5  36
BRANCH   6  39
HETATM   39  O6  UNL     1      -5.049  -1.184  -0.464  1.00  0.00    -0.356 OA
ATOM     40  H6  UNL     1      -5.628  -1.344   0.272  1.00  0.00     0.218 HD
ENDBRANCH   6  39
TORSDOF 11
