REMARK  16 active torsions:
REMARK  status: ('A' for Active; 'I' for Inactive)
REMARK    1  A    between atoms: C5_5  and  C6_6 
REMARK    2  A    between atoms: C6_6  and  N1_7 
REMARK       I    between atoms: N1_7  and  C7_9 
REMARK    3  A    between atoms: C7_9  and  C8_11 
REMARK    4  A    between atoms: C10_13  and  N2_14 
REMARK       I    between atoms: N2_14  and  C11_16 
REMARK    5  A    between atoms: N4_18  and  C12_20 
REMARK    6  A    between atoms: C12_20  and  C13_21 
REMARK    7  A    between atoms: C13_21  and  C14_22 
REMARK    8  A    between atoms: C14_22  and  C15_23 
REMARK    9  A    between atoms: C15_23  and  N5_24 
REMARK   10  A    between atoms: N5_24  and  C16_26 
REMARK   11  A    between atoms: C16_26  and  C17_27 
REMARK   12  A    between atoms: C17_27  and  C18_28 
REMARK   13  A    between atoms: C18_28  and  N6_29 
REMARK   14  A    between atoms: C22_38  and  C23_39 
REMARK   15  A    between atoms: C23_39  and  C24_40 
REMARK   16  A    between atoms: C24_40  and  N10_41 
ROOT
HETATM    1  C8  UNL     1      -1.884  -0.422  -0.167  1.00  0.00     0.043 A 
HETATM    2  C9  UNL     1      -0.610   0.012  -0.527  1.00  0.00     0.066 A 
HETATM    3  C10 UNL     1       0.101  -0.625  -1.521  1.00  0.00     0.108 A 
HETATM    4  N9  UNL     1      -0.476  -1.676  -2.128  1.00  0.00    -0.346 N 
ATOM      5  H9  UNL     1       0.033  -2.161  -2.866  1.00  0.00     0.167 HD
HETATM    6  C20 UNL     1      -1.724  -2.114  -1.786  1.00  0.00     0.014 A 
HETATM    7  C21 UNL     1      -2.307  -3.281  -2.493  1.00  0.00     0.068 C 
HETATM    8  C22 UNL     1      -2.465  -1.502  -0.797  1.00  0.00    -0.018 A 
ENDROOT
BRANCH   3   9
HETATM    9  N2  UNL     1       1.271  -0.167  -1.805  1.00  0.00    -0.317 N 
HETATM   10  C11 UNL     1       2.126  -0.698  -2.791  1.00  0.00     0.189 C 
HETATM   11  N3  UNL     1       1.707  -0.690  -4.147  1.00  0.00    -0.063 NA
HETATM   12  N4  UNL     1       3.263  -1.171  -2.473  1.00  0.00    -0.364 N 
ATOM     13  H4  UNL     1       3.876  -1.554  -3.193  1.00  0.00     0.162 HD
ATOM     14  H2  UNL     1       1.603   0.640  -1.277  1.00  0.00     0.170 HD
BRANCH  12  15
HETATM   15  C12 UNL     1       3.686  -1.165  -1.090  1.00  0.00     0.122 C 
BRANCH  15  16
HETATM   16  C13 UNL     1       5.194  -1.114  -1.111  1.00  0.00     0.021 C 
BRANCH  16  17
HETATM   17  C14 UNL     1       5.842  -1.103   0.229  1.00  0.00     0.021 C 
BRANCH  17  18
HETATM   18  C15 UNL     1       5.480   0.046   1.112  1.00  0.00     0.113 C 
BRANCH  18  19
HETATM   19  N5  UNL     1       5.794   1.336   0.594  1.00  0.00    -0.421 N 
ATOM     20  H5  UNL     1       5.070   1.998   0.316  1.00  0.00     0.153 HD
BRANCH  19  21
HETATM   21  C16 UNL     1       7.184   1.646   0.488  1.00  0.00     0.115 C 
BRANCH  21  22
HETATM   22  C17 UNL     1       7.878   1.798   1.834  1.00  0.00     0.039 C 
BRANCH  22  23
HETATM   23  C18 UNL     1       9.341   2.141   1.517  1.00  0.00     0.123 C 
BRANCH  23  24
HETATM   24  N6  UNL     1       9.870   1.031   0.749  1.00  0.00    -0.367 N 
HETATM   25  C19 UNL     1      10.333  -0.005   1.316  1.00  0.00     0.196 C 
HETATM   26  N7  UNL     1      10.346  -0.104   2.720  1.00  0.00    -0.067 NA
HETATM   27  N8  UNL     1      10.839  -1.067   0.521  1.00  0.00    -0.067 NA
ATOM     28  H6  UNL     1       9.870   1.084  -0.270  1.00  0.00     0.161 HD
ENDBRANCH  23  24
ENDBRANCH  22  23
ENDBRANCH  21  22
ENDBRANCH  19  21
ENDBRANCH  18  19
ENDBRANCH  17  18
ENDBRANCH  16  17
ENDBRANCH  15  16
ENDBRANCH  12  15
ENDBRANCH   3   9
BRANCH   1  29
HETATM   29  C7  UNL     1      -2.539   0.334   0.883  1.00  0.00     0.252 C 
HETATM   30  N1  UNL     1      -2.360   1.742   0.909  1.00  0.00    -0.353 N 
ATOM     31  H1  UNL     1      -1.771   2.160   0.189  1.00  0.00     0.163 HD
HETATM   32  O1  UNL     1      -3.262  -0.207   1.773  1.00  0.00    -0.268 OA
BRANCH  30  33
HETATM   33  C6  UNL     1      -2.954   2.619   1.884  1.00  0.00     0.161 C 
BRANCH  33  34
HETATM   34  C5  UNL     1      -4.383   2.879   1.615  1.00  0.00    -0.041 A 
HETATM   35  C4  UNL     1      -5.365   2.231   2.321  1.00  0.00     0.009 A 
HETATM   36  C3  UNL     1      -6.711   2.467   2.067  1.00  0.00     0.007 A 
HETATM   37  C2  UNL     1      -7.087   3.359   1.102  1.00  0.00    -0.062 A 
HETATM   38  C1  UNL     1      -8.536   3.633   0.807  1.00  0.00     0.048 C 
HETATM   39  C30 UNL     1      -6.115   4.022   0.380  1.00  0.00     0.007 A 
HETATM   40  C29 UNL     1      -4.775   3.775   0.645  1.00  0.00     0.009 A 
ENDBRANCH  33  34
ENDBRANCH  30  33
ENDBRANCH   1  29
BRANCH   8  41
HETATM   41  C23 UNL     1      -3.800  -1.984  -0.446  1.00  0.00     0.061 C 
BRANCH  41  42
HETATM   42  C24 UNL     1      -4.913  -1.101  -0.970  1.00  0.00     0.130 C 
BRANCH  42  43
HETATM   43  N10 UNL     1      -6.169  -1.675  -0.547  1.00  0.00    -0.352 N 
HETATM   44  C25 UNL     1      -6.830  -1.343   0.698  1.00  0.00     0.126 C 
HETATM   45  C26 UNL     1      -7.304  -2.739   1.124  1.00  0.00     0.029 C 
HETATM   46  C27 UNL     1      -7.961  -3.203  -0.173  1.00  0.00     0.104 C 
HETATM   47  C28 UNL     1      -7.010  -2.627  -1.180  1.00  0.00     0.219 C 
HETATM   48  O2  UNL     1      -6.941  -2.921  -2.413  1.00  0.00    -0.273 OA
ENDBRANCH  42  43
ENDBRANCH  41  42
ENDBRANCH   8  41
TORSDOF 16
