REMARK  3 active torsions:
REMARK  status: ('A' for Active; 'I' for Inactive)
REMARK    1  A    between atoms: C2_2  and  C4_4 
REMARK    2  A    between atoms: C7_10  and  N2_11 
REMARK    3  A    between atoms: C14_23  and  N6_24 
ROOT
HETATM    1  C4  UNL     1       3.002   0.366   0.202  1.00  0.00     0.055 A 
HETATM    2  N1  UNL     1       2.517   0.270  -1.018  1.00  0.00    -0.353 N 
ATOM      3  H1  UNL     1       3.129   0.403  -1.823  1.00  0.00     0.166 HD
HETATM    4  C5  UNL     1       1.251   0.004  -1.197  1.00  0.00     0.050 A 
HETATM    5  C6  UNL     1       0.467  -0.160  -0.098  1.00  0.00     0.073 A 
HETATM    6  S1  UNL     1       1.632   0.073   1.171  1.00  0.00    -0.074 SA
HETATM    7  C7  UNL     1      -1.030  -0.346  -0.121  1.00  0.00     0.308 C 
HETATM    8  N3  UNL     1      -1.345  -1.000   1.122  1.00  0.00    -0.323 N 
ATOM      9  H3  UNL     1      -1.139  -0.485   1.978  1.00  0.00     0.165 HD
HETATM   10  C12 UNL     1      -1.852  -2.150   1.256  1.00  0.00     0.186 C 
HETATM   11  N4  UNL     1      -2.147  -2.755   2.507  1.00  0.00    -0.064 NA
HETATM   12  N5  UNL     1      -2.140  -2.886   0.048  1.00  0.00    -0.362 N 
ATOM     13  H5  UNL     1      -2.872  -3.595   0.001  1.00  0.00     0.162 HD
HETATM   14  C13 UNL     1      -1.313  -2.544  -1.097  1.00  0.00     0.170 C 
HETATM   15  C14 UNL     1      -1.447  -1.005  -1.351  1.00  0.00     0.216 C 
HETATM   16  C15 UNL     1      -0.601  -0.773  -2.514  1.00  0.00     0.020 C 
HETATM   17  C16 UNL     1       0.608  -0.333  -2.504  1.00  0.00     0.029 C 
ENDROOT
BRANCH   7  18
HETATM   18  N2  UNL     1      -1.559   1.037  -0.018  1.00  0.00     0.126 N 
HETATM   19  C8  UNL     1      -2.939   1.149   0.043  1.00  0.00     0.276 C 
HETATM   20  C9  UNL     1      -3.233   2.325   0.936  1.00  0.00     0.032 C 
HETATM   21  C10 UNL     1      -1.929   2.696   1.581  1.00  0.00     0.032 C 
HETATM   22  C11 UNL     1      -0.960   1.658   1.088  1.00  0.00     0.276 C 
ENDBRANCH   7  18
BRANCH  15  23
HETATM   23  N6  UNL     1      -2.856  -0.878  -1.706  1.00  0.00    -0.060 N 
ATOM     24  H63 UNL     1      -3.437  -1.197  -0.930  1.00  0.00     0.275 HD
ATOM     25  H62 UNL     1      -3.116   0.108  -1.738  1.00  0.00     0.275 HD
ATOM     26  H61 UNL     1      -3.148  -1.340  -2.567  1.00  0.00     0.275 HD
ENDBRANCH  15  23
BRANCH   1  27
HETATM   27  C2  UNL     1       4.433   0.665   0.566  1.00  0.00     0.035 C 
HETATM   28  C1  UNL     1       4.839   2.036   0.073  1.00  0.00     0.016 C 
HETATM   29  C3  UNL     1       5.286  -0.368  -0.138  1.00  0.00     0.016 C 
ENDBRANCH   1  27
TORSDOF 3
