REMARK  14 active torsions:
REMARK  status: ('A' for Active; 'I' for Inactive)
REMARK    1  A    between atoms: C3_3  and  O1_4 
REMARK    2  A    between atoms: C11_14  and  C12_15 
REMARK       I    between atoms: C12_15  and  N1_17 
REMARK    3  A    between atoms: N1_17  and  C13_19 
REMARK    4  A    between atoms: C13_19  and  C14_20 
REMARK    5  A    between atoms: C14_20  and  C15_21 
REMARK    6  A    between atoms: C15_21  and  C16_22 
REMARK    7  A    between atoms: C16_22  and  N2_23 
REMARK    8  A    between atoms: C19_26  and  N3_27 
REMARK    9  A    between atoms: C21_31  and  N4_32 
REMARK       I    between atoms: N5_41  and  C29_42 
REMARK   10  A    between atoms: N7_44  and  C30_46 
REMARK   11  A    between atoms: C30_46  and  C31_47 
REMARK   12  A    between atoms: C31_47  and  C32_48 
REMARK   13  A    between atoms: C32_48  and  C33_49 
REMARK   14  A    between atoms: C33_49  and  N8_50 
ROOT
HETATM    1  C1  UNL     1      -4.411  -2.529   2.635  1.00  0.00     0.013 C 
HETATM    2  C2  UNL     1      -3.789  -2.164   1.280  1.00  0.00     0.016 C 
HETATM    3  C3  UNL     1      -4.317  -3.203   0.294  1.00  0.00     0.131 C 
HETATM    4  C4  UNL     1      -3.317  -4.248  -0.056  1.00  0.00     0.078 C 
HETATM    5  C5  UNL     1      -2.052  -3.622  -0.628  1.00  0.00     0.136 C 
HETATM    6  O2  UNL     1      -2.752  -3.433  -1.798  1.00  0.00    -0.374 OA
HETATM    7  C6  UNL     1      -3.391  -4.663  -1.526  1.00  0.00     0.062 C 
HETATM    8  C7  UNL     1      -4.758  -4.817  -2.092  1.00  0.00     0.046 C 
HETATM    9  C8  UNL     1      -2.544  -5.881  -1.856  1.00  0.00     0.046 C 
HETATM   10  C9  UNL     1      -1.563  -2.481   0.136  1.00  0.00     0.023 C 
HETATM   11  C10 UNL     1      -1.535  -1.154  -0.565  1.00  0.00     0.049 C 
HETATM   12  C11 UNL     1      -1.351  -0.171   0.573  1.00  0.00     0.120 C 
HETATM   13  C26 UNL     1      -1.638  -0.940   1.841  1.00  0.00     0.030 C 
HETATM   14  C27 UNL     1      -2.315  -0.024   2.765  1.00  0.00     0.028 C 
HETATM   15  C28 UNL     1      -2.977   0.995   1.899  1.00  0.00     0.127 C 
HETATM   16  N5  UNL     1      -2.354   0.884   0.573  1.00  0.00    -0.337 N 
HETATM   17  C29 UNL     1      -2.738   1.745  -0.487  1.00  0.00     0.187 C 
HETATM   18  N6  UNL     1      -2.211   1.508  -1.781  1.00  0.00    -0.064 NA
HETATM   19  N7  UNL     1      -3.537   2.731  -0.338  1.00  0.00    -0.364 N 
ATOM     20  H7  UNL     1      -3.910   2.894   0.597  1.00  0.00     0.162 HD
HETATM   21  C34 UNL     1      -2.330  -2.167   1.424  1.00  0.00     0.005 C 
ENDROOT
BRANCH  12  22
HETATM   22  C12 UNL     1      -0.011   0.467   0.576  1.00  0.00     0.251 C 
HETATM   23  O3  UNL     1       0.013   1.743   0.569  1.00  0.00    -0.270 OA
HETATM   24  N1  UNL     1       1.199  -0.212   0.585  1.00  0.00    -0.327 N 
ATOM     25  H1  UNL     1       1.203  -1.232   0.591  1.00  0.00     0.168 HD
BRANCH  24  26
HETATM   26  C13 UNL     1       2.512   0.540   0.586  1.00  0.00     0.028 C 
HETATM   27  C21 UNL     1       3.025   0.368   1.907  1.00  0.00     0.118 C 
BRANCH  26  28
HETATM   28  C14 UNL     1       3.097   0.385  -0.742  1.00  0.00     0.060 C 
BRANCH  28  29
HETATM   29  C15 UNL     1       3.387  -0.963  -1.267  1.00  0.00     0.026 C 
BRANCH  29  30
HETATM   30  C16 UNL     1       4.569  -1.719  -0.825  1.00  0.00     0.128 C 
BRANCH  30  31
HETATM   31  N2  UNL     1       5.804  -1.199  -1.424  1.00  0.00    -0.364 N 
HETATM   32  C17 UNL     1       6.358  -1.695  -2.568  1.00  0.00     0.093 A 
HETATM   33  C18 UNL     1       7.462  -0.977  -2.886  1.00  0.00     0.054 A 
HETATM   34  C19 UNL     1       7.613  -0.005  -1.925  1.00  0.00     0.119 A 
HETATM   35  C20 UNL     1       6.548  -0.197  -1.044  1.00  0.00     0.126 A 
BRANCH  34  36
HETATM   36  N3  UNL     1       8.620   0.977  -1.839  1.00  0.00    -0.114 N 
HETATM   37  O4  UNL     1       8.634   1.801  -0.907  1.00  0.00    -0.532 OA
HETATM   38  O5  UNL     1       9.609   1.052  -2.778  1.00  0.00    -0.532 OA
ENDBRANCH  34  36
ENDBRANCH  30  31
ENDBRANCH  29  30
ENDBRANCH  28  29
ENDBRANCH  26  28
BRANCH  27  39
HETATM   39  N4  UNL     1       4.216   0.928   2.430  1.00  0.00    -0.326 N 
HETATM   40  C22 UNL     1       4.252   2.327   2.911  1.00  0.00     0.132 C 
HETATM   41  C23 UNL     1       5.574   2.442   3.572  1.00  0.00     0.029 C 
HETATM   42  C24 UNL     1       6.443   1.504   2.752  1.00  0.00     0.105 C 
HETATM   43  C25 UNL     1       5.491   0.364   2.585  1.00  0.00     0.223 C 
HETATM   44  O6  UNL     1       5.873  -0.824   2.600  1.00  0.00    -0.273 OA
ENDBRANCH  27  39
ENDBRANCH  24  26
ENDBRANCH  12  22
BRANCH  19  45
HETATM   45  C30 UNL     1      -3.951   3.623  -1.373  1.00  0.00     0.122 C 
BRANCH  45  46
HETATM   46  C31 UNL     1      -2.829   4.646  -1.556  1.00  0.00     0.021 C 
BRANCH  46  47
HETATM   47  C32 UNL     1      -3.177   5.632  -2.628  1.00  0.00     0.029 C 
BRANCH  47  48
HETATM   48  C33 UNL     1      -4.446   6.400  -2.294  1.00  0.00     0.229 C 
BRANCH  48  49
HETATM   49  N8  UNL     1      -4.255   7.116  -1.054  1.00  0.00    -0.079 N 
ATOM     50  H83 UNL     1      -3.962   6.502  -0.294  1.00  0.00     0.274 HD
ATOM     51  H82 UNL     1      -3.432   7.719  -1.078  1.00  0.00     0.274 HD
ATOM     52  H81 UNL     1      -5.106   7.631  -0.830  1.00  0.00     0.274 HD
ENDBRANCH  48  49
ENDBRANCH  47  48
ENDBRANCH  46  47
ENDBRANCH  45  46
ENDBRANCH  19  45
BRANCH   3  53
HETATM   53  O1  UNL     1      -4.829  -2.578  -0.865  1.00  0.00    -0.395 OA
ATOM     54  H1  UNL     1      -5.158  -3.225  -1.479  1.00  0.00     0.210 HD
ENDBRANCH   3  53
TORSDOF 14
