REMARK  12 active torsions:
REMARK  status: ('A' for Active; 'I' for Inactive)
REMARK    1  A    between atoms: C2_2  and  C4_4 
REMARK    2  A    between atoms: C4_4  and  C5_5 
REMARK    3  A    between atoms: C6_6  and  O1_7 
REMARK    4  A    between atoms: C14_24  and  C15_25 
REMARK    5  A    between atoms: C15_25  and  C16_26 
REMARK    6  A    between atoms: C18_33  and  C19_34 
REMARK    7  A    between atoms: C19_34  and  C21_36 
REMARK    8  A    between atoms: C21_36  and  C22_37 
REMARK    9  A    between atoms: C22_37  and  C23_38 
REMARK   10  A    between atoms: C23_38  and  C24_39 
REMARK   11  A    between atoms: C24_39  and  N5_40 
REMARK   12  A    between atoms: C30_46  and  O7_47 
ROOT
HETATM    1  C5  UNL     1      -1.883   1.203   0.699  1.00  0.00     0.083 C 
HETATM    2  C6  UNL     1      -2.998   0.837  -0.169  1.00  0.00     0.164 C 
HETATM    3  N1  UNL     1      -4.100  -0.002   0.107  1.00  0.00    -0.352 N 
ATOM      4  H1  UNL     1      -4.290  -0.632  -0.672  1.00  0.00     0.163 HD
HETATM    5  C7  UNL     1      -4.995  -0.204   1.149  1.00  0.00     0.105 C 
HETATM    6  C8  UNL     1      -6.371   0.472   0.878  1.00  0.00     0.048 C 
HETATM    7  C9  UNL     1      -4.658   0.227   2.541  1.00  0.00     0.048 C 
HETATM    8  C10 UNL     1      -5.322  -1.683   1.282  1.00  0.00     0.246 C 
HETATM    9  O2  UNL     1      -6.384  -1.990   1.930  1.00  0.00    -0.271 OA
HETATM   10  N2  UNL     1      -4.573  -2.732   0.762  1.00  0.00    -0.346 N 
ATOM     11  H2  UNL     1      -5.094  -3.426   0.226  1.00  0.00     0.163 HD
HETATM   12  C11 UNL     1      -3.149  -2.967   0.882  1.00  0.00     0.172 C 
HETATM   13  C12 UNL     1      -2.800  -3.359   2.330  1.00  0.00     0.042 C 
HETATM   14  C13 UNL     1      -2.717  -4.093   0.014  1.00  0.00     0.240 C 
HETATM   15  O3  UNL     1      -3.152  -5.280   0.213  1.00  0.00    -0.271 OA
HETATM   16  N3  UNL     1      -1.803  -3.939  -1.084  1.00  0.00    -0.346 N 
ATOM     17  H3  UNL     1      -1.105  -4.656  -1.283  1.00  0.00     0.163 HD
HETATM   18  C14 UNL     1      -1.890  -2.748  -1.903  1.00  0.00     0.186 C 
HETATM   19  C17 UNL     1      -0.593  -2.314  -2.472  1.00  0.00     0.241 C 
HETATM   20  O6  UNL     1       0.181  -3.314  -2.709  1.00  0.00    -0.271 OA
HETATM   21  N4  UNL     1      -0.132  -1.052  -2.770  1.00  0.00    -0.344 N 
ATOM     22  H4  UNL     1      -0.042  -0.858  -3.767  1.00  0.00     0.163 HD
HETATM   23  C18 UNL     1       0.255   0.071  -1.886  1.00  0.00     0.188 C 
HETATM   24  C30 UNL     1      -0.008  -0.206  -0.491  1.00  0.00     0.145 C 
HETATM   25  N6  UNL     1      -0.639   0.471   0.546  1.00  0.00    -0.330 N 
HETATM   26  C31 UNL     1       0.130   0.430   1.835  1.00  0.00     0.158 C 
ENDROOT
BRANCH  23  27
HETATM   27  C19 UNL     1       1.636   0.433  -2.331  1.00  0.00    -0.057 C 
HETATM   28  C20 UNL     1       2.648  -0.681  -2.199  1.00  0.00     0.046 C 
BRANCH  27  29
HETATM   29  C21 UNL     1       2.217   1.731  -2.056  1.00  0.00    -0.022 C 
BRANCH  29  30
HETATM   30  C22 UNL     1       2.447   2.260  -0.713  1.00  0.00     0.029 C 
BRANCH  30  31
HETATM   31  C23 UNL     1       3.401   1.600   0.198  1.00  0.00     0.032 C 
BRANCH  31  32
HETATM   32  C24 UNL     1       4.824   1.543  -0.200  1.00  0.00     0.237 C 
BRANCH  32  33
HETATM   33  N5  UNL     1       5.639   0.865   0.790  1.00  0.00    -0.071 N 
HETATM   34  C25 UNL     1       5.341   1.465   2.092  1.00  0.00     0.272 C 
HETATM   35  C26 UNL     1       5.452  -0.544   0.836  1.00  0.00     0.237 C 
HETATM   36  C27 UNL     1       6.824  -1.176   1.023  1.00  0.00     0.029 C 
HETATM   37  C28 UNL     1       7.820  -0.045   1.064  1.00  0.00     0.029 C 
HETATM   38  C29 UNL     1       7.028   1.113   0.516  1.00  0.00     0.237 C 
ENDBRANCH  32  33
ENDBRANCH  31  32
ENDBRANCH  30  31
ENDBRANCH  29  30
ENDBRANCH  27  29
ENDBRANCH  23  27
BRANCH  24  39
HETATM   39  O7  UNL     1       0.478  -1.393  -0.144  1.00  0.00    -0.347 OA
ATOM     40  H7  UNL     1       0.305  -1.575   0.772  1.00  0.00     0.219 HD
ENDBRANCH  24  39
BRANCH  18  41
HETATM   41  C15 UNL     1      -2.899  -3.097  -3.012  1.00  0.00     0.147 C 
BRANCH  41  42
HETATM   42  C16 UNL     1      -2.478  -4.238  -3.828  1.00  0.00     0.175 C 
HETATM   43  O4  UNL     1      -1.649  -4.114  -4.765  1.00  0.00    -0.648 OA
HETATM   44  O5  UNL     1      -2.973  -5.530  -3.616  1.00  0.00    -0.648 OA
ENDBRANCH  41  42
ENDBRANCH  18  41
BRANCH   1  45
HETATM   45  C4  UNL     1      -1.719   2.572   1.190  1.00  0.00     0.011 C 
BRANCH  45  46
HETATM   46  C2  UNL     1      -1.537   3.778   0.427  1.00  0.00     0.002 C 
HETATM   47  C1  UNL     1      -2.631   4.218  -0.495  1.00  0.00     0.013 C 
HETATM   48  C3  UNL     1      -1.321   4.979   1.389  1.00  0.00     0.013 C 
ENDBRANCH  45  46
ENDBRANCH   1  45
BRANCH   2  49
HETATM   49  O1  UNL     1      -2.965   1.353  -1.365  1.00  0.00    -0.345 OA
ATOM     50  H1  UNL     1      -3.691   1.115  -1.930  1.00  0.00     0.219 HD
ENDBRANCH   2  49
TORSDOF 12
