REMARK  8 active torsions:
REMARK  status: ('A' for Active; 'I' for Inactive)
REMARK    1  A    between atoms: C2_2  and  C4_4 
REMARK    2  A    between atoms: C7_7  and  C8_8 
REMARK       I    between atoms: C8_8  and  N1_10 
REMARK    3  A    between atoms: N1_10  and  C10_12 
REMARK    4  A    between atoms: C10_12  and  C11_13 
REMARK    5  A    between atoms: C11_13  and  C12_14 
REMARK    6  A    between atoms: C12_14  and  N2_15 
REMARK       I    between atoms: N2_15  and  C13_17 
REMARK    7  A    between atoms: C13_17  and  C14_19 
REMARK    8  A    between atoms: C27_32  and  C29_34 
ROOT
HETATM    1  C4  UNL     1       0.502  -2.515   0.756  1.00  0.00     0.019 C 
HETATM    2  C5  UNL     1       1.014  -2.069   2.094  1.00  0.00     0.010 C 
HETATM    3  C6  UNL     1       1.718  -0.751   1.865  1.00  0.00     0.020 C 
HETATM    4  C7  UNL     1       1.403  -0.353   0.444  1.00  0.00     0.046 C 
HETATM    5  C17 UNL     1       1.019   1.096   0.273  1.00  0.00     0.020 C 
HETATM    6  C18 UNL     1      -0.409   1.403   0.049  1.00  0.00     0.011 C 
HETATM    7  C19 UNL     1      -1.142   0.506  -0.913  1.00  0.00    -0.032 C 
HETATM    8  C20 UNL     1      -0.434   0.357  -2.238  1.00  0.00     0.016 C 
HETATM    9  C21 UNL     1      -1.008  -0.870  -0.246  1.00  0.00     0.000 C 
HETATM   10  C22 UNL     1      -1.787  -0.897   1.022  1.00  0.00     0.006 C 
HETATM   11  C23 UNL     1      -3.137  -0.171   0.932  1.00  0.00     0.006 C 
HETATM   12  C24 UNL     1      -3.542  -0.110  -0.487  1.00  0.00    -0.001 C 
HETATM   13  C25 UNL     1      -4.992   0.213  -0.726  1.00  0.00    -0.001 C 
HETATM   14  C26 UNL     1      -5.819  -0.902  -0.185  1.00  0.00     0.024 C 
HETATM   15  C27 UNL     1      -7.206  -0.618   0.260  1.00  0.00     0.035 C 
HETATM   16  C28 UNL     1      -8.216  -1.152  -0.774  1.00  0.00     0.025 C 
HETATM   17  C30 UNL     1      -7.494   0.831   0.573  1.00  0.00     0.019 C 
HETATM   18  C31 UNL     1      -6.215   1.507   0.903  1.00  0.00     0.011 C 
HETATM   19  C32 UNL     1      -5.375   1.603  -0.388  1.00  0.00    -0.040 C 
HETATM   20  C33 UNL     1      -6.418   2.175  -1.377  1.00  0.00     0.015 C 
HETATM   21  C34 UNL     1      -4.297   2.605  -0.275  1.00  0.00     0.010 C 
HETATM   22  C35 UNL     1      -2.883   2.246  -0.490  1.00  0.00     0.011 C 
HETATM   23  C36 UNL     1      -2.590   0.911  -1.107  1.00  0.00    -0.032 C 
HETATM   24  C37 UNL     1      -2.809   1.080  -2.586  1.00  0.00     0.016 C 
HETATM   25  C38 UNL     1       0.424  -1.299  -0.118  1.00  0.00     0.016 C 
ENDROOT
BRANCH   4  26
HETATM   26  C8  UNL     1       2.755  -0.414  -0.254  1.00  0.00     0.228 C 
HETATM   27  O1  UNL     1       2.876  -1.205  -1.218  1.00  0.00    -0.273 OA
HETATM   28  N1  UNL     1       3.872   0.354   0.104  1.00  0.00    -0.356 N 
HETATM   29  C9  UNL     1       3.970   1.346   1.124  1.00  0.00     0.152 C 
BRANCH  28  30
HETATM   30  C10 UNL     1       5.105   0.108  -0.669  1.00  0.00     0.127 C 
BRANCH  30  31
HETATM   31  C11 UNL     1       5.945  -0.984  -0.020  1.00  0.00     0.039 C 
BRANCH  31  32
HETATM   32  C12 UNL     1       7.166  -1.145  -0.890  1.00  0.00     0.124 C 
BRANCH  32  33
HETATM   33  N2  UNL     1       7.910   0.094  -0.963  1.00  0.00    -0.361 N 
HETATM   34  C13 UNL     1       8.492   0.751   0.146  1.00  0.00     0.221 C 
HETATM   35  O2  UNL     1       8.375   0.248   1.284  1.00  0.00    -0.273 OA
ATOM     36  H2  UNL     1       8.023   0.525  -1.881  1.00  0.00     0.162 HD
BRANCH  34  37
HETATM   37  C14 UNL     1       9.235   2.018  -0.006  1.00  0.00     0.070 C 
HETATM   38  C15 UNL     1       9.744   2.469   1.328  1.00  0.00     0.019 C 
HETATM   39  C16 UNL     1      10.357   1.777  -0.984  1.00  0.00     0.019 C 
ENDBRANCH  34  37
ENDBRANCH  32  33
ENDBRANCH  31  32
ENDBRANCH  30  31
ENDBRANCH  28  30
ENDBRANCH   4  26
BRANCH   1  40
HETATM   40  C2  UNL     1       1.299  -3.583   0.112  1.00  0.00    -0.089 C 
HETATM   41  C1  UNL     1       2.382  -4.157   0.546  1.00  0.00     0.014 C 
HETATM   42  C3  UNL     1       0.744  -4.074  -1.212  1.00  0.00     0.043 C 
ENDBRANCH   1  40
BRANCH  15  43
HETATM   43  C29 UNL     1      -7.541  -1.364   1.501  1.00  0.00     0.239 C 
HETATM   44  N3  UNL     1      -6.776  -1.150   2.676  1.00  0.00    -0.061 NA
HETATM   45  O3  UNL     1      -8.481  -2.182   1.555  1.00  0.00    -0.276 OA
ENDBRANCH  15  43
TORSDOF 8
