REMARK  16 active torsions:
REMARK  status: ('A' for Active; 'I' for Inactive)
REMARK    1  A    between atoms: C5_7  and  S1_8 
REMARK    2  A    between atoms: S1_8  and  C6_9 
REMARK    3  A    between atoms: N3_18  and  N4_19 
REMARK    4  A    between atoms: C13_22  and  N5_23 
REMARK    5  A    between atoms: N5_23  and  C14_24 
REMARK    6  A    between atoms: C14_24  and  O1_25 
REMARK    7  A    between atoms: C14_24  and  N6_27 
REMARK    8  A    between atoms: N6_27  and  N7_29 
REMARK    9  A    between atoms: N7_29  and  C15_31 
REMARK   10  A    between atoms: C15_31  and  N8_33 
REMARK       I    between atoms: N8_33  and  C16_35 
REMARK   11  A    between atoms: C16_35  and  C17_37 
REMARK   12  A    between atoms: C17_37  and  N9_38 
REMARK   13  A    between atoms: C17_37  and  C18_42 
REMARK   14  A    between atoms: C18_42  and  C19_43 
REMARK   15  A    between atoms: C19_43  and  O3_44 
REMARK   16  A    between atoms: C19_43  and  O4_46 
ROOT
HETATM    1  C6  UNL     1      -1.828   0.731  -0.423  1.00  0.00     0.153 A 
HETATM    2  N2  UNL     1      -2.997   0.184  -0.046  1.00  0.00    -0.320 N 
ATOM      3  H2  UNL     1      -3.873   0.582  -0.385  1.00  0.00     0.169 HD
HETATM    4  C7  UNL     1      -3.025  -0.891   0.780  1.00  0.00     0.144 A 
HETATM    5  C8  UNL     1      -1.864  -1.442   1.248  1.00  0.00     0.076 A 
HETATM    6  C9  UNL     1      -2.147  -2.500   2.053  1.00  0.00    -0.019 A 
HETATM    7  C10 UNL     1      -1.238  -3.433   2.803  1.00  0.00     0.051 C 
HETATM    8  C11 UNL     1      -3.546  -2.596   2.075  1.00  0.00     0.038 A 
HETATM    9  C12 UNL     1      -4.327  -3.616   2.834  1.00  0.00     0.071 C 
HETATM   10  N3  UNL     1      -4.041  -1.621   1.306  1.00  0.00    -0.249 N 
HETATM   11  C13 UNL     1      -0.641  -0.886   0.866  1.00  0.00     0.200 A 
HETATM   12  N10 UNL     1      -0.701   0.212   0.019  1.00  0.00    -0.310 N 
ATOM     13  H10 UNL     1       0.176   0.641  -0.277  1.00  0.00     0.170 HD
ENDROOT
BRANCH  11  14
HETATM   14  N5  UNL     1       0.381  -1.339   1.262  1.00  0.00    -0.344 NA
BRANCH  14  15
HETATM   15  C14 UNL     1       1.508  -1.824   1.687  1.00  0.00     0.315 C 
BRANCH  15  16
HETATM   16  O1  UNL     1       2.002  -2.928   1.197  1.00  0.00    -0.320 OA
ATOM     17  H1  UNL     1       2.827  -3.283   1.508  1.00  0.00     0.222 HD
ENDBRANCH  15  16
BRANCH  15  18
HETATM   18  N6  UNL     1       2.365  -1.272   2.711  1.00  0.00    -0.251 N 
ATOM     19  H6  UNL     1       2.095  -0.406   3.178  1.00  0.00     0.191 HD
BRANCH  18  20
HETATM   20  N7  UNL     1       3.543  -1.897   3.068  1.00  0.00    -0.272 N 
ATOM     21  H7  UNL     1       3.583  -2.504   3.886  1.00  0.00     0.189 HD
BRANCH  20  22
HETATM   22  C15 UNL     1       4.701  -1.676   2.270  1.00  0.00     0.193 C 
HETATM   23  S2  UNL     1       6.090  -2.393   2.694  1.00  0.00    -0.039 SA
BRANCH  22  24
HETATM   24  N8  UNL     1       4.635  -0.827   1.124  1.00  0.00    -0.301 N 
HETATM   25  C16 UNL     1       5.761  -0.566   0.309  1.00  0.00     0.254 C 
HETATM   26  O2  UNL     1       6.865  -1.094   0.600  1.00  0.00    -0.271 OA
ATOM     27  H8  UNL     1       3.744  -0.393   0.884  1.00  0.00     0.171 HD
BRANCH  25  28
HETATM   28  C17 UNL     1       5.627   0.328  -0.879  1.00  0.00     0.279 C 
BRANCH  28  29
HETATM   29  N9  UNL     1       4.257   0.718  -0.993  1.00  0.00    -0.066 N 
ATOM     30  H93 UNL     1       3.623  -0.080  -1.028  1.00  0.00     0.275 HD
ATOM     31  H92 UNL     1       3.897   1.143  -0.139  1.00  0.00     0.275 HD
ATOM     32  H91 UNL     1       4.165   1.329  -1.805  1.00  0.00     0.275 HD
ENDBRANCH  28  29
BRANCH  28  33
HETATM   33  C18 UNL     1       6.560   1.488  -0.636  1.00  0.00     0.103 C 
BRANCH  33  34
HETATM   34  C19 UNL     1       6.543   2.499  -1.759  1.00  0.00     0.256 C 
BRANCH  34  35
HETATM   35  O3  UNL     1       6.919   1.962  -2.974  1.00  0.00    -0.371 OA
ATOM     36  H3  UNL     1       6.908   2.598  -3.680  1.00  0.00     0.212 HD
ENDBRANCH  34  35
BRANCH  34  37
HETATM   37  O4  UNL     1       5.310   3.150  -1.825  1.00  0.00    -0.371 OA
ATOM     38  H4  UNL     1       5.299   3.786  -2.531  1.00  0.00     0.212 HD
ENDBRANCH  34  37
ENDBRANCH  33  34
ENDBRANCH  28  33
ENDBRANCH  25  28
ENDBRANCH  22  24
ENDBRANCH  20  22
ENDBRANCH  18  20
ENDBRANCH  15  18
ENDBRANCH  14  15
ENDBRANCH  11  14
BRANCH   1  39
HETATM   39  S1  UNL     1      -1.828   2.168  -1.518  1.00  0.00    -0.044 SA
BRANCH  39  40
HETATM   40  C5  UNL     1      -3.520   2.606  -1.946  1.00  0.00     0.072 A 
HETATM   41  C3  UNL     1      -4.266   2.155  -3.009  1.00  0.00     0.030 A 
HETATM   42  N1  UNL     1      -5.474   2.605  -3.127  1.00  0.00    -0.356 N 
HETATM   43  C4  UNL     1      -3.674   1.164  -3.999  1.00  0.00     0.070 C 
HETATM   44  C2  UNL     1      -5.944   3.467  -2.240  1.00  0.00     0.048 A 
ATOM     45  H1  UNL     1      -6.062   2.296  -3.901  1.00  0.00     0.166 HD
HETATM   46  C1  UNL     1      -7.316   4.096  -2.213  1.00  0.00     0.076 C 
HETATM   47  S3  UNL     1      -4.624   3.661  -1.179  1.00  0.00    -0.068 SA
ENDBRANCH  39  40
ENDBRANCH   1  39
BRANCH  10  48
HETATM   48  N4  UNL     1      -5.374  -1.368   1.062  1.00  0.00    -0.337 N 
ATOM     49  H42 UNL     1      -5.752  -0.624   0.475  1.00  0.00     0.177 HD
ATOM     50  H41 UNL     1      -6.138  -1.917   1.457  1.00  0.00     0.177 HD
ENDBRANCH  10  48
TORSDOF 16
