REMARK  0 active torsions:
REMARK  status: ('A' for Active; 'I' for Inactive)
ROOT
HETATM    1  C1  UNL     1       4.401  -1.676  -2.231  1.00  0.00     0.068 C 
HETATM    2  C2  UNL     1       3.320  -0.894  -1.573  1.00  0.00     0.008 A 
HETATM    3  C3  UNL     1       3.430   0.432  -1.205  1.00  0.00     0.056 A 
HETATM    4  C4  UNL     1       2.198   0.746  -0.633  1.00  0.00     0.064 A 
HETATM    5  C5  UNL     1       1.384  -0.366  -0.665  1.00  0.00     0.088 A 
HETATM    6  N1  UNL     1       2.089  -1.348  -1.240  1.00  0.00    -0.356 N 
ATOM      7  H1  UNL     1       1.750  -2.296  -1.403  1.00  0.00     0.166 HD
HETATM    8  C6  UNL     1      -0.002  -0.554  -0.190  1.00  0.00     0.090 A 
HETATM    9  N2  UNL     1      -0.448  -1.793  -0.429  1.00  0.00    -0.351 N 
ATOM     10  H2  UNL     1       0.138  -2.490  -0.888  1.00  0.00     0.166 HD
HETATM   11  C7  UNL     1      -1.722  -2.083  -0.031  1.00  0.00     0.059 A 
HETATM   12  C8  UNL     1      -2.232  -3.361  -0.258  1.00  0.00     0.032 A 
HETATM   13  C9  UNL     1      -3.503  -3.739   0.110  1.00  0.00     0.002 A 
HETATM   14  C10 UNL     1      -4.267  -2.773   0.726  1.00  0.00     0.002 A 
HETATM   15  C11 UNL     1      -3.802  -1.502   0.968  1.00  0.00     0.032 A 
HETATM   16  C12 UNL     1      -2.517  -1.145   0.588  1.00  0.00     0.059 A 
HETATM   17  N3  UNL     1      -2.045   0.100   0.819  1.00  0.00    -0.352 N 
ATOM     18  H3  UNL     1      -2.625   0.803   1.278  1.00  0.00     0.166 HD
HETATM   19  C13 UNL     1      -0.794   0.387   0.429  1.00  0.00     0.074 A 
HETATM   20  C14 UNL     1      -0.430   1.778   0.750  1.00  0.00     0.020 A 
HETATM   21  C15 UNL     1      -1.487   2.374   1.385  1.00  0.00     0.016 A 
HETATM   22  C16 UNL     1      -1.395   3.694   1.793  1.00  0.00     0.001 A 
HETATM   23  C17 UNL     1      -0.226   4.368   1.541  1.00  0.00     0.002 A 
HETATM   24  C18 UNL     1       0.862   3.803   0.904  1.00  0.00     0.030 A 
HETATM   25  C19 UNL     1       0.728   2.484   0.513  1.00  0.00     0.045 A 
HETATM   26  N4  UNL     1       1.912   2.037  -0.124  1.00  0.00    -0.354 N 
ATOM     27  H4  UNL     1       2.651   2.732  -0.229  1.00  0.00     0.166 HD
ENDROOT
TORSDOF 0
