REMARK  3 active torsions:
REMARK  status: ('A' for Active; 'I' for Inactive)
REMARK    1  A    between atoms: N2_15  and  C11_16 
REMARK    2  A    between atoms: C11_16  and  C12_17 
REMARK    3  A    between atoms: C12_17  and  N3_18 
ROOT
HETATM    1  O1  UNL     1       0.305   1.118   2.470  1.00  0.00    -0.273 OA
HETATM    2  C1  UNL     1      -0.196   0.223   1.702  1.00  0.00     0.226 C 
HETATM    3  C2  UNL     1      -1.039  -0.866   2.260  1.00  0.00     0.106 C 
HETATM    4  C3  UNL     1      -1.932  -1.479   1.236  1.00  0.00     0.050 C 
HETATM    5  C4  UNL     1      -2.274  -0.553   0.083  1.00  0.00     0.108 C 
HETATM    6  C5  UNL     1      -3.207  -1.285  -0.818  1.00  0.00     0.040 C 
HETATM    7  C6  UNL     1      -3.844  -0.490  -1.884  1.00  0.00     0.003 C 
HETATM    8  C7  UNL     1      -4.157   0.926  -1.543  1.00  0.00     0.002 C 
HETATM    9  C8  UNL     1      -4.945   1.077  -0.278  1.00  0.00     0.019 C 
HETATM   10  C9  UNL     1      -4.170   0.656   0.939  1.00  0.00     0.115 C 
HETATM   11  N1  UNL     1      -2.783   0.655   0.629  1.00  0.00    -0.405 N 
ATOM     12  H1  UNL     1      -2.191   1.470   0.789  1.00  0.00     0.154 HD
HETATM   13  C10 UNL     1      -0.961  -0.247  -0.572  1.00  0.00     0.254 C 
HETATM   14  O2  UNL     1      -0.738  -0.406  -1.777  1.00  0.00    -0.270 OA
HETATM   15  N2  UNL     1       0.045   0.253   0.300  1.00  0.00    -0.285 N 
ENDROOT
BRANCH  15  16
HETATM   16  C11 UNL     1       1.293   0.788  -0.189  1.00  0.00     0.165 C 
BRANCH  16  17
HETATM   17  C12 UNL     1       2.313  -0.317  -0.288  1.00  0.00     0.293 C 
BRANCH  17  18
HETATM   18  N3  UNL     1       3.595   0.159  -0.776  1.00  0.00     0.094 N 
HETATM   19  C13 UNL     1       4.458  -1.035  -0.810  1.00  0.00     0.298 C 
HETATM   20  C14 UNL     1       5.827  -0.604  -1.240  1.00  0.00     0.198 C 
HETATM   21  O3  UNL     1       6.380   0.136  -0.175  1.00  0.00    -0.388 OA
HETATM   22  C15 UNL     1       5.636   1.276   0.007  1.00  0.00     0.198 C 
HETATM   23  C16 UNL     1       4.175   1.040   0.217  1.00  0.00     0.298 C 
ENDBRANCH  17  18
ENDBRANCH  16  17
ENDBRANCH  15  16
TORSDOF 3
