REMARK  6 active torsions:
REMARK  status: ('A' for Active; 'I' for Inactive)
REMARK    1  A    between atoms: C2_2  and  C3_3 
REMARK    2  A    between atoms: C3_3  and  O1_4 
REMARK    3  A    between atoms: C5_7  and  C6_8 
REMARK       I    between atoms: C6_8  and  N1_10 
REMARK    4  A    between atoms: N1_10  and  C7_12 
REMARK       I    between atoms: N2_15  and  C10_16 
REMARK    5  A    between atoms: C10_16  and  C11_18 
REMARK    6  A    between atoms: C11_18  and  C12_19 
ROOT
HETATM    1  C1  UNL     1      -2.506  -1.918   0.170  1.00  0.00     0.019 C 
HETATM    2  C2  UNL     1      -1.775  -1.088  -0.830  1.00  0.00    -0.004 C 
HETATM    3  C4  UNL     1      -0.282  -1.271  -0.818  1.00  0.00     0.048 C 
HETATM    4  C5  UNL     1       0.179  -0.396   0.296  1.00  0.00     0.180 C 
HETATM    5  N2  UNL     1      -0.792   0.637   0.413  1.00  0.00    -0.338 N 
HETATM    6  C10 UNL     1      -0.783   1.716   1.315  1.00  0.00     0.223 C 
HETATM    7  O3  UNL     1       0.154   1.821   2.135  1.00  0.00    -0.273 OA
HETATM    8  C13 UNL     1      -1.849   0.405  -0.551  1.00  0.00     0.138 C 
ENDROOT
BRANCH   4   9
HETATM    9  C6  UNL     1       1.560   0.126   0.044  1.00  0.00     0.241 C 
HETATM   10  O2  UNL     1       1.817   1.337  -0.118  1.00  0.00    -0.271 OA
HETATM   11  N1  UNL     1       2.594  -0.847  -0.004  1.00  0.00    -0.355 N 
ATOM     12  H1  UNL     1       2.389  -1.837   0.128  1.00  0.00     0.162 HD
BRANCH  11  13
HETATM   13  C7  UNL     1       3.947  -0.393  -0.245  1.00  0.00     0.084 A 
HETATM   14  C8  UNL     1       4.731  -1.315  -1.171  1.00  0.00     0.027 A 
HETATM   15  C9  UNL     1       5.103  -1.156   0.282  1.00  0.00     0.027 A 
ENDBRANCH  11  13
ENDBRANCH   4   9
BRANCH   2  16
HETATM   16  C3  UNL     1      -2.294  -1.419  -2.209  1.00  0.00     0.175 C 
BRANCH  16  17
HETATM   17  O1  UNL     1      -3.640  -1.138  -2.251  1.00  0.00    -0.400 OA
ATOM     18  H1  UNL     1      -3.966  -1.346  -3.118  1.00  0.00     0.209 HD
ENDBRANCH  16  17
ENDBRANCH   2  16
BRANCH   6  19
HETATM   19  C11 UNL     1      -1.848   2.747   1.336  1.00  0.00     0.139 C 
BRANCH  19  20
HETATM   20  C12 UNL     1      -1.589   3.782   2.399  1.00  0.00     0.187 C 
HETATM   21 CL1  UNL     1      -1.521   3.060   4.020  1.00  0.00    -0.108 Cl
HETATM   22 CL2  UNL     1      -2.989   4.900   2.386  1.00  0.00    -0.108 Cl
ENDBRANCH  19  20
ENDBRANCH   6  19
TORSDOF 6
