REMARK  4 active torsions:
REMARK  status: ('A' for Active; 'I' for Inactive)
REMARK    1  A    between atoms: C2_2  and  N1_3 
REMARK    2  A    between atoms: C2_2  and  C10_15 
REMARK    3  A    between atoms: N1_3  and  C3_5 
REMARK    4  A    between atoms: N3_17  and  C12_18 
ROOT
HETATM    1  C1  UNL     1       0.120   0.778   1.722  1.00  0.00     0.032 C 
HETATM    2  C2  UNL     1       0.434   1.006   0.305  1.00  0.00     0.079 C 
ENDROOT
BRANCH   2   3
HETATM    3  N1  UNL     1       1.216   0.153  -0.451  1.00  0.00    -0.405 N 
ATOM      4  H1  UNL     1       0.785  -0.294  -1.260  1.00  0.00     0.154 HD
BRANCH   3   5
HETATM    5  C3  UNL     1       2.552  -0.139  -0.184  1.00  0.00     0.173 C 
HETATM    6  C4  UNL     1       2.881  -0.961   0.993  1.00  0.00     0.240 C 
HETATM    7  O1  UNL     1       2.011  -1.586   1.636  1.00  0.00    -0.271 OA
HETATM    8  N2  UNL     1       4.219  -1.134   1.510  1.00  0.00    -0.359 N 
HETATM    9  C5  UNL     1       5.508  -0.896   0.840  1.00  0.00     0.127 C 
ATOM     10  H2  UNL     1       4.279  -1.467   2.472  1.00  0.00     0.162 HD
HETATM   11  C6  UNL     1       5.315  -1.228  -0.621  1.00  0.00     0.004 C 
HETATM   12  C7  UNL     1       4.073  -1.977  -0.951  1.00  0.00     0.013 C 
HETATM   13  C9  UNL     1       4.745  -0.063  -1.414  1.00  0.00     0.013 C 
HETATM   14  C8  UNL     1       3.358  -0.711  -1.356  1.00  0.00     0.018 C 
ENDBRANCH   3   5
ENDBRANCH   2   3
BRANCH   2  15
HETATM   15  C10 UNL     1      -0.855   1.350  -0.507  1.00  0.00     0.042 C 
HETATM   16  C11 UNL     1      -1.834   0.264  -0.409  1.00  0.00     0.280 C 
HETATM   17  N3  UNL     1      -3.232   0.593  -0.304  1.00  0.00     0.099 N 
HETATM   18  C16 UNL     1      -3.377   1.711   0.568  1.00  0.00     0.351 C 
HETATM   19  C17 UNL     1      -2.752   2.920  -0.046  1.00  0.00     0.270 C 
HETATM   20  F1  UNL     1      -2.998   3.995   0.787  1.00  0.00    -0.204 F 
HETATM   21  F2  UNL     1      -3.420   3.196  -1.224  1.00  0.00    -0.204 F 
HETATM   22  C18 UNL     1      -1.275   2.747  -0.284  1.00  0.00     0.089 C 
BRANCH  17  23
HETATM   23  C12 UNL     1      -3.928  -0.582   0.237  1.00  0.00     0.223 C 
HETATM   24  C13 UNL     1      -3.831  -1.788  -0.664  1.00  0.00     0.036 C 
HETATM   25  C14 UNL     1      -5.257  -2.123  -0.215  1.00  0.00     0.004 C 
HETATM   26  C15 UNL     1      -5.403  -0.620   0.091  1.00  0.00     0.036 C 
ENDBRANCH  17  23
ENDBRANCH   2  15
TORSDOF 4
