REMARK  6 active torsions:
REMARK  status: ('A' for Active; 'I' for Inactive)
REMARK       I    between atoms: C1_2  and  N1_3 
REMARK       I    between atoms: C1_2  and  N2_13 
REMARK    1  A    between atoms: N1_3  and  C2_5 
REMARK    2  A    between atoms: C2_5  and  C3_7 
REMARK    3  A    between atoms: N2_13  and  C9_15 
REMARK    4  A    between atoms: C12_18  and  O2_19 
REMARK    5  A    between atoms: O2_19  and  C13_20 
REMARK    6  A    between atoms: C15_22  and  C16_23 
ROOT
HETATM    1  C9  UNL     1      -1.015   0.761  -0.510  1.00  0.00     0.036 A 
HETATM    2  C10 UNL     1      -0.915   1.475  -1.679  1.00  0.00     0.032 A 
HETATM    3  C11 UNL     1       0.324   1.854  -2.214  1.00  0.00     0.039 A 
HETATM    4  C12 UNL     1       1.499   1.528  -1.593  1.00  0.00     0.078 A 
HETATM    5  C22 UNL     1       1.400   0.813  -0.422  1.00  0.00     0.039 A 
HETATM    6  C23 UNL     1       0.201   0.437   0.111  1.00  0.00     0.032 A 
ENDROOT
BRANCH   1   7
HETATM    7  N2  UNL     1      -2.228   0.362   0.086  1.00  0.00    -0.309 N 
HETATM    8  C1  UNL     1      -3.537   0.739  -0.251  1.00  0.00     0.325 C 
HETATM    9  O1  UNL     1      -3.833   1.531  -1.176  1.00  0.00    -0.247 OA
HETATM   10  N1  UNL     1      -4.618   0.200   0.490  1.00  0.00    -0.299 N 
ATOM     11  H1  UNL     1      -4.420  -0.449   1.252  1.00  0.00     0.171 HD
ATOM     12  H2  UNL     1      -2.143  -0.288   0.867  1.00  0.00     0.170 HD
BRANCH  10  13
HETATM   13  C2  UNL     1      -5.949   0.530   0.210  1.00  0.00     0.114 C 
HETATM   14  S1  UNL     1      -6.335   1.553  -0.983  1.00  0.00    -0.059 SA
BRANCH  13  15
HETATM   15  C3  UNL     1      -7.022  -0.069   1.023  1.00  0.00     0.002 A 
HETATM   16  C4  UNL     1      -8.285  -0.175   0.467  1.00  0.00     0.014 A 
HETATM   17  C5  UNL     1      -9.333  -0.724   1.170  1.00  0.00     0.001 A 
HETATM   18  C6  UNL     1      -9.132  -1.185   2.462  1.00  0.00     0.000 A 
HETATM   19  C7  UNL     1      -7.873  -1.083   3.024  1.00  0.00     0.001 A 
HETATM   20  C8  UNL     1      -6.826  -0.524   2.295  1.00  0.00     0.014 A 
ENDBRANCH  13  15
ENDBRANCH  10  13
ENDBRANCH   1   7
BRANCH   4  21
HETATM   21  O2  UNL     1       2.708   1.897  -2.113  1.00  0.00    -0.293 OA
BRANCH  21  22
HETATM   22  C13 UNL     1       3.930   1.596  -1.529  1.00  0.00     0.164 A 
HETATM   23  C14 UNL     1       4.514   0.350  -1.403  1.00  0.00     0.089 A 
HETATM   24  C15 UNL     1       5.732   0.459  -0.764  1.00  0.00     0.062 A 
HETATM   25  N3  UNL     1       5.870   1.778  -0.512  1.00  0.00    -0.298 N 
HETATM   26  N4  UNL     1       4.819   2.447  -0.957  1.00  0.00    -0.279 N 
ATOM     27  H3  UNL     1       6.672   2.200  -0.044  1.00  0.00     0.187 HD
ATOM     28  H4  UNL     1       4.695   3.457  -0.881  1.00  0.00     0.189 HD
BRANCH  24  29
HETATM   29  C16 UNL     1       6.673  -0.593  -0.428  1.00  0.00    -0.008 A 
HETATM   30  C17 UNL     1       7.856  -0.317   0.215  1.00  0.00     0.014 A 
HETATM   31  C18 UNL     1       8.762  -1.327   0.540  1.00  0.00     0.001 A 
HETATM   32  C19 UNL     1       8.492  -2.636   0.221  1.00  0.00     0.000 A 
HETATM   33  C20 UNL     1       7.312  -2.923  -0.422  1.00  0.00     0.001 A 
HETATM   34  C21 UNL     1       6.426  -1.908  -0.736  1.00  0.00     0.014 A 
ENDBRANCH  24  29
ENDBRANCH  21  22
ENDBRANCH   4  21
TORSDOF 6
