REMARK  6 active torsions:
REMARK  status: ('A' for Active; 'I' for Inactive)
REMARK    1  A    between atoms: C3_6  and  N3_7 
REMARK    2  A    between atoms: N3_7  and  C4_9 
REMARK    3  A    between atoms: C4_9  and  C5_10 
REMARK    4  A    between atoms: C5_10  and  S1_11 
REMARK    5  A    between atoms: S1_11  and  C6_12 
REMARK    6  A    between atoms: C6_12  and  C7_13 
ROOT
HETATM    1  C4  UNL     1       1.226   0.245   0.454  1.00  0.00     0.148 C 
ENDROOT
BRANCH   1   2
HETATM    2  N3  UNL     1       2.297   0.777  -0.389  1.00  0.00    -0.224 N 
ATOM      3  H3  UNL     1       2.114   1.476  -1.109  1.00  0.00     0.177 HD
BRANCH   2   4
HETATM    4  C3  UNL     1       3.486   0.317  -0.176  1.00  0.00     0.693 A 
HETATM    5  N2  UNL     1       3.879  -0.611   0.743  1.00  0.00    -0.185 N 
HETATM    6  C2  UNL     1       5.201  -0.825   0.656  1.00  0.00     0.217 A 
ATOM      7  H2  UNL     1       3.256  -1.077   1.403  1.00  0.00     0.185 HD
HETATM    8  N1  UNL     1       5.638  -0.021  -0.329  1.00  0.00    -0.277 N 
HETATM    9  C1  UNL     1       7.010   0.096  -0.790  1.00  0.00     0.179 C 
HETATM   10  N5  UNL     1       4.603   0.664  -0.826  1.00  0.00    -0.130 N 
ATOM     11  H5  UNL     1       4.657   1.345  -1.583  1.00  0.00     0.206 HD
ENDBRANCH   2   4
ENDBRANCH   1   2
BRANCH   1  12
HETATM   12  C5  UNL     1      -0.110   0.904   0.100  1.00  0.00     0.094 C 
BRANCH  12  13
HETATM   13  S1  UNL     1      -1.347   0.189   1.182  1.00  0.00    -0.165 SA
BRANCH  13  14
HETATM   14  C6  UNL     1      -2.998   0.822   0.936  1.00  0.00     0.106 C 
BRANCH  14  15
HETATM   15  C7  UNL     1      -3.607   0.475  -0.393  1.00  0.00     0.195 C 
HETATM   16  C8  UNL     1      -3.721  -1.010  -0.605  1.00  0.00     0.035 C 
HETATM   17  C9  UNL     1      -4.786  -1.406   0.373  1.00  0.00     0.029 C 
HETATM   18  C10 UNL     1      -5.703  -0.205   0.362  1.00  0.00     0.233 C 
HETATM   19  N4  UNL     1      -5.025   0.860  -0.312  1.00  0.00    -0.070 N 
ATOM     20  H42 UNL     1      -5.171   1.770   0.125  1.00  0.00     0.277 HD
ATOM     21  H41 UNL     1      -5.433   1.087  -1.219  1.00  0.00     0.277 HD
ENDBRANCH  14  15
ENDBRANCH  13  14
ENDBRANCH  12  13
ENDBRANCH   1  12
TORSDOF 6
