REMARK  3 active torsions:
REMARK  status: ('A' for Active; 'I' for Inactive)
REMARK    1  A    between atoms: C1_2  and  C2_4 
REMARK    2  A    between atoms: C5_10  and  N3_11 
REMARK    3  A    between atoms: N3_11  and  C6_13 
ROOT
HETATM    1  N3  UNL     1       0.873  -0.775  -0.837  1.00  0.00    -0.022 N 
ATOM      2  H3  UNL     1       0.848  -1.399  -1.644  1.00  0.00     0.203 HD
ENDROOT
BRANCH   1   3
HETATM    3  C5  UNL     1      -0.219  -0.309  -0.340  1.00  0.00     0.700 A 
HETATM    4  N2  UNL     1      -0.159   0.511   0.723  1.00  0.00    -0.155 N 
HETATM    5  C4  UNL     1      -1.250   1.037   1.297  1.00  0.00     0.261 A 
ATOM      6  H2  UNL     1       0.756   0.743   1.110  1.00  0.00     0.187 HD
HETATM    7  C3  UNL     1      -2.483   0.720   0.772  1.00  0.00     0.110 A 
HETATM    8  O2  UNL     1      -1.129   1.809   2.303  1.00  0.00    -0.268 OA
HETATM    9  C2  UNL     1      -2.548  -0.123  -0.320  1.00  0.00     0.119 A 
HETATM   10  N7  UNL     1      -1.429  -0.627  -0.863  1.00  0.00    -0.186 N 
ATOM     11  H7  UNL     1      -1.489  -1.249  -1.669  1.00  0.00     0.184 HD
BRANCH   9  12
HETATM   12  C1  UNL     1      -3.881  -0.450  -0.868  1.00  0.00     0.282 C 
HETATM   13  N1  UNL     1      -5.052   0.089  -0.284  1.00  0.00    -0.056 NA
HETATM   14  O1  UNL     1      -3.919  -1.218  -1.861  1.00  0.00    -0.269 OA
ENDBRANCH   9  12
ENDBRANCH   1   3
BRANCH   1  15
HETATM   15  C6  UNL     1       2.113  -0.411  -0.250  1.00  0.00     0.704 A 
HETATM   16  N4  UNL     1       2.758   0.727  -0.578  1.00  0.00    -0.140 N 
HETATM   17  C7  UNL     1       3.931   1.032   0.004  1.00  0.00     0.342 A 
ATOM     18  H4  UNL     1       2.355   1.359  -1.270  1.00  0.00     0.189 HD
HETATM   19  O3  UNL     1       4.566   2.098  -0.281  1.00  0.00    -0.246 OA
HETATM   20  N5  UNL     1       4.480   0.216   0.916  1.00  0.00    -0.260 N 
HETATM   21  C8  UNL     1       3.825  -0.909   1.229  1.00  0.00     0.342 A 
ATOM     22  H5  UNL     1       5.370   0.446   1.358  1.00  0.00     0.175 HD
HETATM   23  O4  UNL     1       4.347  -1.687   2.098  1.00  0.00    -0.246 OA
HETATM   24  N6  UNL     1       2.651  -1.253   0.673  1.00  0.00    -0.140 N 
ATOM     25  H6  UNL     1       2.178  -2.118   0.935  1.00  0.00     0.189 HD
ENDBRANCH   1  15
TORSDOF 3
