REMARK  5 active torsions:
REMARK  status: ('A' for Active; 'I' for Inactive)
REMARK    1  A    between atoms: C6_6  and  C7_7 
REMARK       I    between atoms: C7_7  and  N1_9 
REMARK    2  A    between atoms: N1_9  and  C9_11 
REMARK    3  A    between atoms: C9_11  and  C10_12 
REMARK       I    between atoms: C10_12  and  N2_14 
REMARK    4  A    between atoms: C21_26  and  O4_28 
REMARK    5  A    between atoms: O4_28  and  C23_29 
ROOT
HETATM    1  C1  UNL     1       2.415  -2.618  -1.607  1.00  0.00     0.015 C 
HETATM    2  C2  UNL     1       2.083  -1.669  -0.756  1.00  0.00    -0.072 C 
HETATM    3  C3  UNL     1       0.635  -1.402  -0.419  1.00  0.00     0.044 C 
HETATM    4  C4  UNL     1       0.414  -0.905   0.957  1.00  0.00    -0.024 C 
HETATM    5  C5  UNL     1       0.434  -2.131   1.886  1.00  0.00     0.016 C 
HETATM    6  C6  UNL     1      -0.878  -0.225   1.178  1.00  0.00     0.087 C 
HETATM    7  C15 UNL     1      -0.570   1.186   0.721  1.00  0.00     0.015 C 
HETATM    8  C16 UNL     1       0.641   1.434   1.638  1.00  0.00     0.007 C 
HETATM    9  C17 UNL     1       1.419   0.124   1.442  1.00  0.00     0.001 C 
HETATM   10  C18 UNL     1       2.409   0.406   0.374  1.00  0.00     0.015 C 
HETATM   11  C19 UNL     1       3.562   1.263   0.757  1.00  0.00     0.051 C 
HETATM   12  C20 UNL     1       4.567   0.924  -0.283  1.00  0.00     0.019 C 
HETATM   13  C21 UNL     1       5.709   1.606  -0.488  1.00  0.00     0.062 C 
HETATM   14  C22 UNL     1       5.995   2.767   0.367  1.00  0.00     0.077 C 
HETATM   15  C25 UNL     1       4.111  -0.253  -1.025  1.00  0.00     0.171 C 
HETATM   16  O6  UNL     1       4.525  -0.595  -2.149  1.00  0.00    -0.291 OA
HETATM   17  C26 UNL     1       3.104  -0.856  -0.121  1.00  0.00     0.048 C 
HETATM   18  C27 UNL     1       3.853  -1.550   0.983  1.00  0.00     0.029 C 
ENDROOT
BRANCH   6  19
HETATM   19  C7  UNL     1      -2.080  -0.790   0.615  1.00  0.00     0.224 C 
HETATM   20  O1  UNL     1      -2.096  -1.773  -0.203  1.00  0.00    -0.273 OA
HETATM   21  N1  UNL     1      -3.366  -0.282   0.938  1.00  0.00    -0.347 N 
HETATM   22  C8  UNL     1      -3.538   0.821   1.861  1.00  0.00     0.153 C 
BRANCH  21  23
HETATM   23  C9  UNL     1      -4.599  -0.835   0.361  1.00  0.00     0.228 C 
BRANCH  23  24
HETATM   24  C10 UNL     1      -4.919  -0.115  -0.893  1.00  0.00     0.237 C 
HETATM   25  O2  UNL     1      -4.165   0.807  -1.284  1.00  0.00    -0.272 OA
HETATM   26  N2  UNL     1      -6.056  -0.424  -1.683  1.00  0.00    -0.347 N 
HETATM   27  C11 UNL     1      -6.990  -1.488  -1.300  1.00  0.00     0.152 C 
HETATM   28  C14 UNL     1      -6.357   0.287  -2.897  1.00  0.00     0.152 C 
HETATM   29  C12 UNL     1      -8.372  -0.835  -1.332  1.00  0.00     0.187 C 
HETATM   30  O3  UNL     1      -8.672  -0.295  -2.551  1.00  0.00    -0.388 OA
HETATM   31  C13 UNL     1      -7.814   0.670  -2.994  1.00  0.00     0.187 C 
ENDBRANCH  23  24
ENDBRANCH  21  23
ENDBRANCH   6  19
BRANCH  13  32
HETATM   32  O4  UNL     1       6.559   1.192  -1.484  1.00  0.00    -0.283 OA
BRANCH  32  33
HETATM   33  C23 UNL     1       7.736   1.800  -1.783  1.00  0.00     0.259 C 
HETATM   34  C24 UNL     1       8.624   1.296  -2.889  1.00  0.00     0.126 C 
HETATM   35  O5  UNL     1       8.125   2.800  -1.152  1.00  0.00    -0.265 OA
ENDBRANCH  32  33
ENDBRANCH  13  32
TORSDOF 5
