REMARK  8 active torsions:
REMARK  status: ('A' for Active; 'I' for Inactive)
REMARK    1  A    between atoms: C2_2  and  N1_4 
REMARK    2  A    between atoms: N1_4  and  S1_6 
REMARK    3  A    between atoms: S1_6  and  N2_9 
REMARK    4  A    between atoms: N2_9  and  N3_11 
REMARK    5  A    between atoms: C4_12  and  O3_13 
REMARK    6  A    between atoms: C5_15  and  C6_16 
REMARK    7  A    between atoms: N4_21  and  N5_22 
REMARK    8  A    between atoms: C9_25  and  N6_26 
ROOT
HETATM    1  N3  UNL     1      -0.443   0.043  -0.619  1.00  0.00    -0.050 N 
HETATM    2  C4  UNL     1      -1.583  -0.661  -0.849  1.00  0.00     0.200 A 
HETATM    3  C5  UNL     1      -2.818  -0.181  -0.499  1.00  0.00     0.133 A 
HETATM    4  C8  UNL     1      -2.874   1.055   0.103  1.00  0.00     0.300 A 
HETATM    5  O5  UNL     1      -3.968   1.547   0.445  1.00  0.00    -0.264 OA
HETATM    6  N4  UNL     1      -1.737   1.751   0.330  1.00  0.00    -0.052 N 
HETATM    7  C9  UNL     1      -0.540   1.253  -0.026  1.00  0.00     0.724 A 
ENDROOT
BRANCH   1   8
HETATM    8  N2  UNL     1       0.775  -0.518  -1.006  1.00  0.00    -0.186 N 
ATOM      9  H2  UNL     1       1.122  -0.350  -1.950  1.00  0.00     0.203 HD
BRANCH   8  10
HETATM   10  S1  UNL     1       1.704  -1.485   0.070  1.00  0.00     0.337 S 
HETATM   11  O1  UNL     1       2.371  -2.579  -0.709  1.00  0.00    -0.181 OA
HETATM   12  O2  UNL     1       0.803  -2.172   1.085  1.00  0.00    -0.181 OA
BRANCH  10  13
HETATM   13  N1  UNL     1       2.838  -0.539   0.970  1.00  0.00    -0.272 N 
ATOM     14  H1  UNL     1       2.558  -0.147   1.869  1.00  0.00     0.180 HD
BRANCH  13  15
HETATM   15  C2  UNL     1       4.151  -0.295   0.486  1.00  0.00     0.008 C 
HETATM   16  C1  UNL     1       4.279   0.445  -0.609  1.00  0.00     0.038 C 
HETATM   17  C3  UNL     1       5.336  -0.842   1.172  1.00  0.00     0.068 C 
ENDBRANCH  13  15
ENDBRANCH  10  13
ENDBRANCH   8  10
ENDBRANCH   1   8
BRANCH   2  18
HETATM   18  O3  UNL     1      -1.479  -1.901  -1.458  1.00  0.00    -0.344 OA
ATOM     19  H3  UNL     1      -2.276  -2.393  -1.619  1.00  0.00     0.219 HD
ENDBRANCH   2  18
BRANCH   7  20
HETATM   20  N6  UNL     1       0.547   1.924   0.194  1.00  0.00    -0.231 N 
ATOM     21  H62 UNL     1       1.455   1.546  -0.076  1.00  0.00     0.174 HD
ATOM     22  H61 UNL     1       0.474   2.838   0.642  1.00  0.00     0.174 HD
ENDBRANCH   7  20
BRANCH   3  23
HETATM   23  C6  UNL     1      -4.022  -0.988  -0.774  1.00  0.00     0.165 C 
HETATM   24  C7  UNL     1      -5.371  -0.526  -0.422  1.00  0.00     0.097 C 
HETATM   25  O4  UNL     1      -3.899  -2.113  -1.329  1.00  0.00    -0.292 OA
ENDBRANCH   3  23
BRANCH   6  26
HETATM   26  N5  UNL     1      -1.810   2.988   0.934  1.00  0.00    -0.321 N 
ATOM     27  H52 UNL     1      -2.718   3.366   1.204  1.00  0.00     0.178 HD
ATOM     28  H51 UNL     1      -0.952   3.513   1.105  1.00  0.00     0.178 HD
ENDBRANCH   6  26
TORSDOF 8
