REMARK  5 active torsions:
REMARK  status: ('A' for Active; 'I' for Inactive)
REMARK    1  A    between atoms: C2_2  and  N7_22 
REMARK    2  A    between atoms: N1_3  and  N2_5 
REMARK       I    between atoms: N2_5  and  C3_6 
REMARK       I    between atoms: C3_6  and  N3_8 
REMARK    3  A    between atoms: N3_8  and  C4_10 
REMARK    4  A    between atoms: C5_11  and  S1_12 
REMARK    5  A    between atoms: N7_22  and  N8_24 
ROOT
HETATM    1  N2  UNL     1       1.246   0.363   0.344  1.00  0.00    -0.263 NA
HETATM    2  C3  UNL     1       0.071  -0.145  -0.228  1.00  0.00     0.417 C 
HETATM    3  O1  UNL     1      -0.158  -0.361  -1.421  1.00  0.00    -0.228 OA
HETATM    4  N3  UNL     1      -1.029  -0.470   0.656  1.00  0.00    -0.290 N 
ATOM      5  H3  UNL     1      -0.916  -0.313   1.657  1.00  0.00     0.172 HD
ENDROOT
BRANCH   4   6
HETATM    6  C4  UNL     1      -2.253  -0.996   0.186  1.00  0.00     0.120 A 
HETATM    7  C5  UNL     1      -3.337  -0.259  -0.203  1.00  0.00     0.173 A 
HETATM    8  N4  UNL     1      -4.272  -1.134  -0.578  1.00  0.00    -0.287 N 
HETATM    9  N5  UNL     1      -3.844  -2.374  -0.449  1.00  0.00    -0.285 N 
ATOM     10  H4  UNL     1      -5.198  -0.877  -0.920  1.00  0.00     0.188 HD
HETATM   11  C7  UNL     1      -2.594  -2.317   0.023  1.00  0.00     0.161 A 
ATOM     12  H5  UNL     1      -4.369  -3.220  -0.669  1.00  0.00     0.188 HD
HETATM   13  N6  UNL     1      -1.759  -3.408   0.306  1.00  0.00    -0.079 NA
BRANCH   7  14
HETATM   14  S1  UNL     1      -3.524   1.475  -0.227  1.00  0.00     0.191 S 
HETATM   15  C6  UNL     1      -2.963   2.081  -1.823  1.00  0.00     0.168 C 
HETATM   16  O2  UNL     1      -4.990   1.790  -0.159  1.00  0.00    -0.221 OA
HETATM   17  O3  UNL     1      -2.771   2.135   0.890  1.00  0.00    -0.221 OA
ENDBRANCH   7  14
ENDBRANCH   4   6
BRANCH   1  18
HETATM   18  N1  UNL     1       2.275   0.807   0.836  1.00  0.00    -0.217 N 
HETATM   19  C2  UNL     1       3.527   0.517   0.912  1.00  0.00     0.124 C 
HETATM   20  C1  UNL     1       3.967  -0.715   0.226  1.00  0.00     0.093 C 
ATOM     21  H1  UNL     1       2.081   1.672   1.341  1.00  0.00     0.203 HD
BRANCH  19  22
HETATM   22  N7  UNL     1       4.366   1.393   1.628  1.00  0.00    -0.228 N 
ATOM     23  H7  UNL     1       4.367   1.399   2.648  1.00  0.00     0.194 HD
BRANCH  22  24
HETATM   24  N8  UNL     1       5.207   2.265   0.896  1.00  0.00    -0.037 N 
HETATM   25  O4  UNL     1       4.688   2.769  -0.117  1.00  0.00    -0.516 OA
HETATM   26  O5  UNL     1       6.500   2.513   1.301  1.00  0.00    -0.516 OA
ENDBRANCH  22  24
ENDBRANCH  19  22
ENDBRANCH   1  18
TORSDOF 5
