REMARK  14 active torsions:
REMARK  status: ('A' for Active; 'I' for Inactive)
REMARK    1  A    between atoms: O1_2  and  C2_3 
REMARK    2  A    between atoms: C2_3  and  C3_5 
REMARK    3  A    between atoms: C6_8  and  C7_9 
REMARK    4  A    between atoms: C7_9  and  C8_11 
REMARK    5  A    between atoms: C8_11  and  C19_30 
REMARK    6  A    between atoms: N1_12  and  N2_14 
REMARK    7  A    between atoms: N2_14  and  C9_16 
REMARK    8  A    between atoms: C9_16  and  O4_17 
REMARK    9  A    between atoms: C9_16  and  C10_19 
REMARK   10  A    between atoms: C10_19  and  C11_20 
REMARK   11  A    between atoms: C11_20  and  C12_22 
REMARK   12  A    between atoms: C15_25  and  O6_26 
REMARK   13  A    between atoms: C19_30  and  O7_31 
REMARK   14  A    between atoms: C19_30  and  O8_33 
ROOT
HETATM    1  C8  UNL     1      -1.633   1.138   0.846  1.00  0.00     0.133 C 
HETATM    2  N1  UNL     1      -0.408   1.300   1.195  1.00  0.00    -0.298 N 
ATOM      3  H1  UNL     1       0.135   1.962   0.641  1.00  0.00     0.186 HD
ENDROOT
BRANCH   2   4
HETATM    4  N2  UNL     1       0.251   0.688   2.222  1.00  0.00    -0.307 N 
ATOM      5  H2  UNL     1       0.112   1.038   3.170  1.00  0.00     0.183 HD
BRANCH   4   6
HETATM    6  C9  UNL     1       1.140  -0.438   2.021  1.00  0.00     0.240 C 
BRANCH   6   7
HETATM    7  O4  UNL     1       1.681  -0.875   3.233  1.00  0.00    -0.375 OA
ATOM      8  H4  UNL     1       2.264  -1.613   3.101  1.00  0.00     0.212 HD
ENDBRANCH   6   7
BRANCH   6   9
HETATM    9  C10 UNL     1       2.294  -0.098   1.121  1.00  0.00     0.138 C 
BRANCH   9  10
HETATM   10  C11 UNL     1       3.148  -1.321   0.978  1.00  0.00     0.163 C 
HETATM   11  O5  UNL     1       2.837  -2.379   1.564  1.00  0.00    -0.292 OA
BRANCH  10  12
HETATM   12  C12 UNL     1       4.356  -1.308   0.158  1.00  0.00     0.010 A 
HETATM   13  C13 UNL     1       5.124  -2.437   0.040  1.00  0.00     0.018 A 
HETATM   14  C14 UNL     1       6.268  -2.398  -0.747  1.00  0.00     0.037 A 
HETATM   15  C15 UNL     1       6.603  -1.219  -1.392  1.00  0.00     0.068 A 
HETATM   16  C17 UNL     1       5.828  -0.099  -1.266  1.00  0.00     0.037 A 
HETATM   17  C18 UNL     1       4.697  -0.145  -0.486  1.00  0.00     0.018 A 
BRANCH  15  18
HETATM   18  O6  UNL     1       7.762  -1.231  -2.170  1.00  0.00    -0.356 OA
HETATM   19  C16 UNL     1       8.145  -0.060  -2.844  1.00  0.00     0.210 C 
ENDBRANCH  15  18
ENDBRANCH  10  12
ENDBRANCH   9  10
ENDBRANCH   6   9
ENDBRANCH   4   6
ENDBRANCH   2   4
BRANCH   1  20
HETATM   20  C7  UNL     1      -2.162   1.886  -0.287  1.00  0.00     0.234 C 
HETATM   21  O3  UNL     1      -1.398   2.671  -0.909  1.00  0.00    -0.283 OA
BRANCH  20  22
HETATM   22  C6  UNL     1      -3.552   1.768  -0.742  1.00  0.00     0.128 A 
HETATM   23  C5  UNL     1      -4.113   2.449  -1.820  1.00  0.00     0.044 A 
HETATM   24  C4  UNL     1      -5.421   2.052  -1.895  1.00  0.00     0.046 A 
HETATM   25  C3  UNL     1      -5.641   1.146  -0.876  1.00  0.00     0.151 A 
HETATM   26  O9  UNL     1      -4.507   1.031  -0.248  1.00  0.00    -0.300 OA
BRANCH  25  27
HETATM   27  C2  UNL     1      -6.915   0.458  -0.579  1.00  0.00     0.317 C 
HETATM   28  O2  UNL     1      -6.953  -0.343   0.389  1.00  0.00    -0.257 OA
BRANCH  27  29
HETATM   29  O1  UNL     1      -8.046   0.662  -1.316  1.00  0.00    -0.321 OA
HETATM   30  C1  UNL     1      -9.262  -0.008  -1.016  1.00  0.00     0.213 C 
ENDBRANCH  27  29
ENDBRANCH  25  27
ENDBRANCH  20  22
ENDBRANCH   1  20
BRANCH   1  31
HETATM   31  C19 UNL     1      -2.471   0.177   1.598  1.00  0.00     0.310 C 
BRANCH  31  32
HETATM   32  O7  UNL     1      -2.750  -0.931   0.795  1.00  0.00    -0.366 OA
ATOM     33  H7  UNL     1      -3.288  -1.548   1.278  1.00  0.00     0.213 HD
ENDBRANCH  31  32
BRANCH  31  34
HETATM   34  O8  UNL     1      -1.887  -0.306   2.758  1.00  0.00    -0.366 OA
ATOM     35  H8  UNL     1      -2.425  -0.923   3.241  1.00  0.00     0.213 HD
ENDBRANCH  31  34
ENDBRANCH   1  31
TORSDOF 14
