REMARK  13 active torsions:
REMARK  status: ('A' for Active; 'I' for Inactive)
REMARK    1  A    between atoms: O1_2  and  C2_3 
REMARK    2  A    between atoms: C2_3  and  C3_4 
REMARK    3  A    between atoms: C3_4  and  O2_5 
REMARK    4  A    between atoms: O2_5  and  C4_6 
REMARK    5  A    between atoms: C4_6  and  O3_7 
REMARK    6  A    between atoms: C4_6  and  C5_9 
REMARK    7  A    between atoms: C6_11  and  N1_12 
REMARK    8  A    between atoms: N1_12  and  S1_14 
REMARK    9  A    between atoms: C7_18  and  N2_19 
REMARK   10  A    between atoms: N2_19  and  C8_21 
REMARK   11  A    between atoms: C8_21  and  C11_24 
REMARK   12  A    between atoms: C11_24  and  O8_26 
REMARK   13  A    between atoms: N3_30  and  O9_32 
ROOT
HETATM    1  C5  UNL     1       1.351   0.396  -0.483  1.00  0.00     0.118 A 
HETATM    2  O4  UNL     1       0.671   1.162  -1.335  1.00  0.00    -0.290 OA
HETATM    3  C6  UNL     1      -0.544   1.377  -0.947  1.00  0.00     0.186 A 
HETATM    4  C7  UNL     1      -0.695   0.700   0.265  1.00  0.00     0.090 A 
HETATM    5  C14 UNL     1       0.502   0.084   0.556  1.00  0.00     0.004 A 
HETATM    6  C15 UNL     1       0.851  -0.729   1.766  1.00  0.00     0.054 C 
ENDROOT
BRANCH   1   7
HETATM    7  C4  UNL     1       2.766  -0.002  -0.699  1.00  0.00     0.316 C 
BRANCH   7   8
HETATM    8  O2  UNL     1       3.035  -1.325  -0.486  1.00  0.00    -0.347 OA
BRANCH   8   9
HETATM    9  C3  UNL     1       4.085  -1.618   0.344  1.00  0.00     0.257 C 
BRANCH   9  10
HETATM   10  C2  UNL     1       5.378  -1.078  -0.139  1.00  0.00     0.161 C 
HETATM   11  N3  UNL     1       6.016  -0.245   0.597  1.00  0.00    -0.249 N 
ATOM     12  H3  UNL     1       6.907   0.137   0.280  1.00  0.00     0.196 HD
BRANCH  10  13
HETATM   13  O1  UNL     1       5.919  -1.445  -1.362  1.00  0.00    -0.341 OA
HETATM   14  C1  UNL     1       7.322  -1.489  -1.547  1.00  0.00     0.211 C 
ENDBRANCH  10  13
BRANCH  11  15
HETATM   15  O9  UNL     1       5.501   0.132   1.810  1.00  0.00    -0.288 OA
ATOM     16  H9  UNL     1       5.974   0.749   2.356  1.00  0.00     0.244 HD
ENDBRANCH  11  15
ENDBRANCH   9  10
ENDBRANCH   8   9
ENDBRANCH   7   8
BRANCH   7  17
HETATM   17  O3  UNL     1       3.052   0.202  -2.092  1.00  0.00    -0.365 OA
ATOM     18  H3  UNL     1       2.865   1.122  -2.240  1.00  0.00     0.213 HD
ENDBRANCH   7  17
ENDBRANCH   1   7
BRANCH   3  19
HETATM   19  N1  UNL     1      -1.537   2.167  -1.638  1.00  0.00    -0.243 N 
ATOM     20  H1  UNL     1      -2.155   1.728  -2.320  1.00  0.00     0.183 HD
BRANCH  19  21
HETATM   21  S1  UNL     1      -1.674   3.844  -1.310  1.00  0.00     0.210 S 
HETATM   22  O5  UNL     1      -3.086   4.338  -1.490  1.00  0.00    -0.578 OA
HETATM   23  O6  UNL     1      -1.280   4.173   0.104  1.00  0.00    -0.578 OA
HETATM   24  O7  UNL     1      -0.695   4.763  -2.321  1.00  0.00    -0.578 OA
ENDBRANCH  19  21
ENDBRANCH   3  19
BRANCH   4  25
HETATM   25  N2  UNL     1      -1.887   0.681   1.006  1.00  0.00    -0.375 N 
ATOM     26  H2  UNL     1      -1.985   1.462   1.655  1.00  0.00     0.160 HD
BRANCH  25  27
HETATM   27  C8  UNL     1      -2.972  -0.216   1.019  1.00  0.00     0.049 C 
HETATM   28  C9  UNL     1      -4.090   0.384   1.897  1.00  0.00     0.041 C 
HETATM   29  C10 UNL     1      -2.627  -1.515   1.794  1.00  0.00     0.041 C 
BRANCH  27  30
HETATM   30  C11 UNL     1      -3.617  -0.578  -0.281  1.00  0.00     0.144 C 
HETATM   31  C12 UNL     1      -2.705  -1.308  -1.248  1.00  0.00     0.042 C 
BRANCH  30  32
HETATM   32  O8  UNL     1      -4.702  -1.416   0.048  1.00  0.00    -0.389 OA
HETATM   33  C13 UNL     1      -5.908  -0.877  -0.315  1.00  0.00     0.202 C 
ENDBRANCH  30  32
ENDBRANCH  27  30
ENDBRANCH  25  27
ENDBRANCH   4  25
TORSDOF 13
