REMARK  10 active torsions:
REMARK  status: ('A' for Active; 'I' for Inactive)
REMARK       I    between atoms: C2_2  and  N1_4 
REMARK    1  A    between atoms: N1_4  and  C3_5 
REMARK    2  A    between atoms: N1_4  and  C13_31 
REMARK    3  A    between atoms: C3_5  and  C4_6 
REMARK       I    between atoms: C4_6  and  N2_8 
REMARK    4  A    between atoms: N2_8  and  C5_10 
REMARK    5  A    between atoms: C5_10  and  C6_11 
REMARK    6  A    between atoms: C5_10  and  C9_20 
REMARK    7  A    between atoms: C6_11  and  C7_12 
REMARK    8  A    between atoms: C7_12  and  C8_13 
REMARK       I    between atoms: C8_13  and  N3_15 
REMARK    9  A    between atoms: N3_15  and  N4_17 
REMARK   10  A    between atoms: C10_21  and  C11_22 
ROOT
HETATM    1  C5  UNL     1       1.998   1.093   0.301  1.00  0.00     0.139 C 
ENDROOT
BRANCH   1   2
HETATM    2  N2  UNL     1       0.800   0.955  -0.516  1.00  0.00    -0.349 N 
HETATM    3  C4  UNL     1      -0.496   0.540  -0.040  1.00  0.00     0.236 C 
HETATM    4  O2  UNL     1      -0.550   0.280   1.175  1.00  0.00    -0.272 OA
ATOM      5  H2  UNL     1       0.885   1.170  -1.509  1.00  0.00     0.163 HD
BRANCH   3   6
HETATM    6  C3  UNL     1      -1.623   0.457  -0.986  1.00  0.00     0.235 C 
BRANCH   6   7
HETATM    7  N1  UNL     1      -2.864   0.053  -0.398  1.00  0.00    -0.303 N 
HETATM    8  C2  UNL     1      -3.713   1.100   0.122  1.00  0.00     0.221 C 
HETATM    9  C1  UNL     1      -3.219   2.478   0.271  1.00  0.00     0.117 C 
HETATM   10  O1  UNL     1      -4.895   0.838   0.456  1.00  0.00    -0.273 OA
BRANCH   7  11
HETATM   11  C13 UNL     1      -3.351  -1.278  -0.383  1.00  0.00     0.129 A 
HETATM   12  C14 UNL     1      -3.679  -1.966   0.737  1.00  0.00     0.042 A 
HETATM   13  C15 UNL     1      -3.593  -1.348   2.082  1.00  0.00     0.071 C 
HETATM   14  N9  UNL     1      -4.136  -3.270   0.665  1.00  0.00    -0.310 N 
HETATM   15  C16 UNL     1      -4.259  -3.864  -0.519  1.00  0.00     0.327 A 
ATOM     16  H9  UNL     1      -4.378  -3.775   1.518  1.00  0.00     0.170 HD
HETATM   17  O5  UNL     1      -4.669  -5.041  -0.613  1.00  0.00    -0.247 OA
HETATM   18  N10 UNL     1      -3.942  -3.198  -1.620  1.00  0.00    -0.274 N 
HETATM   19  C17 UNL     1      -3.493  -1.931  -1.620  1.00  0.00     0.278 A 
ATOM     20  H10 UNL     1      -4.044  -3.673  -2.517  1.00  0.00     0.173 HD
HETATM   21  O6  UNL     1      -3.204  -1.322  -2.667  1.00  0.00    -0.265 OA
ENDBRANCH   7  11
ENDBRANCH   6   7
ENDBRANCH   3   6
ENDBRANCH   1   2
BRANCH   1  22
HETATM   22  C6  UNL     1       2.861  -0.133   0.153  1.00  0.00     0.041 C 
BRANCH  22  23
HETATM   23  C7  UNL     1       2.152  -1.412   0.624  1.00  0.00     0.107 C 
BRANCH  23  24
HETATM   24  C8  UNL     1       3.108  -2.570   0.467  1.00  0.00     0.235 C 
HETATM   25  O3  UNL     1       4.238  -2.339  -0.021  1.00  0.00    -0.272 OA
HETATM   26  N3  UNL     1       2.728  -3.859   0.860  1.00  0.00    -0.277 N 
ATOM     27  H3  UNL     1       1.803  -4.030   1.255  1.00  0.00     0.189 HD
BRANCH  26  28
HETATM   28  N4  UNL     1       3.654  -4.924   0.699  1.00  0.00    -0.343 N 
ATOM     29  H42 UNL     1       4.575  -4.736   0.303  1.00  0.00     0.176 HD
ATOM     30  H41 UNL     1       3.377  -5.863   0.985  1.00  0.00     0.176 HD
ENDBRANCH  26  28
ENDBRANCH  23  24
ENDBRANCH  22  23
ENDBRANCH   1  22
BRANCH   1  31
HETATM   31  C9  UNL     1       2.679   2.377   0.004  1.00  0.00     0.085 A 
HETATM   32  C10 UNL     1       2.239   3.605   0.500  1.00  0.00     0.141 A 
HETATM   33  N6  UNL     1       3.070   4.533  -0.068  1.00  0.00    -0.279 N 
HETATM   34  N7  UNL     1       3.920   3.910  -0.824  1.00  0.00    -0.240 N 
ATOM     35  H6  UNL     1       3.028   5.542   0.078  1.00  0.00     0.189 HD
HETATM   36  N8  UNL     1       3.720   2.585  -0.812  1.00  0.00    -0.282 N 
ATOM     37  H7  UNL     1       4.652   4.373  -1.363  1.00  0.00     0.208 HD
HETATM   38  C12 UNL     1       4.533   1.678  -1.583  1.00  0.00     0.179 C 
BRANCH  32  39
HETATM   39  C11 UNL     1       1.198   3.946   1.465  1.00  0.00     0.284 C 
HETATM   40  N5  UNL     1       0.874   5.340   1.598  1.00  0.00    -0.056 NA
HETATM   41  O4  UNL     1       0.566   3.162   2.178  1.00  0.00    -0.269 OA
ENDBRANCH  32  39
ENDBRANCH   1  31
TORSDOF 10
