REMARK  4 active torsions:
REMARK  status: ('A' for Active; 'I' for Inactive)
REMARK    1  A    between atoms: O1_2  and  N1_3 
REMARK    2  A    between atoms: N1_3  and  C2_4 
REMARK    3  A    between atoms: C5_9  and  C6_10 
REMARK    4  A    between atoms: C7_13  and  S1_14 
ROOT
HETATM    1  C2  UNL     1       1.830  -0.134   0.432  1.00  0.00     0.124 C 
HETATM    2  C3  UNL     1       1.391  -1.593   0.330  1.00  0.00     0.050 C 
HETATM    3  C4  UNL     1       0.555  -1.214  -0.861  1.00  0.00     0.094 C 
HETATM    4  N2  UNL     1      -0.796  -1.637  -0.860  1.00  0.00    -0.401 N 
ATOM      5  H2  UNL     1      -1.144  -2.301  -1.552  1.00  0.00     0.154 HD
HETATM    6  C5  UNL     1      -1.642  -1.103   0.137  1.00  0.00     0.202 C 
HETATM    7  C7  UNL     1      -2.037   0.304  -0.311  1.00  0.00     0.141 C 
HETATM    8  S2  UNL     1      -0.484   1.257  -0.131  1.00  0.00    -0.142 SA
HETATM    9  C9  UNL     1       0.841   0.210  -0.678  1.00  0.00     0.092 C 
ENDROOT
BRANCH   1  10
HETATM   10  N1  UNL     1       3.222   0.002   0.051  1.00  0.00    -0.095 NA
BRANCH  10  11
HETATM   11  O1  UNL     1       3.574   1.314   0.155  1.00  0.00    -0.291 OA
HETATM   12  C1  UNL     1       4.955   1.357   0.320  1.00  0.00     0.231 C 
ENDBRANCH  10  11
ENDBRANCH   1  10
BRANCH   7  13
HETATM   13  S1  UNL     1      -3.348   0.977   0.720  1.00  0.00    -0.155 SA
HETATM   14  C8  UNL     1      -3.748   2.634   0.118  1.00  0.00     0.091 C 
ENDBRANCH   7  13
BRANCH   6  15
HETATM   15  C6  UNL     1      -2.882  -1.911   0.266  1.00  0.00     0.198 C 
HETATM   16  O2  UNL     1      -3.090  -2.912  -0.438  1.00  0.00    -0.646 OA
HETATM   17  O3  UNL     1      -3.845  -1.551   1.192  1.00  0.00    -0.646 OA
ENDBRANCH   6  15
TORSDOF 4
