REMARK  11 active torsions:
REMARK  status: ('A' for Active; 'I' for Inactive)
REMARK    1  A    between atoms: C6_6  and  C7_7 
REMARK    2  A    between atoms: C7_7  and  C8_8 
REMARK    3  A    between atoms: C8_8  and  C9_9 
REMARK    4  A    between atoms: N1_13  and  C13_14 
REMARK    5  A    between atoms: C15_18  and  C16_19 
REMARK    6  A    between atoms: C15_18  and  C17_25 
REMARK    7  A    between atoms: N3_20  and  N4_22 
REMARK    8  A    between atoms: C17_25  and  S1_26 
REMARK    9  A    between atoms: C19_29  and  O2_30 
REMARK   10  A    between atoms: C20_32  and  C21_33 
REMARK   11  A    between atoms: C21_33  and  O3_34 
ROOT
HETATM    1  C13 UNL     1      -0.726   0.479  -2.469  1.00  0.00     0.121 C 
HETATM    2  C14 UNL     1      -1.155   1.046  -1.372  1.00  0.00     0.031 C 
HETATM    3  N2  UNL     1      -2.458   1.698  -1.281  1.00  0.00    -0.374 N 
ATOM      4  H2  UNL     1      -2.914   2.359  -1.910  1.00  0.00     0.160 HD
HETATM    5  C15 UNL     1      -2.921   1.110   0.004  1.00  0.00     0.101 C 
HETATM    6  C19 UNL     1      -1.750   1.362   0.883  1.00  0.00     0.164 C 
HETATM    7  C20 UNL     1      -0.533   1.190  -0.036  1.00  0.00     0.092 C 
ENDROOT
BRANCH   1   8
HETATM    8  N1  UNL     1       0.499  -0.180  -2.686  1.00  0.00    -0.341 N 
HETATM    9  C12 UNL     1       1.359   0.218  -3.669  1.00  0.00     0.096 A 
HETATM   10  C11 UNL     1       2.537  -0.452  -3.903  1.00  0.00     0.018 A 
HETATM   11  C10 UNL     1       2.832  -1.547  -3.111  1.00  0.00     0.010 A 
HETATM   12  C9  UNL     1       1.997  -1.974  -2.118  1.00  0.00    -0.042 A 
HETATM   13  C22 UNL     1       0.815  -1.264  -1.918  1.00  0.00     0.103 A 
BRANCH  12  14
HETATM   14  C8  UNL     1       2.279  -3.165  -1.307  1.00  0.00     0.044 C 
BRANCH  14  15
HETATM   15  C7  UNL     1       3.133  -3.010  -0.127  1.00  0.00     0.043 C 
BRANCH  15  16
HETATM   16  C6  UNL     1       2.745  -2.103   0.936  1.00  0.00    -0.057 A 
HETATM   17  C5  UNL     1       1.925  -2.398   1.984  1.00  0.00     0.007 A 
HETATM   18  C4  UNL     1       1.669  -1.455   2.945  1.00  0.00     0.001 A 
HETATM   19  C3  UNL     1       2.208  -0.202   2.906  1.00  0.00     0.007 A 
HETATM   20  C2  UNL     1       3.041   0.131   1.861  1.00  0.00    -0.061 A 
HETATM   21  C1  UNL     1       3.669   1.481   1.773  1.00  0.00     0.048 C 
HETATM   22  C23 UNL     1       3.294  -0.815   0.902  1.00  0.00     0.013 A 
ENDBRANCH  15  16
ENDBRANCH  14  15
ENDBRANCH  12  14
ENDBRANCH   1   8
BRANCH   7  23
HETATM   23  C21 UNL     1       0.326   2.447   0.064  1.00  0.00     0.177 C 
BRANCH  23  24
HETATM   24  O3  UNL     1       1.339   2.427  -0.853  1.00  0.00    -0.400 OA
ATOM     25  H3  UNL     1       1.874   3.210  -0.791  1.00  0.00     0.209 HD
ENDBRANCH  23  24
ENDBRANCH   7  23
BRANCH   5  26
HETATM   26  C16 UNL     1      -4.139   1.850   0.448  1.00  0.00     0.114 C 
HETATM   27  N3  UNL     1      -4.375   1.938   1.696  1.00  0.00    -0.320 N 
ATOM     28  H3  UNL     1      -3.723   1.499   2.346  1.00  0.00     0.185 HD
BRANCH  27  29
HETATM   29  N4  UNL     1      -5.491   2.611   2.220  1.00  0.00    -0.346 N 
ATOM     30  H42 UNL     1      -6.133   3.044   1.556  1.00  0.00     0.176 HD
ATOM     31  H41 UNL     1      -5.680   2.682   3.220  1.00  0.00     0.176 HD
ENDBRANCH  27  29
ENDBRANCH   5  26
BRANCH   5  32
HETATM   32  C17 UNL     1      -3.244  -0.308  -0.305  1.00  0.00     0.147 C 
BRANCH  32  33
HETATM   33  S1  UNL     1      -3.854  -1.293   0.990  1.00  0.00     0.013 S 
HETATM   34  C18 UNL     1      -2.826  -1.507   2.379  1.00  0.00     0.127 C 
HETATM   35  O1  UNL     1      -4.316  -2.795   0.397  1.00  0.00    -0.258 OA
ENDBRANCH  32  33
ENDBRANCH   5  32
BRANCH   6  36
HETATM   36  O2  UNL     1      -1.797   2.725   1.250  1.00  0.00    -0.392 OA
ATOM     37  H2  UNL     1      -1.048   2.886   1.812  1.00  0.00     0.210 HD
ENDBRANCH   6  36
TORSDOF 11
