REMARK  12 active torsions:
REMARK  status: ('A' for Active; 'I' for Inactive)
REMARK    1  A    between atoms: C3_3  and  C4_4 
REMARK    2  A    between atoms: C4_4  and  C5_5 
REMARK       I    between atoms: C5_5  and  N1_7 
REMARK    3  A    between atoms: N1_7  and  C6_9 
REMARK    4  A    between atoms: C7_10  and  N2_11 
REMARK       I    between atoms: N2_11  and  C8_13 
REMARK       I    between atoms: N4_15  and  C9_17 
REMARK    5  A    between atoms: C11_20  and  O3_21 
REMARK    6  A    between atoms: C12_23  and  C13_24 
REMARK    7  A    between atoms: C13_24  and  O4_25 
REMARK    8  A    between atoms: N5_27  and  C14_28 
REMARK    9  A    between atoms: N5_27  and  C18_32 
REMARK   10  A    between atoms: C14_28  and  C15_29 
REMARK   11  A    between atoms: C18_32  and  C19_33 
REMARK   12  A    between atoms: C19_33  and  N6_34 
ROOT
HETATM    1  C1  UNL     1      -3.019   6.907  -0.550  1.00  0.00     0.012 C 
HETATM    2  C2  UNL     1      -2.167   6.127  -0.167  1.00  0.00    -0.117 C 
HETATM    3  C3  UNL     1      -1.149   5.179   0.312  1.00  0.00     0.102 C 
ENDROOT
BRANCH   3   4
HETATM    4  C4  UNL     1      -1.664   3.790   0.027  1.00  0.00     0.115 C 
BRANCH   4   5
HETATM    5  C5  UNL     1      -0.709   2.747   0.474  1.00  0.00     0.220 C 
HETATM    6  O1  UNL     1       0.386   3.066   1.026  1.00  0.00    -0.274 OA
HETATM    7  N1  UNL     1      -0.983   1.363   0.302  1.00  0.00    -0.331 N 
ATOM      8  H1  UNL     1      -1.862   1.098  -0.142  1.00  0.00     0.164 HD
BRANCH   7   9
HETATM    9  C6  UNL     1      -0.096   0.320   0.716  1.00  0.00     0.318 C 
HETATM   10  C7  UNL     1      -0.616  -0.568   1.802  1.00  0.00     0.165 C 
HETATM   11  C11 UNL     1      -0.369  -1.966   1.295  1.00  0.00     0.178 C 
HETATM   12  C12 UNL     1      -0.370  -1.788  -0.205  1.00  0.00     0.248 C 
HETATM   13  N5  UNL     1       0.309  -0.534  -0.392  1.00  0.00    -0.024 N 
BRANCH  10  14
HETATM   14  N2  UNL     1      -1.972  -0.301   2.165  1.00  0.00    -0.353 N 
HETATM   15  C8  UNL     1      -2.689  -1.000   3.172  1.00  0.00     0.191 C 
HETATM   16  N3  UNL     1      -1.958  -1.456   4.303  1.00  0.00    -0.063 NA
HETATM   17  N4  UNL     1      -3.958  -1.226   3.094  1.00  0.00    -0.302 N 
HETATM   18  C9  UNL     1      -4.790  -0.831   2.042  1.00  0.00     0.220 C 
ATOM     19  H4  UNL     1      -4.390  -1.736   3.865  1.00  0.00     0.171 HD
HETATM   20  C10 UNL     1      -5.531  -1.802   1.196  1.00  0.00     0.117 C 
HETATM   21  O2  UNL     1      -4.945   0.397   1.766  1.00  0.00    -0.274 OA
ATOM     22  H2  UNL     1      -2.459   0.444   1.666  1.00  0.00     0.162 HD
ENDBRANCH  10  14
BRANCH  11  23
HETATM   23  O3  UNL     1      -1.289  -2.879   1.738  1.00  0.00    -0.391 OA
ATOM     24  H3  UNL     1      -1.133  -3.760   1.418  1.00  0.00     0.210 HD
ENDBRANCH  11  23
BRANCH  12  25
HETATM   25  C13 UNL     1      -1.733  -1.884  -0.792  1.00  0.00     0.200 C 
BRANCH  25  26
HETATM   26  O4  UNL     1      -2.219  -3.179  -0.499  1.00  0.00    -0.399 OA
ATOM     27  H4  UNL     1      -3.090  -3.240  -0.874  1.00  0.00     0.209 HD
ENDBRANCH  25  26
ENDBRANCH  12  25
BRANCH  13  28
HETATM   28  C14 UNL     1      -0.036   0.060  -1.669  1.00  0.00     0.334 C 
BRANCH  28  29
HETATM   29  C15 UNL     1       0.557  -0.759  -2.735  1.00  0.00    -0.079 C 
HETATM   30  C16 UNL     1       1.060  -1.422  -3.627  1.00  0.00    -0.109 C 
HETATM   31  C17 UNL     1       1.678  -2.199  -4.705  1.00  0.00     0.112 C 
ENDBRANCH  28  29
ENDBRANCH  13  28
BRANCH  13  32
HETATM   32  C18 UNL     1       1.712  -0.765  -0.287  1.00  0.00     0.269 C 
BRANCH  32  33
HETATM   33  C19 UNL     1       2.600   0.358  -0.686  1.00  0.00     0.264 C 
BRANCH  33  34
HETATM   34  N6  UNL     1       3.999   0.013  -0.543  1.00  0.00    -0.077 N 
HETATM   35  C20 UNL     1       4.447   0.131   0.841  1.00  0.00     0.271 C 
HETATM   36  C21 UNL     1       4.288  -1.339  -0.959  1.00  0.00     0.271 C 
HETATM   37  C22 UNL     1       4.847   0.900  -1.324  1.00  0.00     0.271 C 
ENDBRANCH  33  34
ENDBRANCH  32  33
ENDBRANCH  13  32
ENDBRANCH   7   9
ENDBRANCH   4   5
ENDBRANCH   3   4
TORSDOF 12
