REMARK  5 active torsions:
REMARK  status: ('A' for Active; 'I' for Inactive)
REMARK    1  A    between atoms: C5_5  and  N1_6 
REMARK       I    between atoms: N1_6  and  C6_8 
REMARK    2  A    between atoms: C6_8  and  O2_10 
REMARK    3  A    between atoms: O2_10  and  C7_11 
REMARK    4  A    between atoms: C7_11  and  C8_12 
REMARK    5  A    between atoms: N4_23  and  O3_24 
ROOT
HETATM    1  N1  UNL     1       0.769  -0.413  -0.888  1.00  0.00    -0.332 N 
ATOM      2  H1  UNL     1       1.012  -1.390  -1.049  1.00  0.00     0.165 HD
HETATM    3  C6  UNL     1       1.766   0.601  -1.105  1.00  0.00     0.361 C 
HETATM    4  O1  UNL     1       1.500   1.814  -0.914  1.00  0.00    -0.238 OA
ENDROOT
BRANCH   1   5
HETATM    5  C5  UNL     1      -0.566  -0.085  -0.448  1.00  0.00     0.090 C 
HETATM    6  C4  UNL     1      -1.568  -0.460  -1.484  1.00  0.00     0.052 C 
HETATM    7  C2  UNL     1      -2.524  -1.529  -1.103  1.00  0.00     0.034 C 
HETATM    8  C1  UNL     1      -3.700  -1.456  -2.087  1.00  0.00     0.034 C 
HETATM    9  C3  UNL     1      -1.858  -2.881  -1.385  1.00  0.00     0.034 C 
HETATM   10  N4  UNL     1      -3.066  -1.449   0.206  1.00  0.00    -0.182 NA
HETATM   11  C12 UNL     1      -2.348  -0.644   1.132  1.00  0.00     0.034 C 
HETATM   12  C11 UNL     1      -0.857  -0.659   0.919  1.00  0.00     0.052 C 
HETATM   13  C13 UNL     1      -2.901   0.771   1.051  1.00  0.00     0.034 C 
HETATM   14  C14 UNL     1      -2.628  -1.136   2.543  1.00  0.00     0.034 C 
BRANCH  10  15
HETATM   15  O3  UNL     1      -3.459  -2.638   0.705  1.00  0.00    -0.312 OA
ATOM     16  H3  UNL     1      -3.822  -2.584   1.581  1.00  0.00     0.237 HD
ENDBRANCH  10  15
ENDBRANCH   1   5
BRANCH   3  17
HETATM   17  O2  UNL     1       3.045   0.279  -1.527  1.00  0.00    -0.297 OA
BRANCH  17  18
HETATM   18  C7  UNL     1       4.052   1.243  -1.750  1.00  0.00     0.256 C 
BRANCH  18  19
HETATM   19  C8  UNL     1       4.345   2.015  -0.498  1.00  0.00     0.097 C 
HETATM   20  N2  UNL     1       4.231   3.279  -0.309  1.00  0.00    -0.377 N 
HETATM   21  C9  UNL     1       4.613   3.617   1.032  1.00  0.00     0.140 C 
ATOM     22  H2  UNL     1       3.914   3.948  -1.011  1.00  0.00     0.160 HD
HETATM   23  C10 UNL     1       4.554   2.316   1.769  1.00  0.00     0.140 C 
HETATM   24  N3  UNL     1       4.805   1.372   0.682  1.00  0.00    -0.377 N 
ATOM     25  H3  UNL     1       5.223   0.445   0.755  1.00  0.00     0.160 HD
ENDBRANCH  18  19
ENDBRANCH  17  18
ENDBRANCH   3  17
TORSDOF 5
