REMARK  5 active torsions:
REMARK  status: ('A' for Active; 'I' for Inactive)
REMARK    1  A    between atoms: C3_4  and  O1_5 
REMARK    2  A    between atoms: O1_5  and  C4_6 
REMARK    3  A    between atoms: C6_11  and  C7_12 
REMARK    4  A    between atoms: C7_12  and  O2_16 
REMARK    5  A    between atoms: C8_18  and  N3_19 
ROOT
HETATM    1  C4  UNL     1       1.403  -0.946  -0.107  1.00  0.00     0.188 C 
HETATM    2  C5  UNL     1       2.276  -1.841   0.781  1.00  0.00     0.267 C 
HETATM    3  N1  UNL     1       3.381  -0.910   1.056  1.00  0.00    -0.059 N 
ATOM      4  H11 UNL     1       4.113  -1.258   1.675  1.00  0.00     0.278 HD
ATOM      5  H12 UNL     1       3.153  -0.109   1.645  1.00  0.00     0.278 HD
HETATM    6  C6  UNL     1       3.796  -0.599  -0.318  1.00  0.00     0.292 C 
HETATM    7  C8  UNL     1       2.489  -0.342  -1.008  1.00  0.00     0.252 C 
ENDROOT
BRANCH   1   8
HETATM    8  O1  UNL     1       0.844   0.086   0.606  1.00  0.00    -0.332 OA
BRANCH   8   9
HETATM    9  C3  UNL     1      -0.476   0.487   0.648  1.00  0.00     0.144 A 
HETATM   10  S1  UNL     1      -1.014   1.800   1.592  1.00  0.00    -0.067 SA
HETATM   11  C2  UNL     1      -2.671   1.755   1.200  1.00  0.00    -0.010 A 
HETATM   12  C1  UNL     1      -3.762   2.668   1.703  1.00  0.00     0.057 C 
HETATM   13  C10 UNL     1      -2.760   0.700   0.329  1.00  0.00    -0.009 A 
HETATM   14  C9  UNL     1      -1.604   0.046   0.049  1.00  0.00     0.116 A 
HETATM   15  C11 UNL     1      -4.063   0.244  -0.318  1.00  0.00     0.044 C 
HETATM   16  O3  UNL     1      -1.672  -1.051  -0.853  1.00  0.00    -0.347 OA
HETATM   17  C13 UNL     1      -2.807  -1.860  -0.924  1.00  0.00     0.176 C 
HETATM   18  C12 UNL     1      -4.076  -1.254  -0.465  1.00  0.00     0.031 C 
ENDBRANCH   8   9
ENDBRANCH   1   8
BRANCH   7  19
HETATM   19  N3  UNL     1       2.279   1.070  -1.187  1.00  0.00    -0.070 N 
ATOM     20  H33 UNL     1       1.343   1.270  -1.539  1.00  0.00     0.274 HD
ATOM     21  H32 UNL     1       2.216   1.558  -0.294  1.00  0.00     0.274 HD
ATOM     22  H31 UNL     1       3.001   1.471  -1.786  1.00  0.00     0.274 HD
ENDBRANCH   7  19
BRANCH   6  23
HETATM   23  C7  UNL     1       4.705   0.554  -0.343  1.00  0.00     0.142 C 
HETATM   24  N2  UNL     1       5.893   0.417  -0.816  1.00  0.00    -0.382 N 
ATOM     25  H22 UNL     1       6.170  -0.501  -1.164  1.00  0.00     0.158 HD
ATOM     26  H21 UNL     1       6.524   1.218  -0.833  1.00  0.00     0.158 HD
BRANCH  23  27
HETATM   27  O2  UNL     1       4.329   1.801   0.130  1.00  0.00    -0.348 OA
ATOM     28  H2  UNL     1       4.917   2.547   0.114  1.00  0.00     0.219 HD
ENDBRANCH  23  27
ENDBRANCH   6  23
TORSDOF 5
