REMARK  7 active torsions:
REMARK  status: ('A' for Active; 'I' for Inactive)
REMARK    1  A    between atoms: C2_2  and  C5_5 
REMARK    2  A    between atoms: C5_5  and  C6_7 
REMARK       I    between atoms: C6_7  and  N1_9 
REMARK    3  A    between atoms: N1_9  and  C7_10 
REMARK    4  A    between atoms: C7_10  and  C8_11 
REMARK    5  A    between atoms: C8_11  and  O3_12 
REMARK    6  A    between atoms: C8_11  and  C9_14 
REMARK    7  A    between atoms: C9_14  and  N2_15 
ROOT
HETATM    1  C8  UNL     1       0.443   2.046  -1.072  1.00  0.00     0.198 C 
ENDROOT
BRANCH   1   2
HETATM    2  C7  UNL     1       1.959   2.422  -0.883  1.00  0.00     0.193 C 
BRANCH   2   3
HETATM    3  N1  UNL     1       2.777   1.425  -0.896  1.00  0.00    -0.378 NA
HETATM    4  C6  UNL     1       3.713   0.275  -0.923  1.00  0.00     0.362 C 
HETATM    5  O2  UNL     1       3.889  -0.459  -1.850  1.00  0.00    -0.248 OA
BRANCH   4   6
HETATM    6  C5  UNL     1       4.454   0.100   0.355  1.00  0.00     0.238 C 
HETATM    7  O1  UNL     1       4.276   1.033   1.228  1.00  0.00    -0.285 OA
BRANCH   6   8
HETATM    8  C2  UNL     1       5.339  -1.041   0.651  1.00  0.00     0.020 C 
HETATM    9  C1  UNL     1       6.379  -1.346  -0.384  1.00  0.00     0.023 C 
HETATM   10  C3  UNL     1       6.111  -0.685   1.933  1.00  0.00     0.023 C 
HETATM   11  C4  UNL     1       4.471  -2.229   0.992  1.00  0.00     0.023 C 
ENDBRANCH   6   8
ENDBRANCH   4   6
ENDBRANCH   2   3
ENDBRANCH   1   2
BRANCH   1  12
HETATM   12  O3  UNL     1      -0.244   3.214  -0.936  1.00  0.00    -0.388 OA
ATOM     13  H3  UNL     1      -1.159   2.987  -1.050  1.00  0.00     0.210 HD
ENDBRANCH   1  12
BRANCH   1  14
HETATM   14  C9  UNL     1       0.066   1.042  -0.022  1.00  0.00     0.310 C 
BRANCH  14  15
HETATM   15  N2  UNL     1      -1.337   0.790  -0.080  1.00  0.00     0.091 N 
HETATM   16  C10 UNL     1      -1.828   0.167  -1.249  1.00  0.00     0.273 C 
HETATM   17  C11 UNL     1      -3.088  -0.589  -1.178  1.00  0.00     0.039 C 
HETATM   18  C12 UNL     1      -4.011  -0.258  -0.086  1.00  0.00    -0.037 C 
HETATM   19  C13 UNL     1      -5.050   0.788  -0.494  1.00  0.00     0.010 C 
HETATM   20  C16 UNL     1      -4.841  -1.532   0.226  1.00  0.00     0.010 C 
HETATM   21  C17 UNL     1      -3.331   0.124   1.176  1.00  0.00     0.039 C 
HETATM   22  C14 UNL     1      -6.126  -0.079  -1.107  1.00  0.00     0.001 C 
HETATM   23  C15 UNL     1      -6.274  -1.151  -0.052  1.00  0.00     0.001 C 
HETATM   24  C18 UNL     1      -1.844   0.201   1.145  1.00  0.00     0.273 C 
ENDBRANCH  14  15
ENDBRANCH   1  14
TORSDOF 7
