REMARK  13 active torsions:
REMARK  status: ('A' for Active; 'I' for Inactive)
REMARK    1  A    between atoms: C2_2  and  C3_3 
REMARK    2  A    between atoms: C5_7  and  C6_8 
REMARK    3  A    between atoms: C6_8  and  C7_9 
REMARK    4  A    between atoms: C8_12  and  N2_13 
REMARK       I    between atoms: N2_13  and  C9_15 
REMARK       I    between atoms: C9_15  and  N3_17 
REMARK    5  A    between atoms: N3_17  and  N4_19 
REMARK    6  A    between atoms: N6_24  and  C10_25 
REMARK    7  A    between atoms: C10_25  and  O4_26 
REMARK    8  A    between atoms: C10_25  and  C11_28 
REMARK    9  A    between atoms: C11_28  and  N7_29 
REMARK   10  A    between atoms: C11_28  and  C12_33 
REMARK   11  A    between atoms: C13_36  and  C14_37 
REMARK       I    between atoms: C14_37  and  N8_39 
REMARK   12  A    between atoms: N8_39  and  C15_41 
REMARK   13  A    between atoms: C15_41  and  C16_45 
ROOT
HETATM    1  C6  UNL     1      -0.318   0.228  -0.849  1.00  0.00     0.167 C 
HETATM    2  C8  UNL     1       0.251   1.578  -0.549  1.00  0.00     0.127 C 
HETATM    3  N5  UNL     1       1.406   1.440   0.033  1.00  0.00    -0.286 N 
ATOM      4  H5  UNL     1       1.990   2.222   0.330  1.00  0.00     0.188 HD
HETATM    5  N6  UNL     1       1.751   0.111   0.203  1.00  0.00    -0.279 N 
HETATM    6  C13 UNL     1       0.860  -0.705  -0.539  1.00  0.00     0.228 C 
ENDROOT
BRANCH   1   7
HETATM    7  C5  UNL     1      -1.457  -0.057   0.015  1.00  0.00    -0.010 A 
HETATM    8  C4  UNL     1      -1.680   0.765   1.135  1.00  0.00     0.097 A 
HETATM    9  N1  UNL     1      -2.691   0.555   1.994  1.00  0.00    -0.366 N 
HETATM   10  C3  UNL     1      -3.555  -0.463   1.830  1.00  0.00     0.047 A 
ATOM     11  H1  UNL     1      -2.806   1.182   2.790  1.00  0.00     0.165 HD
HETATM   12  C18 UNL     1      -3.348  -1.274   0.742  1.00  0.00     0.139 A 
HETATM   13  C17 UNL     1      -2.322  -1.097  -0.168  1.00  0.00     0.054 A 
HETATM   14  F2  UNL     1      -4.188  -2.336   0.506  1.00  0.00    -0.204 F 
BRANCH  10  15
HETATM   15  C2  UNL     1      -4.683  -0.698   2.787  1.00  0.00     0.056 C 
HETATM   16  C1  UNL     1      -4.389  -1.855   3.711  1.00  0.00     0.011 C 
ENDBRANCH  10  15
ENDBRANCH   1   7
BRANCH   1  17
HETATM   17  C7  UNL     1      -0.589   0.212  -2.291  1.00  0.00     0.197 C 
HETATM   18  O1  UNL     1       0.029   1.006  -3.045  1.00  0.00    -0.647 OA
HETATM   19  O2  UNL     1      -1.490  -0.632  -2.865  1.00  0.00    -0.647 OA
ENDBRANCH   1  17
BRANCH   2  20
HETATM   20  N2  UNL     1      -0.274   2.857  -0.792  1.00  0.00    -0.294 N 
HETATM   21  C9  UNL     1      -1.490   3.255  -1.357  1.00  0.00     0.339 C 
HETATM   22  O3  UNL     1      -2.426   2.547  -1.783  1.00  0.00    -0.245 OA
HETATM   23  N3  UNL     1      -1.750   4.679  -1.490  1.00  0.00    -0.258 N 
ATOM     24  H3  UNL     1      -1.054   5.355  -1.176  1.00  0.00     0.191 HD
ATOM     25  H2  UNL     1       0.334   3.626  -0.509  1.00  0.00     0.172 HD
BRANCH  23  26
HETATM   26  N4  UNL     1      -2.931   5.117  -2.038  1.00  0.00    -0.341 N 
ATOM     27  H42 UNL     1      -3.617   4.428  -2.347  1.00  0.00     0.177 HD
ATOM     28  H41 UNL     1      -3.113   6.116  -2.131  1.00  0.00     0.177 HD
ENDBRANCH  23  26
ENDBRANCH   2  20
BRANCH   6  29
HETATM   29  C14 UNL     1       1.417  -1.244  -1.817  1.00  0.00     0.249 C 
HETATM   30  O7  UNL     1       0.808  -2.236  -2.274  1.00  0.00    -0.271 OA
HETATM   31  N8  UNL     1       2.535  -0.672  -2.448  1.00  0.00    -0.310 N 
ATOM     32  H8  UNL     1       2.945   0.139  -1.984  1.00  0.00     0.170 HD
BRANCH  31  33
HETATM   33  C15 UNL     1       3.148  -1.075  -3.623  1.00  0.00     0.150 C 
HETATM   34  N9  UNL     1       4.204  -0.351  -4.007  1.00  0.00    -0.384 N 
ATOM     35  H92 UNL     1       4.474   0.435  -3.415  1.00  0.00     0.157 HD
ATOM     36  H91 UNL     1       4.655  -0.648  -4.872  1.00  0.00     0.157 HD
BRANCH  33  37
HETATM   37  C16 UNL     1       2.759  -2.206  -4.475  1.00  0.00     0.314 C 
HETATM   38  F1  UNL     1       2.796  -3.429  -3.836  1.00  0.00    -0.198 F 
HETATM   39 CL1  UNL     1       3.947  -2.319  -5.842  1.00  0.00    -0.058 Cl
HETATM   40 CL2  UNL     1       1.176  -1.949  -5.264  1.00  0.00    -0.058 Cl
ENDBRANCH  33  37
ENDBRANCH  31  33
ENDBRANCH   6  29
BRANCH   5  41
HETATM   41  C10 UNL     1       2.866  -0.305   1.069  1.00  0.00     0.277 C 
BRANCH  41  42
HETATM   42  O4  UNL     1       3.766  -1.095   0.403  1.00  0.00    -0.373 OA
ATOM     43  H4  UNL     1       4.486  -1.364   0.962  1.00  0.00     0.212 HD
ENDBRANCH  41  42
BRANCH  41  44
HETATM   44  C11 UNL     1       2.337  -1.130   2.231  1.00  0.00     0.332 C 
BRANCH  44  45
HETATM   45  N7  UNL     1       1.376  -0.434   3.034  1.00  0.00    -0.061 N 
ATOM     46  H73 UNL     1       1.756   0.453   3.364  1.00  0.00     0.275 HD
ATOM     47  H72 UNL     1       0.609  -0.086   2.459  1.00  0.00     0.275 HD
ATOM     48  H71 UNL     1       1.021  -0.988   3.814  1.00  0.00     0.275 HD
ENDBRANCH  44  45
BRANCH  44  49
HETATM   49  C12 UNL     1       3.505  -1.502   3.069  1.00  0.00     0.209 C 
HETATM   50  O5  UNL     1       4.479  -2.126   2.552  1.00  0.00    -0.646 OA
HETATM   51  O6  UNL     1       3.550  -1.176   4.422  1.00  0.00    -0.646 OA
ENDBRANCH  44  49
ENDBRANCH  41  44
ENDBRANCH   5  41
TORSDOF 13
