REMARK  12 active torsions:
REMARK  status: ('A' for Active; 'I' for Inactive)
REMARK    1  A    between atoms: C1_2  and  N1_3 
REMARK    2  A    between atoms: C1_2  and  O1_21 
REMARK    3  A    between atoms: N1_3  and  C2_5 
REMARK    4  A    between atoms: C2_5  and  C3_6 
REMARK    5  A    between atoms: C3_6  and  C4_7 
REMARK    6  A    between atoms: C4_7  and  C5_8 
REMARK    7  A    between atoms: C5_8  and  C6_9 
REMARK    8  A    between atoms: C6_9  and  C7_10 
REMARK    9  A    between atoms: C7_10  and  C8_11 
REMARK   10  A    between atoms: C8_11  and  C9_12 
REMARK   11  A    between atoms: C9_12  and  C10_13 
REMARK   12  A    between atoms: O1_21  and  C18_22 
ROOT
HETATM    1  C2  UNL     1       2.602  -0.022  -1.132  1.00  0.00     0.122 C 
ENDROOT
BRANCH   1   2
HETATM    2  N1  UNL     1       2.905   1.209  -1.834  1.00  0.00    -0.361 N 
ATOM      3  H1  UNL     1       2.296   1.541  -2.582  1.00  0.00     0.162 HD
BRANCH   2   4
HETATM    4  C1  UNL     1       4.052   1.942  -1.470  1.00  0.00     0.215 C 
HETATM    5  S1  UNL     1       4.393   3.325  -2.251  1.00  0.00    -0.033 SA
BRANCH   4   6
HETATM    6  O1  UNL     1       4.879   1.507  -0.469  1.00  0.00    -0.284 OA
BRANCH   6   7
HETATM    7  C18 UNL     1       6.088   0.922  -0.744  1.00  0.00     0.089 A 
HETATM    8  C19 UNL     1       6.494   0.760  -2.048  1.00  0.00     0.038 A 
HETATM    9  C20 UNL     1       7.712   0.172  -2.349  1.00  0.00     0.004 A 
HETATM   10  C21 UNL     1       8.504  -0.245  -1.304  1.00  0.00     0.012 A 
HETATM   11  C22 UNL     1       8.103  -0.085   0.014  1.00  0.00    -0.023 A 
HETATM   12  C23 UNL     1       8.927  -0.516   1.044  1.00  0.00     0.012 A 
HETATM   13  C27 UNL     1       6.894   0.499   0.313  1.00  0.00     0.008 A 
HETATM   14  C24 UNL     1       8.546  -0.366   2.360  1.00  0.00     0.001 A 
HETATM   15  C25 UNL     1       7.315   0.229   2.639  1.00  0.00     0.001 A 
HETATM   16  C26 UNL     1       6.479   0.666   1.611  1.00  0.00     0.015 A 
ENDBRANCH   6   7
ENDBRANCH   4   6
ENDBRANCH   2   4
ENDBRANCH   1   2
BRANCH   1  17
HETATM   17  C3  UNL     1       2.192   0.183   0.298  1.00  0.00     0.020 C 
BRANCH  17  18
HETATM   18  C4  UNL     1       1.898  -1.167   0.910  1.00  0.00     0.002 C 
BRANCH  18  19
HETATM   19  C5  UNL     1       0.794  -1.909   0.223  1.00  0.00     0.000 C 
BRANCH  19  20
HETATM   20  C6  UNL     1      -0.515  -1.138   0.252  1.00  0.00     0.000 C 
BRANCH  20  21
HETATM   21  C7  UNL     1      -1.545  -1.973  -0.461  1.00  0.00     0.000 C 
BRANCH  21  22
HETATM   22  C8  UNL     1      -2.884  -1.290  -0.504  1.00  0.00     0.000 C 
BRANCH  22  23
HETATM   23  C9  UNL     1      -3.405  -1.025   0.864  1.00  0.00     0.004 C 
BRANCH  23  24
HETATM   24  C10 UNL     1      -4.784  -0.340   0.818  1.00  0.00    -0.014 C 
HETATM   25  C11 UNL     1      -5.714  -1.250   0.102  1.00  0.00     0.004 C 
HETATM   26  C12 UNL     1      -7.134  -1.190   0.687  1.00  0.00     0.000 C 
HETATM   27  C13 UNL     1      -7.981  -0.167   0.005  1.00  0.00     0.000 C 
HETATM   28  C14 UNL     1      -7.589   1.199   0.556  1.00  0.00     0.000 C 
HETATM   29  C15 UNL     1      -6.870   2.021  -0.458  1.00  0.00     0.000 C 
HETATM   30  C16 UNL     1      -5.492   1.465  -0.803  1.00  0.00     0.000 C 
HETATM   31  C17 UNL     1      -4.701   1.055   0.372  1.00  0.00     0.004 C 
ENDBRANCH  23  24
ENDBRANCH  22  23
ENDBRANCH  21  22
ENDBRANCH  20  21
ENDBRANCH  19  20
ENDBRANCH  18  19
ENDBRANCH  17  18
ENDBRANCH   1  17
TORSDOF 12
