REMARK  5 active torsions:
REMARK  status: ('A' for Active; 'I' for Inactive)
REMARK    1  A    between atoms: O1_1  and  C1_3 
REMARK    2  A    between atoms: C3_6  and  N1_7 
REMARK    3  A    between atoms: N1_7  and  N2_9 
REMARK    4  A    between atoms: N2_9  and  C4_11 
REMARK    5  A    between atoms: N6_21  and  C7_22 
ROOT
HETATM    1  N1  UNL     1       0.498   0.925  -0.457  1.00  0.00    -0.278 N 
ATOM      2  H1  UNL     1      -0.135   1.584  -0.005  1.00  0.00     0.189 HD
ENDROOT
BRANCH   1   3
HETATM    3  C3  UNL     1       0.072  -0.258  -0.870  1.00  0.00     0.172 A 
HETATM    4  S1  UNL     1       0.954  -1.499  -1.643  1.00  0.00    -0.060 SA
HETATM    5  C2  UNL     1      -0.317  -2.622  -1.814  1.00  0.00     0.109 A 
HETATM    6  C1  UNL     1      -1.373  -1.961  -1.252  1.00  0.00     0.155 A 
HETATM    7  N6  UNL     1      -1.161  -0.755  -0.774  1.00  0.00    -0.271 N 
BRANCH   6   8
HETATM    8  O1  UNL     1      -2.647  -2.629  -1.222  1.00  0.00    -0.345 OA
ATOM      9  H1  UNL     1      -3.381  -2.170  -0.831  1.00  0.00     0.219 HD
ENDBRANCH   6   8
BRANCH   7  10
HETATM   10  C7  UNL     1      -2.210   0.053  -0.149  1.00  0.00     0.043 A 
HETATM   11  C8  UNL     1      -2.558   1.262  -0.725  1.00  0.00     0.030 A 
HETATM   12  C9  UNL     1      -3.544   2.068  -0.177  1.00  0.00     0.002 A 
HETATM   13  C10 UNL     1      -4.159   1.604   0.968  1.00  0.00     0.000 A 
HETATM   14  C11 UNL     1      -3.814   0.388   1.554  1.00  0.00     0.002 A 
HETATM   15  C12 UNL     1      -2.828  -0.396   0.988  1.00  0.00     0.030 A 
ENDBRANCH   7  10
ENDBRANCH   1   3
BRANCH   1  16
HETATM   16  N2  UNL     1       1.838   1.240  -0.660  1.00  0.00    -0.282 N 
ATOM     17  H2  UNL     1       2.055   1.902  -1.405  1.00  0.00     0.188 HD
BRANCH  16  18
HETATM   18  C4  UNL     1       2.811   0.772   0.004  1.00  0.00     0.139 A 
HETATM   19  C5  UNL     1       2.692  -0.131   1.040  1.00  0.00     0.157 A 
HETATM   20  N3  UNL     1       3.806  -0.548   1.662  1.00  0.00    -0.306 N 
HETATM   21  N4  UNL     1       5.017  -0.143   1.338  1.00  0.00    -0.276 N 
ATOM     22  H3  UNL     1       3.710  -1.215   2.428  1.00  0.00     0.186 HD
HETATM   23  C6  UNL     1       5.155   0.737   0.331  1.00  0.00     0.192 A 
ATOM     24  H4  UNL     1       5.834  -0.490   1.841  1.00  0.00     0.189 HD
HETATM   25  S2  UNL     1       6.642   1.256  -0.091  1.00  0.00    -0.039 SA
HETATM   26  N5  UNL     1       4.054   1.176  -0.314  1.00  0.00    -0.316 N 
ATOM     27  H5  UNL     1       4.169   1.844  -1.076  1.00  0.00     0.170 HD
ENDBRANCH  16  18
ENDBRANCH   1  16
TORSDOF 5
