REMARK  3 active torsions:
REMARK  status: ('A' for Active; 'I' for Inactive)
REMARK    1  A    between atoms: C3_4  and  N2_5 
REMARK    2  A    between atoms: C8_13  and  C9_14 
REMARK    3  A    between atoms: C14_25  and  N7_26 
ROOT
HETATM    1  N1  UNL     1      -0.016  -4.036  -0.110  1.00  0.00    -0.191 NA
HETATM    2  C1  UNL     1      -0.430  -2.936  -0.021  1.00  0.00     0.104 C 
HETATM    3  C2  UNL     1      -0.904  -1.575   0.089  1.00  0.00     0.106 A 
HETATM    4  C3  UNL     1      -0.069  -0.438   0.144  1.00  0.00     0.084 A 
HETATM    5  C8  UNL     1      -0.937   0.603   0.242  1.00  0.00     0.102 A 
HETATM    6  N4  UNL     1      -2.218   0.209   0.252  1.00  0.00    -0.247 N 
HETATM    7  N5  UNL     1      -3.385   0.823   0.329  1.00  0.00    -0.289 N 
ATOM      8  H5  UNL     1      -3.375   1.841   0.400  1.00  0.00     0.188 HD
HETATM    9  C13 UNL     1      -4.575   0.221   0.322  1.00  0.00     0.199 A 
HETATM   10  N6  UNL     1      -4.612  -1.104   0.230  1.00  0.00    -0.336 N 
ATOM     11  H6  UNL     1      -5.506  -1.595   0.222  1.00  0.00     0.168 HD
HETATM   12  C14 UNL     1      -3.433  -1.808   0.146  1.00  0.00     0.130 A 
HETATM   13  C15 UNL     1      -2.210  -1.155   0.156  1.00  0.00     0.123 A 
ENDROOT
BRANCH   4  14
HETATM   14  N2  UNL     1       1.336  -0.562   0.095  1.00  0.00    -0.374 N 
HETATM   15  C4  UNL     1       2.092  -0.700   1.324  1.00  0.00     0.150 C 
HETATM   16  C5  UNL     1       3.512  -0.348   1.029  1.00  0.00     0.252 C 
HETATM   17  N3  UNL     1       4.041  -1.270   0.063  1.00  0.00    -0.072 N 
HETATM   18  C6  UNL     1       3.315  -1.295  -1.172  1.00  0.00     0.252 C 
ATOM     19  H32 UNL     1       5.030  -1.085  -0.106  1.00  0.00     0.277 HD
ATOM     20  H31 UNL     1       4.107  -2.207   0.460  1.00  0.00     0.277 HD
HETATM   21  C7  UNL     1       2.002  -0.592  -1.152  1.00  0.00     0.150 C 
ENDBRANCH   4  14
BRANCH   5  22
HETATM   22  C9  UNL     1      -0.527   2.016   0.339  1.00  0.00     0.035 A 
HETATM   23  C10 UNL     1      -1.293   3.147   0.426  1.00  0.00     0.022 A 
HETATM   24  C11 UNL     1      -0.656   4.328   0.503  1.00  0.00     0.008 A 
HETATM   25  C12 UNL     1       0.711   4.308   0.487  1.00  0.00     0.050 A 
HETATM   26  S1  UNL     1       1.059   2.651   0.367  1.00  0.00    -0.100 SA
ENDBRANCH   5  22
BRANCH  12  27
HETATM   27  N7  UNL     1      -3.547  -3.052   0.062  1.00  0.00    -0.383 N 
ATOM     28  H72 UNL     1      -4.447  -3.532   0.055  1.00  0.00     0.157 HD
ATOM     29  H71 UNL     1      -2.673  -3.574  -0.000  1.00  0.00     0.157 HD
ENDBRANCH  12  27
TORSDOF 3
