REMARK  9 active torsions:
REMARK  status: ('A' for Active; 'I' for Inactive)
REMARK    1  A    between atoms: N1_2  and  C2_3 
REMARK    2  A    between atoms: C2_3  and  C3_4 
REMARK       I    between atoms: C3_4  and  N2_6 
REMARK    3  A    between atoms: N2_6  and  C4_8 
REMARK    4  A    between atoms: C6_12  and  O2_13 
REMARK    5  A    between atoms: N5_19  and  S1_20 
REMARK    6  A    between atoms: S1_20  and  C9_23 
REMARK    7  A    between atoms: C10_24  and  C11_25 
REMARK    8  A    between atoms: C11_25  and  C12_26 
REMARK    9  A    between atoms: C12_26  and  C13_27 
ROOT
HETATM    1  C1  UNL     1       4.326  -0.765   2.773  1.00  0.00     0.286 C 
HETATM    2  N1  UNL     1       3.252  -0.080   2.083  1.00  0.00     0.021 N 
HETATM    3  C7  UNL     1       2.736   0.960   2.957  1.00  0.00     0.271 C 
HETATM    4  C8  UNL     1       1.388   1.240   2.295  1.00  0.00     0.175 C 
HETATM    5  N5  UNL     1       0.992  -0.063   1.844  1.00  0.00    -0.216 N 
HETATM    6  C20 UNL     1       2.120  -0.917   1.903  1.00  0.00     0.431 C 
HETATM    7  O5  UNL     1       2.133  -2.192   1.814  1.00  0.00    -0.238 OA
ENDROOT
BRANCH   2   8
HETATM    8  C2  UNL     1       3.640   0.446   0.808  1.00  0.00     0.352 C 
BRANCH   8   9
HETATM    9  C3  UNL     1       4.320  -0.493  -0.070  1.00  0.00     0.262 C 
HETATM   10  O1  UNL     1       4.524  -1.674   0.295  1.00  0.00    -0.271 OA
HETATM   11  N2  UNL     1       4.776  -0.110  -1.366  1.00  0.00    -0.158 N 
ATOM     12  H2  UNL     1       4.112  -0.115  -2.140  1.00  0.00     0.187 HD
BRANCH  11  13
HETATM   13  C4  UNL     1       5.988   0.241  -1.596  1.00  0.00     0.686 A 
HETATM   14  N3  UNL     1       6.955   0.292  -0.666  1.00  0.00    -0.197 N 
HETATM   15  C5  UNL     1       8.116   0.698  -1.236  1.00  0.00     0.162 A 
ATOM     16  H3  UNL     1       6.834   0.060   0.320  1.00  0.00     0.183 HD
HETATM   17  C6  UNL     1       7.850   0.905  -2.571  1.00  0.00     0.171 A 
HETATM   18  N4  UNL     1       6.529   0.612  -2.749  1.00  0.00    -0.169 N 
ATOM     19  H4  UNL     1       6.031   0.670  -3.637  1.00  0.00     0.186 HD
BRANCH  17  20
HETATM   20  O2  UNL     1       8.778   1.327  -3.505  1.00  0.00    -0.345 OA
ATOM     21  H2  UNL     1       8.594   1.470  -4.426  1.00  0.00     0.219 HD
ENDBRANCH  17  20
ENDBRANCH  11  13
ENDBRANCH   8   9
ENDBRANCH   2   8
BRANCH   5  22
HETATM   22  S1  UNL     1      -0.590  -0.612   1.300  1.00  0.00     0.258 S 
HETATM   23  O3  UNL     1      -1.354   0.711   1.168  1.00  0.00    -0.201 OA
HETATM   24  O4  UNL     1      -1.195  -1.397   2.369  1.00  0.00    -0.201 OA
BRANCH  22  25
HETATM   25  C9  UNL     1      -0.477  -1.322  -0.273  1.00  0.00     0.128 C 
HETATM   26  C10 UNL     1      -1.560  -1.993  -0.950  1.00  0.00    -0.013 C 
BRANCH  26  27
HETATM   27  C11 UNL     1      -2.884  -1.414  -1.241  1.00  0.00     0.028 C 
BRANCH  27  28
HETATM   28  C12 UNL     1      -3.812  -1.180  -0.111  1.00  0.00     0.009 C 
BRANCH  28  29
HETATM   29  C13 UNL     1      -5.124  -0.567  -0.601  1.00  0.00    -0.010 C 
HETATM   30  C14 UNL     1      -4.912   0.765  -1.290  1.00  0.00     0.009 C 
HETATM   31  C15 UNL     1      -5.878   1.657  -0.542  1.00  0.00    -0.014 C 
HETATM   32  C16 UNL     1      -7.297   1.183  -0.720  1.00  0.00     0.005 C 
HETATM   33  C19 UNL     1      -5.631   1.147   0.890  1.00  0.00     0.009 C 
HETATM   34  C17 UNL     1      -7.417  -0.110   0.065  1.00  0.00     0.005 C 
HETATM   35  C18 UNL     1      -6.023  -0.308   0.583  1.00  0.00    -0.010 C 
ENDBRANCH  28  29
ENDBRANCH  27  28
ENDBRANCH  26  27
ENDBRANCH  22  25
ENDBRANCH   5  22
TORSDOF 9
