REMARK  3 active torsions:
REMARK  status: ('A' for Active; 'I' for Inactive)
REMARK    1  A    between atoms: C2_2  and  C3_3 
REMARK    2  A    between atoms: C11_12  and  C12_13 
REMARK    3  A    between atoms: C14_17  and  N2_18 
ROOT
HETATM    1  C3  UNL     1      -1.690  -0.288   0.683  1.00  0.00    -0.012 A 
HETATM    2  C4  UNL     1      -3.013   0.058   0.397  1.00  0.00     0.129 A 
HETATM    3  F1  UNL     1      -3.964  -0.760   0.848  1.00  0.00    -0.205 F 
HETATM    4  C5  UNL     1      -3.354   1.181  -0.312  1.00  0.00    -0.022 A 
HETATM    5  C6  UNL     1      -4.768   1.527  -0.601  1.00  0.00     0.051 C 
HETATM    6  C7  UNL     1      -2.327   2.009  -0.765  1.00  0.00     0.018 A 
HETATM    7  C8  UNL     1      -1.020   1.696  -0.500  1.00  0.00    -0.041 A 
HETATM    8  C9  UNL     1      -0.705   0.546   0.225  1.00  0.00    -0.040 A 
HETATM    9  C10 UNL     1       0.751   0.344   0.438  1.00  0.00     0.060 C 
HETATM   10  C11 UNL     1       1.373   0.044  -0.918  1.00  0.00     0.093 C 
HETATM   11  S2  UNL     1       1.405   1.689  -1.749  1.00  0.00    -0.154 SA
HETATM   12  C15 UNL     1       0.022   2.611  -1.024  1.00  0.00     0.113 C 
ENDROOT
BRANCH  10  13
HETATM   13  C12 UNL     1       2.822  -0.336  -0.746  1.00  0.00     0.015 A 
HETATM   14  C13 UNL     1       3.462  -1.462  -1.182  1.00  0.00     0.106 A 
HETATM   15  N1  UNL     1       4.745  -1.579  -0.912  1.00  0.00    -0.346 N 
HETATM   16  C14 UNL     1       5.336  -0.596  -0.233  1.00  0.00     0.142 A 
ATOM     17  H1  UNL     1       5.272  -2.399  -1.214  1.00  0.00     0.167 HD
HETATM   18  S1  UNL     1       4.072   0.514   0.033  1.00  0.00    -0.057 SA
BRANCH  16  19
HETATM   19  N2  UNL     1       6.603  -0.531   0.130  1.00  0.00    -0.380 N 
ATOM     20  H22 UNL     1       7.360  -1.196  -0.029  1.00  0.00     0.158 HD
ATOM     21  H21 UNL     1       7.055   0.221   0.650  1.00  0.00     0.158 HD
ENDBRANCH  16  19
ENDBRANCH  10  13
BRANCH   1  22
HETATM   22  C2  UNL     1      -1.392  -1.492   1.428  1.00  0.00     0.038 C 
HETATM   23  C1  UNL     1      -1.486  -2.766   0.620  1.00  0.00     0.010 C 
ENDBRANCH   1  22
TORSDOF 3
