REMARK  12 active torsions:
REMARK  status: ('A' for Active; 'I' for Inactive)
REMARK    1  A    between atoms: C1_4  and  C2_6 
REMARK    2  A    between atoms: C5_9  and  O1_10 
REMARK    3  A    between atoms: O1_10  and  C6_11 
REMARK    4  A    between atoms: N3_14  and  C9_15 
REMARK    5  A    between atoms: N4_18  and  C12_19 
REMARK    6  A    between atoms: C12_19  and  O2_20 
REMARK    7  A    between atoms: C12_19  and  C13_22 
REMARK    8  A    between atoms: C13_22  and  C14_23 
REMARK    9  A    between atoms: C13_22  and  N5_30 
REMARK   10  A    between atoms: C14_23  and  C15_24 
REMARK       I    between atoms: N5_30  and  C21_32 
REMARK   11  A    between atoms: C21_32  and  C22_34 
REMARK   12  A    between atoms: C22_34  and  N6_35 
ROOT
HETATM    1  C12 UNL     1      -2.516   0.129   0.465  1.00  0.00     0.137 C 
ENDROOT
BRANCH   1   2
HETATM    2  N4  UNL     1      -1.133  -0.063   0.278  1.00  0.00    -0.364 N 
HETATM    3  C11 UNL     1      -0.217   0.268   1.349  1.00  0.00     0.127 C 
HETATM    4  C10 UNL     1       0.729   1.316   0.736  1.00  0.00     0.055 C 
HETATM    5  C9  UNL     1       1.549   0.628  -0.339  1.00  0.00     0.226 C 
HETATM    6  C29 UNL     1       0.963  -0.637  -0.848  1.00  0.00     0.055 C 
HETATM    7  C28 UNL     1      -0.569  -0.518  -0.950  1.00  0.00     0.127 C 
BRANCH   5   8
HETATM    8  N3  UNL     1       2.875   0.457   0.226  1.00  0.00     0.093 N 
HETATM    9  C8  UNL     1       3.655  -0.545  -0.460  1.00  0.00     0.275 C 
HETATM   10  C7  UNL     1       4.826   0.021  -1.194  1.00  0.00     0.062 C 
HETATM   11  C6  UNL     1       5.768   0.784  -0.281  1.00  0.00     0.132 C 
HETATM   12  C31 UNL     1       4.935   1.624   0.671  1.00  0.00     0.062 C 
HETATM   13  C30 UNL     1       3.556   1.747   0.109  1.00  0.00     0.275 C 
BRANCH  11  14
HETATM   14  O1  UNL     1       6.623  -0.051   0.424  1.00  0.00    -0.346 OA
BRANCH  14  15
HETATM   15  C5  UNL     1       7.981  -0.101   0.358  1.00  0.00     0.069 A 
HETATM   16  C4  UNL     1       8.642  -1.024   1.172  1.00  0.00     0.037 A 
HETATM   17  C3  UNL     1      10.013  -1.134   1.160  1.00  0.00     0.017 A 
HETATM   18  C2  UNL     1      10.760  -0.314   0.324  1.00  0.00     0.005 A 
HETATM   19  C33 UNL     1      10.125   0.607  -0.492  1.00  0.00     0.017 A 
HETATM   20  C32 UNL     1       8.757   0.691  -0.455  1.00  0.00     0.037 A 
BRANCH  18  21
HETATM   21  C1  UNL     1      12.208  -0.370   0.255  1.00  0.00     0.120 C 
HETATM   22  N1  UNL     1      12.880  -1.178   0.971  1.00  0.00    -0.387 N 
ATOM     23  H12 UNL     1      13.898  -1.217   0.922  1.00  0.00     0.157 HD
ATOM     24  H11 UNL     1      12.367  -1.793   1.603  1.00  0.00     0.157 HD
HETATM   25  N2  UNL     1      12.917   0.481  -0.619  1.00  0.00    -0.082 NA
ENDBRANCH  18  21
ENDBRANCH  14  15
ENDBRANCH  11  14
ENDBRANCH   5   8
ENDBRANCH   1   2
BRANCH   1  26
HETATM   26  O2  UNL     1      -2.857   0.666   1.604  1.00  0.00    -0.348 OA
ATOM     27  H2  UNL     1      -3.790   0.795   1.730  1.00  0.00     0.219 HD
ENDBRANCH   1  26
BRANCH   1  28
HETATM   28  C13 UNL     1      -3.607  -0.181  -0.435  1.00  0.00     0.159 C 
BRANCH  28  29
HETATM   29  C14 UNL     1      -3.904  -1.565  -0.835  1.00  0.00     0.038 C 
BRANCH  29  30
HETATM   30  C15 UNL     1      -4.292  -2.598   0.126  1.00  0.00    -0.012 C 
HETATM   31  C16 UNL     1      -4.595  -3.924  -0.607  1.00  0.00     0.005 C 
HETATM   32  C17 UNL     1      -3.359  -4.644  -1.027  1.00  0.00     0.000 C 
HETATM   33  C18 UNL     1      -2.494  -5.022   0.163  1.00  0.00     0.000 C 
HETATM   34  C19 UNL     1      -2.134  -3.721   0.848  1.00  0.00     0.000 C 
HETATM   35  C20 UNL     1      -3.346  -2.938   1.227  1.00  0.00     0.005 C 
ENDBRANCH  29  30
ENDBRANCH  28  29
BRANCH  28  36
HETATM   36  N5  UNL     1      -4.820   0.428   0.160  1.00  0.00    -0.347 N 
HETATM   37  C21 UNL     1      -5.452   1.523  -0.442  1.00  0.00     0.254 C 
HETATM   38  O3  UNL     1      -4.969   2.000  -1.524  1.00  0.00    -0.271 OA
ATOM     39  H5  UNL     1      -5.201   0.042   1.024  1.00  0.00     0.163 HD
BRANCH  37  40
HETATM   40  C22 UNL     1      -6.661   2.169   0.105  1.00  0.00     0.203 C 
HETATM   41  C23 UNL     1      -7.786   1.992  -0.905  1.00  0.00     0.049 C 
HETATM   42  C24 UNL     1      -9.043   2.534  -0.211  1.00  0.00     0.003 C 
HETATM   43  C25 UNL     1      -8.857   4.023  -0.108  1.00  0.00     0.000 C 
HETATM   44  C26 UNL     1      -7.630   4.420   0.649  1.00  0.00     0.003 C 
HETATM   45  C27 UNL     1      -6.417   3.630   0.297  1.00  0.00     0.049 C 
BRANCH  40  46
HETATM   46  N6  UNL     1      -7.067   1.495   1.317  1.00  0.00    -0.061 N 
ATOM     47  H63 UNL     1      -7.198   0.494   1.174  1.00  0.00     0.275 HD
ATOM     48  H62 UNL     1      -6.313   1.449   2.002  1.00  0.00     0.275 HD
ATOM     49  H61 UNL     1      -7.903   1.941   1.695  1.00  0.00     0.275 HD
ENDBRANCH  40  46
ENDBRANCH  37  40
ENDBRANCH  28  36
ENDBRANCH   1  28
TORSDOF 12
