REMARK  5 active torsions:
REMARK  status: ('A' for Active; 'I' for Inactive)
REMARK    1  A    between atoms: C2_2  and  C3_3 
REMARK    2  A    between atoms: C4_4  and  C5_5 
REMARK    3  A    between atoms: C5_5  and  O1_7 
REMARK    4  A    between atoms: C10_17  and  C11_18 
REMARK    5  A    between atoms: C11_18  and  C12_19 
ROOT
HETATM    1  C3  UNL     1       2.477   0.285   0.724  1.00  0.00     0.038 A 
HETATM    2  C4  UNL     1       2.055   0.890  -0.433  1.00  0.00     0.062 A 
HETATM    3  N1  UNL     1       0.979   0.236  -0.911  1.00  0.00    -0.344 N 
ATOM      4  H1  UNL     1       0.460   0.469  -1.758  1.00  0.00     0.167 HD
HETATM    5  C7  UNL     1       0.710  -0.790  -0.061  1.00  0.00     0.107 A 
HETATM    6  N2  UNL     1       1.622  -0.751   0.924  1.00  0.00    -0.335 N 
HETATM    7  C8  UNL     1       1.519  -1.769   1.951  1.00  0.00     0.149 C 
HETATM    8  C9  UNL     1       1.177  -3.061   1.298  1.00  0.00     0.135 C 
HETATM    9  N3  UNL     1       0.019  -3.072   0.486  1.00  0.00    -0.409 N 
ATOM     10  H3  UNL     1      -0.521  -3.924   0.331  1.00  0.00     0.154 HD
HETATM   11  C10 UNL     1      -0.357  -1.817  -0.110  1.00  0.00     0.145 C 
ENDROOT
BRANCH  11  12
HETATM   12  C11 UNL     1      -1.611  -1.350   0.595  1.00  0.00     0.037 C 
BRANCH  12  13
HETATM   13  C12 UNL     1      -2.210  -0.115   0.022  1.00  0.00    -0.012 C 
HETATM   14  C13 UNL     1      -2.628  -0.197  -1.404  1.00  0.00     0.007 C 
HETATM   15  C14 UNL     1      -3.445   1.029  -1.751  1.00  0.00     0.037 C 
HETATM   16  C15 UNL     1      -4.757   1.065  -1.024  1.00  0.00     0.170 C 
HETATM   17  F1  UNL     1      -4.964   2.287  -0.405  1.00  0.00    -0.249 F 
HETATM   18  C16 UNL     1      -4.713  -0.005   0.045  1.00  0.00     0.037 C 
HETATM   19  C17 UNL     1      -3.452   0.208   0.849  1.00  0.00     0.007 C 
ENDBRANCH  12  13
ENDBRANCH  11  12
BRANCH   2  20
HETATM   20  C5  UNL     1       2.639   2.074  -1.104  1.00  0.00     0.165 C 
HETATM   21  C6  UNL     1       1.846   2.461  -2.343  1.00  0.00     0.046 C 
BRANCH  20  22
HETATM   22  O1  UNL     1       3.986   1.933  -1.409  1.00  0.00    -0.390 OA
ATOM     23  H1  UNL     1       4.361   2.693  -1.839  1.00  0.00     0.210 HD
ENDBRANCH  20  22
ENDBRANCH   2  20
BRANCH   1  24
HETATM   24  C2  UNL     1       3.608   0.667   1.568  1.00  0.00     0.055 C 
HETATM   25  C1  UNL     1       4.956   0.285   1.051  1.00  0.00     0.011 C 
ENDBRANCH   1  24
TORSDOF 5
