REMARK  15 active torsions:
REMARK  status: ('A' for Active; 'I' for Inactive)
REMARK    1  A    between atoms: C2_2  and  C3_3 
REMARK    2  A    between atoms: C2_2  and  C15_20 
REMARK    3  A    between atoms: C3_3  and  C4_4 
REMARK    4  A    between atoms: C4_4  and  C5_5 
REMARK    5  A    between atoms: C5_5  and  C6_6 
REMARK    6  A    between atoms: C6_6  and  C7_7 
REMARK    7  A    between atoms: C6_6  and  C8_10 
REMARK    8  A    between atoms: C7_7  and  O1_8 
REMARK    9  A    between atoms: C8_10  and  C9_11 
REMARK   10  A    between atoms: C9_11  and  C10_12 
REMARK   11  A    between atoms: C18_23  and  C19_24 
REMARK   12  A    between atoms: C19_24  and  C21_26 
REMARK   13  A    between atoms: C21_26  and  C22_27 
REMARK   14  A    between atoms: C22_27  and  C23_28 
REMARK   15  A    between atoms: C31_41  and  N4_42 
ROOT
HETATM    1  C15 UNL     1       0.641  -1.734  -0.793  1.00  0.00     0.014 C 
HETATM    2  C16 UNL     1      -0.088  -2.869  -0.174  1.00  0.00     0.009 C 
HETATM    3  C17 UNL     1      -1.427  -2.288   0.365  1.00  0.00     0.005 C 
HETATM    4  C18 UNL     1      -1.259  -0.841   0.211  1.00  0.00    -0.010 C 
HETATM    5  C32 UNL     1      -0.483  -0.728  -1.103  1.00  0.00     0.014 C 
ENDROOT
BRANCH   4   6
HETATM    6  C19 UNL     1      -2.277   0.148   0.453  1.00  0.00    -0.014 C 
HETATM    7  C20 UNL     1      -1.654   1.529   0.124  1.00  0.00     0.010 C 
BRANCH   6   8
HETATM    8  C21 UNL     1      -3.670   0.065   0.004  1.00  0.00     0.005 C 
BRANCH   8   9
HETATM    9  C22 UNL     1      -4.513  -1.032   0.533  1.00  0.00     0.011 C 
BRANCH   9  10
HETATM   10  C23 UNL     1      -5.914  -1.105   0.059  1.00  0.00     0.033 C 
HETATM   11  C24 UNL     1      -6.048  -1.255  -1.474  1.00  0.00     0.011 C 
HETATM   12  C25 UNL     1      -6.823  -0.129  -2.087  1.00  0.00     0.017 C 
HETATM   13  C26 UNL     1      -8.075   0.338  -1.466  1.00  0.00     0.114 C 
HETATM   14  C27 UNL     1      -8.090   1.818  -1.120  1.00  0.00     0.225 C 
HETATM   15  C31 UNL     1      -8.260  -0.372  -0.085  1.00  0.00     0.241 C 
HETATM   16  O3  UNL     1      -8.131   2.549  -2.151  1.00  0.00    -0.273 OA
HETATM   17  N2  UNL     1      -8.068   2.496   0.120  1.00  0.00    -0.340 N 
HETATM   18  C28 UNL     1      -7.529   2.031   1.404  1.00  0.00     0.179 C 
ATOM     19  H2  UNL     1      -8.480   3.429   0.123  1.00  0.00     0.164 HD
HETATM   20  C29 UNL     1      -6.878   3.066   2.219  1.00  0.00     0.055 C 
HETATM   21  N3  UNL     1      -6.530   0.971   1.058  1.00  0.00    -0.373 N 
HETATM   22  C30 UNL     1      -6.848  -0.043   0.442  1.00  0.00     0.019 C 
ATOM     23  H3  UNL     1      -5.558   1.094   1.342  1.00  0.00     0.161 HD
BRANCH  15  24
HETATM   24  N4  UNL     1      -8.491  -1.746  -0.250  1.00  0.00    -0.069 N 
ATOM     25  H43 UNL     1      -9.280  -1.922  -0.871  1.00  0.00     0.275 HD
ATOM     26  H42 UNL     1      -7.756  -2.187  -0.803  1.00  0.00     0.275 HD
ATOM     27  H41 UNL     1      -8.612  -2.209   0.651  1.00  0.00     0.275 HD
ENDBRANCH  15  24
ENDBRANCH   9  10
ENDBRANCH   8   9
ENDBRANCH   6   8
ENDBRANCH   4   6
BRANCH   1  28
HETATM   28  C2  UNL     1       1.650  -1.139   0.150  1.00  0.00    -0.085 C 
HETATM   29  C1  UNL     1       1.948  -1.632   1.338  1.00  0.00     0.014 C 
BRANCH  28  30
HETATM   30  C3  UNL     1       2.354   0.092  -0.310  1.00  0.00     0.034 C 
BRANCH  30  31
HETATM   31  C4  UNL     1       3.553   0.451   0.468  1.00  0.00     0.005 C 
BRANCH  31  32
HETATM   32  C5  UNL     1       4.694  -0.514   0.392  1.00  0.00     0.007 C 
BRANCH  32  33
HETATM   33  C6  UNL     1       5.849  -0.042   1.236  1.00  0.00     0.009 C 
BRANCH  33  34
HETATM   34  C7  UNL     1       5.490   0.099   2.683  1.00  0.00     0.168 C 
BRANCH  34  35
HETATM   35  O1  UNL     1       6.595   0.532   3.441  1.00  0.00    -0.400 OA
ATOM     36  H1  UNL     1       6.367   0.621   4.359  1.00  0.00     0.209 HD
ENDBRANCH  34  35
ENDBRANCH  33  34
BRANCH  33  37
HETATM   37  C8  UNL     1       7.032  -0.954   1.059  1.00  0.00     0.009 C 
BRANCH  37  38
HETATM   38  C9  UNL     1       7.553  -1.043  -0.336  1.00  0.00     0.026 C 
BRANCH  38  39
HETATM   39  C10 UNL     1       8.010   0.306  -0.866  1.00  0.00     0.088 C 
HETATM   40  C11 UNL     1       8.530   0.187  -2.276  1.00  0.00     0.052 C 
HETATM   41  C12 UNL     1       9.098   1.464  -2.725  1.00  0.00    -0.019 C 
HETATM   42  C13 UNL     1       9.605   2.342  -1.896  1.00  0.00     0.070 C 
HETATM   43  C14 UNL     1       9.633   2.093  -0.460  1.00  0.00     0.241 C 
HETATM   44  O2  UNL     1      10.110   2.910   0.341  1.00  0.00    -0.269 OA
HETATM   45  N1  UNL     1       9.075   0.849  -0.038  1.00  0.00    -0.353 N 
ATOM     46  H1  UNL     1       9.405   0.367   0.798  1.00  0.00     0.163 HD
ENDBRANCH  38  39
ENDBRANCH  37  38
ENDBRANCH  33  37
ENDBRANCH  32  33
ENDBRANCH  31  32
ENDBRANCH  30  31
ENDBRANCH  28  30
ENDBRANCH   1  28
TORSDOF 15
