REMARK  13 active torsions:
REMARK  status: ('A' for Active; 'I' for Inactive)
REMARK       I    between atoms: C1_2  and  N1_3 
REMARK       I    between atoms: C1_2  and  N2_21 
REMARK    1  A    between atoms: N1_3  and  C2_5 
REMARK    2  A    between atoms: C2_5  and  C3_6 
REMARK    3  A    between atoms: C3_6  and  C4_7 
REMARK    4  A    between atoms: C4_7  and  C5_8 
REMARK    5  A    between atoms: C5_8  and  C6_9 
REMARK    6  A    between atoms: C6_9  and  C7_10 
REMARK    7  A    between atoms: C7_10  and  C8_11 
REMARK    8  A    between atoms: N2_21  and  C18_23 
REMARK    9  A    between atoms: C18_23  and  C19_24 
REMARK   10  A    between atoms: C18_23  and  C30_41 
REMARK   11  A    between atoms: C19_24  and  C20_25 
REMARK   12  A    between atoms: C23_28  and  N3_29 
REMARK       I    between atoms: N3_29  and  C24_31 
REMARK   13  A    between atoms: C24_31  and  C25_33 
ROOT
HETATM    1  O1  UNL     1       0.924   0.518  -0.993  1.00  0.00    -0.247 OA
HETATM    2  C1  UNL     1       0.563  -0.672  -1.156  1.00  0.00     0.316 C 
HETATM    3  N1  UNL     1      -0.649  -0.935  -1.840  1.00  0.00    -0.343 N 
ATOM      4  H1  UNL     1      -0.939  -1.904  -1.975  1.00  0.00     0.164 HD
HETATM    5  N2  UNL     1       1.333  -1.763  -0.674  1.00  0.00    -0.328 N 
ATOM      6  H2  UNL     1       1.012  -2.718  -0.831  1.00  0.00     0.165 HD
ENDROOT
BRANCH   5   7
HETATM    7  C18 UNL     1       2.582  -1.527   0.045  1.00  0.00     0.191 C 
BRANCH   7   8
HETATM    8  C19 UNL     1       3.679  -1.908  -0.892  1.00  0.00     0.076 C 
BRANCH   8   9
HETATM    9  C20 UNL     1       5.045  -1.766  -0.392  1.00  0.00    -0.040 A 
HETATM   10  C21 UNL     1       5.716  -2.826   0.171  1.00  0.00     0.012 A 
HETATM   11  C22 UNL     1       6.996  -2.746   0.665  1.00  0.00     0.049 A 
HETATM   12  C23 UNL     1       7.664  -1.513   0.594  1.00  0.00     0.107 A 
HETATM   13  N4  UNL     1       6.998  -0.513   0.049  1.00  0.00    -0.352 N 
HETATM   14  C29 UNL     1       5.753  -0.565  -0.439  1.00  0.00     0.096 A 
ATOM     15  H4  UNL     1       7.478   0.385  -0.006  1.00  0.00     0.166 HD
BRANCH  12  16
HETATM   16  N3  UNL     1       8.953  -1.437   1.117  1.00  0.00    -0.311 N 
HETATM   17  C24 UNL     1       9.800  -0.321   1.134  1.00  0.00     0.252 C 
HETATM   18  O2  UNL     1      10.931  -0.492   1.722  1.00  0.00    -0.270 OA
ATOM     19  H3  UNL     1       9.322  -2.291   1.535  1.00  0.00     0.170 HD
BRANCH  17  20
HETATM   20  C25 UNL     1       9.496   1.008   0.544  1.00  0.00     0.213 C 
HETATM   21  C26 UNL     1       9.635   0.900  -0.942  1.00  0.00     0.044 C 
HETATM   22  C27 UNL     1      10.928   1.563  -1.261  1.00  0.00     0.029 C 
HETATM   23  C28 UNL     1      11.501   1.908   0.080  1.00  0.00     0.168 C 
HETATM   24  O3  UNL     1      10.478   1.913   0.978  1.00  0.00    -0.376 OA
ENDBRANCH  17  20
ENDBRANCH  12  16
ENDBRANCH   8   9
ENDBRANCH   7   8
BRANCH   7  25
HETATM   25  C30 UNL     1       2.586  -2.173   1.351  1.00  0.00     0.197 C 
HETATM   26  O4  UNL     1       1.634  -2.906   1.773  1.00  0.00    -0.646 OA
HETATM   27  O5  UNL     1       3.641  -2.020   2.215  1.00  0.00    -0.646 OA
ENDBRANCH   7  25
ENDBRANCH   5   7
BRANCH   3  28
HETATM   28  C2  UNL     1      -1.472   0.103  -2.343  1.00  0.00     0.124 C 
BRANCH  28  29
HETATM   29  C3  UNL     1      -2.003   1.018  -1.297  1.00  0.00     0.020 C 
BRANCH  29  30
HETATM   30  C4  UNL     1      -2.870   2.092  -1.928  1.00  0.00     0.002 C 
BRANCH  30  31
HETATM   31  C5  UNL     1      -4.058   1.571  -2.654  1.00  0.00     0.000 C 
BRANCH  31  32
HETATM   32  C6  UNL     1      -4.996   0.793  -1.748  1.00  0.00     0.001 C 
BRANCH  32  33
HETATM   33  C7  UNL     1      -5.513   1.631  -0.629  1.00  0.00     0.009 C 
BRANCH  33  34
HETATM   34  C8  UNL     1      -6.444   0.910   0.288  1.00  0.00    -0.039 C 
HETATM   35  C9  UNL     1      -6.901   1.877   1.393  1.00  0.00     0.014 C 
HETATM   36  C10 UNL     1      -7.853   1.151   2.295  1.00  0.00    -0.013 C 
HETATM   37  C11 UNL     1      -9.108   0.723   1.525  1.00  0.00     0.009 C 
HETATM   38  C15 UNL     1      -7.272  -0.086   2.915  1.00  0.00     0.009 C 
HETATM   39  C12 UNL     1      -8.680  -0.211   0.438  1.00  0.00    -0.013 C 
HETATM   40  C13 UNL     1      -7.992  -1.439   0.957  1.00  0.00     0.009 C 
HETATM   41  C17 UNL     1      -7.696   0.532  -0.462  1.00  0.00     0.014 C 
HETATM   42  C14 UNL     1      -6.823  -1.000   1.806  1.00  0.00    -0.013 C 
HETATM   43  C16 UNL     1      -5.801  -0.249   0.973  1.00  0.00     0.014 C 
ENDBRANCH  33  34
ENDBRANCH  32  33
ENDBRANCH  31  32
ENDBRANCH  30  31
ENDBRANCH  29  30
ENDBRANCH  28  29
ENDBRANCH   3  28
TORSDOF 13
