REMARK  3 active torsions:
REMARK  status: ('A' for Active; 'I' for Inactive)
REMARK    1  A    between atoms: C2_2  and  N1_4 
REMARK       I    between atoms: C4_6  and  N2_7 
REMARK       I    between atoms: C4_6  and  N4_17 
REMARK    2  A    between atoms: N3_9  and  C5_11 
REMARK    3  A    between atoms: N4_17  and  N5_19 
ROOT
HETATM    1  N1  UNL     1       1.715   0.581  -0.083  1.00  0.00    -0.220 N 
ATOM      2  H1  UNL     1       1.338   1.483  -0.374  1.00  0.00     0.178 HD
HETATM    3  C4  UNL     1       1.339  -0.440  -0.744  1.00  0.00     0.706 C 
HETATM    4  N2  UNL     1       0.438  -0.268  -1.820  1.00  0.00    -0.135 N 
ATOM      5  H2  UNL     1       0.794  -0.171  -2.771  1.00  0.00     0.205 HD
HETATM    6  N3  UNL     1      -0.796  -0.234  -1.608  1.00  0.00    -0.317 N 
ATOM      7  H3  UNL     1      -1.447  -0.110  -2.383  1.00  0.00     0.181 HD
HETATM    8  N4  UNL     1       1.841  -1.725  -0.375  1.00  0.00    -0.138 N 
ATOM      9  H4  UNL     1       1.850  -1.972   0.615  1.00  0.00     0.205 HD
ENDROOT
BRANCH   1  10
HETATM   10  C2  UNL     1       2.615   0.585   1.027  1.00  0.00     0.091 C 
HETATM   11  C1  UNL     1       2.852   2.051   1.407  1.00  0.00     0.032 C 
HETATM   12  C3  UNL     1       3.930   0.013   0.615  1.00  0.00     0.032 C 
ENDBRANCH   1  10
BRANCH   8  13
HETATM   13  N5  UNL     1       2.315  -2.653  -1.283  1.00  0.00    -0.331 N 
ATOM     14  H52 UNL     1       2.298  -2.389  -2.268  1.00  0.00     0.177 HD
ATOM     15  H51 UNL     1       2.674  -3.571  -1.019  1.00  0.00     0.177 HD
ENDBRANCH   8  13
BRANCH   6  16
HETATM   16  C5  UNL     1      -1.288  -0.372  -0.261  1.00  0.00     0.100 C 
HETATM   17  C6  UNL     1      -1.474   0.956   0.409  1.00  0.00     0.026 C 
HETATM   18  C7  UNL     1      -2.915   1.283   0.696  1.00  0.00     0.002 C 
HETATM   19  C8  UNL     1      -3.694   0.962  -0.584  1.00  0.00     0.000 C 
HETATM   20  C9  UNL     1      -3.770  -0.525  -0.667  1.00  0.00     0.002 C 
HETATM   21  C10 UNL     1      -2.514  -1.234  -0.266  1.00  0.00     0.026 C 
ENDBRANCH   6  16
TORSDOF 3
