REMARK  4 active torsions:
REMARK  status: ('A' for Active; 'I' for Inactive)
REMARK    1  A    between atoms: C1_2  and  N1_3 
REMARK    2  A    between atoms: C1_2  and  N3_15 
REMARK    3  A    between atoms: N1_3  and  C2_5 
REMARK    4  A    between atoms: N3_15  and  C9_17 
ROOT
HETATM    1  N1  UNL     1      -0.700   2.234   1.264  1.00  0.00    -0.313 N 
ATOM      2  H1  UNL     1      -0.862   3.197   1.560  1.00  0.00     0.170 HD
ENDROOT
BRANCH   1   3
HETATM    3  C1  UNL     1       0.604   1.615   1.425  1.00  0.00     0.178 C 
HETATM    4  S1  UNL     1       1.112   1.240   2.919  1.00  0.00    -0.040 SA
BRANCH   3   5
HETATM    5  N3  UNL     1       1.387   1.317   0.294  1.00  0.00    -0.333 N 
ATOM      6  H3  UNL     1       0.983   1.542  -0.615  1.00  0.00     0.168 HD
BRANCH   5   7
HETATM    7  C9  UNL     1       2.664   0.743   0.289  1.00  0.00     0.034 A 
HETATM    8  C10 UNL     1       3.610   0.938   1.251  1.00  0.00     0.029 A 
HETATM    9  C11 UNL     1       4.859   0.302   1.194  1.00  0.00     0.002 A 
HETATM   10  C12 UNL     1       5.167  -0.543   0.158  1.00  0.00     0.000 A 
HETATM   11  C13 UNL     1       4.234  -0.755  -0.821  1.00  0.00     0.002 A 
HETATM   12  C14 UNL     1       3.015  -0.130  -0.760  1.00  0.00     0.029 A 
ENDBRANCH   5   7
ENDBRANCH   3   5
ENDBRANCH   1   3
BRANCH   1  13
HETATM   13  C2  UNL     1      -1.668   1.522   0.727  1.00  0.00     0.152 A 
HETATM   14  N2  UNL     1      -1.602   0.261   0.297  1.00  0.00    -0.335 N 
HETATM   15  C3  UNL     1      -2.689  -0.284  -0.215  1.00  0.00     0.051 A 
ATOM     16  H2  UNL     1      -0.733  -0.269   0.362  1.00  0.00     0.168 HD
HETATM   17  C4  UNL     1      -2.831  -1.591  -0.724  1.00  0.00     0.031 A 
HETATM   18  C8  UNL     1      -3.816   0.485  -0.271  1.00  0.00     0.035 A 
HETATM   19  C5  UNL     1      -4.021  -2.026  -1.227  1.00  0.00     0.002 A 
HETATM   20  C6  UNL     1      -5.154  -1.254  -1.283  1.00  0.00     0.002 A 
HETATM   21  C7  UNL     1      -5.042   0.030  -0.792  1.00  0.00     0.021 A 
HETATM   22  S2  UNL     1      -3.283   1.958   0.410  1.00  0.00    -0.052 SA
ENDBRANCH   1  13
TORSDOF 4
