REMARK  3 active torsions:
REMARK  status: ('A' for Active; 'I' for Inactive)
REMARK       I    between atoms: C1_2  and  N1_3 
REMARK       I    between atoms: C1_2  and  N3_17 
REMARK    1  A    between atoms: N1_3  and  C2_5 
REMARK    2  A    between atoms: C4_7  and  C5_8 
REMARK    3  A    between atoms: N3_17  and  C11_19 
ROOT
HETATM    1  O1  UNL     1       1.167  -1.320  -1.835  1.00  0.00    -0.246 OA
HETATM    2  C1  UNL     1       0.607  -1.344  -0.739  1.00  0.00     0.339 C 
HETATM    3  N1  UNL     1      -0.799  -1.728  -0.683  1.00  0.00    -0.301 N 
ATOM      4  H1  UNL     1      -1.095  -2.695  -0.813  1.00  0.00     0.171 HD
HETATM    5  N3  UNL     1       1.246  -1.023   0.460  1.00  0.00    -0.140 N 
ATOM      6  H3  UNL     1       0.675  -1.081   1.303  1.00  0.00     0.189 HD
ENDROOT
BRANCH   3   7
HETATM    7  C2  UNL     1      -1.666  -0.765  -0.456  1.00  0.00     0.096 A 
HETATM    8  C3  UNL     1      -3.027  -0.884  -0.361  1.00  0.00     0.069 A 
HETATM    9  C4  UNL     1      -3.718   0.238  -0.124  1.00  0.00     0.051 A 
HETATM   10  N2  UNL     1      -3.026   1.376   0.000  1.00  0.00    -0.324 N 
HETATM   11  S1  UNL     1      -1.424   0.899  -0.210  1.00  0.00     0.004 SA
ATOM     12  H2  UNL     1      -3.385   2.314   0.180  1.00  0.00     0.174 HD
BRANCH   9  13
HETATM   13  C5  UNL     1      -5.204   0.251   0.002  1.00  0.00    -0.009 A 
HETATM   14  C6  UNL     1      -5.950  -0.901  -0.119  1.00  0.00     0.014 A 
HETATM   15  C7  UNL     1      -7.337  -0.899  -0.003  1.00  0.00     0.001 A 
HETATM   16  C8  UNL     1      -8.026   0.266   0.241  1.00  0.00     0.000 A 
HETATM   17  C9  UNL     1      -7.284   1.413   0.363  1.00  0.00     0.001 A 
HETATM   18  C10 UNL     1      -5.899   1.410   0.246  1.00  0.00     0.014 A 
ENDBRANCH   9  13
ENDBRANCH   3   7
BRANCH   5  19
HETATM   19  C11 UNL     1       2.594  -0.626   0.646  1.00  0.00     0.696 A 
HETATM   20  N4  UNL     1       2.891  -0.392   1.910  1.00  0.00    -0.112 N 
HETATM   21  S2  UNL     1       4.436   0.097   2.408  1.00  0.00     0.278 S 
ATOM     22  H4  UNL     1       2.163  -0.510   2.615  1.00  0.00     0.197 HD
HETATM   23  O2  UNL     1       4.364   1.511   2.966  1.00  0.00    -0.200 OA
HETATM   24  O3  UNL     1       5.045  -0.818   3.430  1.00  0.00    -0.200 OA
HETATM   25  C12 UNL     1       5.465   0.212   0.981  1.00  0.00     0.107 A 
HETATM   26  C13 UNL     1       6.775   0.590   1.104  1.00  0.00     0.028 A 
HETATM   27  C17 UNL     1       4.903  -0.090  -0.233  1.00  0.00     0.072 A 
HETATM   28  C14 UNL     1       7.565   0.677  -0.010  1.00  0.00     0.002 A 
HETATM   29  C15 UNL     1       7.026   0.379  -1.242  1.00  0.00     0.002 A 
HETATM   30  C16 UNL     1       5.723   0.002  -1.363  1.00  0.00     0.031 A 
HETATM   31  N5  UNL     1       3.541  -0.485  -0.374  1.00  0.00    -0.189 N 
ATOM     32  H5  UNL     1       3.222  -0.687  -1.322  1.00  0.00     0.184 HD
ENDBRANCH   5  19
TORSDOF 3
