REMARK  4 active torsions:
REMARK  status: ('A' for Active; 'I' for Inactive)
REMARK    1  A    between atoms: C4_8  and  C5_9 
REMARK    2  A    between atoms: C5_9  and  C6_10 
REMARK    3  A    between atoms: C5_9  and  N4_14 
REMARK    4  A    between atoms: N4_14  and  N5_15 
ROOT
HETATM    1  C5  UNL     1       1.144   0.232  -0.130  1.00  0.00     0.161 C 
ENDROOT
BRANCH   1   2
HETATM    2  C4  UNL     1      -0.186   0.064  -0.820  1.00  0.00     0.130 C 
HETATM    3  C2  UNL     1      -1.317  -0.168   0.129  1.00  0.00     0.103 C 
HETATM    4  C1  UNL     1      -1.646  -1.645   0.302  1.00  0.00     0.034 C 
HETATM    5  N1  UNL     1      -2.422   0.477  -0.547  1.00  0.00    -0.380 N 
HETATM    6  C3  UNL     1      -1.835   1.457  -1.393  1.00  0.00     0.172 C 
ATOM      7  H1  UNL     1      -3.415   0.271  -0.439  1.00  0.00     0.160 HD
HETATM    8  N2  UNL     1      -0.588   1.233  -1.550  1.00  0.00    -0.378 N 
ATOM      9  H2  UNL     1       0.037   1.806  -2.117  1.00  0.00     0.160 HD
ENDBRANCH   1   2
BRANCH   1  10
HETATM   10  C6  UNL     1       1.146   1.386   0.805  1.00  0.00     0.078 C 
HETATM   11  N3  UNL     1       1.668   2.520   0.519  1.00  0.00    -0.410 N 
ATOM     12  H32 UNL     1       2.099   2.619  -0.400  1.00  0.00     0.155 HD
ATOM     13  H31 UNL     1       1.669   3.313   1.161  1.00  0.00     0.155 HD
ENDBRANCH   1  10
BRANCH   1  14
HETATM   14  N4  UNL     1       1.421  -1.012   0.586  1.00  0.00    -0.136 NA
BRANCH  14  15
HETATM   15  N5  UNL     1       2.626  -0.956   1.253  1.00  0.00    -0.348 N 
ATOM     16  H52 UNL     1       3.238  -0.140   1.239  1.00  0.00     0.172 HD
ATOM     17  H51 UNL     1       2.819  -1.824   1.753  1.00  0.00     0.172 HD
ENDBRANCH  14  15
ENDBRANCH   1  14
TORSDOF 4
