REMARK  3 active torsions:
REMARK  status: ('A' for Active; 'I' for Inactive)
REMARK    1  A    between atoms: C2_2  and  N1_4 
REMARK    2  A    between atoms: N1_4  and  N2_5 
REMARK    3  A    between atoms: N2_5  and  C4_7 
ROOT
HETATM    1  C4  UNL     1       1.472  -0.438  -0.395  1.00  0.00     0.323 C 
HETATM    2  C5  UNL     1       1.774  -1.033   0.950  1.00  0.00     0.289 C 
HETATM    3  N3  UNL     1       3.196  -0.664   1.060  1.00  0.00    -0.048 N 
ATOM      4  H31 UNL     1       3.844  -1.210   0.492  1.00  0.00     0.279 HD
ATOM      5  H32 UNL     1       3.650  -0.896   1.944  1.00  0.00     0.279 HD
HETATM    6  C6  UNL     1       3.110   0.749   0.743  1.00  0.00     0.465 C 
HETATM    7  N4  UNL     1       2.139   0.833  -0.337  1.00  0.00    -0.028 N 
ATOM      8  H41 UNL     1       1.497   1.620  -0.240  1.00  0.00     0.281 HD
ATOM      9  H42 UNL     1       2.551   1.112  -1.227  1.00  0.00     0.281 HD
ENDROOT
BRANCH   1  10
HETATM   10  N2  UNL     1       0.076  -0.358  -0.697  1.00  0.00    -0.308 N 
ATOM     11  H2  UNL     1      -0.340  -0.829  -1.500  1.00  0.00     0.178 HD
BRANCH  10  12
HETATM   12  N1  UNL     1      -0.663   0.405   0.181  1.00  0.00    -0.140 NA
BRANCH  12  13
HETATM   13  C2  UNL     1      -1.984  -0.234   0.288  1.00  0.00     0.091 C 
HETATM   14  C1  UNL     1      -2.584  -0.235  -1.120  1.00  0.00     0.029 C 
HETATM   15  C3  UNL     1      -2.867   0.461   1.268  1.00  0.00     0.029 C 
ENDBRANCH  12  13
ENDBRANCH  10  12
ENDBRANCH   1  10
TORSDOF 3
