REMARK  8 active torsions:
REMARK  status: ('A' for Active; 'I' for Inactive)
REMARK    1  A    between atoms: O1_2  and  C2_3 
REMARK    2  A    between atoms: C2_3  and  C3_4 
REMARK    3  A    between atoms: C3_4  and  O2_5 
REMARK    4  A    between atoms: O2_5  and  C4_6 
REMARK    5  A    between atoms: C5_9  and  C6_10 
REMARK    6  A    between atoms: C10_17  and  N3_18 
REMARK    7  A    between atoms: C11_23  and  N5_24 
REMARK    8  A    between atoms: C15_34  and  N9_35 
ROOT
HETATM    1  C4  UNL     1       2.717  -0.110   1.896  1.00  0.00     0.225 A 
HETATM    2  N1  UNL     1       1.745  -0.087   0.975  1.00  0.00    -0.318 N 
ATOM      3  H1  UNL     1       2.007  -0.071  -0.011  1.00  0.00     0.169 HD
HETATM    4  C5  UNL     1       0.415  -0.084   1.300  1.00  0.00     0.097 A 
HETATM    5  C13 UNL     1       0.068  -0.107   2.620  1.00  0.00     0.117 A 
HETATM    6  C14 UNL     1      -1.323  -0.105   3.008  1.00  0.00     0.105 C 
HETATM    7  N8  UNL     1      -2.424  -0.104   3.343  1.00  0.00    -0.191 NA
HETATM    8  C15 UNL     1       1.065  -0.131   3.577  1.00  0.00     0.125 A 
HETATM    9  N10 UNL     1       2.344  -0.132   3.181  1.00  0.00    -0.307 N 
ATOM     10  H10 UNL     1       3.072  -0.150   3.896  1.00  0.00     0.171 HD
ENDROOT
BRANCH   4  11
HETATM   11  C6  UNL     1      -0.569  -0.058   0.219  1.00  0.00     0.147 A 
HETATM   12  O3  UNL     1      -1.846  -0.050   0.279  1.00  0.00    -0.287 OA
HETATM   13  C7  UNL     1      -2.437  -0.025  -0.904  1.00  0.00     0.165 A 
HETATM   14  C8  UNL     1      -3.867  -0.012  -1.095  1.00  0.00     0.075 A 
HETATM   15  N6  UNL     1      -1.415  -0.015  -1.772  1.00  0.00    -0.322 N 
HETATM   16  C9  UNL     1      -4.701  -0.026   0.000  1.00  0.00     0.125 A 
HETATM   17  C11 UNL     1      -4.471   0.015  -2.322  1.00  0.00     0.130 A 
HETATM   18  N2  UNL     1      -6.041  -0.016  -0.114  1.00  0.00    -0.201 N 
HETATM   19  C10 UNL     1      -6.611   0.011  -1.331  1.00  0.00     0.677 A 
ATOM     20  H2  UNL     1      -6.624  -0.029   0.723  1.00  0.00     0.183 HD
HETATM   21  N4  UNL     1      -5.845   0.026  -2.415  1.00  0.00    -0.176 N 
ATOM     22  H4  UNL     1      -6.283   0.046  -3.336  1.00  0.00     0.186 HD
HETATM   23  C12 UNL     1      -0.243  -0.035  -1.133  1.00  0.00     0.154 A 
ATOM     24  H6  UNL     1      -1.519   0.005  -2.786  1.00  0.00     0.169 HD
HETATM   25  N7  UNL     1       1.043  -0.033  -1.698  1.00  0.00    -0.080 NA
BRANCH  19  26
HETATM   26  N3  UNL     1      -7.924   0.021  -1.418  1.00  0.00    -0.234 N 
ATOM     27  H32 UNL     1      -8.513   0.009  -0.585  1.00  0.00     0.174 HD
ATOM     28  H31 UNL     1      -8.357   0.041  -2.342  1.00  0.00     0.174 HD
ENDBRANCH  19  26
BRANCH  17  29
HETATM   29  N5  UNL     1      -3.818   0.030  -3.390  1.00  0.00    -0.384 N 
ATOM     30  H52 UNL     1      -2.800   0.022  -3.321  1.00  0.00     0.157 HD
ATOM     31  H51 UNL     1      -4.268   0.050  -4.305  1.00  0.00     0.157 HD
ENDBRANCH  17  29
ENDBRANCH   4  11
BRANCH   8  32
HETATM   32  N9  UNL     1       0.725  -0.152   4.814  1.00  0.00    -0.384 N 
ATOM     33  H92 UNL     1      -0.249  -0.151   5.116  1.00  0.00     0.157 HD
ATOM     34  H91 UNL     1       1.461  -0.170   5.520  1.00  0.00     0.157 HD
ENDBRANCH   8  32
BRANCH   1  35
HETATM   35  O2  UNL     1       4.067  -0.113   1.575  1.00  0.00    -0.320 OA
BRANCH  35  36
HETATM   36  C3  UNL     1       4.490  -0.090   0.198  1.00  0.00     0.205 C 
BRANCH  36  37
HETATM   37  C2  UNL     1       5.981  -0.098   0.099  1.00  0.00     0.193 C 
BRANCH  37  38
HETATM   38  O1  UNL     1       6.459  -0.081  -1.187  1.00  0.00    -0.394 OA
HETATM   39  C1  UNL     1       6.080   1.033  -1.902  1.00  0.00     0.201 C 
ENDBRANCH  37  38
ENDBRANCH  36  37
ENDBRANCH  35  36
ENDBRANCH   1  35
TORSDOF 8
