REMARK  8 active torsions:
REMARK  status: ('A' for Active; 'I' for Inactive)
REMARK    1  A    between atoms: C3_4  and  N2_5 
REMARK    2  A    between atoms: C4_10  and  C5_11 
REMARK       I    between atoms: C5_11  and  N4_13 
REMARK    3  A    between atoms: N4_13  and  N5_15 
REMARK    4  A    between atoms: N5_15  and  C6_17 
REMARK    5  A    between atoms: C8_19  and  N6_20 
REMARK    6  A    between atoms: N6_20  and  C9_22 
REMARK    7  A    between atoms: C9_22  and  C10_26 
REMARK    8  A    between atoms: C12_30  and  N8_31 
ROOT
HETATM    1  C6  UNL     1       0.846  -0.715   0.779  1.00  0.00     0.123 A 
HETATM    2  C7  UNL     1       2.145  -0.713   1.225  1.00  0.00     0.079 A 
HETATM    3  C8  UNL     1       3.211  -0.728   0.336  1.00  0.00     0.041 A 
HETATM    4  C11 UNL     1       2.912  -0.744  -1.000  1.00  0.00     0.077 A 
HETATM    5  C12 UNL     1       1.593  -0.747  -1.455  1.00  0.00     0.102 A 
HETATM    6  N9  UNL     1       0.614  -0.732  -0.537  1.00  0.00    -0.328 N 
ATOM      7  H9  UNL     1      -0.354  -0.734  -0.859  1.00  0.00     0.169 HD
ENDROOT
BRANCH   1   8
HETATM    8  N5  UNL     1      -0.181  -0.700   1.758  1.00  0.00    -0.282 N 
ATOM      9  H5  UNL     1       0.045  -0.685   2.753  1.00  0.00     0.188 HD
BRANCH   8  10
HETATM   10  N4  UNL     1      -1.507  -0.706   1.326  1.00  0.00    -0.262 N 
HETATM   11  C5  UNL     1      -2.044   0.506   0.795  1.00  0.00     0.304 C 
HETATM   12  O3  UNL     1      -1.299   1.500   0.749  1.00  0.00    -0.263 OA
ATOM     13  H4  UNL     1      -2.076  -1.550   1.387  1.00  0.00     0.190 HD
BRANCH  11  14
HETATM   14  C4  UNL     1      -3.425   0.516   0.339  1.00  0.00     0.179 A 
HETATM   15  N1  UNL     1      -4.133   1.523  -0.167  1.00  0.00    -0.339 N 
HETATM   16  C1  UNL     1      -3.731   2.898  -0.404  1.00  0.00     0.157 C 
HETATM   17  C2  UNL     1      -5.411   1.105  -0.475  1.00  0.00     0.147 A 
HETATM   18  C3  UNL     1      -5.474  -0.209  -0.140  1.00  0.00     0.191 A 
HETATM   19  N3  UNL     1      -4.278  -0.550   0.347  1.00  0.00    -0.318 N 
ATOM     20  H3  UNL     1      -4.034  -1.483   0.680  1.00  0.00     0.169 HD
BRANCH  18  21
HETATM   21  N2  UNL     1      -6.578  -1.122  -0.259  1.00  0.00    -0.096 N 
HETATM   22  O1  UNL     1      -6.438  -2.298   0.098  1.00  0.00    -0.530 OA
HETATM   23  O2  UNL     1      -7.744  -0.614  -0.776  1.00  0.00    -0.530 OA
ENDBRANCH  18  21
ENDBRANCH  11  14
ENDBRANCH   8  10
ENDBRANCH   1   8
BRANCH   3  24
HETATM   24  N6  UNL     1       4.552  -0.727   0.814  1.00  0.00    -0.337 N 
ATOM     25  H6  UNL     1       4.730  -0.694   1.818  1.00  0.00     0.167 HD
BRANCH  24  26
HETATM   26  C9  UNL     1       5.640  -0.771  -0.089  1.00  0.00     0.177 C 
HETATM   27  N7  UNL     1       5.838  -1.828  -0.772  1.00  0.00    -0.380 N 
ATOM     28  H72 UNL     1       5.211  -2.625  -0.660  1.00  0.00     0.158 HD
ATOM     29  H71 UNL     1       6.623  -1.860  -1.423  1.00  0.00     0.158 HD
BRANCH  26  30
HETATM   30  C10 UNL     1       6.533   0.365  -0.249  1.00  0.00     0.244 C 
HETATM   31  O4  UNL     1       7.496   0.349  -1.036  1.00  0.00    -0.642 OA
HETATM   32  O5  UNL     1       6.332   1.534   0.492  1.00  0.00    -0.642 OA
ENDBRANCH  26  30
ENDBRANCH  24  26
ENDBRANCH   3  24
BRANCH   5  33
HETATM   33  N8  UNL     1       1.340  -0.763  -2.711  1.00  0.00    -0.385 N 
ATOM     34  H82 UNL     1       2.084  -0.774  -3.409  1.00  0.00     0.157 HD
ATOM     35  H81 UNL     1       0.376  -0.765  -3.044  1.00  0.00     0.157 HD
ENDBRANCH   5  33
TORSDOF 8
