REMARK  6 active torsions:
REMARK  status: ('A' for Active; 'I' for Inactive)
REMARK    1  A    between atoms: N1_1  and  C1_4 
REMARK    2  A    between atoms: C6_15  and  N5_16 
REMARK    3  A    between atoms: N6_19  and  C7_20 
REMARK    4  A    between atoms: C7_20  and  C8_21 
REMARK    5  A    between atoms: C8_21  and  N7_22 
REMARK       I    between atoms: N7_22  and  C9_24 
REMARK       I    between atoms: C9_24  and  N8_26 
REMARK    6  A    between atoms: N8_26  and  N9_28 
ROOT
HETATM    1  C1  UNL     1      -4.123   0.705  -0.220  1.00  0.00     0.130 A 
HETATM    2  N2  UNL     1      -3.874   2.035  -0.281  1.00  0.00    -0.337 N 
ATOM      3  H2  UNL     1      -4.647   2.701  -0.275  1.00  0.00     0.168 HD
HETATM    4  C2  UNL     1      -2.603   2.476  -0.350  1.00  0.00     0.183 A 
HETATM    5  N3  UNL     1      -1.605   1.576  -0.358  1.00  0.00    -0.336 N 
ATOM      6  H3  UNL     1      -0.646   1.920  -0.411  1.00  0.00     0.168 HD
HETATM    7  C3  UNL     1      -1.802   0.247  -0.300  1.00  0.00     0.141 A 
HETATM    8  C4  UNL     1      -3.114  -0.233  -0.227  1.00  0.00     0.121 A 
HETATM    9  N4  UNL     1      -3.335  -1.559  -0.168  1.00  0.00    -0.356 N 
ATOM     10  H4  UNL     1      -4.293  -1.907  -0.116  1.00  0.00     0.165 HD
HETATM   11  C5  UNL     1      -2.299  -2.445  -0.177  1.00  0.00     0.137 A 
HETATM   12  C6  UNL     1      -1.004  -1.974  -0.249  1.00  0.00     0.118 A 
HETATM   13  N6  UNL     1      -0.798  -0.648  -0.308  1.00  0.00    -0.315 N 
ENDROOT
BRANCH  13  14
HETATM   14  C7  UNL     1       0.558  -0.131  -0.384  1.00  0.00     0.152 C 
BRANCH  14  15
HETATM   15  C8  UNL     1       1.155   0.126   0.950  1.00  0.00     0.144 C 
BRANCH  15  16
HETATM   16  N7  UNL     1       2.494   0.642   0.822  1.00  0.00    -0.340 N 
HETATM   17  C9  UNL     1       3.526  -0.127   0.221  1.00  0.00     0.334 C 
HETATM   18  O1  UNL     1       3.366  -1.294  -0.230  1.00  0.00    -0.246 OA
HETATM   19  N8  UNL     1       4.827   0.484   0.133  1.00  0.00    -0.258 N 
ATOM     20  H8  UNL     1       4.999   1.425   0.486  1.00  0.00     0.191 HD
ATOM     21  H7  UNL     1       2.705   1.577   1.170  1.00  0.00     0.164 HD
BRANCH  19  22
HETATM   22  N9  UNL     1       5.843  -0.272  -0.458  1.00  0.00    -0.341 N 
ATOM     23  H92 UNL     1       5.655  -1.212  -0.806  1.00  0.00     0.177 HD
ATOM     24  H91 UNL     1       6.765   0.161  -0.520  1.00  0.00     0.177 HD
ENDBRANCH  19  22
ENDBRANCH  15  16
ENDBRANCH  14  15
ENDBRANCH  13  14
BRANCH  12  25
HETATM   25  N5  UNL     1       0.033  -2.741  -0.263  1.00  0.00    -0.384 N 
ATOM     26  H52 UNL     1      -0.123  -3.748  -0.218  1.00  0.00     0.157 HD
ATOM     27  H51 UNL     1       0.990  -2.393  -0.316  1.00  0.00     0.157 HD
ENDBRANCH  12  25
BRANCH   1  28
HETATM   28  N1  UNL     1      -5.343   0.306  -0.154  1.00  0.00    -0.383 N 
ATOM     29  H12 UNL     1      -6.090   1.000  -0.149  1.00  0.00     0.157 HD
ATOM     30  H11 UNL     1      -5.531  -0.696  -0.108  1.00  0.00     0.157 HD
ENDBRANCH   1  28
TORSDOF 6
