REMARK  13 active torsions:
REMARK  status: ('A' for Active; 'I' for Inactive)
REMARK    1  A    between atoms: C2_2  and  C3_4 
REMARK    2  A    between atoms: C3_4  and  C6_12 
REMARK    3  A    between atoms: N1_5  and  O2_7 
REMARK    4  A    between atoms: O2_7  and  C4_8 
REMARK    5  A    between atoms: C4_8  and  C5_9 
REMARK    6  A    between atoms: C6_12  and  N3_13 
REMARK    7  A    between atoms: C6_12  and  N4_17 
REMARK    8  A    between atoms: N4_17  and  C7_19 
REMARK    9  A    between atoms: C9_24  and  C10_25 
REMARK       I    between atoms: C10_25  and  N6_27 
REMARK   10  A    between atoms: N6_27  and  C11_29 
REMARK   11  A    between atoms: C11_29  and  C12_30 
REMARK   12  A    between atoms: C11_29  and  C13_36 
REMARK   13  A    between atoms: C12_30  and  O5_34 
ROOT
HETATM    1  C7  UNL     1       0.699   0.321   0.545  1.00  0.00     0.107 C 
HETATM    2  C8  UNL     1       0.416   1.483   1.408  1.00  0.00     0.257 C 
HETATM    3  N5  UNL     1      -0.832   2.056   0.795  1.00  0.00    -0.060 N 
ATOM      4  H51 UNL     1      -0.715   2.509  -0.111  1.00  0.00     0.278 HD
ATOM      5  H52 UNL     1      -1.212   2.885   1.252  1.00  0.00     0.278 HD
HETATM    6  C9  UNL     1      -1.659   0.910   0.810  1.00  0.00     0.279 C 
HETATM    7  C16 UNL     1      -0.741  -0.250   0.386  1.00  0.00     0.069 C 
ENDROOT
BRANCH   1   8
HETATM    8  N4  UNL     1       1.464  -0.769   1.013  1.00  0.00    -0.385 N 
ATOM      9  H4  UNL     1       1.247  -1.209   1.907  1.00  0.00     0.156 HD
BRANCH   8  10
HETATM   10  C6  UNL     1       2.526  -1.237   0.230  1.00  0.00     0.334 C 
BRANCH  10  11
HETATM   11  C3  UNL     1       3.692  -0.256   0.151  1.00  0.00     0.126 C 
HETATM   12  N1  UNL     1       4.450  -0.372  -0.786  1.00  0.00    -0.263 N 
ATOM     13  H1  UNL     1       3.959  -1.085  -1.325  1.00  0.00     0.194 HD
BRANCH  11  14
HETATM   14  C2  UNL     1       3.825   0.639   1.293  1.00  0.00     0.173 C 
HETATM   15  C1  UNL     1       4.693   1.839   1.224  1.00  0.00     0.098 C 
HETATM   16  O1  UNL     1       3.171   0.436   2.346  1.00  0.00    -0.291 OA
ENDBRANCH  11  14
BRANCH  12  17
HETATM   17  O2  UNL     1       5.457  -0.184  -1.533  1.00  0.00    -0.271 OA
BRANCH  17  18
HETATM   18  C4  UNL     1       6.688   0.488  -1.251  1.00  0.00     0.300 C 
BRANCH  18  19
HETATM   19  C5  UNL     1       7.765  -0.565  -1.356  1.00  0.00     0.257 C 
HETATM   20  N2  UNL     1       9.067  -0.350  -0.927  1.00  0.00    -0.060 NA
HETATM   21  O3  UNL     1       7.507  -1.708  -1.862  1.00  0.00    -0.274 OA
ENDBRANCH  18  19
ENDBRANCH  17  18
ENDBRANCH  12  17
ENDBRANCH  10  11
BRANCH  10  22
HETATM   22  N3  UNL     1       3.011  -2.509   0.570  1.00  0.00    -0.053 N 
ATOM     23  H33 UNL     1       3.741  -2.827  -0.067  1.00  0.00     0.277 HD
ATOM     24  H32 UNL     1       3.563  -2.495   1.428  1.00  0.00     0.277 HD
ATOM     25  H31 UNL     1       2.232  -3.165   0.623  1.00  0.00     0.277 HD
ENDBRANCH  10  22
ENDBRANCH   8  10
ENDBRANCH   1   8
BRANCH   6  26
HETATM   26  C10 UNL     1      -2.726   0.917  -0.269  1.00  0.00     0.249 C 
HETATM   27  O4  UNL     1      -2.561   1.762  -1.179  1.00  0.00    -0.271 OA
HETATM   28  N6  UNL     1      -3.693  -0.018  -0.072  1.00  0.00    -0.347 N 
ATOM     29  H6  UNL     1      -3.507  -0.454   0.831  1.00  0.00     0.163 HD
BRANCH  28  30
HETATM   30  C11 UNL     1      -4.819  -0.620  -0.586  1.00  0.00     0.162 C 
BRANCH  30  31
HETATM   31  C12 UNL     1      -5.493   0.291  -1.610  1.00  0.00     0.132 C 
HETATM   32  N7  UNL     1      -6.673   0.631  -1.613  1.00  0.00    -0.382 N 
ATOM     33  H72 UNL     1      -7.307   0.319  -0.878  1.00  0.00     0.158 HD
ATOM     34  H71 UNL     1      -7.123   1.239  -2.297  1.00  0.00     0.158 HD
BRANCH  31  35
HETATM   35  O5  UNL     1      -4.625   0.718  -2.616  1.00  0.00    -0.348 OA
ATOM     36  H5  UNL     1      -5.044   1.285  -3.253  1.00  0.00     0.219 HD
ENDBRANCH  31  35
ENDBRANCH  30  31
BRANCH  30  37
HETATM   37  C13 UNL     1      -5.815  -0.934   0.500  1.00  0.00     0.008 C 
HETATM   38  C14 UNL     1      -6.452   0.215   1.187  1.00  0.00     0.012 C 
HETATM   39  C15 UNL     1      -6.564  -2.191   0.279  1.00  0.00     0.012 C 
ENDBRANCH  30  37
ENDBRANCH  28  30
ENDBRANCH   6  26
TORSDOF 13
