REMARK  12 active torsions:
REMARK  status: ('A' for Active; 'I' for Inactive)
REMARK    1  A    between atoms: C1_2  and  C2_4 
REMARK       I    between atoms: C2_4  and  N1_6 
REMARK    2  A    between atoms: N1_6  and  N2_8 
REMARK    3  A    between atoms: C8_21  and  O6_22 
REMARK    4  A    between atoms: C8_21  and  C9_24 
REMARK    5  A    between atoms: C9_24  and  S2_25 
REMARK    6  A    between atoms: S2_25  and  C10_26 
REMARK    7  A    between atoms: C11_31  and  C12_32 
REMARK    8  A    between atoms: C12_32  and  O7_33 
REMARK    9  A    between atoms: C12_32  and  C13_35 
REMARK   10  A    between atoms: C13_35  and  N7_36 
REMARK   11  A    between atoms: N7_36  and  O8_37 
REMARK   12  A    between atoms: N7_36  and  O9_39 
ROOT
HETATM    1  N2  UNL     1      -2.001  -1.400   0.111  1.00  0.00    -0.283 N 
ATOM      2  H2  UNL     1      -1.113  -1.901   0.064  1.00  0.00     0.188 HD
HETATM    3  C3  UNL     1      -1.972  -0.136   0.330  1.00  0.00     0.139 A 
HETATM    4  N3  UNL     1      -3.054   0.763   0.436  1.00  0.00    -0.321 N 
HETATM    5  C4  UNL     1      -4.486   0.734   0.369  1.00  0.00     0.151 C 
HETATM    6  C5  UNL     1      -5.165   1.248   1.600  1.00  0.00     0.152 C 
HETATM    7  N4  UNL     1      -4.963   2.647   1.850  1.00  0.00    -0.313 N 
ATOM      8  H4  UNL     1      -5.486   3.179   2.545  1.00  0.00     0.172 HD
HETATM    9  S1  UNL     1      -3.736   3.329   0.844  1.00  0.00     0.274 S 
HETATM   10  O4  UNL     1      -4.273   3.755  -0.485  1.00  0.00    -0.199 OA
HETATM   11  O5  UNL     1      -3.173   4.517   1.569  1.00  0.00    -0.199 OA
HETATM   12  C6  UNL     1      -2.516   2.086   0.685  1.00  0.00     0.152 A 
HETATM   13  C7  UNL     1      -1.211   2.038   0.734  1.00  0.00     0.063 A 
HETATM   14  C8  UNL     1      -0.718   0.671   0.523  1.00  0.00     0.147 A 
ENDROOT
BRANCH  14  15
HETATM   15  O6  UNL     1       0.022   0.660  -0.659  1.00  0.00    -0.377 OA
ATOM     16  H6  UNL     1       0.814   1.170  -0.537  1.00  0.00     0.211 HD
ENDBRANCH  14  15
BRANCH  14  17
HETATM   17  C9  UNL     1       0.067   0.187   1.699  1.00  0.00     0.133 C 
BRANCH  17  18
HETATM   18  S2  UNL     1       1.550   1.195   1.888  1.00  0.00    -0.089 SA
BRANCH  18  19
HETATM   19  C10 UNL     1       2.699   0.962   0.546  1.00  0.00     0.160 A 
HETATM   20  N5  UNL     1       2.810   1.662  -0.591  1.00  0.00    -0.278 N 
HETATM   21  N6  UNL     1       3.796   1.193  -1.336  1.00  0.00    -0.285 N 
ATOM     22  H5  UNL     1       2.215   2.450  -0.847  1.00  0.00     0.189 HD
HETATM   23  C11 UNL     1       4.369   0.147  -0.687  1.00  0.00     0.128 A 
ATOM     24  H6  UNL     1       4.079   1.556  -2.246  1.00  0.00     0.188 HD
HETATM   25  N8  UNL     1       3.685   0.022   0.462  1.00  0.00    -0.322 N 
ATOM     26  H8  UNL     1       3.877  -0.681   1.176  1.00  0.00     0.169 HD
BRANCH  23  27
HETATM   27  C12 UNL     1       5.513  -0.662  -1.184  1.00  0.00     0.204 C 
BRANCH  27  28
HETATM   28  O7  UNL     1       5.267  -2.030  -0.992  1.00  0.00    -0.387 OA
ATOM     29  H7  UNL     1       5.998  -2.547  -1.310  1.00  0.00     0.210 HD
ENDBRANCH  27  28
BRANCH  27  30
HETATM   30  C13 UNL     1       6.813  -0.306  -0.539  1.00  0.00     0.192 C 
BRANCH  30  31
HETATM   31  N7  UNL     1       7.854  -1.104  -1.167  1.00  0.00    -0.071 NA
BRANCH  31  32
HETATM   32  O8  UNL     1       7.613  -2.421  -1.004  1.00  0.00    -0.289 OA
ATOM     33  H8  UNL     1       8.293  -2.942  -1.414  1.00  0.00     0.239 HD
ENDBRANCH  31  32
BRANCH  31  34
HETATM   34  O9  UNL     1       9.079  -0.826  -0.701  1.00  0.00    -0.289 OA
ATOM     35  H9  UNL     1       9.759  -1.347  -1.111  1.00  0.00     0.239 HD
ENDBRANCH  31  34
ENDBRANCH  30  31
ENDBRANCH  27  30
ENDBRANCH  23  27
ENDBRANCH  18  19
ENDBRANCH  17  18
ENDBRANCH  14  17
BRANCH   1  36
HETATM   36  N1  UNL     1      -3.162  -2.119  -0.064  1.00  0.00    -0.259 N 
HETATM   37  C2  UNL     1      -3.559  -2.660  -1.317  1.00  0.00     0.336 C 
HETATM   38  O3  UNL     1      -2.825  -2.478  -2.308  1.00  0.00    -0.259 OA
ATOM     39  H1  UNL     1      -3.766  -2.271   0.744  1.00  0.00     0.190 HD
BRANCH  37  40
HETATM   40  C1  UNL     1      -4.781  -3.405  -1.450  1.00  0.00     0.271 C 
HETATM   41  O1  UNL     1      -5.576  -3.635  -0.503  1.00  0.00    -0.640 OA
HETATM   42  O2  UNL     1      -5.151  -3.928  -2.700  1.00  0.00    -0.640 OA
ENDBRANCH  37  40
ENDBRANCH   1  36
TORSDOF 12
