REMARK  9 active torsions:
REMARK  status: ('A' for Active; 'I' for Inactive)
REMARK    1  A    between atoms: N2_3  and  S1_5 
REMARK    2  A    between atoms: S1_5  and  N3_6 
REMARK    3  A    between atoms: S1_5  and  C2_10 
REMARK    4  A    between atoms: C5_13  and  N4_14 
REMARK    5  A    between atoms: N4_14  and  C6_16 
REMARK    6  A    between atoms: C9_21  and  N6_22 
REMARK    7  A    between atoms: N6_22  and  C10_24 
REMARK    8  A    between atoms: C13_27  and  O2_28 
REMARK    9  A    between atoms: O2_28  and  C14_29 
ROOT
HETATM    1  N1  UNL     1      10.728  -2.084   1.279  1.00  0.00    -0.171 NA
HETATM    2  C1  UNL     1      10.303  -1.238   0.586  1.00  0.00     0.191 C 
HETATM    3  N2  UNL     1       9.781  -0.249  -0.243  1.00  0.00    -0.234 N 
ATOM      4  H2  UNL     1      10.161   0.695  -0.172  1.00  0.00     0.190 HD
ENDROOT
BRANCH   3   5
HETATM    5  S1  UNL     1       8.523  -0.545  -1.384  1.00  0.00     0.145 S 
HETATM    6  O1  UNL     1       8.643  -1.978  -1.816  1.00  0.00    -0.223 OA
BRANCH   5   7
HETATM    7  N3  UNL     1       8.779   0.343  -2.618  1.00  0.00    -0.340 N 
ATOM      8  H32 UNL     1       9.561   0.989  -2.726  1.00  0.00     0.167 HD
ATOM      9  H31 UNL     1       8.035   0.168  -3.293  1.00  0.00     0.167 HD
ENDBRANCH   5   7
BRANCH   5  10
HETATM   10  C2  UNL     1       6.947  -0.221  -0.689  1.00  0.00     0.059 A 
HETATM   11  C3  UNL     1       6.233  -1.210  -0.037  1.00  0.00     0.026 A 
HETATM   12  C4  UNL     1       4.991  -0.976   0.517  1.00  0.00     0.031 A 
HETATM   13  C5  UNL     1       4.405   0.271   0.442  1.00  0.00     0.049 A 
HETATM   14  C22 UNL     1       5.119   1.257  -0.208  1.00  0.00     0.031 A 
HETATM   15  C23 UNL     1       6.361   1.027  -0.764  1.00  0.00     0.026 A 
BRANCH  13  16
HETATM   16  N4  UNL     1       3.127   0.538   1.005  1.00  0.00    -0.192 N 
ATOM     17  H4  UNL     1       3.096   1.041   1.892  1.00  0.00     0.184 HD
BRANCH  16  18
HETATM   18  C6  UNL     1       2.024   0.197   0.485  1.00  0.00     0.684 A 
HETATM   19  N5  UNL     1       1.958  -0.466  -0.679  1.00  0.00    -0.202 N 
HETATM   20  C7  UNL     1       0.754  -0.810  -1.199  1.00  0.00     0.110 A 
ATOM     21  H5  UNL     1       2.815  -0.712  -1.174  1.00  0.00     0.183 HD
HETATM   22  C8  UNL     1      -0.427  -0.491  -0.549  1.00  0.00     0.066 A 
HETATM   23  C9  UNL     1      -0.331   0.187   0.641  1.00  0.00     0.122 A 
HETATM   24  N7  UNL     1       0.877   0.504   1.111  1.00  0.00    -0.176 N 
ATOM     25  H7  UNL     1       0.932   1.008   1.996  1.00  0.00     0.186 HD
BRANCH  23  26
HETATM   26  N6  UNL     1      -1.419   0.494   1.261  1.00  0.00    -0.342 N 
ATOM     27  H6  UNL     1      -1.359   0.999   2.145  1.00  0.00     0.167 HD
BRANCH  26  28
HETATM   28  C10 UNL     1      -2.691   0.152   0.751  1.00  0.00     0.033 A 
HETATM   29  C11 UNL     1      -3.380  -0.955   1.256  1.00  0.00     0.032 A 
HETATM   30  C12 UNL     1      -4.621  -1.294   0.764  1.00  0.00     0.039 A 
HETATM   31  C13 UNL     1      -5.215  -0.566  -0.225  1.00  0.00     0.076 A 
HETATM   32  C20 UNL     1      -4.561   0.530  -0.743  1.00  0.00     0.039 A 
HETATM   33  C21 UNL     1      -3.331   0.861  -0.251  1.00  0.00     0.032 A 
BRANCH  31  34
HETATM   34  O2  UNL     1      -6.481  -0.924  -0.717  1.00  0.00    -0.311 OA
BRANCH  34  35
HETATM   35  C14 UNL     1      -7.562  -0.336  -0.051  1.00  0.00     0.076 A 
HETATM   36  C15 UNL     1      -8.138  -0.948   1.031  1.00  0.00     0.037 A 
HETATM   37  C16 UNL     1      -9.209  -0.317   1.652  1.00  0.00     0.003 A 
HETATM   38  C17 UNL     1      -9.688   0.894   1.202  1.00  0.00     0.000 A 
HETATM   39  C18 UNL     1      -9.074   1.474   0.106  1.00  0.00     0.003 A 
HETATM   40  C19 UNL     1      -8.007   0.878  -0.539  1.00  0.00     0.037 A 
ENDBRANCH  34  35
ENDBRANCH  31  34
ENDBRANCH  26  28
ENDBRANCH  23  26
ENDBRANCH  16  18
ENDBRANCH  13  16
ENDBRANCH   5  10
ENDBRANCH   3   5
TORSDOF 9
