REMARK  8 active torsions:
REMARK  status: ('A' for Active; 'I' for Inactive)
REMARK    1  A    between atoms: C1_4  and  C2_5 
REMARK    2  A    between atoms: C2_5  and  N2_6 
REMARK    3  A    between atoms: C3_7  and  N3_8 
REMARK    4  A    between atoms: N3_8  and  C4_10 
REMARK    5  A    between atoms: C4_10  and  C5_11 
REMARK    6  A    between atoms: C5_11  and  N4_12 
REMARK       I    between atoms: N4_12  and  C6_14 
REMARK    7  A    between atoms: C9_26  and  N9_27 
REMARK    8  A    between atoms: C10_32  and  N11_33 
ROOT
HETATM    1  N2  UNL     1      -1.062  -0.393   0.834  1.00  0.00    -0.309 N 
HETATM    2  C3  UNL     1       0.196   0.092   0.570  1.00  0.00     0.153 A 
HETATM    3  C7  UNL     1       0.292   1.245  -0.173  1.00  0.00     0.189 A 
HETATM    4  N5  UNL     1       1.401   1.937  -0.578  1.00  0.00    -0.265 N 
ATOM      5  H5  UNL     1       2.377   1.706  -0.391  1.00  0.00     0.190 HD
HETATM    6  N6  UNL     1       0.940   2.963  -1.260  1.00  0.00    -0.226 N 
ATOM      7  H6  UNL     1       1.512   3.682  -1.703  1.00  0.00     0.210 HD
HETATM    8  N7  UNL     1      -0.375   2.917  -1.282  1.00  0.00    -0.219 N 
ATOM      9  H7  UNL     1      -0.973   3.599  -1.747  1.00  0.00     0.210 HD
HETATM   10  N8  UNL     1      -0.810   1.865  -0.618  1.00  0.00    -0.212 N 
HETATM   11  C8  UNL     1      -2.045   1.373  -0.349  1.00  0.00     0.148 A 
HETATM   12  C9  UNL     1      -3.188   1.998  -0.806  1.00  0.00     0.147 A 
HETATM   13  N10 UNL     1      -4.401   1.425  -0.491  1.00  0.00    -0.175 N 
ATOM     14  H10 UNL     1      -5.262   1.865  -0.816  1.00  0.00     0.186 HD
HETATM   15  C10 UNL     1      -4.470   0.309   0.228  1.00  0.00     0.679 A 
HETATM   16  N12 UNL     1      -3.382  -0.332   0.694  1.00  0.00    -0.174 N 
ATOM     17  H12 UNL     1      -3.466  -1.187   1.244  1.00  0.00     0.186 HD
HETATM   18  C11 UNL     1      -2.184   0.196   0.407  1.00  0.00     0.158 A 
ENDROOT
BRANCH   2  19
HETATM   19  N3  UNL     1       1.183  -0.527   1.009  1.00  0.00    -0.371 N 
ATOM     20  H3  UNL     1       0.897  -1.354   1.533  1.00  0.00     0.161 HD
BRANCH  19  21
HETATM   21  C4  UNL     1       2.569  -0.402   0.982  1.00  0.00     0.141 C 
BRANCH  21  22
HETATM   22  C5  UNL     1       3.200  -1.403   0.003  1.00  0.00     0.145 C 
BRANCH  22  23
HETATM   23  N4  UNL     1       4.632  -1.297  -0.027  1.00  0.00    -0.334 N 
HETATM   24  C6  UNL     1       5.351  -0.129  -0.399  1.00  0.00     0.283 C 
HETATM   25  O1  UNL     1       4.782   0.935  -0.743  1.00  0.00    -0.630 OA
HETATM   26  O2  UNL     1       6.757  -0.099  -0.404  1.00  0.00    -0.630 OA
ATOM     27  H4  UNL     1       5.173  -2.120   0.238  1.00  0.00     0.165 HD
ENDBRANCH  22  23
ENDBRANCH  21  22
ENDBRANCH  19  21
ENDBRANCH   2  19
BRANCH   1  28
HETATM   28  C2  UNL     1      -1.151  -1.601   1.613  1.00  0.00     0.176 C 
BRANCH  28  29
HETATM   29  C1  UNL     1      -1.189  -2.765   0.682  1.00  0.00     0.073 C 
HETATM   30  N1  UNL     1      -1.658  -3.918   1.060  1.00  0.00    -0.410 N 
ATOM     31  H12 UNL     1      -2.003  -4.011   2.016  1.00  0.00     0.155 HD
ATOM     32  H11 UNL     1      -1.684  -4.714   0.423  1.00  0.00     0.155 HD
ENDBRANCH  28  29
ENDBRANCH   1  28
BRANCH  12  33
HETATM   33  N9  UNL     1      -3.145   3.040  -1.478  1.00  0.00    -0.383 N 
ATOM     34  H92 UNL     1      -2.247   3.464  -1.711  1.00  0.00     0.157 HD
ATOM     35  H91 UNL     1      -3.989   3.502  -1.816  1.00  0.00     0.157 HD
ENDBRANCH  12  33
BRANCH  15  36
HETATM   36  N11 UNL     1      -5.623  -0.212   0.512  1.00  0.00    -0.234 N 
ATOM     37 2H11 UNL     1      -6.447   0.274   0.159  1.00  0.00     0.174 HD
ATOM     38 1H11 UNL     1      -5.676  -1.068   1.064  1.00  0.00     0.174 HD
ENDBRANCH  15  36
TORSDOF 8
