REMARK  10 active torsions:
REMARK  status: ('A' for Active; 'I' for Inactive)
REMARK    1  A    between atoms: C14_20  and  C15_21 
REMARK    2  A    between atoms: C16_22  and  C17_23 
REMARK    3  A    between atoms: C17_23  and  O3_24 
REMARK    4  A    between atoms: N3_27  and  C19_28 
REMARK    5  A    between atoms: C19_28  and  C20_29 
REMARK    6  A    between atoms: C20_29  and  C21_30 
REMARK    7  A    between atoms: C21_30  and  C22_31 
REMARK    8  A    between atoms: C22_31  and  C23_32 
REMARK    9  A    between atoms: C23_32  and  C24_33 
REMARK   10  A    between atoms: N5_39  and  C28_42 
ROOT
HETATM    1  C15 UNL     1       0.579   0.500   0.705  1.00  0.00     0.028 A 
HETATM    2  C16 UNL     1       0.978  -0.301   1.734  1.00  0.00    -0.006 A 
HETATM    3  C18 UNL     1       2.270   0.026   2.044  1.00  0.00     0.102 A 
HETATM    4  N3  UNL     1       2.678   1.005   1.233  1.00  0.00    -0.342 N 
HETATM    5  C25 UNL     1       1.740   1.378   0.371  1.00  0.00     0.124 A 
HETATM    6  N4  UNL     1       1.574   2.222  -0.671  1.00  0.00    -0.267 N 
HETATM    7  C26 UNL     1       0.518   3.247  -0.923  1.00  0.00     0.267 C 
HETATM    8  N5  UNL     1       0.244   1.931  -1.659  1.00  0.00    -0.304 N 
HETATM    9  C27 UNL     1       1.618   2.265  -2.125  1.00  0.00     0.329 C 
HETATM   10  O6  UNL     1       2.265   2.438  -3.168  1.00  0.00    -0.246 OA
ENDROOT
BRANCH   4  11
HETATM   11  C19 UNL     1       4.012   1.643   1.254  1.00  0.00     0.130 C 
BRANCH  11  12
HETATM   12  C20 UNL     1       4.944   0.878   0.300  1.00  0.00     0.020 C 
BRANCH  12  13
HETATM   13  C21 UNL     1       6.251   1.576   0.381  1.00  0.00     0.002 C 
BRANCH  13  14
HETATM   14  C22 UNL     1       7.407   1.149  -0.403  1.00  0.00     0.010 C 
BRANCH  14  15
HETATM   15  C23 UNL     1       7.981  -0.196  -0.259  1.00  0.00     0.113 C 
BRANCH  15  16
HETATM   16  C24 UNL     1       7.169  -1.323  -0.720  1.00  0.00     0.172 C 
HETATM   17  O4  UNL     1       6.193  -1.254  -1.500  1.00  0.00    -0.648 OA
HETATM   18  O5  UNL     1       7.484  -2.635  -0.265  1.00  0.00    -0.648 OA
ENDBRANCH  15  16
ENDBRANCH  14  15
ENDBRANCH  13  14
ENDBRANCH  12  13
ENDBRANCH  11  12
ENDBRANCH   4  11
BRANCH   2  19
HETATM   19  C17 UNL     1       0.110  -1.332   2.364  1.00  0.00     0.205 C 
BRANCH  19  20
HETATM   20  O3  UNL     1       0.835  -1.958   3.377  1.00  0.00    -0.396 OA
ATOM     21  H3  UNL     1       0.281  -2.616   3.779  1.00  0.00     0.209 HD
ENDBRANCH  19  20
ENDBRANCH   2  19
BRANCH   1  22
HETATM   22  C14 UNL     1      -0.707   0.610   0.084  1.00  0.00     0.195 C 
HETATM   23  O2  UNL     1      -1.562  -0.447  -0.068  1.00  0.00    -0.336 OA
HETATM   24  C12 UNL     1      -2.617   0.072  -0.845  1.00  0.00     0.108 A 
HETATM   25  C11 UNL     1      -2.044   0.990  -1.741  1.00  0.00     0.073 A 
HETATM   26  C13 UNL     1      -3.985  -0.097  -0.923  1.00  0.00     0.045 A 
HETATM   27  N2  UNL     1      -2.769   1.682  -2.637  1.00  0.00    -0.321 N 
HETATM   28  C28 UNL     1      -0.612   0.944  -1.467  1.00  0.00     0.177 C 
HETATM   29  C10 UNL     1      -4.073   1.508  -2.695  1.00  0.00     0.273 A 
ATOM     30  H2  UNL     1      -2.311   2.339  -3.269  1.00  0.00     0.169 HD
HETATM   31  C9  UNL     1      -4.733   0.627  -1.858  1.00  0.00     0.115 A 
HETATM   32  O1  UNL     1      -4.810   2.144  -3.533  1.00  0.00    -0.266 OA
HETATM   33  N1  UNL     1      -6.027   0.302  -1.741  1.00  0.00    -0.350 N 
HETATM   34  C7  UNL     1      -6.174  -0.609  -0.767  1.00  0.00     0.045 A 
ATOM     35  H1  UNL     1      -6.784   0.688  -2.305  1.00  0.00     0.166 HD
HETATM   36  C6  UNL     1      -4.897  -0.876  -0.237  1.00  0.00     0.012 A 
HETATM   37  C8  UNL     1      -7.288  -1.249  -0.268  1.00  0.00     0.037 A 
HETATM   38  C4  UNL     1      -4.754  -1.777   0.779  1.00  0.00    -0.048 A 
HETATM   39  C3  UNL     1      -5.904  -2.423   1.278  1.00  0.00     0.014 A 
HETATM   40  C5  UNL     1      -3.452  -2.115   1.373  1.00  0.00     0.049 C 
HETATM   41  C2  UNL     1      -7.136  -2.142   0.742  1.00  0.00    -0.059 A 
HETATM   42  C1  UNL     1      -8.350  -2.824   1.269  1.00  0.00     0.048 C 
ENDBRANCH   1  22
TORSDOF 10
