REMARK  11 active torsions:
REMARK  status: ('A' for Active; 'I' for Inactive)
REMARK       I    between atoms: C2_2  and  N1_4 
REMARK    1  A    between atoms: N1_4  and  C3_5 
REMARK    2  A    between atoms: N1_4  and  C31_41 
REMARK    3  A    between atoms: C3_5  and  C4_6 
REMARK    4  A    between atoms: C4_6  and  C5_7 
REMARK    5  A    between atoms: C5_7  and  C6_8 
REMARK    6  A    between atoms: C6_8  and  O2_9 
REMARK    7  A    between atoms: C6_8  and  N2_11 
REMARK    8  A    between atoms: N2_11  and  C7_14 
REMARK    9  A    between atoms: C15_23  and  O4_24 
REMARK   10  A    between atoms: C31_41  and  C32_42 
REMARK   11  A    between atoms: C32_42  and  C33_43 
ROOT
HETATM    1  C7  UNL     1       1.510  -1.319  -1.498  1.00  0.00     0.197 C 
HETATM    2  C8  UNL     1       0.844  -1.600  -0.196  1.00  0.00     0.039 C 
HETATM    3  C9  UNL     1      -0.429  -1.901  -0.952  1.00  0.00     0.005 C 
HETATM    4  C10 UNL     1      -1.549  -1.059  -0.341  1.00  0.00     0.023 C 
HETATM    5  C11 UNL     1      -1.709  -1.389   1.103  1.00  0.00     0.174 C 
HETATM    6  O3  UNL     1      -2.683  -0.654   1.714  1.00  0.00    -0.385 OA
HETATM    7  C12 UNL     1      -3.338   0.254   0.889  1.00  0.00     0.131 C 
HETATM    8  C13 UNL     1      -4.371   0.995   1.668  1.00  0.00     0.025 C 
HETATM    9  C14 UNL     1      -4.426   2.478   1.342  1.00  0.00     0.039 C 
HETATM   10  C15 UNL     1      -5.567   3.057   2.127  1.00  0.00     0.118 C 
HETATM   11  C16 UNL     1      -5.993   2.203   3.293  1.00  0.00     0.032 C 
HETATM   12  C17 UNL     1      -6.444   0.828   2.916  1.00  0.00     0.012 C 
HETATM   13  C18 UNL     1      -5.741   0.409   1.616  1.00  0.00    -0.038 C 
HETATM   14  C19 UNL     1      -6.602   0.891   0.498  1.00  0.00     0.015 C 
HETATM   15  C20 UNL     1      -5.582  -1.096   1.592  1.00  0.00     0.010 C 
HETATM   16  C21 UNL     1      -4.899  -1.543   0.351  1.00  0.00     0.009 C 
HETATM   17  C22 UNL     1      -3.935  -0.570  -0.252  1.00  0.00     0.024 C 
HETATM   18  C23 UNL     1      -2.846  -1.212  -1.058  1.00  0.00    -0.029 C 
HETATM   19  C24 UNL     1      -3.136  -2.705  -1.199  1.00  0.00     0.016 C 
HETATM   20  C25 UNL     1      -2.683  -0.673  -2.446  1.00  0.00    -0.010 C 
HETATM   21  C26 UNL     1      -3.992  -0.187  -3.056  1.00  0.00     0.011 C 
HETATM   22  C27 UNL     1      -1.693   0.427  -2.566  1.00  0.00     0.006 C 
HETATM   23  C28 UNL     1      -0.274   0.100  -2.484  1.00  0.00     0.012 C 
HETATM   24  C29 UNL     1       0.130  -1.304  -2.189  1.00  0.00    -0.011 C 
HETATM   25  C30 UNL     1       0.218  -2.221  -3.394  1.00  0.00     0.018 C 
ENDROOT
BRANCH   1  26
HETATM   26  N2  UNL     1       2.196  -0.059  -1.601  1.00  0.00    -0.044 N 
ATOM     27  H22 UNL     1       1.548   0.724  -1.515  1.00  0.00     0.280 HD
ATOM     28  H21 UNL     1       2.524   0.108  -2.552  1.00  0.00     0.280 HD
BRANCH  26  29
HETATM   29  C6  UNL     1       3.288   0.047  -0.637  1.00  0.00     0.319 C 
BRANCH  29  30
HETATM   30  C5  UNL     1       4.366  -0.941  -0.837  1.00  0.00     0.062 C 
BRANCH  30  31
HETATM   31  C4  UNL     1       5.442  -0.988   0.177  1.00  0.00     0.024 C 
BRANCH  31  32
HETATM   32  C3  UNL     1       6.211   0.269   0.338  1.00  0.00     0.126 C 
BRANCH  32  33
HETATM   33  N1  UNL     1       7.304   0.107   1.321  1.00  0.00    -0.352 N 
HETATM   34  C2  UNL     1       7.070   0.399   2.674  1.00  0.00     0.215 C 
HETATM   35  C1  UNL     1       5.754   0.983   3.074  1.00  0.00     0.117 C 
HETATM   36  O1  UNL     1       7.923   0.196   3.599  1.00  0.00    -0.274 OA
BRANCH  33  37
HETATM   37  C31 UNL     1       8.574  -0.285   0.824  1.00  0.00     0.136 C 
BRANCH  37  38
HETATM   38  C32 UNL     1       9.447   0.700   0.183  1.00  0.00     0.133 C 
BRANCH  38  39
HETATM   39  C33 UNL     1       9.939   1.875   0.841  1.00  0.00     0.174 C 
HETATM   40  O5  UNL     1       9.734   2.221   2.013  1.00  0.00    -0.648 OA
HETATM   41  O6  UNL     1      10.768   2.807   0.131  1.00  0.00    -0.648 OA
ENDBRANCH  38  39
ENDBRANCH  37  38
ENDBRANCH  33  37
ENDBRANCH  32  33
ENDBRANCH  31  32
ENDBRANCH  30  31
ENDBRANCH  29  30
BRANCH  29  42
HETATM   42  O2  UNL     1       3.795   1.343  -0.640  1.00  0.00    -0.370 OA
ATOM     43  H2  UNL     1       3.101   1.979  -0.511  1.00  0.00     0.212 HD
ENDBRANCH  29  42
ENDBRANCH  26  29
ENDBRANCH   1  26
BRANCH  10  44
HETATM   44  O4  UNL     1      -5.089   4.266   2.687  1.00  0.00    -0.396 OA
ATOM     45  H4  UNL     1      -5.811   4.632   3.184  1.00  0.00     0.210 HD
ENDBRANCH  10  44
TORSDOF 11
