REMARK  9 active torsions:
REMARK  status: ('A' for Active; 'I' for Inactive)
REMARK    1  A    between atoms: C2_2  and  C3_4 
REMARK    2  A    between atoms: C4_5  and  C5_6 
REMARK    3  A    between atoms: C12_16  and  O2_17 
REMARK    4  A    between atoms: O2_17  and  C13_18 
REMARK    5  A    between atoms: N3_20  and  C15_21 
REMARK    6  A    between atoms: C15_21  and  C17_23 
REMARK    7  A    between atoms: C17_23  and  O3_24 
REMARK    8  A    between atoms: C19_27  and  O4_28 
REMARK    9  A    between atoms: O4_28  and  C20_29 
ROOT
HETATM    1  C3  UNL     1      -1.685  -0.306   0.692  1.00  0.00     0.024 A 
HETATM    2  C4  UNL     1      -2.336  -0.594  -0.512  1.00  0.00     0.009 A 
HETATM    3  C10 UNL     1      -1.591  -0.713  -1.679  1.00  0.00     0.044 A 
HETATM    4  C11 UNL     1      -0.188  -0.551  -1.688  1.00  0.00     0.083 A 
HETATM    5  N2  UNL     1       0.575  -0.796  -2.852  1.00  0.00    -0.099 NA
HETATM    6  C12 UNL     1       0.432  -0.262  -0.514  1.00  0.00     0.127 A 
HETATM    7  C19 UNL     1      -0.341  -0.143   0.625  1.00  0.00     0.120 A 
ENDROOT
BRANCH   6   8
HETATM    8  O2  UNL     1       1.745  -0.091  -0.454  1.00  0.00    -0.338 OA
BRANCH   8   9
HETATM    9  C13 UNL     1       3.004  -0.451  -0.397  1.00  0.00     0.185 A 
HETATM   10  C14 UNL     1       3.954   0.734  -0.536  1.00  0.00     0.307 A 
HETATM   11  N3  UNL     1       4.614   0.453   0.708  1.00  0.00     0.100 N 
HETATM   12  C18 UNL     1       3.733  -0.614   0.952  1.00  0.00     0.307 A 
BRANCH  11  13
HETATM   13  C15 UNL     1       6.012   0.276   0.620  1.00  0.00     0.242 C 
HETATM   14  C16 UNL     1       6.479  -0.860  -0.271  1.00  0.00     0.045 C 
BRANCH  13  15
HETATM   15  C17 UNL     1       6.735   1.556   0.182  1.00  0.00     0.199 C 
BRANCH  15  16
HETATM   16  O3  UNL     1       8.116   1.312   0.085  1.00  0.00    -0.399 OA
ATOM     17  H3  UNL     1       8.564   2.105  -0.186  1.00  0.00     0.209 HD
ENDBRANCH  15  16
ENDBRANCH  13  15
ENDBRANCH  11  13
ENDBRANCH   8   9
ENDBRANCH   6   8
BRANCH   7  18
HETATM   18  O4  UNL     1       0.345   0.231   1.856  1.00  0.00    -0.286 OA
BRANCH  18  19
HETATM   19  C20 UNL     1       0.691   1.646   1.751  1.00  0.00     0.505 C 
HETATM   20  F2  UNL     1       1.565   2.084   2.665  1.00  0.00    -0.184 F 
HETATM   21  F3  UNL     1      -0.384   2.530   1.697  1.00  0.00    -0.184 F 
ENDBRANCH  18  19
ENDBRANCH   7  18
BRANCH   1  22
HETATM   22  C2  UNL     1      -2.504  -0.315   1.889  1.00  0.00     0.203 C 
HETATM   23  C1  UNL     1      -2.058  -1.605   2.716  1.00  0.00     0.050 C 
HETATM   24  F1  UNL     1      -2.083   0.651   2.863  1.00  0.00    -0.245 F 
ENDBRANCH   1  22
BRANCH   2  25
HETATM   25  C5  UNL     1      -3.776  -0.826  -0.564  1.00  0.00     0.074 C 
HETATM   26  C6  UNL     1      -4.327   0.414  -1.337  1.00  0.00     0.181 C 
HETATM   27  N1  UNL     1      -5.682   0.664  -1.082  1.00  0.00    -0.409 N 
HETATM   28  C7  UNL     1      -5.940   1.882  -0.354  1.00  0.00     0.143 C 
HETATM   29  C8  UNL     1      -6.452  -0.442  -0.631  1.00  0.00     0.143 C 
HETATM   30  C9  UNL     1      -5.826  -1.379   0.322  1.00  0.00     0.195 C 
HETATM   31  O1  UNL     1      -4.474  -1.299   0.437  1.00  0.00    -0.351 OA
ENDBRANCH   2  25
TORSDOF 9
