REMARK  10 active torsions:
REMARK  status: ('A' for Active; 'I' for Inactive)
REMARK    1  A    between atoms: O1_2  and  C2_3 
REMARK    2  A    between atoms: C3_6  and  N2_7 
REMARK    3  A    between atoms: C6_10  and  C7_11 
REMARK    4  A    between atoms: C7_11  and  O2_12 
REMARK    5  A    between atoms: C9_17  and  N4_18 
REMARK    6  A    between atoms: C11_20  and  C12_21 
REMARK    7  A    between atoms: C12_21  and  N5_22 
REMARK    8  A    between atoms: C17_30  and  C18_31 
REMARK    9  A    between atoms: C18_31  and  C19_33 
REMARK   10  A    between atoms: C19_33  and  C20_34 
ROOT
HETATM    1  C2  UNL     1       1.081   2.376  -0.948  1.00  0.00     0.170 A 
HETATM    2  N1  UNL     1       2.162   1.636  -0.893  1.00  0.00    -0.170 N 
ATOM      3  H1  UNL     1       3.027   2.036  -1.256  1.00  0.00     0.186 HD
HETATM    4  C3  UNL     1       2.215   0.389  -0.394  1.00  0.00     0.683 A 
HETATM    5  N3  UNL     1       1.055  -0.101   0.070  1.00  0.00    -0.176 N 
ATOM      6  H3  UNL     1       1.048  -1.045   0.456  1.00  0.00     0.186 HD
HETATM    7  C9  UNL     1      -0.133   0.610   0.051  1.00  0.00     0.132 A 
HETATM    8  C17 UNL     1      -0.126   1.872  -0.463  1.00  0.00     0.071 A 
ENDROOT
BRANCH   7   9
HETATM    9  N4  UNL     1      -1.293  -0.132   0.447  1.00  0.00    -0.365 N 
HETATM   10  C10 UNL     1      -2.284  -0.117   1.431  1.00  0.00     0.131 C 
HETATM   11  C11 UNL     1      -3.511  -0.697   0.704  1.00  0.00     0.038 C 
HETATM   12  C13 UNL     1      -2.906  -1.849  -0.014  1.00  0.00    -0.025 C 
HETATM   13  C14 UNL     1      -2.753  -3.109   0.815  1.00  0.00     0.017 C 
HETATM   14  C15 UNL     1      -3.657  -2.191  -1.322  1.00  0.00     0.017 C 
HETATM   15  C16 UNL     1      -1.587  -1.319  -0.429  1.00  0.00     0.133 C 
BRANCH  11  16
HETATM   16  C12 UNL     1      -4.523  -1.061   1.734  1.00  0.00     0.236 C 
BRANCH  16  17
HETATM   17  N5  UNL     1      -5.728  -1.634   1.165  1.00  0.00    -0.079 N 
ATOM     18  H53 UNL     1      -6.130  -1.013   0.462  1.00  0.00     0.274 HD
ATOM     19  H52 UNL     1      -5.506  -2.434   0.573  1.00  0.00     0.274 HD
ATOM     20  H51 UNL     1      -6.421  -1.883   1.871  1.00  0.00     0.274 HD
ENDBRANCH  16  17
ENDBRANCH  11  16
ENDBRANCH   7   9
BRANCH   8  21
HETATM   21  C18 UNL     1      -1.337   2.669  -0.618  1.00  0.00     0.216 C 
HETATM   22  F1  UNL     1      -1.363   3.456  -1.741  1.00  0.00    -0.244 F 
BRANCH  21  23
HETATM   23  C19 UNL     1      -1.676   3.493   0.593  1.00  0.00     0.113 C 
BRANCH  23  24
HETATM   24  C20 UNL     1      -2.953   4.252   0.352  1.00  0.00     0.356 C 
HETATM   25  F2  UNL     1      -3.226   5.092   1.448  1.00  0.00    -0.214 F 
HETATM   26  F3  UNL     1      -4.045   3.363   0.304  1.00  0.00    -0.214 F 
ENDBRANCH  23  24
ENDBRANCH  21  23
ENDBRANCH   8  21
BRANCH   4  27
HETATM   27  N2  UNL     1       3.388  -0.396  -0.365  1.00  0.00    -0.217 N 
HETATM   28  C4  UNL     1       4.642  -0.173  -1.041  1.00  0.00     0.141 C 
HETATM   29  C5  UNL     1       5.257  -1.557  -1.125  1.00  0.00     0.029 C 
HETATM   30  C6  UNL     1       4.802  -2.213   0.169  1.00  0.00     0.029 C 
HETATM   31  C8  UNL     1       3.459  -1.629   0.426  1.00  0.00     0.148 C 
BRANCH  30  32
HETATM   32  C7  UNL     1       5.797  -1.872   1.229  1.00  0.00     0.170 C 
BRANCH  32  33
HETATM   33  O2  UNL     1       7.061  -2.317   0.917  1.00  0.00    -0.400 OA
ATOM     34  H2  UNL     1       7.694  -2.100   1.591  1.00  0.00     0.209 HD
ENDBRANCH  32  33
ENDBRANCH  30  32
ENDBRANCH   4  27
BRANCH   1  35
HETATM   35  O1  UNL     1       1.030   3.665  -1.460  1.00  0.00    -0.340 OA
HETATM   36  C1  UNL     1       2.244   4.202  -1.939  1.00  0.00     0.211 C 
ENDBRANCH   1  35
TORSDOF 10
