REMARK  11 active torsions:
REMARK  status: ('A' for Active; 'I' for Inactive)
REMARK    1  A    between atoms: O1_2  and  C2_3 
REMARK    2  A    between atoms: C3_4  and  O2_5 
REMARK    3  A    between atoms: O2_5  and  C4_6 
REMARK    4  A    between atoms: C4_6  and  C5_7 
REMARK    5  A    between atoms: C5_7  and  O3_8 
REMARK    6  A    between atoms: C6_10  and  C7_11 
REMARK    7  A    between atoms: C10_16  and  O6_17 
REMARK    8  A    between atoms: C12_22  and  C13_23 
REMARK    9  A    between atoms: C14_25  and  O7_26 
REMARK   10  A    between atoms: O7_26  and  C15_27 
REMARK   11  A    between atoms: C15_27  and  C16_29 
ROOT
HETATM    1  C2  UNL     1      -2.308  -1.300  -0.027  1.00  0.00     0.191 C 
HETATM    2  C3  UNL     1      -2.141   0.249   0.043  1.00  0.00     0.168 C 
HETATM    3  C6  UNL     1      -0.688   0.557   0.247  1.00  0.00     0.129 C 
HETATM    4  C8  UNL     1       0.104   0.270  -1.012  1.00  0.00     0.064 C 
HETATM    5  C9  UNL     1      -0.790  -0.589  -1.920  1.00  0.00     0.059 C 
HETATM    6  C10 UNL     1      -1.356  -1.723  -1.135  1.00  0.00     0.157 C 
HETATM    7  C11 UNL     1      -0.227  -2.559  -0.620  1.00  0.00     0.305 C 
HETATM    8  F1  UNL     1      -0.457  -3.026   0.676  1.00  0.00    -0.197 F 
HETATM    9  F2  UNL     1      -0.150  -3.676  -1.434  1.00  0.00    -0.197 F 
HETATM   10  C12 UNL     1       1.095  -1.875  -0.598  1.00  0.00     0.052 C 
HETATM   11  C14 UNL     1       1.295  -0.584  -0.772  1.00  0.00     0.072 C 
ENDROOT
BRANCH  11  12
HETATM   12  O7  UNL     1       2.586  -0.093  -0.723  1.00  0.00    -0.282 OA
BRANCH  12  13
HETATM   13  C15 UNL     1       3.242   0.370   0.385  1.00  0.00     0.273 C 
HETATM   14  O8  UNL     1       2.635   0.353   1.462  1.00  0.00    -0.264 OA
BRANCH  13  15
HETATM   15  C16 UNL     1       4.633   0.892   0.382  1.00  0.00     0.063 A 
HETATM   16  C17 UNL     1       5.318   0.884  -0.970  1.00  0.00     0.027 C 
HETATM   17  C18 UNL     1       5.500   0.658   1.585  1.00  0.00     0.042 A 
HETATM   18  C19 UNL     1       5.006   2.039   1.267  1.00  0.00     0.101 A 
HETATM   19 CL1  UNL     1       6.287   3.165   0.738  1.00  0.00    -0.124 Cl
ENDBRANCH  13  15
ENDBRANCH  12  13
ENDBRANCH  11  12
BRANCH  10  20
HETATM   20  C13 UNL     1       2.306  -2.755  -0.372  1.00  0.00     0.265 C 
HETATM   21  F3  UNL     1       2.376  -3.717  -1.366  1.00  0.00    -0.251 F 
ENDBRANCH  10  20
BRANCH   3  22
HETATM   22  C7  UNL     1      -0.544   1.939   0.731  1.00  0.00     0.180 C 
HETATM   23  O4  UNL     1      -0.015   2.796  -0.050  1.00  0.00    -0.648 OA
HETATM   24  O5  UNL     1      -0.936   2.383   1.965  1.00  0.00    -0.648 OA
ENDBRANCH   3  22
BRANCH   2  25
HETATM   25  O2  UNL     1      -2.976   0.754   0.986  1.00  0.00    -0.380 OA
BRANCH  25  26
HETATM   26  C4  UNL     1      -4.050   1.472   0.510  1.00  0.00     0.194 C 
BRANCH  26  27
HETATM   27  C5  UNL     1      -3.702   2.699  -0.283  1.00  0.00     0.190 C 
BRANCH  27  28
HETATM   28  O3  UNL     1      -4.908   3.308  -0.701  1.00  0.00    -0.399 OA
ATOM     29  H3  UNL     1      -4.688   4.084  -1.203  1.00  0.00     0.209 HD
ENDBRANCH  27  28
ENDBRANCH  26  27
ENDBRANCH  25  26
ENDBRANCH   2  25
BRANCH   6  30
HETATM   30  O6  UNL     1      -2.167  -2.455  -2.039  1.00  0.00    -0.380 OA
ATOM     31  H6  UNL     1      -1.572  -2.719  -2.731  1.00  0.00     0.211 HD
ENDBRANCH   6  30
BRANCH   1  32
HETATM   32  O1  UNL     1      -3.630  -1.531  -0.316  1.00  0.00    -0.385 OA
HETATM   33  C1  UNL     1      -4.301  -2.205   0.703  1.00  0.00     0.202 C 
ENDBRANCH   1  32
TORSDOF 11
