REMARK  5 active torsions:
REMARK  status: ('A' for Active; 'I' for Inactive)
REMARK    1  A    between atoms: C5_5  and  N1_6 
REMARK    2  A    between atoms: C9_10  and  C10_11 
REMARK    3  A    between atoms: C10_11  and  N2_12 
REMARK    4  A    between atoms: N2_12  and  S1_14 
REMARK    5  A    between atoms: S1_14  and  O3_17 
ROOT
HETATM    1  C1  UNL     1      -2.256   4.071   1.021  1.00  0.00     0.019 C 
HETATM    2  C2  UNL     1      -1.940   2.779   1.220  1.00  0.00    -0.063 C 
HETATM    3  C3  UNL     1      -0.779   2.535   1.982  1.00  0.00     0.005 C 
HETATM    4  C4  UNL     1       0.487   2.194   1.852  1.00  0.00     0.009 C 
HETATM    5  C5  UNL     1       1.289   1.899   0.641  1.00  0.00     0.245 C 
HETATM    6  C8  UNL     1       1.648   0.459   0.443  1.00  0.00     0.046 C 
HETATM    7  C9  UNL     1       1.671  -0.113  -0.897  1.00  0.00     0.010 C 
HETATM    8  C12 UNL     1       0.553  -0.961  -1.427  1.00  0.00     0.041 C 
HETATM    9  C13 UNL     1      -0.354  -1.561  -0.477  1.00  0.00    -0.073 C 
HETATM   10  C14 UNL     1      -0.749  -3.038  -0.605  1.00  0.00     0.038 C 
HETATM   11  C15 UNL     1      -1.250  -3.135   0.870  1.00  0.00     0.047 C 
HETATM   12  C16 UNL     1      -2.269  -2.019   0.809  1.00  0.00     0.082 C 
HETATM   13  C17 UNL     1      -3.507  -2.697   0.400  1.00  0.00     0.051 C 
HETATM   14  O4  UNL     1      -2.619  -1.430   2.013  1.00  0.00    -0.376 OA
HETATM   15  C18 UNL     1      -2.962  -0.113   1.916  1.00  0.00     0.175 C 
HETATM   16  C19 UNL     1      -3.189   0.554   0.626  1.00  0.00     0.030 C 
HETATM   17  C20 UNL     1      -2.993   1.975   0.607  1.00  0.00     0.025 C 
HETATM   18  C21 UNL     1      -2.939   2.264  -0.859  1.00  0.00     0.011 C 
HETATM   19  C22 UNL     1      -2.062   1.139  -1.335  1.00  0.00     0.015 C 
HETATM   20  C23 UNL     1      -2.508  -0.071  -0.616  1.00  0.00    -0.011 C 
HETATM   21  C24 UNL     1      -3.507  -0.689  -1.577  1.00  0.00     0.021 C 
HETATM   22  C25 UNL     1      -1.572  -0.981   0.020  1.00  0.00    -0.035 C 
ENDROOT
BRANCH   7  23
HETATM   23  C10 UNL     1       2.973  -0.921  -1.030  1.00  0.00     0.139 C 
BRANCH  23  24
HETATM   24  N2  UNL     1       3.121  -1.540  -2.307  1.00  0.00    -0.297 N 
ATOM     25  H2  UNL     1       2.465  -1.488  -3.087  1.00  0.00     0.174 HD
BRANCH  24  26
HETATM   26  S1  UNL     1       4.627  -2.397  -2.281  1.00  0.00     0.357 S 
HETATM   27  O1  UNL     1       5.569  -1.651  -1.348  1.00  0.00    -0.176 OA
HETATM   28  O2  UNL     1       5.204  -2.454  -3.666  1.00  0.00    -0.176 OA
BRANCH  26  29
HETATM   29  O3  UNL     1       4.354  -3.939  -1.734  1.00  0.00    -0.265 OA
HETATM   30  C11 UNL     1       4.898  -4.189  -0.492  1.00  0.00     0.227 C 
ENDBRANCH  26  29
ENDBRANCH  24  26
ENDBRANCH  23  24
ENDBRANCH   7  23
BRANCH   5  31
HETATM   31  N1  UNL     1       2.446   2.781   0.556  1.00  0.00     0.088 N 
HETATM   32  C6  UNL     1       2.011   4.159   0.425  1.00  0.00     0.310 C 
HETATM   33  C7  UNL     1       3.396   2.595   1.602  1.00  0.00     0.310 C 
ENDBRANCH   5  31
TORSDOF 5
