REMARK  4 active torsions:
REMARK  status: ('A' for Active; 'I' for Inactive)
REMARK    1  A    between atoms: N1_2  and  C3_4 
REMARK    2  A    between atoms: C6_7  and  N2_8 
REMARK    3  A    between atoms: C7_9  and  O1_10 
REMARK    4  A    between atoms: C10_14  and  O2_15 
ROOT
HETATM    1  N2  UNL     1      -0.029   0.337  -0.377  1.00  0.00    -0.303 N 
HETATM    2  C7  UNL     1      -0.809   1.276  -0.938  1.00  0.00     0.152 A 
HETATM    3  C8  UNL     1      -2.106   0.842  -0.972  1.00  0.00     0.009 A 
HETATM    4  C9  UNL     1      -2.117  -0.420  -0.407  1.00  0.00     0.009 A 
HETATM    5  C10 UNL     1      -0.821  -0.711  -0.047  1.00  0.00     0.152 A 
HETATM    6  C11 UNL     1      -3.448  -1.080  -0.347  1.00  0.00     0.032 C 
HETATM    7  C12 UNL     1      -3.968  -1.056  -1.787  1.00  0.00     0.016 C 
HETATM    8  C13 UNL     1      -4.332   0.374  -2.015  1.00  0.00     0.001 A 
HETATM    9  C14 UNL     1      -3.412   1.372  -1.442  1.00  0.00     0.033 A 
HETATM   10  C15 UNL     1      -4.565   0.994  -0.637  1.00  0.00     0.008 A 
HETATM   11  C16 UNL     1      -4.400  -0.135   0.325  1.00  0.00    -0.035 C 
HETATM   12  C17 UNL     1      -5.778  -0.764   0.512  1.00  0.00     0.016 C 
HETATM   13  C18 UNL     1      -3.945   0.354   1.668  1.00  0.00     0.016 C 
ENDROOT
BRANCH   1  14
HETATM   14  C6  UNL     1       1.407   0.404  -0.156  1.00  0.00     0.094 C 
HETATM   15  C5  UNL     1       2.128  -0.695  -0.911  1.00  0.00     0.028 C 
HETATM   16  C4  UNL     1       3.532  -0.843  -0.408  1.00  0.00     0.038 C 
HETATM   17  C3  UNL     1       3.993   0.419   0.267  1.00  0.00     0.222 C 
HETATM   18  C20 UNL     1       3.187   0.780   1.467  1.00  0.00     0.038 C 
HETATM   19  C19 UNL     1       1.726   0.364   1.307  1.00  0.00     0.028 C 
BRANCH  17  20
HETATM   20  N1  UNL     1       5.381   0.359   0.598  1.00  0.00     0.084 N 
HETATM   21  C1  UNL     1       5.718  -0.685   1.545  1.00  0.00     0.309 C 
HETATM   22  C2  UNL     1       6.228   0.183  -0.569  1.00  0.00     0.309 C 
ENDBRANCH  17  20
ENDBRANCH   1  14
BRANCH   2  23
HETATM   23  O1  UNL     1      -0.384   2.528  -1.424  1.00  0.00    -0.345 OA
ATOM     24  H1  UNL     1      -0.936   3.192  -1.821  1.00  0.00     0.219 HD
ENDBRANCH   2  23
BRANCH   5  25
HETATM   25  O2  UNL     1      -0.434  -1.900   0.557  1.00  0.00    -0.345 OA
ATOM     26  H2  UNL     1      -0.990  -2.635   0.788  1.00  0.00     0.219 HD
ENDBRANCH   5  25
TORSDOF 4
