REMARK  5 active torsions:
REMARK  status: ('A' for Active; 'I' for Inactive)
REMARK    1  A    between atoms: C2_2  and  N1_3 
REMARK    2  A    between atoms: C2_2  and  C6_8 
REMARK    3  A    between atoms: N1_3  and  C3_5 
REMARK    4  A    between atoms: C9_11  and  O1_12 
REMARK    5  A    between atoms: C11_15  and  O2_16 
ROOT
HETATM    1  C6  UNL     1       0.432  -0.113  -0.252  1.00  0.00     0.036 C 
HETATM    2  C7  UNL     1       0.817   0.342   1.123  1.00  0.00     0.011 C 
HETATM    3  C8  UNL     1       1.955   1.333   0.947  1.00  0.00     0.032 C 
HETATM    4  C9  UNL     1       3.081   0.809   0.142  1.00  0.00     0.120 C 
HETATM    5  C10 UNL     1       2.913  -0.562  -0.407  1.00  0.00     0.063 C 
HETATM    6  C11 UNL     1       1.559  -0.995  -0.761  1.00  0.00     0.126 C 
ENDROOT
BRANCH   1   7
HETATM    7  C2  UNL     1      -0.891  -0.835  -0.302  1.00  0.00     0.079 C 
HETATM    8  C1  UNL     1      -1.192  -1.250  -1.724  1.00  0.00     0.032 C 
BRANCH   7   9
HETATM    9  N1  UNL     1      -1.931  -0.292   0.432  1.00  0.00    -0.413 N 
ATOM     10  H1  UNL     1      -2.217  -0.809   1.263  1.00  0.00     0.154 HD
BRANCH   9  11
HETATM   11  C3  UNL     1      -2.621   0.865   0.167  1.00  0.00     0.077 A 
HETATM   12  C4  UNL     1      -3.460   1.242  -0.967  1.00  0.00     0.027 A 
HETATM   13  C5  UNL     1      -4.169   0.701   0.205  1.00  0.00     0.027 A 
ENDBRANCH   9  11
ENDBRANCH   7   9
ENDBRANCH   1   7
BRANCH   6  14
HETATM   14  O2  UNL     1       1.286  -2.277  -0.254  1.00  0.00    -0.395 OA
ATOM     15  H2  UNL     1       1.991  -2.829  -0.572  1.00  0.00     0.210 HD
ENDBRANCH   6  14
BRANCH   4  16
HETATM   16  O1  UNL     1       4.233   0.866   0.957  1.00  0.00    -0.395 OA
ATOM     17  H1  UNL     1       4.956   0.530   0.440  1.00  0.00     0.210 HD
ENDBRANCH   4  16
TORSDOF 5
