REMARK  7 active torsions:
REMARK  status: ('A' for Active; 'I' for Inactive)
REMARK    1  A    between atoms: C4_4  and  C5_5 
REMARK       I    between atoms: C5_5  and  N1_7 
REMARK    2  A    between atoms: N1_7  and  N2_9 
REMARK    3  A    between atoms: N2_9  and  C6_11 
REMARK    4  A    between atoms: C6_11  and  N3_12 
REMARK    5  A    between atoms: C6_11  and  C9_19 
REMARK    6  A    between atoms: N3_12  and  C7_14 
REMARK    7  A    between atoms: C7_14  and  C8_16 
ROOT
HETATM    1  C1  UNL     1       6.701   0.569   1.595  1.00  0.00     0.113 C 
HETATM    2  C2  UNL     1       5.710   0.408   0.900  1.00  0.00    -0.097 C 
HETATM    3  C3  UNL     1       4.548   0.214   0.119  1.00  0.00    -0.018 C 
HETATM    4  C4  UNL     1       3.538   0.052  -0.541  1.00  0.00     0.009 C 
ENDROOT
BRANCH   4   5
HETATM    5  C5  UNL     1       2.321  -0.155  -1.308  1.00  0.00     0.315 C 
HETATM    6  O1  UNL     1       2.397  -0.847  -2.360  1.00  0.00    -0.256 OA
HETATM    7  N1  UNL     1       1.122   0.437  -0.825  1.00  0.00    -0.261 N 
ATOM      8  H1  UNL     1       1.133   0.983   0.036  1.00  0.00     0.190 HD
BRANCH   7   9
HETATM    9  N2  UNL     1      -0.049   0.272  -1.520  1.00  0.00    -0.300 N 
ATOM     10  H2  UNL     1      -0.110   0.488  -2.515  1.00  0.00     0.183 HD
BRANCH   9  11
HETATM   11  C6  UNL     1      -1.182  -0.215  -0.793  1.00  0.00     0.301 C 
BRANCH  11  12
HETATM   12  N3  UNL     1      -1.487   0.551   0.367  1.00  0.00    -0.345 N 
ATOM     13  H3  UNL     1      -0.688   0.887   0.905  1.00  0.00     0.163 HD
BRANCH  12  14
HETATM   14  C7  UNL     1      -2.735   0.895   0.854  1.00  0.00     0.176 C 
HETATM   15  S1  UNL     1      -2.768   1.759   2.292  1.00  0.00    -0.053 SA
BRANCH  14  16
HETATM   16  C8  UNL     1      -4.011   0.600   0.294  1.00  0.00     0.238 C 
HETATM   17  O2  UNL     1      -4.225  -0.027  -0.761  1.00  0.00    -0.642 OA
HETATM   18  O3  UNL     1      -5.218   1.024   0.937  1.00  0.00    -0.642 OA
ENDBRANCH  14  16
ENDBRANCH  12  14
ENDBRANCH  11  12
BRANCH  11  19
HETATM   19  C9  UNL     1      -1.184  -1.688  -0.597  1.00  0.00     0.218 C 
HETATM   20  O4  UNL     1      -0.281  -2.441  -1.109  1.00  0.00    -0.645 OA
HETATM   21  O5  UNL     1      -2.137  -2.352   0.141  1.00  0.00    -0.645 OA
ENDBRANCH  11  19
ENDBRANCH   9  11
ENDBRANCH   7   9
ENDBRANCH   4   5
TORSDOF 7
