REMARK  12 active torsions:
REMARK  status: ('A' for Active; 'I' for Inactive)
REMARK    1  A    between atoms: C2_2  and  N1_3 
REMARK    2  A    between atoms: N1_3  and  C3_5 
REMARK    3  A    between atoms: C6_13  and  N4_14 
REMARK       I    between atoms: N4_14  and  C7_16 
REMARK    4  A    between atoms: C7_16  and  C8_18 
REMARK    5  A    between atoms: C9_23  and  O4_24 
REMARK    6  A    between atoms: O4_24  and  C10_25 
REMARK    7  A    between atoms: C13_28  and  O5_29 
REMARK    8  A    between atoms: C15_32  and  O6_33 
REMARK    9  A    between atoms: O6_33  and  C16_34 
REMARK   10  A    between atoms: C16_34  and  C17_35 
REMARK       I    between atoms: C17_35  and  N6_37 
REMARK   11  A    between atoms: N6_37  and  N7_39 
REMARK       I    between atoms: N7_39  and  C18_41 
REMARK   12  A    between atoms: C18_41  and  C19_43 
ROOT
HETATM    1  C10 UNL     1      -0.619   0.577  -2.396  1.00  0.00     0.111 A 
HETATM    2  C11 UNL     1      -1.641   0.784  -3.287  1.00  0.00     0.043 A 
HETATM    3  C12 UNL     1      -1.417   1.034  -4.639  1.00  0.00     0.039 A 
HETATM    4  C13 UNL     1      -0.147   1.081  -5.129  1.00  0.00     0.068 A 
HETATM    5  C14 UNL     1       0.880   0.869  -4.218  1.00  0.00     0.076 A 
HETATM    6  C15 UNL     1       0.704   0.623  -2.893  1.00  0.00     0.105 A 
ENDROOT
BRANCH   1   7
HETATM    7  O4  UNL     1      -0.814   0.330  -1.051  1.00  0.00    -0.287 OA
BRANCH   7   8
HETATM    8  C9  UNL     1      -1.991   0.255  -0.386  1.00  0.00     0.194 C 
HETATM    9  C3  UNL     1      -2.392   1.443   0.219  1.00  0.00     0.155 C 
HETATM   10  N2  UNL     1      -3.621   1.742   0.746  1.00  0.00    -0.326 N 
HETATM   11  C4  UNL     1      -4.580   0.868   1.097  1.00  0.00     0.103 C 
ATOM     12  H2  UNL     1      -3.830   2.730   0.887  1.00  0.00     0.169 HD
HETATM   13  N3  UNL     1      -5.720   1.371   1.408  1.00  0.00    -0.385 N 
HETATM   14  C5  UNL     1      -4.479  -0.529   1.164  1.00  0.00     0.096 C 
ATOM     15  H32 UNL     1      -5.793   2.387   1.359  1.00  0.00     0.157 HD
ATOM     16  H31 UNL     1      -6.448   0.708   1.674  1.00  0.00     0.157 HD
HETATM   17  C6  UNL     1      -3.490  -1.348   0.668  1.00  0.00     0.113 C 
HETATM   18  N5  UNL     1      -2.668  -0.943  -0.362  1.00  0.00    -0.320 N 
ATOM     19  H5  UNL     1      -2.554  -1.572  -1.157  1.00  0.00     0.169 HD
BRANCH   9  20
HETATM   20  N1  UNL     1      -1.483   2.317   0.276  1.00  0.00    -0.373 N 
ATOM     21  H1  UNL     1      -0.589   2.041  -0.130  1.00  0.00     0.161 HD
BRANCH  20  22
HETATM   22  C2  UNL     1      -1.520   3.630   0.823  1.00  0.00     0.117 C 
HETATM   23  C1  UNL     1      -0.165   3.829   1.530  1.00  0.00     0.026 C 
ENDBRANCH  20  22
ENDBRANCH   9  20
BRANCH  17  24
HETATM   24  N4  UNL     1      -3.284  -2.617   1.259  1.00  0.00    -0.304 N 
HETATM   25  C7  UNL     1      -2.403  -3.583   0.825  1.00  0.00     0.323 C 
HETATM   26  O1  UNL     1      -1.687  -3.504  -0.229  1.00  0.00    -0.260 OA
ATOM     27  H4  UNL     1      -3.841  -2.837   2.085  1.00  0.00     0.171 HD
BRANCH  25  28
HETATM   28  C8  UNL     1      -2.215  -4.831   1.583  1.00  0.00     0.270 C 
HETATM   29  O2  UNL     1      -2.806  -4.925   2.694  1.00  0.00    -0.640 OA
HETATM   30  O3  UNL     1      -1.447  -5.877   1.144  1.00  0.00    -0.640 OA
ENDBRANCH  25  28
ENDBRANCH  17  24
ENDBRANCH   7   8
ENDBRANCH   1   7
BRANCH   6  31
HETATM   31  O6  UNL     1       1.700   0.409  -1.958  1.00  0.00    -0.339 OA
BRANCH  31  32
HETATM   32  C16 UNL     1       3.056   0.432  -2.302  1.00  0.00     0.280 C 
BRANCH  32  33
HETATM   33  C17 UNL     1       3.917   0.173  -1.106  1.00  0.00     0.260 C 
HETATM   34  O7  UNL     1       5.153   0.192  -1.248  1.00  0.00    -0.269 OA
HETATM   35  N6  UNL     1       3.315  -0.082   0.129  1.00  0.00    -0.265 N 
ATOM     36  H6  UNL     1       2.297  -0.090   0.192  1.00  0.00     0.190 HD
BRANCH  35  37
HETATM   37  N7  UNL     1       4.064  -0.324   1.271  1.00  0.00    -0.261 N 
HETATM   38  C18 UNL     1       3.838  -1.468   2.063  1.00  0.00     0.306 C 
HETATM   39  O8  UNL     1       2.958  -2.286   1.733  1.00  0.00    -0.262 OA
ATOM     40  H7  UNL     1       4.791   0.338   1.543  1.00  0.00     0.190 HD
BRANCH  38  41
HETATM   41  C19 UNL     1       4.621  -1.696   3.257  1.00  0.00     0.208 A 
HETATM   42  N8  UNL     1       4.519  -2.749   4.088  1.00  0.00    -0.264 N 
HETATM   43  N9  UNL     1       5.399  -2.570   5.049  1.00  0.00    -0.226 N 
ATOM     44  H8  UNL     1       3.880  -3.538   3.991  1.00  0.00     0.190 HD
HETATM   45  N10 UNL     1       6.072  -1.448   4.885  1.00  0.00    -0.226 N 
ATOM     46  H9  UNL     1       5.543  -3.218   5.824  1.00  0.00     0.210 HD
HETATM   47  N11 UNL     1       5.597  -0.905   3.782  1.00  0.00    -0.264 N 
ATOM     48  H10 UNL     1       6.807  -1.077   5.487  1.00  0.00     0.210 HD
ATOM     49  H11 UNL     1       5.914  -0.022   3.381  1.00  0.00     0.190 HD
ENDBRANCH  38  41
ENDBRANCH  35  37
ENDBRANCH  32  33
ENDBRANCH  31  32
ENDBRANCH   6  31
BRANCH   4  50
HETATM   50  O5  UNL     1       0.177   1.324  -6.449  1.00  0.00    -0.361 OA
ATOM     51  H5  UNL     1       1.063   1.357  -6.791  1.00  0.00     0.217 HD
ENDBRANCH   4  50
TORSDOF 12
