REMARK  9 active torsions:
REMARK  status: ('A' for Active; 'I' for Inactive)
REMARK    1  A    between atoms: O1_2  and  C2_3 
REMARK    2  A    between atoms: C2_3  and  C3_5 
REMARK    3  A    between atoms: C5_7  and  C6_8 
REMARK    4  A    between atoms: C6_8  and  C7_9 
REMARK    5  A    between atoms: C8_10  and  C10_12 
REMARK       I    between atoms: C10_12  and  N1_14 
REMARK    6  A    between atoms: C11_16  and  C12_17 
REMARK    7  A    between atoms: C14_20  and  O4_22 
REMARK    8  A    between atoms: C17_26  and  O6_27 
REMARK    9  A    between atoms: O6_27  and  C18_28 
ROOT
HETATM    1  C3  UNL     1      -0.492   1.648   0.293  1.00  0.00     0.091 C 
HETATM    2  C4  UNL     1       0.505   0.534   0.653  1.00  0.00     0.025 C 
HETATM    3  C5  UNL     1      -0.032  -0.172  -0.590  1.00  0.00    -0.028 C 
HETATM    4  C13 UNL     1       0.057  -1.628  -0.498  1.00  0.00     0.055 C 
HETATM    5  C14 UNL     1      -0.898  -2.472  -1.262  1.00  0.00     0.118 C 
HETATM    6  C15 UNL     1      -0.774  -2.548  -2.723  1.00  0.00     0.054 C 
HETATM    7  C16 UNL     1      -2.271  -2.105  -0.860  1.00  0.00     0.190 C 
HETATM    8  O5  UNL     1      -3.133  -2.318  -1.657  1.00  0.00    -0.292 OA
HETATM    9  C17 UNL     1      -2.603  -1.506   0.444  1.00  0.00     0.208 C 
HETATM   10  C20 UNL     1      -2.339  -0.043   0.513  1.00  0.00     0.024 C 
HETATM   11  C21 UNL     1      -3.719   0.596   0.248  1.00  0.00     0.013 C 
HETATM   12  C22 UNL     1      -1.296   0.536  -0.325  1.00  0.00     0.014 C 
ENDROOT
BRANCH   3  13
HETATM   13  C6  UNL     1       0.749   0.324  -1.794  1.00  0.00     0.038 C 
BRANCH  13  14
HETATM   14  C7  UNL     1       2.192   0.039  -1.622  1.00  0.00    -0.014 C 
HETATM   15  C8  UNL     1       3.119   0.987  -1.637  1.00  0.00     0.002 C 
HETATM   16  C9  UNL     1       2.766   2.405  -1.830  1.00  0.00     0.054 C 
BRANCH  15  17
HETATM   17  C10 UNL     1       4.508   0.616  -1.458  1.00  0.00     0.250 C 
HETATM   18  O3  UNL     1       4.849  -0.609  -1.287  1.00  0.00    -0.268 OA
HETATM   19  N1  UNL     1       5.502   1.640  -1.476  1.00  0.00    -0.336 N 
HETATM   20  C11 UNL     1       6.378   1.779  -0.546  1.00  0.00     0.075 C 
ATOM     21  H1  UNL     1       5.518   2.290  -2.262  1.00  0.00     0.168 HD
BRANCH  20  22
HETATM   22  C12 UNL     1       6.415   0.879   0.613  1.00  0.00     0.129 C 
HETATM   23 BR1  UNL     1       7.673  -0.554   0.275  1.00  0.00    -0.091 Br
ENDBRANCH  20  22
ENDBRANCH  15  17
ENDBRANCH  13  14
ENDBRANCH   3  13
BRANCH   1  24
HETATM   24  C2  UNL     1      -0.941   2.404   1.428  1.00  0.00     0.263 C 
HETATM   25  O2  UNL     1      -2.111   2.634   1.760  1.00  0.00    -0.265 OA
BRANCH  24  26
HETATM   26  O1  UNL     1       0.038   2.962   2.280  1.00  0.00    -0.326 OA
HETATM   27  C1  UNL     1      -0.329   3.721   3.417  1.00  0.00     0.213 C 
ENDBRANCH  24  26
ENDBRANCH   1  24
BRANCH   5  28
HETATM   28  O4  UNL     1      -0.722  -3.792  -0.763  1.00  0.00    -0.382 OA
ATOM     29  H4  UNL     1      -1.333  -4.332  -1.251  1.00  0.00     0.211 HD
ENDBRANCH   5  28
BRANCH   9  30
HETATM   30  O6  UNL     1      -3.954  -1.836   0.717  1.00  0.00    -0.308 OA
BRANCH  30  31
HETATM   31  C18 UNL     1      -4.270  -2.631   1.803  1.00  0.00     0.255 C 
HETATM   32  C19 UNL     1      -5.686  -2.979   2.091  1.00  0.00     0.126 C 
HETATM   33  O7  UNL     1      -3.350  -3.059   2.547  1.00  0.00    -0.266 OA
ENDBRANCH  30  31
ENDBRANCH   9  30
TORSDOF 9
