REMARK  6 active torsions:
REMARK  status: ('A' for Active; 'I' for Inactive)
REMARK    1  A    between atoms: C2_2  and  N1_3 
REMARK    2  A    between atoms: C2_2  and  C14_26 
REMARK       I    between atoms: N1_3  and  C3_5 
REMARK    3  A    between atoms: C3_5  and  C4_7 
REMARK    4  A    between atoms: C4_7  and  C9_13 
REMARK    5  A    between atoms: N2_16  and  S1_17 
REMARK    6  A    between atoms: C13_21  and  S2_22 
ROOT
HETATM    1  C4  UNL     1       1.700   1.928  -0.110  1.00  0.00     0.049 C 
HETATM    2  C5  UNL     1       2.265   3.100   0.054  1.00  0.00    -0.038 C 
HETATM    3  C6  UNL     1       2.009   4.132   1.046  1.00  0.00     0.063 C 
HETATM    4  C7  UNL     1       2.926   5.289   0.649  1.00  0.00     0.172 C 
HETATM    5  O2  UNL     1       3.922   4.673  -0.076  1.00  0.00    -0.387 OA
HETATM    6  C8  UNL     1       3.349   3.629  -0.805  1.00  0.00     0.203 C 
ENDROOT
BRANCH   1   7
HETATM    7  C3  UNL     1       0.649   1.565   0.825  1.00  0.00     0.253 C 
HETATM    8  N1  UNL     1      -0.093   0.334   0.753  1.00  0.00    -0.352 N 
ATOM      9  H1  UNL     1       0.112  -0.335   0.010  1.00  0.00     0.163 HD
HETATM   10  O1  UNL     1       0.356   2.356   1.757  1.00  0.00    -0.268 OA
BRANCH   8  11
HETATM   11  C2  UNL     1      -1.125   0.033   1.720  1.00  0.00     0.085 C 
HETATM   12  C1  UNL     1      -0.688  -1.118   2.537  1.00  0.00     0.032 C 
BRANCH  11  13
HETATM   13  C14 UNL     1      -2.405   0.017   1.058  1.00  0.00     0.017 C 
HETATM   14  C15 UNL     1      -3.658  -0.119   1.880  1.00  0.00    -0.007 C 
HETATM   15  C16 UNL     1      -4.660   0.266   0.772  1.00  0.00     0.005 C 
HETATM   16  C22 UNL     1      -3.864  -1.603   2.061  1.00  0.00     0.015 C 
HETATM   17  C17 UNL     1      -4.040  -0.355  -0.483  1.00  0.00     0.006 C 
HETATM   18  C18 UNL     1      -2.740  -1.010   0.036  1.00  0.00     0.000 C 
HETATM   19  C19 UNL     1      -3.212  -2.179   0.843  1.00  0.00    -0.036 A 
HETATM   20  C20 UNL     1      -2.883  -3.560   0.636  1.00  0.00     0.011 A 
HETATM   21  C21 UNL     1      -4.140  -3.114   0.015  1.00  0.00     0.011 A 
ENDBRANCH  11  13
ENDBRANCH   8  11
ENDBRANCH   1   7
BRANCH   1  22
HETATM   22  C9  UNL     1       2.088   1.054  -1.212  1.00  0.00     0.023 A 
HETATM   23  C10 UNL     1       1.885   1.421  -2.527  1.00  0.00     0.034 A 
HETATM   24  C11 UNL     1       2.409   0.445  -3.347  1.00  0.00     0.111 A 
HETATM   25  N2  UNL     1       2.939  -0.530  -2.532  1.00  0.00    -0.237 N 
HETATM   26  C13 UNL     1       2.738  -0.149  -1.245  1.00  0.00     0.187 A 
BRANCH  25  27
HETATM   27  S1  UNL     1       3.723  -1.957  -3.109  1.00  0.00     0.233 S 
HETATM   28  C12 UNL     1       2.859  -3.402  -2.539  1.00  0.00     0.186 C 
HETATM   29  O3  UNL     1       5.141  -2.056  -2.654  1.00  0.00    -0.206 OA
HETATM   30  O4  UNL     1       3.667  -1.992  -4.630  1.00  0.00    -0.206 OA
ENDBRANCH  25  27
BRANCH  26  31
HETATM   31  S2  UNL     1       3.205  -1.021   0.180  1.00  0.00     0.350 S 
HETATM   32  O5  UNL     1       4.570  -1.599   0.000  1.00  0.00    -0.187 OA
HETATM   33  O6  UNL     1       3.370  -0.081   1.366  1.00  0.00    -0.187 OA
HETATM   34  F1  UNL     1       2.188  -2.282   0.576  1.00  0.00    -0.099 F 
ENDBRANCH  26  31
ENDBRANCH   1  22
TORSDOF 6
