REMARK  8 active torsions:
REMARK  status: ('A' for Active; 'I' for Inactive)
REMARK    1  A    between atoms: C1_2  and  C2_3 
REMARK    2  A    between atoms: C2_3  and  N1_4 
REMARK    3  A    between atoms: N1_4  and  C3_5 
REMARK    4  A    between atoms: N1_4  and  C5_8 
REMARK    5  A    between atoms: C3_5  and  C4_6 
REMARK    6  A    between atoms: C5_8  and  N2_9 
REMARK    7  A    between atoms: C5_8  and  C20_27 
REMARK    8  A    between atoms: C8_12  and  C9_13 
ROOT
HETATM    1  N2  UNL     1       1.069  -0.457  -0.235  1.00  0.00    -0.357 N 
HETATM    2  C6  UNL     1       0.413   0.300   0.767  1.00  0.00     0.125 C 
HETATM    3  C7  UNL     1      -0.888  -0.354   1.273  1.00  0.00     0.025 C 
HETATM    4  C8  UNL     1      -1.807  -0.383   0.104  1.00  0.00    -0.006 C 
HETATM    5  C14 UNL     1      -1.164   0.229  -1.060  1.00  0.00     0.036 C 
HETATM    6  C15 UNL     1       0.236  -0.372  -1.378  1.00  0.00     0.034 C 
HETATM    7  C16 UNL     1      -0.197  -1.678  -2.005  1.00  0.00     0.031 C 
HETATM    8  C17 UNL     1      -0.390  -1.398  -3.485  1.00  0.00     0.002 C 
HETATM    9  C18 UNL     1       0.100  -0.031  -3.783  1.00  0.00     0.002 C 
HETATM   10  C19 UNL     1       0.657   0.542  -2.490  1.00  0.00     0.031 C 
ENDROOT
BRANCH   1  11
HETATM   11  C5  UNL     1       2.470  -0.418  -0.303  1.00  0.00     0.141 C 
BRANCH  11  12
HETATM   12  N1  UNL     1       3.141   0.102   0.906  1.00  0.00    -0.324 N 
BRANCH  12  13
HETATM   13  C2  UNL     1       3.470   1.458   0.825  1.00  0.00     0.085 C 
BRANCH  13  14
HETATM   14  C1  UNL     1       4.768   2.045   1.085  1.00  0.00     0.159 C 
HETATM   15 CL1  UNL     1       4.543   3.841   0.800  1.00  0.00    -0.125 Cl
ENDBRANCH  13  14
ENDBRANCH  12  13
BRANCH  12  16
HETATM   16  C3  UNL     1       3.135  -0.592   2.088  1.00  0.00     0.085 C 
BRANCH  16  17
HETATM   17  C4  UNL     1       4.450  -0.876   2.820  1.00  0.00     0.159 C 
HETATM   18 CL2  UNL     1       4.072  -1.829   4.321  1.00  0.00    -0.125 Cl
ENDBRANCH  16  17
ENDBRANCH  12  16
ENDBRANCH  11  12
BRANCH  11  19
HETATM   19  C20 UNL     1       3.281  -1.532  -0.769  1.00  0.00     0.247 C 
HETATM   20 CL3  UNL     1       3.441  -2.950   0.276  1.00  0.00    -0.075 Cl
HETATM   21 CL4  UNL     1       5.033  -0.948  -0.790  1.00  0.00    -0.075 Cl
HETATM   22 CL5  UNL     1       3.293  -1.952  -2.502  1.00  0.00    -0.075 Cl
ENDBRANCH  11  19
ENDBRANCH   1  11
BRANCH   4  23
HETATM   23  C9  UNL     1      -3.103   0.287   0.481  1.00  0.00    -0.007 C 
HETATM   24  C10 UNL     1      -3.749  -0.506   1.597  1.00  0.00     0.032 C 
HETATM   25  C11 UNL     1      -4.923   0.228   2.176  1.00  0.00     0.232 C 
HETATM   26  N3  UNL     1      -5.283   1.314   1.304  1.00  0.00    -0.075 N 
HETATM   27  C12 UNL     1      -5.395   0.899  -0.072  1.00  0.00     0.232 C 
ATOM     28  H32 UNL     1      -6.137   1.772   1.621  1.00  0.00     0.277 HD
ATOM     29  H31 UNL     1      -4.634   2.095   1.401  1.00  0.00     0.277 HD
HETATM   30  C13 UNL     1      -4.066   0.441  -0.631  1.00  0.00     0.032 C 
ENDBRANCH   4  23
TORSDOF 8
