REMARK  9 active torsions:
REMARK  status: ('A' for Active; 'I' for Inactive)
REMARK    1  A    between atoms: C2_2  and  C3_3 
REMARK    2  A    between atoms: C3_3  and  C4_4 
REMARK    3  A    between atoms: C4_4  and  C7_7 
REMARK    4  A    between atoms: C12_15  and  C13_16 
REMARK    5  A    between atoms: C13_16  and  C14_17 
REMARK    6  A    between atoms: C14_17  and  C15_18 
REMARK    7  A    between atoms: C15_18  and  C16_19 
REMARK       I    between atoms: C16_19  and  N1_21 
REMARK    8  A    between atoms: C24_31  and  C25_32 
REMARK    9  A    between atoms: C25_32  and  N2_33 
ROOT
HETATM    1  C14 UNL     1      -0.904   0.899   0.555  1.00  0.00     0.001 C 
HETATM    2  C22 UNL     1      -1.394   1.748   1.666  1.00  0.00     0.018 C 
HETATM    3  C23 UNL     1      -0.451   2.827   2.110  1.00  0.00     0.007 C 
HETATM    4  C24 UNL     1      -0.310   3.756   0.955  1.00  0.00     0.011 C 
HETATM    5  C26 UNL     1      -0.308   3.141  -0.388  1.00  0.00     0.007 C 
HETATM    6  C27 UNL     1      -1.121   1.932  -0.652  1.00  0.00     0.018 C 
ENDROOT
BRANCH   1   7
HETATM    7  C13 UNL     1       0.529   0.509   0.478  1.00  0.00     0.002 C 
BRANCH   7   8
HETATM    8  C12 UNL     1       1.248  -0.497   1.179  1.00  0.00     0.010 A 
HETATM    9  C7  UNL     1       2.443  -0.944   0.538  1.00  0.00    -0.034 A 
HETATM   10  C8  UNL     1       3.115  -1.938   1.219  1.00  0.00     0.054 A 
HETATM   11  C9  UNL     1       2.707  -2.484   2.432  1.00  0.00     0.158 A 
HETATM   12  F1  UNL     1       3.406  -3.466   3.074  1.00  0.00    -0.203 F 
HETATM   13  C10 UNL     1       1.559  -2.021   3.007  1.00  0.00     0.194 A 
HETATM   14  F2  UNL     1       1.127  -2.530   4.196  1.00  0.00    -0.200 F 
HETATM   15  C11 UNL     1       0.827  -1.020   2.373  1.00  0.00     0.168 A 
HETATM   16  F3  UNL     1      -0.269  -0.644   3.068  1.00  0.00    -0.202 F 
BRANCH   9  17
HETATM   17  C4  UNL     1       2.952  -0.571  -0.758  1.00  0.00    -0.019 C 
HETATM   18  C5  UNL     1       2.204  -1.187  -1.914  1.00  0.00     0.020 C 
HETATM   19  C6  UNL     1       3.082   0.869  -1.009  1.00  0.00     0.020 C 
BRANCH  17  20
HETATM   20  C3  UNL     1       4.352  -1.190  -0.982  1.00  0.00     0.013 C 
BRANCH  20  21
HETATM   21  C2  UNL     1       5.433  -0.662  -0.129  1.00  0.00    -0.004 C 
HETATM   22  C1  UNL     1       6.771  -1.372  -0.390  1.00  0.00     0.005 C 
ENDBRANCH  20  21
ENDBRANCH  17  20
ENDBRANCH   9  17
ENDBRANCH   7   8
ENDBRANCH   1   7
BRANCH   1  23
HETATM   23  C15 UNL     1      -1.946  -0.113   0.283  1.00  0.00     0.061 C 
BRANCH  23  24
HETATM   24  C16 UNL     1      -2.042  -0.808  -0.980  1.00  0.00     0.240 C 
HETATM   25  O1  UNL     1      -1.318  -0.714  -1.998  1.00  0.00    -0.269 OA
HETATM   26  N1  UNL     1      -3.111  -1.744  -1.110  1.00  0.00    -0.343 N 
HETATM   27  C17 UNL     1      -3.234  -2.462  -2.383  1.00  0.00     0.126 C 
HETATM   28  C21 UNL     1      -4.015  -1.953  -0.030  1.00  0.00     0.205 C 
HETATM   29  C18 UNL     1      -4.728  -2.354  -2.720  1.00  0.00     0.026 C 
HETATM   30  C19 UNL     1      -5.427  -3.228  -1.709  1.00  0.00     0.082 C 
HETATM   31  C20 UNL     1      -5.187  -2.817  -0.307  1.00  0.00     0.259 C 
HETATM   32  F4  UNL     1      -6.341  -2.137   0.116  1.00  0.00    -0.205 F 
HETATM   33  F5  UNL     1      -5.165  -3.991   0.459  1.00  0.00    -0.205 F 
ENDBRANCH  23  24
ENDBRANCH   1  23
BRANCH   4  34
HETATM   34  C25 UNL     1      -1.405   4.830   1.010  1.00  0.00     0.234 C 
BRANCH  34  35
HETATM   35  N2  UNL     1      -1.351   5.613   2.204  1.00  0.00    -0.079 N 
ATOM     36  H23 UNL     1      -1.380   5.019   3.033  1.00  0.00     0.274 HD
ATOM     37  H22 UNL     1      -0.427   6.026   2.329  1.00  0.00     0.274 HD
ATOM     38  H21 UNL     1      -2.079   6.327   2.241  1.00  0.00     0.274 HD
ENDBRANCH  34  35
ENDBRANCH   4  34
TORSDOF 9
