REMARK  6 active torsions:
REMARK  status: ('A' for Active; 'I' for Inactive)
REMARK    1  A    between atoms: C2_2  and  S1_3 
REMARK    2  A    between atoms: C2_2  and  C8_23 
REMARK    3  A    between atoms: S1_3  and  C3_4 
REMARK    4  A    between atoms: C4_7  and  N2_8 
REMARK    5  A    between atoms: C6_15  and  C7_16 
REMARK       I    between atoms: C7_16  and  N4_18 
REMARK    6  A    between atoms: N4_18  and  N5_20 
ROOT
HETATM    1  C3  UNL     1       0.925   0.769  -0.546  1.00  0.00     0.108 A 
HETATM    2  N1  UNL     1       0.988   2.100  -0.758  1.00  0.00    -0.185 N 
ATOM      3  H1  UNL     1       0.584   2.477  -1.616  1.00  0.00     0.185 HD
HETATM    4  C4  UNL     1       1.557   2.948   0.107  1.00  0.00     0.679 A 
HETATM    5  N3  UNL     1       2.074   2.412   1.222  1.00  0.00    -0.155 N 
ATOM      6  H3  UNL     1       2.511   3.043   1.894  1.00  0.00     0.187 HD
HETATM    7  C5  UNL     1       2.057   1.109   1.514  1.00  0.00     0.278 A 
HETATM    8  O1  UNL     1       2.562   0.659   2.584  1.00  0.00    -0.266 OA
HETATM    9  C6  UNL     1       1.459   0.222   0.601  1.00  0.00     0.136 A 
ENDROOT
BRANCH   1  10
HETATM   10  S1  UNL     1       0.125  -0.207  -1.756  1.00  0.00    -0.098 SA
BRANCH  10  11
HETATM   11  C2  UNL     1      -1.652  -0.348  -1.602  1.00  0.00     0.120 C 
HETATM   12  C1  UNL     1      -2.369   0.958  -1.857  1.00  0.00     0.030 C 
BRANCH  11  13
HETATM   13  C8  UNL     1      -2.118  -0.987  -0.348  1.00  0.00     0.127 A 
HETATM   14  N6  UNL     1      -2.124  -0.277   0.792  1.00  0.00    -0.271 N 
HETATM   15  N7  UNL     1      -2.533  -0.825   1.927  1.00  0.00    -0.226 N 
ATOM     16  H6  UNL     1      -1.811   0.694   0.784  1.00  0.00     0.190 HD
HETATM   17  N8  UNL     1      -2.952  -2.087   1.986  1.00  0.00    -0.213 N 
ATOM     18  H7  UNL     1      -2.527  -0.264   2.779  1.00  0.00     0.210 HD
HETATM   19  N9  UNL     1      -2.951  -2.787   0.884  1.00  0.00    -0.226 N 
ATOM     20  H8  UNL     1      -3.265  -2.495   2.867  1.00  0.00     0.211 HD
HETATM   21  N10 UNL     1      -2.544  -2.258  -0.273  1.00  0.00    -0.271 N 
ATOM     22  H9  UNL     1      -3.267  -3.757   0.907  1.00  0.00     0.210 HD
ATOM     23  H10 UNL     1      -2.557  -2.831  -1.117  1.00  0.00     0.190 HD
ENDBRANCH  11  13
ENDBRANCH  10  11
ENDBRANCH   1  10
BRANCH   9  24
HETATM   24  C7  UNL     1       1.525  -1.171   0.929  1.00  0.00     0.278 C 
HETATM   25  O2  UNL     1       1.732  -1.455   2.174  1.00  0.00    -0.266 OA
HETATM   26  N4  UNL     1       1.404  -2.303   0.114  1.00  0.00    -0.272 N 
ATOM     27  H4  UNL     1       1.246  -2.178  -0.886  1.00  0.00     0.189 HD
BRANCH  26  28
HETATM   28  N5  UNL     1       1.494  -3.613   0.634  1.00  0.00    -0.342 N 
ATOM     29  H52 UNL     1       1.652  -3.720   1.636  1.00  0.00     0.176 HD
ATOM     30  H51 UNL     1       1.406  -4.438   0.040  1.00  0.00     0.176 HD
ENDBRANCH  26  28
ENDBRANCH   9  24
BRANCH   4  31
HETATM   31  N2  UNL     1       1.604   4.215  -0.123  1.00  0.00    -0.234 N 
ATOM     32  H22 UNL     1       1.211   4.623  -0.971  1.00  0.00     0.174 HD
ATOM     33  H21 UNL     1       2.038   4.861   0.536  1.00  0.00     0.174 HD
ENDBRANCH   4  31
TORSDOF 6
