REMARK  9 active torsions:
REMARK  status: ('A' for Active; 'I' for Inactive)
REMARK    1  A    between atoms: O1_2  and  N1_3 
REMARK    2  A    between atoms: N1_3  and  C2_5 
REMARK    3  A    between atoms: C3_8  and  N3_9 
REMARK       I    between atoms: N3_9  and  C4_11 
REMARK       I    between atoms: C4_11  and  N4_12 
REMARK       I    between atoms: C4_11  and  N5_16 
REMARK    4  A    between atoms: C5_22  and  N7_23 
REMARK    5  A    between atoms: C8_28  and  N9_29 
REMARK    6  A    between atoms: N9_29  and  C9_30 
REMARK    7  A    between atoms: C12_33  and  O2_34 
REMARK    8  A    between atoms: C15_38  and  C16_39 
REMARK    9  A    between atoms: C16_39  and  O4_41 
ROOT
HETATM    1  C2  UNL     1       0.689  -0.173  -1.465  1.00  0.00     0.200 C 
HETATM    2  N2  UNL     1       1.914   0.349  -1.643  1.00  0.00    -0.170 N 
ATOM      3  H2  UNL     1       2.150   0.572  -2.610  1.00  0.00     0.186 HD
HETATM    4  C3  UNL     1       2.878   0.624  -0.745  1.00  0.00     0.697 C 
HETATM    5  N6  UNL     1       2.974   0.032   0.462  1.00  0.00    -0.022 N 
ATOM      6  H6  UNL     1       3.881   0.144   0.915  1.00  0.00     0.203 HD
HETATM    7  C5  UNL     1       2.081  -0.681   1.174  1.00  0.00     0.696 C 
HETATM    8  N8  UNL     1       0.865  -1.088   0.779  1.00  0.00    -0.160 N 
ATOM      9  H8  UNL     1       0.443  -1.811   1.362  1.00  0.00     0.187 HD
HETATM   10  C8  UNL     1       0.097  -0.682  -0.290  1.00  0.00     0.240 C 
ENDROOT
BRANCH  10  11
HETATM   11  N9  UNL     1      -1.083  -0.736  -0.288  1.00  0.00    -0.382 NA
BRANCH  11  12
HETATM   12  C9  UNL     1      -2.390  -0.815  -0.242  1.00  0.00     0.128 A 
HETATM   13  C10 UNL     1      -3.048  -1.956  -0.741  1.00  0.00     0.049 A 
HETATM   14  C11 UNL     1      -4.403  -2.108  -0.724  1.00  0.00     0.042 A 
HETATM   15  C12 UNL     1      -5.182  -1.102  -0.196  1.00  0.00     0.093 A 
HETATM   16  C14 UNL     1      -4.565   0.014   0.293  1.00  0.00     0.099 A 
HETATM   17  N10 UNL     1      -5.433   1.029   0.830  1.00  0.00    -0.098 NA
HETATM   18  C15 UNL     1      -3.187   0.193   0.288  1.00  0.00     0.107 A 
BRANCH  15  19
HETATM   19  O2  UNL     1      -6.554  -1.281  -0.192  1.00  0.00    -0.354 OA
HETATM   20  C13 UNL     1      -7.141  -2.454  -0.710  1.00  0.00     0.210 C 
ENDBRANCH  15  19
BRANCH  18  21
HETATM   21  C16 UNL     1      -2.644   1.426   0.838  1.00  0.00     0.298 C 
HETATM   22  O3  UNL     1      -3.461   2.272   1.293  1.00  0.00    -0.259 OA
BRANCH  21  23
HETATM   23  O4  UNL     1      -1.316   1.745   0.903  1.00  0.00    -0.322 OA
HETATM   24  C17 UNL     1      -0.800   2.945   1.439  1.00  0.00     0.213 C 
ENDBRANCH  21  23
ENDBRANCH  18  21
ENDBRANCH  11  12
ENDBRANCH  10  11
BRANCH   1  25
HETATM   25  N1  UNL     1      -0.107  -0.248  -2.476  1.00  0.00    -0.246 N 
ATOM     26  H1  UNL     1      -1.046  -0.637  -2.388  1.00  0.00     0.196 HD
BRANCH  25  27
HETATM   27  O1  UNL     1       0.370   0.222  -3.682  1.00  0.00    -0.284 OA
HETATM   28  C1  UNL     1       0.844  -0.642  -4.696  1.00  0.00     0.237 C 
ENDBRANCH  25  27
ENDBRANCH   1  25
BRANCH   7  29
HETATM   29  N7  UNL     1       2.482  -1.047   2.510  1.00  0.00    -0.226 N 
HETATM   30  C6  UNL     1       3.793  -0.627   2.964  1.00  0.00     0.168 C 
HETATM   31  C7  UNL     1       1.628  -1.801   3.376  1.00  0.00     0.168 C 
ENDBRANCH   7  29
BRANCH   4  32
HETATM   32  N3  UNL     1       3.749   1.510  -1.083  1.00  0.00    -0.173 N 
HETATM   33  C4  UNL     1       4.847   1.948  -0.285  1.00  0.00     0.494 C 
HETATM   34  N4  UNL     1       5.221   3.283  -0.766  1.00  0.00    -0.032 N 
HETATM   35  N5  UNL     1       5.988   1.068  -0.290  1.00  0.00    -0.032 N 
ATOM     36  H43 UNL     1       5.418   3.308  -1.767  1.00  0.00     0.278 HD
ATOM     37  H42 UNL     1       4.441   3.940  -0.770  1.00  0.00     0.278 HD
ATOM     38  H41 UNL     1       6.006   3.596  -0.195  1.00  0.00     0.278 HD
ATOM     39  H53 UNL     1       5.708   0.125  -0.019  1.00  0.00     0.278 HD
ATOM     40  H52 UNL     1       6.295   0.893  -1.247  1.00  0.00     0.278 HD
ATOM     41  H51 UNL     1       6.773   1.381   0.281  1.00  0.00     0.278 HD
ATOM     42  H3  UNL     1       3.644   1.937  -2.004  1.00  0.00     0.181 HD
ENDBRANCH   4  32
TORSDOF 9
