REMARK  13 active torsions:
REMARK  status: ('A' for Active; 'I' for Inactive)
REMARK    1  A    between atoms: C2_2  and  C4_4 
REMARK    2  A    between atoms: C4_4  and  C5_5 
REMARK    3  A    between atoms: C4_4  and  O3_32 
REMARK    4  A    between atoms: C5_5  and  N1_6 
REMARK    5  A    between atoms: N1_6  and  C6_8 
REMARK    6  A    between atoms: C6_8  and  O1_9 
REMARK    7  A    between atoms: C6_8  and  C7_11 
REMARK    8  A    between atoms: C10_14  and  N2_15 
REMARK    9  A    between atoms: C18_23  and  C19_24 
REMARK       I    between atoms: C19_24  and  N3_26 
REMARK   10  A    between atoms: N3_26  and  C20_28 
REMARK   11  A    between atoms: O3_32  and  C24_33 
REMARK   12  A    between atoms: C24_33  and  C25_34 
REMARK   13  A    between atoms: C29_38  and  C30_39 
ROOT
HETATM    1  C6  UNL     1       0.249  -0.587  -0.237  1.00  0.00     0.116 C 
ENDROOT
BRANCH   1   2
HETATM    2  N1  UNL     1       0.842   0.255   0.721  1.00  0.00    -0.372 N 
ATOM      3  H1  UNL     1       0.229   0.851   1.277  1.00  0.00     0.161 HD
BRANCH   2   4
HETATM    4  C5  UNL     1       2.241   0.328   0.964  1.00  0.00     0.153 C 
BRANCH   4   5
HETATM    5  C4  UNL     1       3.151   0.738  -0.140  1.00  0.00     0.143 C 
BRANCH   5   6
HETATM    6  C2  UNL     1       2.949   2.118  -0.671  1.00  0.00     0.008 C 
HETATM    7  C1  UNL     1       3.981   2.333  -1.785  1.00  0.00     0.012 C 
HETATM    8  C3  UNL     1       1.611   2.395  -1.264  1.00  0.00     0.012 C 
ENDBRANCH   5   6
BRANCH   5   9
HETATM    9  O3  UNL     1       4.501   0.711   0.348  1.00  0.00    -0.379 OA
BRANCH   9  10
HETATM   10  C24 UNL     1       5.263  -0.218  -0.343  1.00  0.00     0.207 C 
BRANCH  10  11
HETATM   11  C25 UNL     1       6.642  -0.309   0.180  1.00  0.00    -0.034 A 
HETATM   12  C26 UNL     1       7.669   0.548  -0.129  1.00  0.00     0.009 A 
HETATM   13  C27 UNL     1       8.935   0.420   0.380  1.00  0.00     0.002 A 
HETATM   14  C28 UNL     1       9.208  -0.633   1.261  1.00  0.00     0.015 A 
HETATM   15  C29 UNL     1       8.203  -1.513   1.596  1.00  0.00     0.005 A 
HETATM   16  C31 UNL     1       6.939  -1.356   1.066  1.00  0.00     0.024 A 
BRANCH  15  17
HETATM   17  C30 UNL     1       8.524  -2.607   2.520  1.00  0.00     0.120 C 
HETATM   18  N4  UNL     1       7.674  -3.484   2.910  1.00  0.00    -0.387 N 
ATOM     19  H42 UNL     1       6.728  -3.384   2.542  1.00  0.00     0.157 HD
ATOM     20  H41 UNL     1       7.897  -4.244   3.552  1.00  0.00     0.157 HD
HETATM   21  N5  UNL     1       9.847  -2.747   3.035  1.00  0.00    -0.082 NA
ENDBRANCH  15  17
ENDBRANCH  10  11
ENDBRANCH   9  10
ENDBRANCH   5   9
ENDBRANCH   4   5
ENDBRANCH   2   4
ENDBRANCH   1   2
BRANCH   1  22
HETATM   22  O1  UNL     1       1.138  -1.280  -0.899  1.00  0.00    -0.349 OA
ATOM     23  H1  UNL     1       0.737  -1.849  -1.546  1.00  0.00     0.219 HD
ENDBRANCH   1  22
BRANCH   1  24
HETATM   24  C7  UNL     1      -1.166  -0.758  -0.535  1.00  0.00     0.073 C 
HETATM   25  C8  UNL     1      -1.793  -1.676   0.485  1.00  0.00     0.016 C 
HETATM   26  C9  UNL     1      -3.262  -1.913   0.289  1.00  0.00     0.036 C 
HETATM   27  C10 UNL     1      -3.610  -1.445  -1.093  1.00  0.00     0.224 C 
HETATM   28  C17 UNL     1      -3.403   0.026  -1.232  1.00  0.00     0.050 C 
HETATM   29  C18 UNL     1      -1.995   0.447  -0.805  1.00  0.00     0.091 C 
BRANCH  27  30
HETATM   30  N2  UNL     1      -4.992  -1.784  -1.415  1.00  0.00     0.093 N 
HETATM   31  C11 UNL     1      -5.960  -1.177  -0.582  1.00  0.00     0.273 C 
HETATM   32  C12 UNL     1      -6.992  -2.133  -0.024  1.00  0.00     0.030 C 
HETATM   33  C13 UNL     1      -7.941  -2.634  -1.094  1.00  0.00     0.002 C 
HETATM   34  C14 UNL     1      -7.442  -3.982  -1.566  1.00  0.00     0.002 C 
HETATM   35  C15 UNL     1      -6.191  -3.712  -2.390  1.00  0.00     0.030 C 
HETATM   36  C16 UNL     1      -5.060  -3.207  -1.536  1.00  0.00     0.273 C 
ENDBRANCH  27  30
BRANCH  29  37
HETATM   37  C19 UNL     1      -2.197   1.355   0.336  1.00  0.00     0.223 C 
HETATM   38  O2  UNL     1      -2.543   0.982   1.503  1.00  0.00    -0.273 OA
HETATM   39  N3  UNL     1      -2.022   2.776   0.228  1.00  0.00    -0.356 N 
ATOM     40  H3  UNL     1      -1.748   3.150  -0.680  1.00  0.00     0.162 HD
BRANCH  39  41
HETATM   41  C20 UNL     1      -2.204   3.708   1.303  1.00  0.00     0.088 A 
HETATM   42  C21 UNL     1      -1.188   4.761   1.561  1.00  0.00     0.031 A 
HETATM   43  C22 UNL     1      -2.503   5.134   0.873  1.00  0.00     0.006 A 
HETATM   44  C23 UNL     1      -3.473   5.965   1.683  1.00  0.00     0.012 C 
ENDBRANCH  39  41
ENDBRANCH  29  37
ENDBRANCH   1  24
TORSDOF 13
