REMARK  16 active torsions:
REMARK  status: ('A' for Active; 'I' for Inactive)
REMARK    1  A    between atoms: S1_2  and  C2_3 
REMARK    2  A    between atoms: C2_3  and  C3_5 
REMARK    3  A    between atoms: C4_8  and  N2_9 
REMARK    4  A    between atoms: C7_14  and  N4_15 
REMARK    5  A    between atoms: N4_15  and  S2_17 
REMARK    6  A    between atoms: S2_17  and  N5_18 
REMARK    7  A    between atoms: S2_17  and  C8_22 
REMARK    8  A    between atoms: C9_23  and  S3_24 
REMARK    9  A    between atoms: S3_24  and  N6_25 
REMARK   10  A    between atoms: N9_34  and  C10_35 
REMARK   11  A    between atoms: C12_37  and  C13_38 
REMARK   12  A    between atoms: C13_38  and  N10_39 
REMARK   13  A    between atoms: C13_38  and  C14_43 
REMARK   14  A    between atoms: C16_49  and  O7_50 
REMARK   15  A    between atoms: O7_50  and  C17_51 
REMARK   16  A    between atoms: C18_54  and  C19_55 
ROOT
HETATM    1  C8  UNL     1       0.219  -0.630   2.199  1.00  0.00     0.192 A 
HETATM    2  C9  UNL     1       0.229  -1.297   3.422  1.00  0.00     0.205 A 
HETATM    3  N7  UNL     1       1.353  -0.868   4.031  1.00  0.00    -0.271 N 
ATOM      4  H7  UNL     1       1.669  -1.162   4.955  1.00  0.00     0.189 HD
HETATM    5  N8  UNL     1       1.981  -0.013   3.254  1.00  0.00    -0.234 N 
ATOM      6  H8  UNL     1       2.857   0.453   3.490  1.00  0.00     0.209 HD
HETATM    7  N9  UNL     1       1.302   0.161   2.097  1.00  0.00    -0.238 N 
ENDROOT
BRANCH   7   8
HETATM    8  C10 UNL     1       1.685   1.029   1.042  1.00  0.00     0.129 C 
HETATM    9  C11 UNL     1       2.632   0.868   0.181  1.00  0.00     0.002 C 
HETATM   10  C12 UNL     1       3.575  -0.208   0.009  1.00  0.00     0.059 C 
HETATM   11  C18 UNL     1       3.056   1.865  -0.886  1.00  0.00     0.143 C 
HETATM   12  N11 UNL     1       4.643   0.241  -0.611  1.00  0.00    -0.358 N 
HETATM   13  C15 UNL     1       4.529   1.609  -0.909  1.00  0.00     0.048 C 
ATOM     14  H11 UNL     1       5.453  -0.332  -0.846  1.00  0.00     0.165 HD
HETATM   15  C16 UNL     1       5.505   2.440  -1.148  1.00  0.00     0.173 C 
BRANCH  10  16
HETATM   16  C13 UNL     1       3.482  -1.638   0.384  1.00  0.00     0.333 C 
BRANCH  16  17
HETATM   17  N10 UNL     1       2.439  -2.325  -0.364  1.00  0.00    -0.060 N 
ATOM     18 3H10 UNL     1       1.539  -1.855  -0.264  1.00  0.00     0.275 HD
ATOM     19 2H10 UNL     1       2.567  -2.212  -1.370  1.00  0.00     0.275 HD
ATOM     20 1H10 UNL     1       2.375  -3.310  -0.106  1.00  0.00     0.275 HD
ENDBRANCH  16  17
BRANCH  16  21
HETATM   21  C14 UNL     1       4.756  -2.334   0.026  1.00  0.00     0.210 C 
HETATM   22  O5  UNL     1       5.822  -1.942   0.535  1.00  0.00    -0.646 OA
HETATM   23  O6  UNL     1       4.748  -3.385  -0.847  1.00  0.00    -0.646 OA
ENDBRANCH  16  21
ENDBRANCH  10  16
BRANCH  15  24
HETATM   24  O7  UNL     1       6.833   2.004  -1.123  1.00  0.00    -0.274 OA
BRANCH  24  25
HETATM   25  C17 UNL     1       7.533   2.054   0.060  1.00  0.00     0.377 C 
HETATM   26  N12 UNL     1       8.898   1.619   0.138  1.00  0.00    -0.032 NA
HETATM   27  O8  UNL     1       6.940   2.497   1.084  1.00  0.00    -0.242 OA
ENDBRANCH  24  25
ENDBRANCH  15  24
BRANCH  11  28
HETATM   28  C19 UNL     1       2.524   1.565  -2.208  1.00  0.00     0.137 C 
HETATM   29  C20 UNL     1       2.894   2.519  -3.315  1.00  0.00     0.092 C 
HETATM   30  O9  UNL     1       1.818   0.645  -2.544  1.00  0.00    -0.297 OA
ENDBRANCH  11  28
ENDBRANCH   7   8
BRANCH   1  31
HETATM   31  S2  UNL     1      -1.034  -0.808   1.009  1.00  0.00     0.155 S 
HETATM   32  O2  UNL     1      -0.501  -0.430  -0.353  1.00  0.00    -0.222 OA
BRANCH  31  33
HETATM   33  N4  UNL     1      -2.355   0.312   1.286  1.00  0.00    -0.306 N 
ATOM     34  H4  UNL     1      -2.249   1.245   1.684  1.00  0.00     0.173 HD
BRANCH  33  35
HETATM   35  C7  UNL     1      -3.596  -0.256   0.880  1.00  0.00     0.224 C 
HETATM   36  C3  UNL     1      -4.810   0.586   1.069  1.00  0.00     0.208 C 
HETATM   37  N1  UNL     1      -5.745  -0.010   0.109  1.00  0.00    -0.346 N 
HETATM   38  C4  UNL     1      -5.104  -0.671  -0.791  1.00  0.00     0.175 C 
ATOM     39  H1  UNL     1      -6.760   0.086   0.149  1.00  0.00     0.163 HD
HETATM   40  N3  UNL     1      -3.690  -0.585  -0.529  1.00  0.00    -0.338 N 
ATOM     41  H3  UNL     1      -2.925  -0.725  -1.189  1.00  0.00     0.164 HD
BRANCH  36  42
HETATM   42  C2  UNL     1      -4.649   2.020   0.792  1.00  0.00     0.212 C 
HETATM   43  O1  UNL     1      -3.962   2.713   1.495  1.00  0.00    -0.283 OA
BRANCH  42  44
HETATM   44  S1  UNL     1      -5.480   2.742  -0.598  1.00  0.00    -0.095 SA
HETATM   45  C1  UNL     1      -5.164   4.504  -0.777  1.00  0.00     0.099 C 
ENDBRANCH  42  44
ENDBRANCH  36  42
BRANCH  38  46
HETATM   46  N2  UNL     1      -5.738  -1.365  -1.863  1.00  0.00    -0.362 N 
HETATM   47  C5  UNL     1      -5.083  -1.616  -3.130  1.00  0.00     0.152 C 
HETATM   48  C6  UNL     1      -7.094  -1.857  -1.721  1.00  0.00     0.152 C 
ENDBRANCH  38  46
ENDBRANCH  33  35
ENDBRANCH  31  33
BRANCH  31  49
HETATM   49  N5  UNL     1      -1.632  -2.206   0.898  1.00  0.00    -0.340 N 
ATOM     50  H52 UNL     1      -2.624  -2.433   0.973  1.00  0.00     0.167 HD
ATOM     51  H51 UNL     1      -0.864  -2.857   0.737  1.00  0.00     0.167 HD
ENDBRANCH  31  49
ENDBRANCH   1  31
BRANCH   2  52
HETATM   52  S3  UNL     1      -0.952  -2.425   4.024  1.00  0.00     0.276 S 
HETATM   53  O3  UNL     1      -0.783  -2.426   5.546  1.00  0.00    -0.199 OA
HETATM   54  O4  UNL     1      -2.358  -2.029   3.801  1.00  0.00    -0.199 OA
BRANCH  52  55
HETATM   55  N6  UNL     1      -0.601  -4.055   3.553  1.00  0.00    -0.323 N 
ATOM     56  H62 UNL     1       0.209  -4.308   2.987  1.00  0.00     0.169 HD
ATOM     57  H61 UNL     1      -1.293  -4.716   3.906  1.00  0.00     0.169 HD
ENDBRANCH  52  55
ENDBRANCH   2  52
TORSDOF 16
