REMARK  3 active torsions:
REMARK  status: ('A' for Active; 'I' for Inactive)
REMARK    1  A    between atoms: C3_5  and  O1_6 
REMARK    2  A    between atoms: C4_8  and  C5_9 
REMARK    3  A    between atoms: C16_28  and  C17_29 
ROOT
HETATM    1  C1  UNL     1      -1.520  -2.088   2.320  1.00  0.00     0.042 C 
HETATM    2  C2  UNL     1      -0.757  -2.102   0.979  1.00  0.00     0.171 C 
HETATM    3  N1  UNL     1      -1.613  -2.493  -0.118  1.00  0.00    -0.360 N 
ATOM      4  H1  UNL     1      -1.883  -3.476  -0.087  1.00  0.00     0.162 HD
HETATM    5  C3  UNL     1      -2.139  -1.821  -1.193  1.00  0.00     0.135 C 
HETATM    6  C4  UNL     1      -3.186  -0.780  -1.325  1.00  0.00     0.162 C 
HETATM    7  N2  UNL     1      -2.661   0.510  -1.712  1.00  0.00    -0.347 N 
ATOM      8  H2  UNL     1      -2.379   0.577  -2.690  1.00  0.00     0.163 HD
HETATM    9  C8  UNL     1      -2.475   1.675  -0.977  1.00  0.00     0.240 C 
HETATM   10  O2  UNL     1      -3.112   2.730  -1.358  1.00  0.00    -0.271 OA
HETATM   11  C9  UNL     1      -1.630   1.915   0.217  1.00  0.00     0.174 C 
HETATM   12  C10 UNL     1      -2.443   2.134   1.486  1.00  0.00     0.042 C 
HETATM   13  N3  UNL     1      -0.901   3.189   0.061  1.00  0.00    -0.342 N 
HETATM   14  C11 UNL     1      -1.671   4.397   0.268  1.00  0.00     0.153 C 
HETATM   15  C12 UNL     1       0.445   3.324  -0.268  1.00  0.00     0.242 C 
HETATM   16  O3  UNL     1       0.797   4.308  -1.011  1.00  0.00    -0.271 OA
HETATM   17  C13 UNL     1       1.545   2.413   0.171  1.00  0.00     0.172 C 
HETATM   18  C14 UNL     1       1.345   1.993   1.604  1.00  0.00     0.042 C 
HETATM   19  N4  UNL     1       1.582   1.321  -0.772  1.00  0.00    -0.347 N 
ATOM     20  H4  UNL     1       0.717   1.105  -1.267  1.00  0.00     0.163 HD
HETATM   21  C15 UNL     1       2.720   0.518  -1.072  1.00  0.00     0.231 C 
HETATM   22  O4  UNL     1       2.946   0.288  -2.313  1.00  0.00    -0.273 OA
HETATM   23  C16 UNL     1       3.589  -0.016  -0.006  1.00  0.00     0.172 C 
HETATM   24  C20 UNL     1       3.073  -1.196   0.702  1.00  0.00     0.164 C 
HETATM   25  O5  UNL     1       3.135  -1.161   1.948  1.00  0.00    -0.295 OA
HETATM   26  C21 UNL     1       2.490  -2.424   0.176  1.00  0.00     0.151 C 
HETATM   27  C22 UNL     1       1.765  -2.390  -1.108  1.00  0.00     0.040 C 
HETATM   28  N5  UNL     1       1.650  -3.035   1.187  1.00  0.00    -0.348 N 
ATOM     29  H5  UNL     1       2.147  -3.415   1.992  1.00  0.00     0.163 HD
HETATM   30  C23 UNL     1       0.277  -3.180   1.223  1.00  0.00     0.240 C 
HETATM   31  O6  UNL     1      -0.227  -4.313   1.486  1.00  0.00    -0.271 OA
ENDROOT
BRANCH  23  32
HETATM   32  C17 UNL     1       5.029  -0.159  -0.393  1.00  0.00     0.049 C 
HETATM   33  C18 UNL     1       5.343  -1.046  -1.530  1.00  0.00     0.033 C 
HETATM   34  C19 UNL     1       5.660   1.207  -0.675  1.00  0.00     0.033 C 
HETATM   35 CL1  UNL     1       5.892  -0.787   1.052  1.00  0.00    -0.119 Cl
ENDBRANCH  23  32
BRANCH   5  36
HETATM   36  O1  UNL     1      -1.645  -2.136  -2.364  1.00  0.00    -0.348 OA
ATOM     37  H1  UNL     1      -2.009  -1.671  -3.108  1.00  0.00     0.219 HD
ENDBRANCH   5  36
BRANCH   6  38
HETATM   38  C5  UNL     1      -4.197  -0.750  -0.213  1.00  0.00     0.008 C 
HETATM   39  C6  UNL     1      -5.208   0.350  -0.535  1.00  0.00     0.012 C 
HETATM   40  C7  UNL     1      -4.959  -2.060  -0.268  1.00  0.00     0.012 C 
ENDBRANCH   6  38
TORSDOF 3
