REMARK  14 active torsions:
REMARK  status: ('A' for Active; 'I' for Inactive)
REMARK    1  A    between atoms: C6_15  and  C7_16 
REMARK    2  A    between atoms: C7_16  and  O4_17 
REMARK    3  A    between atoms: O4_17  and  S1_18 
REMARK    4  A    between atoms: S1_18  and  C8_21 
REMARK    5  A    between atoms: C11_24  and  O7_25 
REMARK    6  A    between atoms: C12_27  and  N5_28 
REMARK    7  A    between atoms: C14_30  and  C15_31 
REMARK    8  A    between atoms: C15_31  and  S2_32 
REMARK    9  A    between atoms: S2_32  and  C16_33 
REMARK   10  A    between atoms: C16_33  and  C17_34 
REMARK   11  A    between atoms: C17_34  and  O8_35 
REMARK   12  A    between atoms: C18_41  and  O9_42 
REMARK   13  A    between atoms: O9_42  and  S3_43 
REMARK   14  A    between atoms: C19_47  and  C20_48 
ROOT
HETATM    1  C8  UNL     1       0.464  -0.028  -0.608  1.00  0.00     0.124 A 
HETATM    2  C9  UNL     1       0.432   1.062   0.211  1.00  0.00     0.032 A 
HETATM    3  C10 UNL     1       1.585   1.514   0.826  1.00  0.00     0.040 A 
HETATM    4  C11 UNL     1       2.789   0.905   0.647  1.00  0.00     0.097 A 
HETATM    5  C12 UNL     1       2.886  -0.205  -0.176  1.00  0.00     0.126 A 
HETATM    6  C18 UNL     1       1.721  -0.630  -0.772  1.00  0.00     0.147 A 
ENDROOT
BRANCH   1   7
HETATM    7  S1  UNL     1      -1.031  -0.804  -1.493  1.00  0.00     0.305 S 
HETATM    8  O5  UNL     1      -0.166   0.674  -3.156  1.00  0.00    -0.193 OA
HETATM    9  O6  UNL     1      -1.291  -1.431  -2.819  1.00  0.00    -0.193 OA
BRANCH   7  10
HETATM   10  O4  UNL     1      -2.264  -0.471  -0.862  1.00  0.00    -0.240 OA
BRANCH  10  11
HETATM   11  C7  UNL     1      -2.898   0.250   0.022  1.00  0.00     0.176 C 
BRANCH  11  12
HETATM   12  C6  UNL     1      -4.219   0.403   0.497  1.00  0.00     0.090 C 
HETATM   13  C5  UNL     1      -4.242   1.537   1.517  1.00  0.00     0.258 C 
HETATM   14  N4  UNL     1      -5.295   2.264   2.084  1.00  0.00    -0.327 N 
HETATM   15  O3  UNL     1      -3.083   1.879   1.922  1.00  0.00    -0.267 OA
HETATM   16  C4  UNL     1      -6.746   2.148   1.921  1.00  0.00     0.283 C 
ATOM     17  H4  UNL     1      -5.001   3.003   2.722  1.00  0.00     0.165 HD
HETATM   18  C3  UNL     1      -7.034   0.632   1.847  1.00  0.00     0.283 C 
HETATM   19  N3  UNL     1      -7.112   2.703   0.649  1.00  0.00    -0.331 N 
HETATM   20  N2  UNL     1      -6.687   0.052   0.615  1.00  0.00    -0.216 N 
HETATM   21  O2  UNL     1      -7.524   0.156   2.884  1.00  0.00    -0.267 OA
HETATM   22  N1  UNL     1      -7.426  -0.281  -0.511  1.00  0.00    -0.121 NA
HETATM   23  C19 UNL     1      -5.306  -0.230   0.128  1.00  0.00     0.150 C 
HETATM   24  C2  UNL     1      -7.998   0.959  -1.080  1.00  0.00     0.238 C 
HETATM   25  C1  UNL     1      -7.307   2.135  -0.625  1.00  0.00     0.235 C 
HETATM   26  O1  UNL     1      -6.755   2.808  -1.563  1.00  0.00    -0.272 OA
ATOM     27  H3  UNL     1      -7.261   3.712   0.672  1.00  0.00     0.165 HD
BRANCH  23  28
HETATM   28  C20 UNL     1      -5.223  -1.323  -0.747  1.00  0.00     0.229 C 
HETATM   29  O13 UNL     1      -4.244  -1.846  -1.250  1.00  0.00    -0.643 OA
HETATM   30  O14 UNL     1      -6.419  -1.989  -1.169  1.00  0.00    -0.643 OA
ENDBRANCH  23  28
ENDBRANCH  11  12
ENDBRANCH  10  11
ENDBRANCH   7  10
ENDBRANCH   1   7
BRANCH   6  31
HETATM   31  O9  UNL     1       1.801  -1.764  -1.619  1.00  0.00    -0.210 OA
BRANCH  31  32
HETATM   32  S3  UNL     1       1.544  -3.279  -0.925  1.00  0.00     0.257 S 
HETATM   33  O10 UNL     1       0.393  -3.266   0.047  1.00  0.00    -0.572 OA
HETATM   34  O11 UNL     1       1.156  -4.293  -1.993  1.00  0.00    -0.572 OA
HETATM   35  O12 UNL     1       2.870  -3.883  -0.104  1.00  0.00    -0.572 OA
ENDBRANCH  31  32
ENDBRANCH   6  31
BRANCH   5  36
HETATM   36  N5  UNL     1       4.143  -0.793  -0.346  1.00  0.00    -0.246 N 
HETATM   37  C13 UNL     1       5.028  -1.052   0.623  1.00  0.00     0.145 A 
HETATM   38  C14 UNL     1       6.172  -1.637   0.066  1.00  0.00     0.054 A 
HETATM   39  N6  UNL     1       5.895  -1.695  -1.245  1.00  0.00    -0.288 N 
HETATM   40  N7  UNL     1       4.681  -1.187  -1.479  1.00  0.00    -0.236 N 
ATOM     41  H6  UNL     1       6.519  -2.071  -1.959  1.00  0.00     0.188 HD
ATOM     42  H7  UNL     1       4.240  -1.116  -2.396  1.00  0.00     0.209 HD
BRANCH  38  43
HETATM   43  C15 UNL     1       7.324  -2.071   0.865  1.00  0.00     0.134 C 
BRANCH  43  44
HETATM   44  S2  UNL     1       8.536  -0.833   1.270  1.00  0.00    -0.161 SA
BRANCH  44  45
HETATM   45  C16 UNL     1       9.512  -0.176  -0.052  1.00  0.00     0.100 C 
BRANCH  45  46
HETATM   46  C17 UNL     1       8.779   0.679  -1.035  1.00  0.00     0.174 C 
BRANCH  46  47
HETATM   47  O8  UNL     1       8.172   1.792  -0.431  1.00  0.00    -0.400 OA
ATOM     48  H8  UNL     1       7.706   2.335  -1.056  1.00  0.00     0.209 HD
ENDBRANCH  46  47
ENDBRANCH  45  46
ENDBRANCH  44  45
ENDBRANCH  43  44
ENDBRANCH  38  43
ENDBRANCH   5  36
BRANCH   4  49
HETATM   49  O7  UNL     1       3.940   1.401   1.294  1.00  0.00    -0.358 OA
ATOM     50  H7  UNL     1       4.780   0.976   1.169  1.00  0.00     0.217 HD
ENDBRANCH   4  49
TORSDOF 14
