REMARK  1 active torsions:
REMARK  status: ('A' for Active; 'I' for Inactive)
REMARK    1  A    between atoms: C2_3  and  C3_4 
ROOT
HETATM    1  N1  UNL     1       0.063  -1.070   3.331  1.00  0.00    -0.192 NA
HETATM    2  C1  UNL     1      -0.111  -0.714   2.245  1.00  0.00     0.119 C 
HETATM    3  C2  UNL     1      -0.317  -0.245   0.853  1.00  0.00     0.229 A 
HETATM    4  N2  UNL     1      -0.976   1.016   0.929  1.00  0.00    -0.322 N 
ATOM      5  H2  UNL     1      -0.528   1.764   1.458  1.00  0.00     0.166 HD
HETATM    6  C9  UNL     1      -2.100   1.260   0.369  1.00  0.00     0.193 A 
HETATM    7  N3  UNL     1      -2.648   2.558   0.523  1.00  0.00    -0.063 NA
HETATM    8  N4  UNL     1      -2.761   0.256  -0.375  1.00  0.00    -0.305 N 
ATOM      9  H4  UNL     1      -3.656   0.471  -0.814  1.00  0.00     0.171 HD
HETATM   10  C10 UNL     1      -2.264  -0.920  -0.513  1.00  0.00     0.193 A 
HETATM   11  N5  UNL     1      -2.931  -1.926  -1.261  1.00  0.00    -0.063 NA
HETATM   12  N6  UNL     1      -1.027  -1.234   0.086  1.00  0.00    -0.322 N 
ATOM     13  H6  UNL     1      -0.633  -2.168  -0.025  1.00  0.00     0.166 HD
ENDROOT
BRANCH   3  14
HETATM   14  C3  UNL     1       1.041  -0.080   0.264  1.00  0.00     0.005 A 
HETATM   15  C4  UNL     1       1.470   1.176  -0.110  1.00  0.00     0.012 A 
HETATM   16  C5  UNL     1       2.714   1.365  -0.656  1.00  0.00     0.001 A 
HETATM   17  C6  UNL     1       3.599   0.327  -0.861  1.00  0.00     0.000 A 
HETATM   18  C7  UNL     1       3.145  -0.926  -0.477  1.00  0.00     0.001 A 
HETATM   19  C8  UNL     1       1.900  -1.138   0.073  1.00  0.00     0.012 A 
ENDBRANCH   3  14
TORSDOF 1
