REMARK  15 active torsions:
REMARK  status: ('A' for Active; 'I' for Inactive)
REMARK    1  A    between atoms: C2_2  and  C4_4 
REMARK    2  A    between atoms: C5_5  and  C6_6 
REMARK    3  A    between atoms: C8_8  and  C9_9 
REMARK    4  A    between atoms: C9_9  and  N1_10 
REMARK    5  A    between atoms: C9_9  and  N2_14 
REMARK    6  A    between atoms: C12_20  and  O1_21 
REMARK    7  A    between atoms: O1_21  and  C13_22 
REMARK    8  A    between atoms: C13_22  and  C14_23 
REMARK    9  A    between atoms: C14_23  and  O2_24 
REMARK   10  A    between atoms: O2_24  and  C15_25 
REMARK   11  A    between atoms: C15_25  and  C16_26 
REMARK   12  A    between atoms: C16_26  and  O3_27 
REMARK   13  A    between atoms: O3_27  and  C17_28 
REMARK   14  A    between atoms: C17_28  and  C18_29 
REMARK   15  A    between atoms: C18_29  and  N3_30 
ROOT
HETATM    1  C13 UNL     1      -2.596   1.403  -0.116  1.00  0.00     0.201 C 
ENDROOT
BRANCH   1   2
HETATM    2  O1  UNL     1      -3.745   0.676   0.015  1.00  0.00    -0.348 OA
BRANCH   2   3
HETATM    3  C12 UNL     1      -4.993   1.038   0.411  1.00  0.00     0.087 A 
HETATM    4  C6  UNL     1      -5.958   0.026   0.454  1.00  0.00     0.051 A 
HETATM    5  C7  UNL     1      -7.281   0.273   0.866  1.00  0.00     0.034 A 
HETATM    6  C8  UNL     1      -7.573   1.566   1.218  1.00  0.00     0.000 A 
HETATM    7  C10 UNL     1      -6.639   2.565   1.174  1.00  0.00     0.014 A 
HETATM    8  C11 UNL     1      -5.343   2.327   0.773  1.00  0.00     0.039 A 
BRANCH   4   9
HETATM    9  C5  UNL     1      -5.601  -1.295   0.033  1.00  0.00    -0.064 C 
HETATM   10  C4  UNL     1      -5.267  -2.422  -0.341  1.00  0.00    -0.097 C 
BRANCH  10  11
HETATM   11  C2  UNL     1      -4.836  -3.731  -0.789  1.00  0.00     0.057 C 
HETATM   12  C1  UNL     1      -5.893  -4.429  -1.592  1.00  0.00     0.023 C 
HETATM   13  C3  UNL     1      -4.396  -4.609   0.384  1.00  0.00     0.023 C 
ENDBRANCH  10  11
ENDBRANCH   4   9
BRANCH   6  14
HETATM   14  C9  UNL     1      -8.965   1.911   1.692  1.00  0.00     0.411 C 
BRANCH  14  15
HETATM   15  N1  UNL     1      -9.953   1.466   0.707  1.00  0.00    -0.046 N 
ATOM     16  H13 UNL     1      -9.762   1.840  -0.223  1.00  0.00     0.277 HD
ATOM     17  H12 UNL     1      -9.857   0.474   0.491  1.00  0.00     0.277 HD
ATOM     18  H11 UNL     1     -10.893   1.699   1.027  1.00  0.00     0.277 HD
ENDBRANCH  14  15
BRANCH  14  19
HETATM   19  N2  UNL     1      -9.213   1.281   2.981  1.00  0.00    -0.046 N 
ATOM     20  H23 UNL     1      -9.055   0.274   2.954  1.00  0.00     0.277 HD
ATOM     21  H22 UNL     1      -8.501   1.523   3.670  1.00  0.00     0.277 HD
ATOM     22  H21 UNL     1     -10.153   1.514   3.301  1.00  0.00     0.277 HD
ENDBRANCH  14  19
ENDBRANCH   6  14
ENDBRANCH   2   3
ENDBRANCH   1   2
BRANCH   1  23
HETATM   23  C14 UNL     1      -1.882   2.196   0.797  1.00  0.00     0.194 C 
BRANCH  23  24
HETATM   24  O2  UNL     1      -0.736   2.820   0.147  1.00  0.00    -0.387 OA
BRANCH  24  25
HETATM   25  C15 UNL     1       0.026   1.821  -0.415  1.00  0.00     0.193 C 
BRANCH  25  26
HETATM   26  C16 UNL     1       0.641   0.823   0.527  1.00  0.00     0.193 C 
BRANCH  26  27
HETATM   27  O3  UNL     1       1.287  -0.176  -0.133  1.00  0.00    -0.387 OA
BRANCH  27  28
HETATM   28  C17 UNL     1       2.238   0.065  -1.045  1.00  0.00     0.198 C 
BRANCH  28  29
HETATM   29  C18 UNL     1       3.491   0.744  -0.511  1.00  0.00     0.298 C 
BRANCH  29  30
HETATM   30  N3  UNL     1       4.143  -0.058   0.487  1.00  0.00     0.093 N 
HETATM   31  C19 UNL     1       5.234   0.596   1.087  1.00  0.00     0.300 C 
HETATM   32  C20 UNL     1       5.824   1.788   0.361  1.00  0.00     0.262 C 
HETATM   33  N4  UNL     1       6.937   1.404  -0.467  1.00  0.00    -0.073 N 
HETATM   34  C21 UNL     1       8.075   1.019   0.339  1.00  0.00     0.232 C 
ATOM     35  H42 UNL     1       6.679   0.671  -1.128  1.00  0.00     0.277 HD
ATOM     36  H41 UNL     1       7.179   2.136  -1.134  1.00  0.00     0.277 HD
HETATM   37  C22 UNL     1       8.634  -0.310  -0.030  1.00  0.00     0.029 C 
HETATM   38  C23 UNL     1       8.627  -0.613  -1.506  1.00  0.00     0.021 C 
HETATM   39  C24 UNL     1       7.292  -0.994  -2.061  1.00  0.00     0.113 C 
HETATM   40  N5  UNL     1       6.485  -1.604  -1.070  1.00  0.00    -0.419 N 
HETATM   41  C25 UNL     1       5.079  -1.575  -1.260  1.00  0.00     0.144 C 
ATOM     42  H5  UNL     1       6.899  -2.048  -0.250  1.00  0.00     0.153 HD
HETATM   43  C26 UNL     1       4.355  -1.406   0.029  1.00  0.00     0.291 C 
ENDBRANCH  29  30
ENDBRANCH  28  29
ENDBRANCH  27  28
ENDBRANCH  26  27
ENDBRANCH  25  26
ENDBRANCH  24  25
ENDBRANCH  23  24
ENDBRANCH   1  23
TORSDOF 15
