REMARK  10 active torsions:
REMARK  status: ('A' for Active; 'I' for Inactive)
REMARK    1  A    between atoms: C3_5  and  N2_6 
REMARK       I    between atoms: N2_6  and  C4_8 
REMARK       I    between atoms: C4_8  and  N3_9 
REMARK       I    between atoms: C4_8  and  N4_13 
REMARK    2  A    between atoms: C5_17  and  O1_19 
REMARK    3  A    between atoms: C8_24  and  C9_25 
REMARK       I    between atoms: C9_25  and  N6_27 
REMARK    4  A    between atoms: N6_27  and  C10_29 
REMARK    5  A    between atoms: C10_29  and  C11_30 
REMARK    6  A    between atoms: C11_30  and  N7_31 
REMARK    7  A    between atoms: C11_30  and  N8_35 
REMARK    8  A    between atoms: N7_31  and  O3_33 
REMARK    9  A    between atoms: N8_35  and  N9_37 
REMARK   10  A    between atoms: C12_38  and  O4_39 
ROOT
HETATM    1  C1  UNL     1      -3.609   2.725  -1.799  1.00  0.00     0.057 C 
HETATM    2  C2  UNL     1      -3.285   1.231  -1.900  1.00  0.00     0.204 C 
HETATM    3  N1  UNL     1      -4.374   0.523  -1.309  1.00  0.00    -0.354 N 
ATOM      4  H1  UNL     1      -5.314   0.866  -1.509  1.00  0.00     0.163 HD
HETATM    5  C3  UNL     1      -4.278  -0.502  -0.551  1.00  0.00     0.120 C 
HETATM    6  C5  UNL     1      -2.957  -1.043  -0.225  1.00  0.00     0.171 C 
HETATM    7  C6  UNL     1      -2.965  -1.417   1.252  1.00  0.00     0.063 C 
HETATM    8  C7  UNL     1      -1.846  -0.127  -0.529  1.00  0.00     0.144 A 
HETATM    9  N5  UNL     1      -0.570  -0.159  -0.128  1.00  0.00    -0.322 N 
ATOM     10  H5  UNL     1      -0.155  -0.863   0.483  1.00  0.00     0.169 HD
HETATM   11  C8  UNL     1       0.074   0.895  -0.667  1.00  0.00     0.191 A 
HETATM   12  N11 UNL     1      -0.854   1.542  -1.392  1.00  0.00    -0.275 N 
ATOM     13  H11 UNL     1      -0.682   2.391  -1.930  1.00  0.00     0.189 HD
HETATM   14  N12 UNL     1      -2.016   0.928  -1.312  1.00  0.00    -0.252 N 
ENDROOT
BRANCH  11  15
HETATM   15  C9  UNL     1       1.481   1.228  -0.479  1.00  0.00     0.287 C 
HETATM   16  O2  UNL     1       1.914   2.255  -1.063  1.00  0.00    -0.264 OA
HETATM   17  N6  UNL     1       2.350   0.450   0.319  1.00  0.00    -0.351 N 
ATOM     18  H6  UNL     1       1.997  -0.382   0.791  1.00  0.00     0.162 HD
BRANCH  17  19
HETATM   19  C10 UNL     1       3.745   0.831   0.470  1.00  0.00     0.172 C 
BRANCH  19  20
HETATM   20  C11 UNL     1       4.435  -0.156   1.360  1.00  0.00     0.237 C 
BRANCH  20  21
HETATM   21  N7  UNL     1       3.849  -0.203   2.666  1.00  0.00    -0.279 N 
ATOM     22  H7  UNL     1       2.879   0.087   2.791  1.00  0.00     0.190 HD
BRANCH  21  23
HETATM   23  O3  UNL     1       4.478  -0.576   3.611  1.00  0.00    -0.292 OA
ATOM     24  H3  UNL     1       4.089  -0.607   4.477  1.00  0.00     0.244 HD
ENDBRANCH  21  23
ENDBRANCH  20  21
BRANCH  20  25
HETATM   25  N8  UNL     1       5.857   0.018   1.467  1.00  0.00    -0.297 N 
ATOM     26  H8  UNL     1       6.218   0.407   2.338  1.00  0.00     0.183 HD
BRANCH  25  27
HETATM   27  N9  UNL     1       6.786  -0.303   0.473  1.00  0.00    -0.184 N 
HETATM   28  C12 UNL     1       6.617  -0.885  -0.718  1.00  0.00     0.181 A 
HETATM   29  C13 UNL     1       7.862  -0.950  -1.330  1.00  0.00     0.150 A 
HETATM   30  N10 UNL     1       8.766  -0.409  -0.505  1.00  0.00    -0.313 N 
HETATM   31  C14 UNL     1       8.116  -0.014   0.594  1.00  0.00     0.347 A 
ATOM     32  H10 UNL     1       9.766  -0.315  -0.682  1.00  0.00     0.170 HD
HETATM   33  O5  UNL     1       8.695   0.538   1.565  1.00  0.00    -0.245 OA
BRANCH  28  34
HETATM   34  O4  UNL     1       5.421  -1.344  -1.249  1.00  0.00    -0.344 OA
ATOM     35  H4  UNL     1       5.301  -1.758  -2.096  1.00  0.00     0.219 HD
ENDBRANCH  28  34
ENDBRANCH  25  27
ENDBRANCH  20  25
ENDBRANCH  19  20
ENDBRANCH  17  19
ENDBRANCH  11  15
BRANCH   6  36
HETATM   36  O1  UNL     1      -2.797  -2.249  -0.940  1.00  0.00    -0.374 OA
ATOM     37  H1  UNL     1      -1.940  -2.600  -0.728  1.00  0.00     0.211 HD
ENDBRANCH   6  36
BRANCH   5  38
HETATM   38  N2  UNL     1      -5.444  -1.109  -0.031  1.00  0.00    -0.328 N 
HETATM   39  C4  UNL     1      -6.451  -0.315   0.585  1.00  0.00     0.481 C 
HETATM   40  N3  UNL     1      -7.004   0.676  -0.324  1.00  0.00    -0.033 N 
HETATM   41  N4  UNL     1      -7.558  -1.091   1.104  1.00  0.00    -0.033 N 
ATOM     42  H33 UNL     1      -6.269   1.259  -0.725  1.00  0.00     0.278 HD
ATOM     43  H32 UNL     1      -7.350   0.240  -1.179  1.00  0.00     0.278 HD
ATOM     44  H31 UNL     1      -7.726   1.245   0.118  1.00  0.00     0.278 HD
ATOM     45  H43 UNL     1      -7.959  -1.682   0.375  1.00  0.00     0.278 HD
ATOM     46  H42 UNL     1      -7.225  -1.813   1.743  1.00  0.00     0.278 HD
ATOM     47  H41 UNL     1      -8.280  -0.522   1.546  1.00  0.00     0.278 HD
ATOM     48  H2  UNL     1      -5.564  -2.120  -0.098  1.00  0.00     0.164 HD
ENDBRANCH   5  38
TORSDOF 10
