REMARK  13 active torsions:
REMARK  status: ('A' for Active; 'I' for Inactive)
REMARK    1  A    between atoms: N1_2  and  N2_3 
REMARK    2  A    between atoms: N1_2  and  C2_6 
REMARK    3  A    between atoms: C3_9  and  N4_10 
REMARK    4  A    between atoms: N4_10  and  C4_12 
REMARK    5  A    between atoms: C5_17  and  C6_18 
REMARK    6  A    between atoms: C6_18  and  C7_19 
REMARK    7  A    between atoms: C8_22  and  C9_23 
REMARK    8  A    between atoms: C10_26  and  C11_27 
REMARK    9  A    between atoms: C11_27  and  O2_28 
REMARK   10  A    between atoms: C11_27  and  O3_30 
REMARK   11  A    between atoms: C12_34  and  O4_35 
REMARK   12  A    between atoms: C13_40  and  N11_41 
REMARK   13  A    between atoms: N12_44  and  N13_45 
ROOT
HETATM    1  C4  UNL     1       1.233   2.127  -1.943  1.00  0.00     0.259 A 
HETATM    2  N5  UNL     1       0.632   3.341  -1.769  1.00  0.00    -0.263 N 
ATOM      3  H5  UNL     1       1.083   4.174  -1.390  1.00  0.00     0.190 HD
HETATM    4  N6  UNL     1      -0.627   3.267  -2.169  1.00  0.00    -0.280 N 
ATOM      5  H6  UNL     1      -1.314   4.020  -2.156  1.00  0.00     0.189 HD
HETATM    6  C5  UNL     1      -0.826   2.008  -2.596  1.00  0.00     0.147 A 
HETATM    7  O5  UNL     1       0.314   1.360  -2.443  1.00  0.00    -0.263 OA
ENDROOT
BRANCH   1   8
HETATM    8  N4  UNL     1       2.592   1.909  -1.599  1.00  0.00    -0.152 N 
ATOM      9  H4  UNL     1       3.315   2.424  -2.102  1.00  0.00     0.188 HD
BRANCH   8  10
HETATM   10  C3  UNL     1       2.954   1.069  -0.658  1.00  0.00     0.714 A 
HETATM   11  N3  UNL     1       4.232   0.882  -0.353  1.00  0.00    -0.018 N 
HETATM   12  C2  UNL     1       4.574  -0.006   0.639  1.00  0.00     0.748 A 
ATOM     13  H3  UNL     1       4.958   1.395  -0.853  1.00  0.00     0.203 HD
HETATM   14  N12 UNL     1       3.614  -0.677   1.290  1.00  0.00     0.085 N 
HETATM   15  C13 UNL     1       2.303  -0.478   0.970  1.00  0.00     0.726 A 
HETATM   16  N10 UNL     1       1.996   0.391   0.001  1.00  0.00    -0.020 N 
ATOM     17  H10 UNL     1       1.017   0.543  -0.243  1.00  0.00     0.203 HD
BRANCH  12  18
HETATM   18  N1  UNL     1       5.945  -0.188   0.947  1.00  0.00    -0.132 N 
HETATM   19  C1  UNL     1       6.516  -1.053   1.931  1.00  0.00     0.197 C 
BRANCH  18  20
HETATM   20  N2  UNL     1       6.869   0.587   0.185  1.00  0.00    -0.329 N 
ATOM     21  H22 UNL     1       7.856   0.456   0.407  1.00  0.00     0.177 HD
ATOM     22  H21 UNL     1       6.461   1.204  -0.517  1.00  0.00     0.177 HD
ENDBRANCH  18  20
ENDBRANCH  12  18
BRANCH  14  23
HETATM   23  N13 UNL     1       3.890  -1.592   2.310  1.00  0.00    -0.309 N 
ATOM     24 2H13 UNL     1       4.870  -1.741   2.549  1.00  0.00     0.178 HD
ATOM     25 1H13 UNL     1       3.159  -2.103   2.806  1.00  0.00     0.178 HD
ENDBRANCH  14  23
BRANCH  15  26
HETATM   26  N11 UNL     1       1.415  -1.144   1.620  1.00  0.00    -0.232 N 
ATOM     27 2H11 UNL     1       0.435  -0.995   1.381  1.00  0.00     0.174 HD
ATOM     28 1H11 UNL     1       1.649  -1.807   2.359  1.00  0.00     0.174 HD
ENDBRANCH  15  26
ENDBRANCH   8  10
ENDBRANCH   1   8
BRANCH   6  29
HETATM   29  C6  UNL     1      -2.064   1.400  -3.146  1.00  0.00     0.147 C 
BRANCH  29  30
HETATM   30  C7  UNL     1      -2.904   0.823  -2.046  1.00  0.00     0.069 A 
HETATM   31  N7  UNL     1      -2.971  -0.480  -1.810  1.00  0.00    -0.350 N 
HETATM   32  C8  UNL     1      -3.753  -1.010  -0.791  1.00  0.00     0.126 A 
ATOM     33  H7  UNL     1      -2.430  -1.115  -2.397  1.00  0.00     0.166 HD
HETATM   34  C10 UNL     1      -4.481  -0.179   0.003  1.00  0.00     0.098 A 
HETATM   35  N9  UNL     1      -4.412   1.180  -0.244  1.00  0.00    -0.333 N 
HETATM   36  C12 UNL     1      -3.648   1.649  -1.235  1.00  0.00     0.164 A 
ATOM     37  H9  UNL     1      -4.947   1.828   0.334  1.00  0.00     0.168 HD
BRANCH  32  38
HETATM   38  C9  UNL     1      -3.766  -2.447  -0.638  1.00  0.00     0.283 C 
HETATM   39  N8  UNL     1      -4.591  -3.253   0.140  1.00  0.00    -0.056 NA
HETATM   40  O1  UNL     1      -2.889  -3.102  -1.323  1.00  0.00    -0.269 OA
ENDBRANCH  32  38
BRANCH  34  41
HETATM   41  C11 UNL     1      -5.303  -0.591   1.156  1.00  0.00     0.307 C 
BRANCH  41  42
HETATM   42  O2  UNL     1      -5.094   0.364   2.219  1.00  0.00    -0.366 OA
ATOM     43  H2  UNL     1      -5.624   0.099   2.962  1.00  0.00     0.213 HD
ENDBRANCH  41  42
BRANCH  41  44
HETATM   44  O3  UNL     1      -6.659  -0.498   0.854  1.00  0.00    -0.366 OA
ATOM     45  H3  UNL     1      -7.189  -0.763   1.597  1.00  0.00     0.213 HD
ENDBRANCH  41  44
ENDBRANCH  34  41
BRANCH  36  46
HETATM   46  O4  UNL     1      -3.560   3.029  -1.508  1.00  0.00    -0.345 OA
ATOM     47  H4  UNL     1      -4.074   3.599  -0.948  1.00  0.00     0.219 HD
ENDBRANCH  36  46
ENDBRANCH  29  30
ENDBRANCH   6  29
TORSDOF 13
