REMARK  14 active torsions:
REMARK  status: ('A' for Active; 'I' for Inactive)
REMARK    1  A    between atoms: N6_23  and  C10_25 
REMARK    2  A    between atoms: C10_25  and  C11_26 
REMARK    3  A    between atoms: C11_26  and  C12_27 
REMARK    4  A    between atoms: C12_27  and  C13_28 
REMARK    5  A    between atoms: C13_28  and  C14_29 
REMARK    6  A    between atoms: C14_29  and  C15_30 
REMARK    7  A    between atoms: C15_30  and  C16_31 
REMARK    8  A    between atoms: C16_31  and  C17_32 
REMARK    9  A    between atoms: C17_32  and  C18_33 
REMARK   10  A    between atoms: C18_33  and  C19_34 
REMARK   11  A    between atoms: C19_34  and  C20_35 
REMARK       I    between atoms: C20_35  and  N7_37 
REMARK   12  A    between atoms: N7_37  and  C21_39 
REMARK   13  A    between atoms: C21_39  and  C22_40 
REMARK   14  A    between atoms: C22_40  and  C23_41 
ROOT
HETATM    1  N1  UNL     1      -5.987   2.400   3.957  1.00  0.00    -0.196 NA
HETATM    2  C1  UNL     1      -5.523   1.717   3.120  1.00  0.00     0.080 C 
HETATM    3  C2  UNL     1      -4.937   0.868   2.090  1.00  0.00     0.234 C 
HETATM    4  C3  UNL     1      -5.734  -0.380   1.921  1.00  0.00     0.142 C 
HETATM    5  N2  UNL     1      -4.992  -1.443   1.884  1.00  0.00    -0.382 N 
ATOM      6  H21 UNL     1      -5.537  -2.297   1.768  1.00  0.00     0.158 HD
ATOM      7  H22 UNL     1      -3.990  -1.273   1.974  1.00  0.00     0.158 HD
HETATM    8  O1  UNL     1      -7.086  -0.609   1.800  1.00  0.00    -0.298 OA
HETATM    9  C4  UNL     1      -8.159   0.019   1.128  1.00  0.00     0.094 A 
HETATM   10  C5  UNL     1      -8.289   1.103   0.382  1.00  0.00     0.109 A 
HETATM   11  N3  UNL     1      -9.623   1.289  -0.061  1.00  0.00    -0.322 N 
ATOM     12  H3  UNL     1      -9.969   2.049  -0.646  1.00  0.00     0.169 HD
HETATM   13  C6  UNL     1     -10.385   0.212   0.467  1.00  0.00     0.228 A 
HETATM   14  O2  UNL     1     -11.619  -0.031   0.335  1.00  0.00    -0.273 OA
HETATM   15  C7  UNL     1      -9.470  -0.632   1.239  1.00  0.00     0.170 A 
HETATM   16  C8  UNL     1      -7.304   2.092  -0.034  1.00  0.00     0.130 C 
HETATM   17  N4  UNL     1      -7.872   3.079  -0.625  1.00  0.00    -0.384 N 
ATOM     18  H41 UNL     1      -7.182   3.772  -0.916  1.00  0.00     0.157 HD
ATOM     19  H42 UNL     1      -8.885   2.973  -0.683  1.00  0.00     0.157 HD
HETATM   20  N5  UNL     1      -5.873   2.242   0.048  1.00  0.00    -0.329 N 
ATOM     21  H5  UNL     1      -5.528   2.972  -0.575  1.00  0.00     0.168 HD
HETATM   22  C9  UNL     1      -4.823   1.625   0.781  1.00  0.00     0.104 C 
HETATM   23  N6  UNL     1      -3.647   1.687   0.334  1.00  0.00    -0.378 N 
ATOM     24  H6  UNL     1      -2.949   1.222   0.914  1.00  0.00     0.160 HD
ENDROOT
BRANCH  23  25
HETATM   25  C10 UNL     1      -3.130   2.292  -0.837  1.00  0.00     0.121 C 
BRANCH  25  26
HETATM   26  C11 UNL     1      -1.704   2.752  -0.508  1.00  0.00     0.020 C 
BRANCH  26  27
HETATM   27  C12 UNL     1      -0.851   1.597  -0.095  1.00  0.00     0.002 C 
BRANCH  27  28
HETATM   28  C13 UNL     1      -0.732   0.539  -1.146  1.00  0.00     0.000 C 
BRANCH  28  29
HETATM   29  C14 UNL     1       0.153  -0.619  -0.668  1.00  0.00     0.000 C 
BRANCH  29  30
HETATM   30  C15 UNL     1       1.532  -0.150  -0.339  1.00  0.00     0.000 C 
BRANCH  30  31
HETATM   31  C16 UNL     1       2.365  -1.314   0.129  1.00  0.00     0.000 C 
BRANCH  31  32
HETATM   32  C17 UNL     1       2.486  -2.410  -0.928  1.00  0.00     0.000 C 
BRANCH  32  33
HETATM   33  C18 UNL     1       3.334  -3.513  -0.377  1.00  0.00     0.009 C 
BRANCH  33  34
HETATM   34  C19 UNL     1       4.724  -3.123   0.011  1.00  0.00     0.103 C 
BRANCH  34  35
HETATM   35  C20 UNL     1       5.558  -2.607  -1.101  1.00  0.00     0.217 C 
HETATM   36  O3  UNL     1       5.172  -2.553  -2.296  1.00  0.00    -0.274 OA
HETATM   37  N7  UNL     1       6.860  -2.152  -0.796  1.00  0.00    -0.361 N 
ATOM     38  H7  UNL     1       7.202  -2.182   0.164  1.00  0.00     0.162 HD
BRANCH  37  39
HETATM   39  C21 UNL     1       7.701  -1.646  -1.850  1.00  0.00     0.128 C 
BRANCH  39  40
HETATM   40  C22 UNL     1       9.042  -1.200  -1.360  1.00  0.00     0.066 C 
BRANCH  40  41
HETATM   41  C23 UNL     1       8.772  -0.104  -0.355  1.00  0.00    -0.016 A 
HETATM   42  C24 UNL     1       9.698   0.605   0.357  1.00  0.00     0.015 A 
HETATM   43  C25 UNL     1       9.242   1.542   1.205  1.00  0.00     0.008 A 
HETATM   44  C26 UNL     1       7.884   1.706   1.283  1.00  0.00     0.050 A 
HETATM   45  S1  UNL     1       7.293   0.552   0.175  1.00  0.00    -0.106 SA
ENDBRANCH  40  41
ENDBRANCH  39  40
ENDBRANCH  37  39
ENDBRANCH  34  35
ENDBRANCH  33  34
ENDBRANCH  32  33
ENDBRANCH  31  32
ENDBRANCH  30  31
ENDBRANCH  29  30
ENDBRANCH  28  29
ENDBRANCH  27  28
ENDBRANCH  26  27
ENDBRANCH  25  26
ENDBRANCH  23  25
TORSDOF 14
