REMARK  7 active torsions:
REMARK  status: ('A' for Active; 'I' for Inactive)
REMARK       I    between atoms: N1_2  and  C2_4 
REMARK    1  A    between atoms: C2_4  and  C3_6 
REMARK    2  A    between atoms: C5_13  and  N4_14 
REMARK    3  A    between atoms: N4_14  and  C6_16 
REMARK    4  A    between atoms: C6_16  and  C7_17 
REMARK    5  A    between atoms: C7_17  and  C8_18 
REMARK    6  A    between atoms: C8_18  and  N5_20 
REMARK    7  A    between atoms: N5_20  and  C9_22 
ROOT
HETATM    1  N4  UNL     1      -2.299   0.970   0.773  1.00  0.00    -0.374 N 
ATOM      2  H4  UNL     1      -2.874   1.434   0.070  1.00  0.00     0.161 HD
ENDROOT
BRANCH   1   3
HETATM    3  C5  UNL     1      -2.677  -0.171   1.125  1.00  0.00     0.135 A 
HETATM    4  C3  UNL     1      -3.810  -0.835   0.629  1.00  0.00     0.116 A 
HETATM    5  C4  UNL     1      -3.852  -2.040   1.275  1.00  0.00     0.137 A 
HETATM    6 CL1  UNL     1      -5.048  -3.320   1.078  1.00  0.00    -0.062 Cl
HETATM    7  N2  UNL     1      -2.797  -2.100   2.118  1.00  0.00    -0.287 N 
HETATM    8  N3  UNL     1      -2.113  -0.978   2.012  1.00  0.00    -0.284 N 
ATOM      9  H2  UNL     1      -2.569  -2.882   2.732  1.00  0.00     0.188 HD
ATOM     10  H3  UNL     1      -1.267  -0.761   2.539  1.00  0.00     0.188 HD
BRANCH   4  11
HETATM   11  C2  UNL     1      -4.720  -0.287  -0.376  1.00  0.00     0.258 C 
HETATM   12  N1  UNL     1      -5.853  -0.897  -0.902  1.00  0.00    -0.361 N 
HETATM   13  C1  UNL     1      -6.680  -0.236  -1.908  1.00  0.00     0.149 C 
ATOM     14  H1  UNL     1      -6.113  -1.828  -0.578  1.00  0.00     0.162 HD
HETATM   15  O1  UNL     1      -4.453   0.887  -0.832  1.00  0.00    -0.267 OA
ENDBRANCH   4  11
ENDBRANCH   1   3
BRANCH   1  16
HETATM   16  C6  UNL     1      -1.166   1.700   1.232  1.00  0.00     0.128 C 
BRANCH  16  17
HETATM   17  C7  UNL     1       0.141   1.201   0.658  1.00  0.00     0.089 C 
BRANCH  17  18
HETATM   18  C8  UNL     1       1.270   2.008   1.179  1.00  0.00     0.075 C 
HETATM   19  S1  UNL     1       0.896   3.149   2.319  1.00  0.00    -0.066 SA
BRANCH  18  20
HETATM   20  N5  UNL     1       2.612   1.864   0.771  1.00  0.00    -0.380 N 
ATOM     21  H5  UNL     1       3.307   2.476   1.198  1.00  0.00     0.160 HD
BRANCH  20  22
HETATM   22  C9  UNL     1       3.070   0.905  -0.214  1.00  0.00     0.082 C 
HETATM   23  C10 UNL     1       4.552   1.119  -0.450  1.00  0.00     0.025 C 
HETATM   24  C11 UNL     1       5.095   0.306  -1.589  1.00  0.00     0.002 C 
HETATM   25  C12 UNL     1       4.510  -1.101  -1.515  1.00  0.00     0.000 C 
HETATM   26  C13 UNL     1       4.070  -1.332  -0.095  1.00  0.00     0.002 C 
HETATM   27  C14 UNL     1       2.841  -0.509   0.196  1.00  0.00     0.025 C 
ENDBRANCH  20  22
ENDBRANCH  18  20
ENDBRANCH  17  18
ENDBRANCH  16  17
ENDBRANCH   1  16
TORSDOF 7
