REMARK  12 active torsions:
REMARK  status: ('A' for Active; 'I' for Inactive)
REMARK    1  A    between atoms: O1_1  and  C1_3 
REMARK    2  A    between atoms: C1_3  and  N1_4 
REMARK    3  A    between atoms: C1_3  and  N4_21 
REMARK    4  A    between atoms: N1_4  and  N2_6 
REMARK    5  A    between atoms: N2_6  and  C2_8 
REMARK    6  A    between atoms: C2_8  and  N3_10 
REMARK    7  A    between atoms: N3_10  and  C3_12 
REMARK    8  A    between atoms: C3_12  and  C4_13 
REMARK    9  A    between atoms: C4_13  and  C5_14 
REMARK   10  A    between atoms: N4_21  and  C11_23 
REMARK   11  A    between atoms: C11_23  and  O2_24 
REMARK   12  A    between atoms: C11_23  and  C12_26 
ROOT
HETATM    1  N1  UNL     1       2.015  -0.580  -1.274  1.00  0.00    -0.263 N 
ATOM      2  H1  UNL     1       2.691   0.112  -0.951  1.00  0.00     0.190 HD
ENDROOT
BRANCH   1   3
HETATM    3  C1  UNL     1       1.921  -1.816  -0.633  1.00  0.00     0.238 C 
BRANCH   3   4
HETATM    4  O1  UNL     1       0.993  -2.597  -1.123  1.00  0.00    -0.331 OA
ATOM      5  H1  UNL     1       0.929  -3.438  -0.687  1.00  0.00     0.221 HD
ENDBRANCH   3   4
BRANCH   3   6
HETATM    6  N4  UNL     1       2.683  -2.296   0.442  1.00  0.00    -0.301 N 
ATOM      7  H4  UNL     1       2.396  -3.223   0.756  1.00  0.00     0.171 HD
BRANCH   6   8
HETATM    8  C11 UNL     1       3.734  -1.783   1.162  1.00  0.00     0.153 C 
BRANCH   8   9
HETATM    9  O2  UNL     1       4.217  -2.458   2.166  1.00  0.00    -0.345 OA
ATOM     10  H2  UNL     1       4.944  -2.103   2.664  1.00  0.00     0.219 HD
ENDBRANCH   8   9
BRANCH   8  11
HETATM   11  C12 UNL     1       4.403  -0.526   0.922  1.00  0.00     0.015 A 
HETATM   12  C13 UNL     1       5.380  -0.464  -0.075  1.00  0.00     0.016 A 
HETATM   13  C14 UNL     1       6.053   0.693  -0.328  1.00  0.00     0.001 A 
HETATM   14  C15 UNL     1       5.796   1.838   0.387  1.00  0.00     0.000 A 
HETATM   15  C16 UNL     1       4.828   1.807   1.389  1.00  0.00     0.001 A 
HETATM   16  C17 UNL     1       4.164   0.628   1.623  1.00  0.00     0.016 A 
ENDBRANCH   8  11
ENDBRANCH   6   8
ENDBRANCH   3   6
ENDBRANCH   1   3
BRANCH   1  17
HETATM   17  N2  UNL     1       1.184  -0.290  -2.358  1.00  0.00    -0.273 N 
ATOM     18  H2  UNL     1       1.587  -0.237  -3.293  1.00  0.00     0.189 HD
BRANCH  17  19
HETATM   19  C2  UNL     1      -0.187  -0.071  -2.194  1.00  0.00     0.186 C 
HETATM   20  S1  UNL     1      -1.138   0.265  -3.513  1.00  0.00    -0.040 SA
BRANCH  19  21
HETATM   21  N3  UNL     1      -0.829  -0.125  -0.937  1.00  0.00    -0.366 N 
ATOM     22  H3  UNL     1      -0.291  -0.334  -0.096  1.00  0.00     0.161 HD
BRANCH  21  23
HETATM   23  C3  UNL     1      -2.247   0.116  -0.849  1.00  0.00     0.126 C 
BRANCH  23  24
HETATM   24  C4  UNL     1      -2.754  -0.101   0.541  1.00  0.00     0.060 C 
BRANCH  24  25
HETATM   25  C5  UNL     1      -4.212   0.177   0.635  1.00  0.00    -0.035 A 
HETATM   26  C6  UNL     1      -5.157  -0.817   0.652  1.00  0.00     0.009 A 
HETATM   27  C7  UNL     1      -6.513  -0.543   0.723  1.00  0.00     0.001 A 
HETATM   28  C8  UNL     1      -6.939   0.776   0.778  1.00  0.00     0.002 A 
HETATM   29  C9  UNL     1      -5.966   1.756   0.759  1.00  0.00     0.024 A 
HETATM   30  C10 UNL     1      -4.612   1.491   0.689  1.00  0.00     0.040 A 
HETATM   31 CL1  UNL     1      -3.438   2.820   0.676  1.00  0.00    -0.084 Cl
ENDBRANCH  24  25
ENDBRANCH  23  24
ENDBRANCH  21  23
ENDBRANCH  19  21
ENDBRANCH  17  19
ENDBRANCH   1  17
TORSDOF 12
