REMARK  7 active torsions:
REMARK  status: ('A' for Active; 'I' for Inactive)
REMARK    1  A    between atoms: C2_2  and  N1_3 
REMARK    2  A    between atoms: N1_3  and  C3_5 
REMARK    3  A    between atoms: C3_5  and  N2_7 
REMARK    4  A    between atoms: N2_7  and  N3_9 
REMARK    5  A    between atoms: N3_9  and  C4_11 
REMARK    6  A    between atoms: C4_11  and  N4_13 
REMARK       I    between atoms: N4_13  and  C5_15 
REMARK    7  A    between atoms: C5_15  and  C6_17 
ROOT
HETATM    1  N3  UNL     1      -1.063  -1.457  -0.690  1.00  0.00    -0.274 N 
ATOM      2  H3  UNL     1      -0.904  -0.910  -1.536  1.00  0.00     0.189 HD
ENDROOT
BRANCH   1   3
HETATM    3  N2  UNL     1      -2.127  -2.324  -0.610  1.00  0.00    -0.274 N 
ATOM      4  H2  UNL     1      -1.897  -3.316  -0.545  1.00  0.00     0.189 HD
BRANCH   3   5
HETATM    5  C3  UNL     1      -3.483  -2.004  -0.608  1.00  0.00     0.186 C 
HETATM    6  S1  UNL     1      -4.618  -3.246  -0.496  1.00  0.00    -0.040 SA
BRANCH   5   7
HETATM    7  N1  UNL     1      -3.992  -0.703  -0.692  1.00  0.00    -0.366 N 
ATOM      8  H1  UNL     1      -5.005  -0.585  -0.676  1.00  0.00     0.161 HD
BRANCH   7   9
HETATM    9  C2  UNL     1      -3.181   0.474  -0.799  1.00  0.00     0.117 C 
HETATM   10  C1  UNL     1      -4.135   1.693  -0.825  1.00  0.00     0.026 C 
ENDBRANCH   7   9
ENDBRANCH   5   7
ENDBRANCH   3   5
ENDBRANCH   1   3
BRANCH   1  11
HETATM   11  C4  UNL     1      -0.179  -1.333   0.435  1.00  0.00     0.193 C 
HETATM   12  S2  UNL     1      -0.469  -2.227   1.768  1.00  0.00    -0.039 SA
BRANCH  11  13
HETATM   13  N4  UNL     1       0.914  -0.447   0.361  1.00  0.00    -0.302 N 
HETATM   14  C5  UNL     1       1.821  -0.276   1.429  1.00  0.00     0.228 C 
HETATM   15  O1  UNL     1       1.647  -0.939   2.483  1.00  0.00    -0.273 OA
ATOM     16  H4  UNL     1       1.055   0.090  -0.495  1.00  0.00     0.171 HD
BRANCH  14  17
HETATM   17  C6  UNL     1       2.972   0.646   1.374  1.00  0.00     0.082 A 
HETATM   18  C7  UNL     1       2.956   1.844   0.506  1.00  0.00     0.019 A 
HETATM   19  C8  UNL     1       3.660   0.643   0.001  1.00  0.00    -0.005 A 
HETATM   20  C9  UNL     1       5.140   0.499   0.063  1.00  0.00     0.011 C 
ENDBRANCH  14  17
ENDBRANCH  11  13
ENDBRANCH   1  11
TORSDOF 7
