REMARK  5 active torsions:
REMARK  status: ('A' for Active; 'I' for Inactive)
REMARK    1  A    between atoms: C2_2  and  C3_3 
REMARK    2  A    between atoms: C2_2  and  N1_6 
REMARK    3  A    between atoms: C10_13  and  N2_14 
REMARK       I    between atoms: N2_14  and  C11_16 
REMARK    4  A    between atoms: C13_22  and  C14_23 
REMARK    5  A    between atoms: C13_22  and  C15_26 
ROOT
HETATM    1  N1  UNL     1      -1.126  -0.668   0.008  1.00  0.00    -0.009 N 
HETATM    2  C4  UNL     1      -2.089  -0.987  -1.054  1.00  0.00     0.246 C 
HETATM    3  C5  UNL     1      -1.818  -2.093  -1.993  1.00  0.00     0.029 C 
HETATM    4  C6  UNL     1      -1.937  -3.455  -1.268  1.00  0.00     0.004 C 
HETATM    5  C7  UNL     1      -1.492  -3.113   0.150  1.00  0.00     0.034 C 
HETATM    6  C8  UNL     1      -0.511  -1.971   0.144  1.00  0.00     0.200 C 
HETATM    7  C9  UNL     1       0.715  -2.211   0.890  1.00  0.00     0.059 C 
HETATM    8  C10 UNL     1       1.763  -1.260   0.405  1.00  0.00     0.089 C 
HETATM    9  C12 UNL     1       1.222   0.086   0.276  1.00  0.00     0.075 C 
HETATM   10  C13 UNL     1      -0.134   0.313  -0.347  1.00  0.00     0.218 C 
ENDROOT
BRANCH  10  11
HETATM   11  C14 UNL     1       0.139   0.389  -1.832  1.00  0.00     0.269 C 
HETATM   12  N5  UNL     1       1.422   0.118  -2.392  1.00  0.00    -0.060 NA
HETATM   13  O3  UNL     1      -0.707   0.689  -2.701  1.00  0.00    -0.274 OA
ENDBRANCH  10  11
BRANCH  10  14
HETATM   14  C15 UNL     1      -0.422   1.734   0.103  1.00  0.00     0.032 C 
HETATM   15  C16 UNL     1      -1.487   2.537  -0.383  1.00  0.00     0.007 C 
HETATM   16  C17 UNL     1      -0.913   3.842  -1.003  1.00  0.00     0.000 C 
HETATM   17  C18 UNL     1       0.240   4.007  -0.030  1.00  0.00     0.000 C 
HETATM   18  C19 UNL     1       0.820   2.589  -0.226  1.00  0.00     0.007 C 
ENDBRANCH  10  14
BRANCH   1  19
HETATM   19  C2  UNL     1      -1.976  -0.259   1.092  1.00  0.00     0.205 C 
HETATM   20  C1  UNL     1      -3.267   0.119   0.867  1.00  0.00     0.058 C 
BRANCH  19  21
HETATM   21  C3  UNL     1      -1.697  -0.172   2.501  1.00  0.00     0.234 C 
HETATM   22  O1  UNL     1      -2.580   0.200   3.366  1.00  0.00    -0.643 OA
HETATM   23  O2  UNL     1      -0.525  -0.450   3.117  1.00  0.00    -0.643 OA
ENDBRANCH  19  21
ENDBRANCH   1  19
BRANCH   8  24
HETATM   24  N2  UNL     1       2.891  -1.184   1.328  1.00  0.00    -0.360 N 
HETATM   25  C11 UNL     1       3.997  -0.333   1.054  1.00  0.00     0.182 C 
HETATM   26  N3  UNL     1       4.875  -0.750   0.178  1.00  0.00    -0.374 N 
HETATM   27  N4  UNL     1       4.187   0.914   1.672  1.00  0.00    -0.064 NA
ATOM     28  H32 UNL     1       4.737  -1.656  -0.271  1.00  0.00     0.158 HD
ATOM     29  H31 UNL     1       5.668  -0.140  -0.019  1.00  0.00     0.158 HD
ATOM     30  H2  UNL     1       2.886  -1.747   2.178  1.00  0.00     0.162 HD
ENDBRANCH   8  24
TORSDOF 5
