REMARK  5 active torsions:
REMARK  status: ('A' for Active; 'I' for Inactive)
REMARK    1  A    between atoms: C4_4  and  C6_6 
REMARK    2  A    between atoms: C6_6  and  C7_7 
REMARK    3  A    between atoms: C8_8  and  C9_9 
REMARK    4  A    between atoms: C18_18  and  C19_19 
REMARK    5  A    between atoms: C19_19  and  N2_21 
REMARK       I    between atoms: N2_21  and  C20_22 
ROOT
HETATM    1  C1  UNL     1       5.531   2.952  -0.208  1.00  0.00     0.102 C 
HETATM    2  C2  UNL     1       5.780   1.823   0.192  1.00  0.00    -0.160 C 
HETATM    3  C3  UNL     1       6.098   0.499   0.707  1.00  0.00     0.053 C 
HETATM    4  C4  UNL     1       5.332  -0.512   0.358  1.00  0.00    -0.066 C 
HETATM    5  C5  UNL     1       5.736  -1.843   0.926  1.00  0.00     0.045 C 
ENDROOT
BRANCH   4   6
HETATM    6  C6  UNL     1       4.159  -0.339  -0.494  1.00  0.00     0.128 C 
BRANCH   6   7
HETATM    7  C7  UNL     1       2.891  -0.754   0.110  1.00  0.00    -0.102 C 
HETATM    8  C8  UNL     1       1.807  -1.023   0.550  1.00  0.00    -0.101 C 
BRANCH   8   9
HETATM    9  C9  UNL     1       0.429  -1.257   1.077  1.00  0.00     0.073 C 
HETATM   10  C10 UNL     1      -0.127   0.132   1.412  1.00  0.00     0.002 C 
HETATM   11  C11 UNL     1       0.202   1.121   0.378  1.00  0.00     0.010 C 
HETATM   12  C17 UNL     1      -1.576  -0.175   1.561  1.00  0.00     0.011 C 
HETATM   13  C12 UNL     1      -0.353   0.967  -0.987  1.00  0.00    -0.013 C 
HETATM   14  C13 UNL     1       0.157  -0.130  -1.846  1.00  0.00     0.005 C 
HETATM   15  C21 UNL     1      -1.803   1.027  -1.108  1.00  0.00     0.018 C 
HETATM   16  C14 UNL     1       0.019  -1.489  -1.357  1.00  0.00     0.007 C 
HETATM   17  C15 UNL     1      -0.520  -1.697   0.010  1.00  0.00     0.006 C 
HETATM   18  C16 UNL     1      -1.820  -1.047   0.347  1.00  0.00     0.003 C 
HETATM   19  C18 UNL     1      -2.496  -0.308  -0.701  1.00  0.00     0.070 C 
BRANCH  19  20
HETATM   20  C19 UNL     1      -3.825   0.153  -0.477  1.00  0.00     0.175 C 
HETATM   21  N1  UNL     1      -4.296   0.656  -1.808  1.00  0.00    -0.071 NA
BRANCH  20  22
HETATM   22  N2  UNL     1      -4.893   0.349   0.292  1.00  0.00    -0.344 NA
HETATM   23  C20 UNL     1      -5.977   0.545   1.080  1.00  0.00     0.406 C 
HETATM   24  N3  UNL     1      -7.083   1.137   0.210  1.00  0.00    -0.025 NA
HETATM   25  O1  UNL     1      -6.351   0.438   2.199  1.00  0.00    -0.234 OA
ENDBRANCH  20  22
ENDBRANCH  19  20
ENDBRANCH   8   9
ENDBRANCH   6   7
ENDBRANCH   4   6
TORSDOF 5
