REMARK  7 active torsions:
REMARK  status: ('A' for Active; 'I' for Inactive)
REMARK    1  A    between atoms: C2_2  and  C3_3 
REMARK    2  A    between atoms: C3_3  and  N1_5 
REMARK       I    between atoms: N1_5  and  C5_7 
REMARK       I    between atoms: C5_7  and  N2_9 
REMARK    3  A    between atoms: N2_9  and  C6_11 
REMARK    4  A    between atoms: C10_18  and  N4_19 
REMARK    5  A    between atoms: N4_19  and  S1_21 
REMARK    6  A    between atoms: S1_21  and  N5_24 
REMARK    7  A    between atoms: N5_24  and  C11_26 
ROOT
HETATM    1  C6  UNL     1       0.632  -0.760   0.510  1.00  0.00     0.137 A 
HETATM    2  N3  UNL     1       1.451  -1.598   1.164  1.00  0.00    -0.349 N 
ATOM      3  H3  UNL     1       2.422  -1.340   1.342  1.00  0.00     0.167 HD
HETATM    4  C7  UNL     1       0.967  -2.796   1.585  1.00  0.00     0.113 A 
HETATM    5  C8  UNL     1      -0.338  -3.161   1.356  1.00  0.00     0.051 A 
HETATM    6 CL1  UNL     1      -0.939  -4.702   1.905  1.00  0.00    -0.083 Cl
HETATM    7  C9  UNL     1      -1.181  -2.309   0.688  1.00  0.00     0.059 A 
HETATM    8  C10 UNL     1      -0.683  -1.102   0.266  1.00  0.00     0.089 A 
ENDROOT
BRANCH   8   9
HETATM    9  N4  UNL     1      -1.496  -0.175  -0.417  1.00  0.00    -0.264 N 
ATOM     10  H4  UNL     1      -1.204   0.801  -0.457  1.00  0.00     0.180 HD
BRANCH   9  11
HETATM   11  S1  UNL     1      -2.971  -0.637  -1.188  1.00  0.00     0.320 S 
HETATM   12  O2  UNL     1      -2.811  -2.043  -1.758  1.00  0.00    -0.182 OA
HETATM   13  O3  UNL     1      -3.126   0.244  -2.390  1.00  0.00    -0.182 OA
BRANCH  11  14
HETATM   14  N5  UNL     1      -4.191  -0.607  -0.071  1.00  0.00    -0.294 N 
ATOM     15  H5  UNL     1      -4.370  -1.452   0.472  1.00  0.00     0.174 HD
BRANCH  14  16
HETATM   16  C11 UNL     1      -4.984   0.507   0.166  1.00  0.00     0.031 C 
HETATM   17  C12 UNL     1      -5.927   0.149   1.337  1.00  0.00     0.038 C 
HETATM   18  C13 UNL     1      -5.915   0.847  -0.972  1.00  0.00     0.038 C 
HETATM   19  C14 UNL     1      -4.278   1.768   0.582  1.00  0.00     0.038 C 
ENDBRANCH  14  16
ENDBRANCH  11  14
ENDBRANCH   9  11
ENDBRANCH   8   9
BRANCH   1  20
HETATM   20  N2  UNL     1       1.047   0.381   0.094  1.00  0.00    -0.293 N 
HETATM   21  C5  UNL     1       2.398   0.737   0.343  1.00  0.00     0.322 C 
HETATM   22  N1  UNL     1       3.366   0.738  -0.698  1.00  0.00    -0.339 N 
HETATM   23  O1  UNL     1       2.788   1.070   1.513  1.00  0.00    -0.247 OA
ATOM     24  H1  UNL     1       3.078   0.477  -1.641  1.00  0.00     0.164 HD
ATOM     25  H2  UNL     1       0.422   1.016  -0.403  1.00  0.00     0.172 HD
BRANCH  22  26
HETATM   26  C3  UNL     1       4.740   1.096  -0.464  1.00  0.00     0.081 C 
HETATM   27  C4  UNL     1       5.175   2.292  -1.295  1.00  0.00     0.032 C 
BRANCH  26  28
HETATM   28  C2  UNL     1       5.598  -0.111  -0.758  1.00  0.00     0.020 C 
HETATM   29  C1  UNL     1       7.058   0.131  -0.457  1.00  0.00     0.007 C 
ENDBRANCH  26  28
ENDBRANCH  22  26
ENDBRANCH   1  20
TORSDOF 7
