REMARK  11 active torsions:
REMARK  status: ('A' for Active; 'I' for Inactive)
REMARK    1  A    between atoms: C2_2  and  C3_3 
REMARK    2  A    between atoms: C3_3  and  C4_4 
REMARK    3  A    between atoms: C4_4  and  C5_5 
REMARK    4  A    between atoms: C5_5  and  C6_6 
REMARK    5  A    between atoms: C6_6  and  C7_7 
REMARK    6  A    between atoms: C7_7  and  C8_8 
REMARK    7  A    between atoms: C8_8  and  C9_9 
REMARK    8  A    between atoms: C9_9  and  N1_10 
REMARK       I    between atoms: N1_10  and  C10_12 
REMARK    9  A    between atoms: C10_12  and  C11_14 
REMARK   10  A    between atoms: C18_26  and  C19_27 
REMARK   11  A    between atoms: C19_27  and  O2_28 
ROOT
HETATM    1  C11 UNL     1      -1.165  -0.569  -0.823  1.00  0.00     0.077 C 
HETATM    2  C12 UNL     1      -1.939  -0.253   0.393  1.00  0.00     0.112 C 
HETATM    3  C13 UNL     1      -3.316  -0.818   0.413  1.00  0.00     0.013 C 
HETATM    4  C14 UNL     1      -3.646  -1.769  -0.719  1.00  0.00     0.172 C 
HETATM    5  N2  UNL     1      -2.758  -1.876  -1.801  1.00  0.00    -0.147 NA
HETATM    6  N3  UNL     1      -1.459  -1.862  -1.445  1.00  0.00    -0.202 NA
HETATM    7  C15 UNL     1      -1.113  -2.913  -0.480  1.00  0.00     0.138 C 
HETATM    8  C16 UNL     1      -5.042  -1.373  -1.212  1.00  0.00     0.237 C 
HETATM    9  N4  UNL     1      -5.148   0.005  -1.661  1.00  0.00    -0.060 N 
ATOM     10  H41 UNL     1      -5.218   0.243  -2.650  1.00  0.00     0.278 HD
ATOM     11  H42 UNL     1      -4.362   0.651  -1.598  1.00  0.00     0.278 HD
HETATM   12  C17 UNL     1      -6.287   0.103  -0.772  1.00  0.00     0.218 C 
HETATM   13  C18 UNL     1      -6.296   1.310   0.172  1.00  0.00     0.060 C 
HETATM   14  C21 UNL     1      -4.830   1.179   0.685  1.00  0.00     0.132 C 
HETATM   15  N5  UNL     1      -4.466  -0.102   0.583  1.00  0.00    -0.376 N 
HETATM   16  C22 UNL     1      -5.595  -0.886   0.101  1.00  0.00     0.147 C 
ENDROOT
BRANCH   1  17
HETATM   17  C10 UNL     1       0.161  -0.138  -1.155  1.00  0.00     0.264 C 
HETATM   18  N1  UNL     1       1.385  -0.908  -1.102  1.00  0.00    -0.336 N 
ATOM     19  H1  UNL     1       1.323  -1.878  -0.792  1.00  0.00     0.168 HD
HETATM   20  O1  UNL     1       0.357   1.069  -1.587  1.00  0.00    -0.267 OA
BRANCH  18  21
HETATM   21  C9  UNL     1       2.652  -0.413  -1.447  1.00  0.00     0.064 C 
BRANCH  21  22
HETATM   22  C8  UNL     1       3.487   0.366  -0.503  1.00  0.00     0.044 C 
BRANCH  22  23
HETATM   23  C7  UNL     1       3.931  -0.613   0.584  1.00  0.00     0.005 C 
BRANCH  23  24
HETATM   24  C6  UNL     1       4.848   0.076   1.536  1.00  0.00     0.000 C 
BRANCH  24  25
HETATM   25  C5  UNL     1       6.056   0.697   0.906  1.00  0.00     0.000 C 
BRANCH  25  26
HETATM   26  C4  UNL     1       6.899  -0.272   0.142  1.00  0.00     0.000 C 
BRANCH  26  27
HETATM   27  C3  UNL     1       8.103   0.425  -0.495  1.00  0.00    -0.000 C 
BRANCH  27  28
HETATM   28  C2  UNL     1       9.004   1.069   0.548  1.00  0.00    -0.005 C 
HETATM   29  C1  UNL     1      10.162   1.782  -0.122  1.00  0.00     0.005 C 
ENDBRANCH  27  28
ENDBRANCH  26  27
ENDBRANCH  25  26
ENDBRANCH  24  25
ENDBRANCH  23  24
ENDBRANCH  22  23
ENDBRANCH  21  22
ENDBRANCH  18  21
ENDBRANCH   1  17
BRANCH  13  30
HETATM   30  C19 UNL     1      -7.296   0.937   1.225  1.00  0.00     0.175 C 
BRANCH  30  31
HETATM   31  O2  UNL     1      -7.603   1.832   2.195  1.00  0.00    -0.395 OA
HETATM   32  C20 UNL     1      -8.241   2.965   1.644  1.00  0.00     0.201 C 
ENDBRANCH  30  31
ENDBRANCH  13  30
TORSDOF 11
