REMARK  11 active torsions:
REMARK  status: ('A' for Active; 'I' for Inactive)
REMARK    1  A    between atoms: C2_2  and  C3_3 
REMARK    2  A    between atoms: N1_5  and  C5_7 
REMARK    3  A    between atoms: C5_7  and  C6_8 
REMARK    4  A    between atoms: C5_7  and  C8_15 
REMARK    5  A    between atoms: C6_8  and  N2_9 
REMARK    6  A    between atoms: N2_9  and  C7_11 
REMARK    7  A    between atoms: C8_15  and  N4_16 
REMARK    8  A    between atoms: C12_22  and  N6_23 
REMARK       I    between atoms: N6_23  and  C13_25 
REMARK    9  A    between atoms: C16_29  and  C17_30 
REMARK   10  A    between atoms: C17_30  and  C18_31 
REMARK   11  A    between atoms: C18_31  and  C19_32 
REMARK       I    between atoms: C19_32  and  N7_34 
ROOT
HETATM    1  C3  UNL     1       1.023  -0.504  -1.013  1.00  0.00     0.079 C 
HETATM    2  C4  UNL     1      -0.226  -0.022  -0.244  1.00  0.00     0.083 C 
HETATM    3  N1  UNL     1      -1.255   0.068  -0.893  1.00  0.00    -0.371 N 
ATOM      4  H1  UNL     1      -1.050  -0.210  -1.853  1.00  0.00     0.161 HD
HETATM    5  N5  UNL     1      -0.028   0.260   1.122  1.00  0.00    -0.358 N 
ATOM      6  H5  UNL     1      -0.434   1.107   1.519  1.00  0.00     0.162 HD
HETATM    7  C12 UNL     1       0.748  -0.636   1.988  1.00  0.00     0.185 C 
HETATM    8  C15 UNL     1       1.484  -1.647   1.151  1.00  0.00     0.052 C 
HETATM    9  C16 UNL     1       2.058  -0.987  -0.120  1.00  0.00     0.004 C 
ENDROOT
BRANCH   1  10
HETATM   10  C2  UNL     1       1.313   0.571  -1.938  1.00  0.00    -0.024 C 
HETATM   11  C1  UNL     1       1.179   0.351  -3.251  1.00  0.00     0.008 C 
ENDBRANCH   1  10
BRANCH   3  12
HETATM   12  C5  UNL     1      -2.600   0.406  -0.820  1.00  0.00     0.126 C 
BRANCH  12  13
HETATM   13  C6  UNL     1      -3.355  -0.939  -0.904  1.00  0.00     0.147 C 
BRANCH  13  14
HETATM   14  N2  UNL     1      -2.957  -1.512  -2.201  1.00  0.00    -0.384 N 
ATOM     15  H2  UNL     1      -2.311  -1.017  -2.815  1.00  0.00     0.160 HD
BRANCH  14  16
HETATM   16  C7  UNL     1      -3.501  -2.782  -2.577  1.00  0.00     0.168 C 
HETATM   17  N3  UNL     1      -3.738  -3.651  -1.649  1.00  0.00    -0.396 N 
ATOM     18  H32 UNL     1      -3.536  -3.421  -0.676  1.00  0.00     0.156 HD
ATOM     19  H31 UNL     1      -4.126  -4.556  -1.917  1.00  0.00     0.156 HD
ENDBRANCH  14  16
ENDBRANCH  13  14
ENDBRANCH  12  13
BRANCH  12  20
HETATM   20  C8  UNL     1      -2.926   1.142   0.426  1.00  0.00     0.262 C 
BRANCH  20  21
HETATM   21  N4  UNL     1      -4.307   1.537   0.582  1.00  0.00    -0.077 N 
HETATM   22  C9  UNL     1      -4.935   2.010  -0.608  1.00  0.00     0.271 C 
HETATM   23  C10 UNL     1      -4.280   2.688   1.506  1.00  0.00     0.271 C 
HETATM   24  C11 UNL     1      -5.013   0.493   1.273  1.00  0.00     0.271 C 
ENDBRANCH  20  21
ENDBRANCH  12  20
ENDBRANCH   3  12
BRANCH   9  25
HETATM   25  C17 UNL     1       3.284  -0.224   0.204  1.00  0.00     0.015 C 
BRANCH  25  26
HETATM   26  C18 UNL     1       4.196   0.056  -0.919  1.00  0.00     0.103 C 
BRANCH  26  27
HETATM   27  C19 UNL     1       5.433   0.800  -0.437  1.00  0.00     0.219 C 
HETATM   28  O2  UNL     1       5.593   1.105   0.760  1.00  0.00    -0.273 OA
HETATM   29  N7  UNL     1       6.395   1.133  -1.400  1.00  0.00    -0.361 N 
HETATM   30  C20 UNL     1       7.600   1.841  -1.024  1.00  0.00     0.152 C 
HETATM   31  C21 UNL     1       6.219   0.783  -2.789  1.00  0.00     0.152 C 
ENDBRANCH  26  27
ENDBRANCH  25  26
ENDBRANCH   9  25
BRANCH   7  32
HETATM   32  N6  UNL     1      -0.234  -1.366   2.789  1.00  0.00    -0.340 N 
HETATM   33  C13 UNL     1      -0.268  -1.296   4.193  1.00  0.00     0.215 C 
HETATM   34  C14 UNL     1      -1.271  -2.045   4.963  1.00  0.00     0.117 C 
HETATM   35  O1  UNL     1       0.570  -0.583   4.789  1.00  0.00    -0.274 OA
ATOM     36  H6  UNL     1      -0.921  -1.949   2.311  1.00  0.00     0.164 HD
ENDBRANCH   7  32
TORSDOF 11
