REMARK  5 active torsions:
REMARK  status: ('A' for Active; 'I' for Inactive)
REMARK    1  A    between atoms: N1_1  and  N2_4 
REMARK    2  A    between atoms: N2_4  and  C1_6 
REMARK    3  A    between atoms: C4_14  and  C5_15 
REMARK    4  A    between atoms: C5_15  and  O2_16 
REMARK    5  A    between atoms: C5_15  and  C6_18 
ROOT
HETATM    1  C1  UNL     1       1.739   0.347   0.064  1.00  0.00     0.175 C 
HETATM    2  N3  UNL     1       1.812   1.359  -0.820  1.00  0.00    -0.290 N 
ATOM      3  H3  UNL     1       2.735   1.784  -0.906  1.00  0.00     0.172 HD
HETATM    4  C2  UNL     1       0.863   1.906  -1.614  1.00  0.00     0.325 C 
HETATM    5  O1  UNL     1       1.151   2.998  -2.186  1.00  0.00    -0.247 OA
HETATM    6  N4  UNL     1      -0.373   1.452  -1.895  1.00  0.00    -0.318 N 
ATOM      7  H4  UNL     1      -0.864   1.966  -2.627  1.00  0.00     0.170 HD
HETATM    8  C3  UNL     1      -1.067   0.418  -1.357  1.00  0.00     0.107 C 
HETATM    9  C4  UNL     1      -0.638  -0.339  -0.279  1.00  0.00     0.046 C 
HETATM   10  C7  UNL     1       0.604  -0.394   0.320  1.00  0.00     0.227 C 
HETATM   11  O4  UNL     1       0.716  -1.247   1.236  1.00  0.00    -0.284 OA
ENDROOT
BRANCH   1  12
HETATM   12  N2  UNL     1       2.827   0.061   0.716  1.00  0.00    -0.289 N 
ATOM     13  H2  UNL     1       3.659   0.616   0.518  1.00  0.00     0.188 HD
BRANCH  12  14
HETATM   14  N1  UNL     1       2.931  -0.933   1.648  1.00  0.00    -0.344 N 
ATOM     15  H12 UNL     1       2.089  -1.478   1.833  1.00  0.00     0.176 HD
ATOM     16  H11 UNL     1       3.784  -1.157   2.159  1.00  0.00     0.176 HD
ENDBRANCH  12  14
ENDBRANCH   1  12
BRANCH   9  17
HETATM   17  C5  UNL     1      -1.699  -1.223   0.309  1.00  0.00     0.217 C 
BRANCH  17  18
HETATM   18  O2  UNL     1      -1.251  -1.607   1.569  1.00  0.00    -0.384 OA
ATOM     19  H2  UNL     1      -1.923  -2.167   1.941  1.00  0.00     0.211 HD
ENDBRANCH  17  18
BRANCH  17  20
HETATM   20  C6  UNL     1      -2.968  -0.463   0.452  1.00  0.00     0.267 C 
HETATM   21  O3  UNL     1      -3.413  -0.289   1.567  1.00  0.00    -0.304 OA
ENDBRANCH  17  20
ENDBRANCH   9  17
TORSDOF 5
