REMARK  13 active torsions:
REMARK  status: ('A' for Active; 'I' for Inactive)
REMARK    1  A    between atoms: C2_2  and  O1_3 
REMARK    2  A    between atoms: N1_6  and  C4_7 
REMARK    3  A    between atoms: C7_10  and  O2_11 
REMARK    4  A    between atoms: O2_11  and  C8_12 
REMARK    5  A    between atoms: C8_12  and  C9_13 
REMARK    6  A    between atoms: C10_15  and  O4_16 
REMARK    7  A    between atoms: O4_16  and  C11_17 
REMARK    8  A    between atoms: C11_17  and  C12_18 
REMARK    9  A    between atoms: C18_24  and  O5_25 
REMARK   10  A    between atoms: C19_27  and  O6_28 
REMARK   11  A    between atoms: C20_30  and  O7_31 
REMARK   12  A    between atoms: C21_33  and  O8_34 
REMARK   13  A    between atoms: C22_36  and  O9_37 
ROOT
HETATM    1  C9  UNL     1       0.618  -2.212  -0.031  1.00  0.00     0.180 C 
HETATM    2  O3  UNL     1      -0.562  -1.716  -0.507  1.00  0.00    -0.348 OA
HETATM    3  C10 UNL     1      -1.711  -2.096   0.157  1.00  0.00     0.291 C 
HETATM    4  C18 UNL     1      -1.592  -3.453   0.827  1.00  0.00     0.204 C 
HETATM    5  C19 UNL     1      -0.702  -4.276  -0.078  1.00  0.00     0.183 C 
HETATM    6  C20 UNL     1       0.697  -3.718   0.083  1.00  0.00     0.180 C 
ENDROOT
BRANCH   1   7
HETATM    7  C8  UNL     1       1.160  -1.517   1.197  1.00  0.00     0.205 C 
BRANCH   7   8
HETATM    8  O2  UNL     1       1.437  -0.192   1.044  1.00  0.00    -0.352 OA
BRANCH   8   9
HETATM    9  C7  UNL     1       2.379   0.159   0.116  1.00  0.00     0.391 C 
HETATM   10  N1  UNL     1       3.453   0.965   0.717  1.00  0.00     0.127 N 
HETATM   11  C3  UNL     1       2.867   1.728   1.765  1.00  0.00     0.316 C 
HETATM   12  C2  UNL     1       1.909   2.733   1.167  1.00  0.00     0.109 C 
HETATM   13  C1  UNL     1       2.635   4.001   0.768  1.00  0.00     0.050 C 
HETATM   14  C22 UNL     1       1.025   2.174   0.110  1.00  0.00     0.187 C 
HETATM   15  C21 UNL     1       1.694   1.182  -0.815  1.00  0.00     0.209 C 
BRANCH  10  16
HETATM   16  C4  UNL     1       4.627   0.234   1.020  1.00  0.00     0.226 A 
HETATM   17  C5  UNL     1       5.286  -0.529  -0.064  1.00  0.00     0.038 A 
HETATM   18  C6  UNL     1       5.935   0.750   0.381  1.00  0.00     0.038 A 
ENDBRANCH  10  16
BRANCH  12  19
HETATM   19  O1  UNL     1       1.061   3.109   2.240  1.00  0.00    -0.386 OA
ATOM     20  H1  UNL     1       0.606   2.314   2.490  1.00  0.00     0.210 HD
ENDBRANCH  12  19
BRANCH  14  21
HETATM   21  O9  UNL     1       0.497   3.208  -0.649  1.00  0.00    -0.390 OA
ATOM     22  H9  UNL     1      -0.068   2.851  -1.324  1.00  0.00     0.210 HD
ENDBRANCH  14  21
BRANCH  15  23
HETATM   23  O8  UNL     1       2.637   1.775  -1.622  1.00  0.00    -0.388 OA
ATOM     24  H8  UNL     1       2.215   2.405  -2.195  1.00  0.00     0.210 HD
ENDBRANCH  15  23
ENDBRANCH   8   9
ENDBRANCH   7   8
ENDBRANCH   1   7
BRANCH   6  25
HETATM   25  O7  UNL     1       1.148  -4.110   1.348  1.00  0.00    -0.390 OA
ATOM     26  H7  UNL     1       1.198  -5.056   1.420  1.00  0.00     0.210 HD
ENDBRANCH   6  25
BRANCH   3  27
HETATM   27  O4  UNL     1      -2.796  -2.040  -0.694  1.00  0.00    -0.358 OA
BRANCH  27  28
HETATM   28  C11 UNL     1      -3.798  -1.184  -0.385  1.00  0.00     0.175 C 
BRANCH  28  29
HETATM   29  C12 UNL     1      -3.322   0.247  -0.384  1.00  0.00     0.009 C 
HETATM   30  C13 UNL     1      -4.462   1.198  -0.026  1.00  0.00     0.007 C 
HETATM   31  C14 UNL     1      -5.338   1.528  -1.198  1.00  0.00     0.000 C 
HETATM   32  C15 UNL     1      -4.582   2.466  -2.113  1.00  0.00     0.000 C 
HETATM   33  C16 UNL     1      -3.120   2.140  -1.950  1.00  0.00     0.000 C 
HETATM   34  C17 UNL     1      -2.856   0.667  -1.779  1.00  0.00     0.007 C 
ENDBRANCH  28  29
ENDBRANCH  27  28
ENDBRANCH   3  27
BRANCH   5  35
HETATM   35  O6  UNL     1      -0.778  -5.604   0.350  1.00  0.00    -0.390 OA
ATOM     36  H6  UNL     1      -0.219  -6.121  -0.218  1.00  0.00     0.210 HD
ENDBRANCH   5  35
BRANCH   4  37
HETATM   37  O5  UNL     1      -2.837  -4.046   1.012  1.00  0.00    -0.388 OA
ATOM     38  H5  UNL     1      -2.763  -4.895   1.431  1.00  0.00     0.210 HD
ENDBRANCH   4  37
TORSDOF 13
