REMARK  1 active torsions:
REMARK  status: ('A' for Active; 'I' for Inactive)
REMARK    1  A    between atoms: O1_1  and  C1_3 
ROOT
HETATM    1  C1  UNL     1      -1.928  -0.027  -0.080  1.00  0.00     0.091 C 
HETATM    2  C2  UNL     1      -2.142   1.337   0.431  1.00  0.00     0.043 C 
HETATM    3  C3  UNL     1      -3.590   1.469   0.871  1.00  0.00     0.029 C 
HETATM    4  C4  UNL     1      -4.320   0.184   0.976  1.00  0.00     0.168 C 
HETATM    5  O2  UNL     1      -3.614  -0.894   1.415  1.00  0.00    -0.383 OA
HETATM    6  C5  UNL     1      -2.321  -1.003   1.036  1.00  0.00     0.156 C 
HETATM    7  C6  UNL     1      -1.926  -2.298   0.395  1.00  0.00     0.036 C 
HETATM    8  C7  UNL     1      -0.588  -1.966  -0.214  1.00  0.00     0.015 C 
HETATM    9  C8  UNL     1      -0.565  -0.448  -0.409  1.00  0.00    -0.006 C 
HETATM   10  C9  UNL     1      -0.294  -0.197  -1.895  1.00  0.00     0.013 C 
HETATM   11  C10 UNL     1       0.989   0.556  -1.979  1.00  0.00     0.010 C 
HETATM   12  C11 UNL     1       1.706   0.347  -0.652  1.00  0.00    -0.040 C 
HETATM   13  C12 UNL     1       2.499   1.572  -0.364  1.00  0.00     0.009 C 
HETATM   14  C13 UNL     1       3.455   1.473   0.758  1.00  0.00     0.001 C 
HETATM   15  C14 UNL     1       4.095   0.164   0.980  1.00  0.00     0.000 C 
HETATM   16  C15 UNL     1       3.338  -1.028   0.522  1.00  0.00     0.001 C 
HETATM   17  C16 UNL     1       2.585  -0.852  -0.753  1.00  0.00     0.009 C 
HETATM   18  C17 UNL     1       0.555   0.155   0.326  1.00  0.00     0.022 C 
ENDROOT
BRANCH   1  19
HETATM   19  O1  UNL     1      -2.752  -0.306  -1.182  1.00  0.00    -0.386 OA
ATOM     20  H1  UNL     1      -2.614  -1.186  -1.512  1.00  0.00     0.210 HD
ENDBRANCH   1  19
TORSDOF 1
