REMARK  4 active torsions:
REMARK  status: ('A' for Active; 'I' for Inactive)
REMARK    1  A    between atoms: C9_9  and  O1_10 
REMARK    2  A    between atoms: C11_12  and  C12_13 
REMARK    3  A    between atoms: C12_13  and  O2_14 
REMARK    4  A    between atoms: C16_19  and  O3_20 
ROOT
HETATM    1  C1  UNL     1       0.798   2.753  -1.261  1.00  0.00     0.019 C 
HETATM    2  C2  UNL     1       1.052   2.093  -0.144  1.00  0.00    -0.063 C 
HETATM    3  C3  UNL     1       2.537   1.933   0.153  1.00  0.00     0.038 C 
HETATM    4  C4  UNL     1       2.809   0.517  -0.222  1.00  0.00     0.012 C 
HETATM    5  C5  UNL     1       2.224  -0.526   0.643  1.00  0.00     0.025 C 
HETATM    6  C6  UNL     1       1.418  -0.205   1.810  1.00  0.00    -0.003 C 
HETATM    7  C7  UNL     1       0.536   0.948   1.909  1.00  0.00     0.042 C 
HETATM    8  C8  UNL     1      -0.038   1.578   0.716  1.00  0.00    -0.045 C 
HETATM    9  C9  UNL     1      -1.177   0.935   0.025  1.00  0.00     0.157 C 
HETATM   10  C11 UNL     1      -1.459  -0.488   0.109  1.00  0.00     0.051 C 
HETATM   11  C13 UNL     1      -0.546  -1.560  -0.262  1.00  0.00    -0.027 C 
HETATM   12  C14 UNL     1      -1.330  -2.828  -0.727  1.00  0.00     0.016 C 
HETATM   13  C15 UNL     1       0.590  -1.345  -1.208  1.00  0.00     0.048 C 
HETATM   14  C16 UNL     1       1.565  -1.650  -0.154  1.00  0.00     0.067 C 
HETATM   15  C17 UNL     1       0.431  -2.079   0.736  1.00  0.00     0.029 C 
HETATM   16  C18 UNL     1       0.533  -1.446   2.040  1.00  0.00     0.014 C 
ENDROOT
BRANCH  10  17
HETATM   17  C12 UNL     1      -2.704  -0.689  -0.793  1.00  0.00     0.172 C 
BRANCH  17  18
HETATM   18  O2  UNL     1      -2.339  -0.306  -2.059  1.00  0.00    -0.400 OA
ATOM     19  H2  UNL     1      -3.102  -0.429  -2.612  1.00  0.00     0.209 HD
ENDBRANCH  17  18
ENDBRANCH  10  17
BRANCH   9  20
HETATM   20  O1  UNL     1      -2.344   1.593   0.549  1.00  0.00    -0.386 OA
HETATM   21  C10 UNL     1      -2.926   2.500  -0.264  1.00  0.00     0.202 C 
ENDBRANCH   9  20
BRANCH  14  22
HETATM   22  O3  UNL     1       2.457  -2.687  -0.528  1.00  0.00    -0.389 OA
ATOM     23  H3  UNL     1       2.047  -3.386  -1.024  1.00  0.00     0.210 HD
ENDBRANCH  14  22
TORSDOF 4
