REMARK  5 active torsions:
REMARK  status: ('A' for Active; 'I' for Inactive)
REMARK    1  A    between atoms: C2_2  and  C4_4 
REMARK    2  A    between atoms: C11_22  and  C12_23 
REMARK    3  A    between atoms: C12_23  and  O3_24 
REMARK    4  A    between atoms: O3_24  and  C13_25 
REMARK    5  A    between atoms: C19_40  and  C20_41 
ROOT
HETATM    1  C4  UNL     1      -4.103   0.138  -0.655  1.00  0.00     0.180 C 
HETATM    2  N1  UNL     1      -4.717  -0.537   0.469  1.00  0.00    -0.346 N 
ATOM      3  H1  UNL     1      -5.214   0.050   1.139  1.00  0.00     0.163 HD
HETATM    4  C5  UNL     1      -4.700  -1.926   0.735  1.00  0.00     0.236 C 
HETATM    5  O1  UNL     1      -5.772  -2.508   1.088  1.00  0.00    -0.272 OA
HETATM    6  C6  UNL     1      -3.519  -2.816   0.642  1.00  0.00     0.227 C 
HETATM    7  N2  UNL     1      -3.449  -3.405  -0.671  1.00  0.00    -0.334 N 
ATOM      8  H2  UNL     1      -4.129  -3.084  -1.360  1.00  0.00     0.164 HD
HETATM    9  C7  UNL     1      -2.524  -4.386  -1.090  1.00  0.00     0.316 C 
HETATM   10  O2  UNL     1      -2.955  -5.319  -1.851  1.00  0.00    -0.247 OA
HETATM   11  N3  UNL     1      -1.153  -4.435  -0.745  1.00  0.00    -0.342 N 
ATOM     12  H3  UNL     1      -0.773  -5.334  -0.448  1.00  0.00     0.164 HD
HETATM   13  C8  UNL     1      -0.246  -3.300  -0.782  1.00  0.00     0.152 C 
HETATM   14  C9  UNL     1       1.198  -3.748  -0.933  1.00  0.00     0.252 C 
HETATM   15  N4  UNL     1       2.072  -2.661  -0.501  1.00  0.00    -0.072 N 
ATOM     16  H41 UNL     1       3.010  -3.001  -0.288  1.00  0.00     0.277 HD
ATOM     17  H42 UNL     1       1.811  -2.320   0.424  1.00  0.00     0.277 HD
HETATM   18  C10 UNL     1       2.108  -1.599  -1.455  1.00  0.00     0.259 C 
HETATM   19  C11 UNL     1       2.423  -0.245  -0.858  1.00  0.00     0.134 C 
HETATM   20  N7  UNL     1       2.001  -0.134   0.523  1.00  0.00    -0.353 N 
ATOM     21  H7  UNL     1       2.141  -0.944   1.127  1.00  0.00     0.163 HD
HETATM   22  C16 UNL     1       1.407   1.021   1.097  1.00  0.00     0.218 C 
HETATM   23  O6  UNL     1       1.692   1.335   2.288  1.00  0.00    -0.274 OA
HETATM   24  C17 UNL     1       0.452   1.913   0.385  1.00  0.00     0.105 C 
HETATM   25  C18 UNL     1      -0.536   2.427   1.380  1.00  0.00     0.041 C 
HETATM   26  C19 UNL     1      -1.933   1.846   1.226  1.00  0.00     0.146 C 
HETATM   27  N8  UNL     1      -1.838   0.596   0.508  1.00  0.00    -0.348 N 
ATOM     28  H8  UNL     1      -1.119  -0.054   0.826  1.00  0.00     0.163 HD
HETATM   29  C21 UNL     1      -2.628   0.172  -0.585  1.00  0.00     0.241 C 
HETATM   30  O8  UNL     1      -2.053  -0.238  -1.662  1.00  0.00    -0.271 OA
ENDROOT
BRANCH  19  31
HETATM   31  C12 UNL     1       3.943  -0.118  -0.864  1.00  0.00     0.198 C 
BRANCH  31  32
HETATM   32  O3  UNL     1       4.268   1.117  -0.335  1.00  0.00    -0.355 OA
BRANCH  32  33
HETATM   33  C13 UNL     1       5.641   1.338  -0.296  1.00  0.00     0.306 C 
HETATM   34  C14 UNL     1       6.071   2.462  -1.187  1.00  0.00     0.187 C 
HETATM   35  N5  UNL     1       6.937   3.419  -0.546  1.00  0.00    -0.337 N 
HETATM   36  C15 UNL     1       7.786   2.942   0.497  1.00  0.00     0.340 C 
ATOM     37  H5  UNL     1       6.943   4.400  -0.827  1.00  0.00     0.164 HD
HETATM   38  O4  UNL     1       8.853   3.513   0.801  1.00  0.00    -0.245 OA
HETATM   39  N6  UNL     1       7.328   1.764   1.169  1.00  0.00    -0.214 N 
HETATM   40  O5  UNL     1       6.013   1.475   1.020  1.00  0.00    -0.242 OA
ATOM     41  H6  UNL     1       7.952   1.179   1.725  1.00  0.00     0.199 HD
ENDBRANCH  32  33
ENDBRANCH  31  32
ENDBRANCH  19  31
BRANCH  26  42
HETATM   42  C20 UNL     1      -2.416   1.655   2.633  1.00  0.00     0.256 C 
HETATM   43  O7  UNL     1      -2.682   0.583   3.119  1.00  0.00    -0.305 OA
ENDBRANCH  26  42
BRANCH   1  44
HETATM   44  C2  UNL     1      -4.725   1.501  -0.841  1.00  0.00     0.009 C 
HETATM   45  C1  UNL     1      -4.095   2.223  -2.014  1.00  0.00     0.012 C 
HETATM   46  C3  UNL     1      -6.181   1.234  -1.265  1.00  0.00     0.012 C 
ENDBRANCH   1  44
TORSDOF 5
