REMARK  1 active torsions:
REMARK  status: ('A' for Active; 'I' for Inactive)
REMARK    1  A    between atoms: C2_2  and  N1_3 
ROOT
HETATM    1  N1  UNL     1       0.678  -0.277  -0.008  1.00  0.00    -0.294 N 
HETATM    2  N2  UNL     1       0.213   0.677  -0.655  1.00  0.00    -0.246 N 
ATOM      3  H2  UNL     1       0.924   1.357  -0.924  1.00  0.00     0.208 HD
HETATM    4  N3  UNL     1      -1.021   1.014  -1.081  1.00  0.00    -0.322 N 
ATOM      5  H3  UNL     1      -1.139   1.493  -1.974  1.00  0.00     0.181 HD
HETATM    6  C3  UNL     1      -2.149   0.704  -0.291  1.00  0.00     0.141 C 
HETATM    7  C4  UNL     1      -1.876  -0.013   0.982  1.00  0.00     0.026 C 
HETATM    8  C5  UNL     1      -1.422  -1.410   0.567  1.00  0.00     0.048 C 
HETATM    9  C6  UNL     1       0.048  -1.398   0.553  1.00  0.00     0.084 C 
ENDROOT
BRANCH   1  10
HETATM   10  C2  UNL     1       2.097  -0.285   0.258  1.00  0.00     0.145 C 
HETATM   11  C1  UNL     1       2.854   0.808  -0.428  1.00  0.00     0.028 C 
ENDBRANCH   1  10
TORSDOF 1
