REMARK  10 active torsions:
REMARK  status: ('A' for Active; 'I' for Inactive)
REMARK    1  A    between atoms: C2_2  and  C3_3 
REMARK    2  A    between atoms: C2_2  and  C13_22 
REMARK    3  A    between atoms: C3_3  and  C4_5 
REMARK    4  A    between atoms: C4_5  and  C5_7 
REMARK    5  A    between atoms: C7_9  and  C8_10 
REMARK    6  A    between atoms: C9_13  and  C10_14 
REMARK    7  A    between atoms: C11_18  and  C12_19 
REMARK    8  A    between atoms: C15_24  and  O9_25 
REMARK    9  A    between atoms: C17_28  and  O10_29 
REMARK   10  A    between atoms: C17_28  and  C18_31 
ROOT
HETATM    1  C4  UNL     1       0.187  -0.039  -0.286  1.00  0.00     0.261 C 
HETATM    2  O2  UNL     1      -0.357   1.090  -0.210  1.00  0.00    -0.283 OA
ENDROOT
BRANCH   1   3
HETATM    3  C3  UNL     1      -0.568  -1.256  -0.300  1.00  0.00     0.229 C 
HETATM    4  O1  UNL     1       0.122  -2.328  -0.483  1.00  0.00    -0.284 OA
BRANCH   3   5
HETATM    5  C2  UNL     1      -2.011  -1.374  -0.136  1.00  0.00    -0.006 C 
HETATM    6  C1  UNL     1      -2.487  -2.623  -0.266  1.00  0.00     0.023 C 
BRANCH   5   7
HETATM    7  C13 UNL     1      -2.874  -0.232   0.133  1.00  0.00     0.069 C 
HETATM    8  C14 UNL     1      -2.774   0.183   1.626  1.00  0.00     0.044 C 
HETATM    9  C15 UNL     1      -3.792   1.306   1.635  1.00  0.00     0.122 C 
HETATM   10  C16 UNL     1      -4.851   0.890   0.627  1.00  0.00     0.081 C 
HETATM   11  C17 UNL     1      -4.368  -0.512   0.140  1.00  0.00     0.155 C 
BRANCH   9  12
HETATM   12  O9  UNL     1      -4.354   1.432   2.900  1.00  0.00    -0.395 OA
ATOM     13  H9  UNL     1      -4.992   2.136   2.906  1.00  0.00     0.210 HD
ENDBRANCH   9  12
BRANCH  11  14
HETATM   14  O10 UNL     1      -4.792  -1.413   1.074  1.00  0.00    -0.378 OA
ATOM     15  H10 UNL     1      -5.726  -1.588   1.078  1.00  0.00     0.211 HD
ENDBRANCH  11  14
BRANCH  11  16
HETATM   16  C18 UNL     1      -4.960  -0.705  -1.175  1.00  0.00     0.209 C 
HETATM   17  O11 UNL     1      -5.803  -1.623  -1.356  1.00  0.00    -0.646 OA
HETATM   18  O12 UNL     1      -4.655   0.077  -2.291  1.00  0.00    -0.646 OA
ENDBRANCH  11  16
ENDBRANCH   5   7
ENDBRANCH   3   5
ENDBRANCH   1   3
BRANCH   1  19
HETATM   19  C5  UNL     1       1.663  -0.029  -0.360  1.00  0.00     0.237 C 
HETATM   20  C6  UNL     1       2.209  -0.633  -1.638  1.00  0.00     0.097 C 
HETATM   21  C7  UNL     1       3.499   0.201  -1.802  1.00  0.00     0.140 C 
HETATM   22  C9  UNL     1       3.570   0.859  -0.468  1.00  0.00     0.192 C 
HETATM   23  O7  UNL     1       2.205   1.258  -0.332  1.00  0.00    -0.322 OA
HETATM   24  C11 UNL     1       3.616  -0.170   0.647  1.00  0.00     0.182 C 
HETATM   25  O8  UNL     1       2.288  -0.624   0.708  1.00  0.00    -0.339 OA
BRANCH  21  26
HETATM   26  C8  UNL     1       4.622  -0.641  -2.186  1.00  0.00     0.180 C 
HETATM   27  O3  UNL     1       4.517  -1.889  -2.281  1.00  0.00    -0.648 OA
HETATM   28  O4  UNL     1       5.851  -0.077  -2.459  1.00  0.00    -0.648 OA
ENDBRANCH  21  26
BRANCH  22  29
HETATM   29  C10 UNL     1       4.472   1.973  -0.309  1.00  0.00     0.213 C 
HETATM   30  O5  UNL     1       5.716   1.841  -0.364  1.00  0.00    -0.646 OA
HETATM   31  O6  UNL     1       4.046   3.300  -0.078  1.00  0.00    -0.646 OA
ENDBRANCH  22  29
BRANCH  24  32
HETATM   32  C12 UNL     1       4.047   0.441   1.955  1.00  0.00     0.121 C 
HETATM   33  S1  UNL     1       4.055  -0.904   3.190  1.00  0.00    -0.095 SA
ENDBRANCH  24  32
ENDBRANCH   1  19
TORSDOF 10
