REMARK  15 active torsions:
REMARK  status: ('A' for Active; 'I' for Inactive)
REMARK    1  A    between atoms: C2_2  and  O1_5 
REMARK    2  A    between atoms: O1_5  and  C5_6 
REMARK    3  A    between atoms: C5_6  and  C6_8 
REMARK    4  A    between atoms: C6_8  and  N1_11 
REMARK       I    between atoms: N1_11  and  C9_13 
REMARK    5  A    between atoms: C9_13  and  C10_15 
REMARK    6  A    between atoms: C10_15  and  C11_16 
REMARK    7  A    between atoms: C10_15  and  N3_35 
REMARK    8  A    between atoms: C11_16  and  O4_17 
REMARK    9  A    between atoms: C12_19  and  O5_20 
REMARK   10  A    between atoms: O5_20  and  C13_21 
REMARK       I    between atoms: C13_21  and  N2_23 
REMARK   11  A    between atoms: N2_23  and  C14_25 
REMARK   12  A    between atoms: C18_29  and  O7_30 
REMARK   13  A    between atoms: C19_32  and  O8_33 
REMARK   14  A    between atoms: N3_35  and  O9_36 
REMARK   15  A    between atoms: N3_35  and  C20_38 
ROOT
HETATM    1  C10 UNL     1      -0.615  -2.392   0.124  1.00  0.00     0.267 C 
ENDROOT
BRANCH   1   2
HETATM    2  C9  UNL     1      -2.065  -2.080   0.072  1.00  0.00     0.250 C 
HETATM    3  N1  UNL     1      -2.607  -1.558  -1.126  1.00  0.00    -0.341 N 
ATOM      4  H1  UNL     1      -1.973  -1.419  -1.913  1.00  0.00     0.163 HD
HETATM    5  O3  UNL     1      -2.808  -2.271   1.065  1.00  0.00    -0.271 OA
BRANCH   3   6
HETATM    6  C6  UNL     1      -3.982  -1.212  -1.311  1.00  0.00     0.113 C 
HETATM    7  C7  UNL     1      -4.899  -2.415  -1.034  1.00  0.00     0.049 C 
HETATM    8  C8  UNL     1      -4.223  -0.862  -2.767  1.00  0.00     0.049 C 
BRANCH   6   9
HETATM    9  C5  UNL     1      -4.461  -0.134  -0.409  1.00  0.00     0.287 C 
HETATM   10  O2  UNL     1      -3.633   0.371   0.389  1.00  0.00    -0.262 OA
BRANCH   9  11
HETATM   11  O1  UNL     1      -5.741   0.341  -0.392  1.00  0.00    -0.309 OA
BRANCH  11  12
HETATM   12  C2  UNL     1      -6.236   1.350   0.438  1.00  0.00     0.060 C 
HETATM   13  C1  UNL     1      -5.539   2.675   0.270  1.00  0.00     0.045 C 
HETATM   14  C3  UNL     1      -6.198   0.946   1.913  1.00  0.00     0.045 C 
HETATM   15  C4  UNL     1      -7.697   1.562   0.087  1.00  0.00     0.045 C 
ENDBRANCH  11  12
ENDBRANCH   9  11
ENDBRANCH   6   9
ENDBRANCH   3   6
ENDBRANCH   1   2
BRANCH   1  16
HETATM   16  C11 UNL     1       0.237  -1.230  -0.111  1.00  0.00     0.100 C 
HETATM   17  C12 UNL     1       1.074  -1.224  -1.112  1.00  0.00     0.182 C 
BRANCH  16  18
HETATM   18  O4  UNL     1       0.165  -0.135   0.721  1.00  0.00    -0.360 OA
ATOM     19  H4  UNL     1       0.719   0.621   0.568  1.00  0.00     0.217 HD
ENDBRANCH  16  18
BRANCH  17  20
HETATM   20  O5  UNL     1       1.924  -0.160  -1.410  1.00  0.00    -0.271 OA
BRANCH  20  21
HETATM   21  C13 UNL     1       3.195  -0.098  -0.858  1.00  0.00     0.365 C 
HETATM   22  O6  UNL     1       3.527  -1.035  -0.093  1.00  0.00    -0.238 OA
HETATM   23  N2  UNL     1       4.096   0.969  -1.133  1.00  0.00    -0.329 N 
ATOM     24  H2  UNL     1       3.805   1.721  -1.758  1.00  0.00     0.165 HD
BRANCH  23  25
HETATM   25  C14 UNL     1       5.398   1.006  -0.551  1.00  0.00     0.118 C 
HETATM   26  C15 UNL     1       5.536   2.220   0.341  1.00  0.00     0.028 C 
HETATM   27  C16 UNL     1       6.866   2.169   1.043  1.00  0.00     0.005 C 
HETATM   28  C17 UNL     1       7.941   2.220  -0.037  1.00  0.00     0.034 C 
HETATM   29  C18 UNL     1       7.816   0.918  -0.818  1.00  0.00     0.148 C 
HETATM   30  C19 UNL     1       6.508   0.987  -1.581  1.00  0.00     0.169 C 
BRANCH  29  31
HETATM   31  O7  UNL     1       7.733  -0.106   0.127  1.00  0.00    -0.393 OA
ATOM     32  H7  UNL     1       7.655  -0.918  -0.360  1.00  0.00     0.210 HD
ENDBRANCH  29  31
BRANCH  30  33
HETATM   33  O8  UNL     1       6.494   2.171  -2.335  1.00  0.00    -0.391 OA
ATOM     34  H8  UNL     1       7.190   2.159  -2.981  1.00  0.00     0.210 HD
ENDBRANCH  30  33
ENDBRANCH  23  25
ENDBRANCH  20  21
ENDBRANCH  17  20
ENDBRANCH   1  16
BRANCH   1  35
HETATM   35  N3  UNL     1      -0.274  -2.916   1.446  1.00  0.00    -0.215 N 
BRANCH  35  36
HETATM   36  O9  UNL     1      -0.405  -2.119   2.513  1.00  0.00    -0.284 OA
ATOM     37  H9  UNL     1      -0.183  -2.459   3.372  1.00  0.00     0.245 HD
ENDBRANCH  35  36
BRANCH  35  38
HETATM   38  C20 UNL     1       0.187  -4.235   1.608  1.00  0.00     0.377 C 
HETATM   39  O10 UNL     1       0.307  -4.980   0.585  1.00  0.00    -0.281 OA
ENDBRANCH  35  38
ENDBRANCH   1  35
TORSDOF 15
