REMARK  20 active torsions:
REMARK  status: ('A' for Active; 'I' for Inactive)
REMARK    1  A    between atoms: O1_2  and  C2_3 
REMARK    2  A    between atoms: C2_3  and  C3_5 
REMARK    3  A    between atoms: C3_5  and  N1_6 
REMARK    4  A    between atoms: N1_6  and  C4_8 
REMARK    5  A    between atoms: C4_8  and  C5_9 
REMARK    6  A    between atoms: C4_8  and  C28_56 
REMARK    7  A    between atoms: C5_9  and  O3_10 
REMARK    8  A    between atoms: C5_9  and  N2_12 
REMARK    9  A    between atoms: N3_15  and  C8_16 
REMARK   10  A    between atoms: C8_16  and  C9_17 
REMARK   11  A    between atoms: C9_17  and  N4_18 
REMARK   12  A    between atoms: N4_18  and  C10_19 
REMARK   13  A    between atoms: C13_26  and  N7_27 
REMARK   14  A    between atoms: N7_27  and  C14_29 
REMARK   15  A    between atoms: C15_30  and  O4_31 
REMARK   16  A    between atoms: C16_34  and  O5_35 
REMARK   17  A    between atoms: C18_38  and  N9_39 
REMARK   18  A    between atoms: C19_44  and  C20_45 
REMARK   19  A    between atoms: C28_56  and  O6_57 
REMARK   20  A    between atoms: C28_56  and  O7_59 
ROOT
HETATM    1  C10 UNL     1       0.718  -1.839  -0.752  1.00  0.00     0.207 A 
HETATM    2  N5  UNL     1       1.413  -2.745  -1.521  1.00  0.00    -0.325 N 
ATOM      3  H5  UNL     1       2.335  -3.049  -1.208  1.00  0.00     0.169 HD
HETATM    4  C11 UNL     1       0.932  -3.235  -2.647  1.00  0.00     0.182 A 
HETATM    5  N6  UNL     1      -0.272  -2.860  -3.088  1.00  0.00    -0.360 N 
ATOM      6  H6  UNL     1      -0.637  -3.239  -3.962  1.00  0.00     0.166 HD
HETATM    7  C12 UNL     1      -1.002  -1.981  -2.377  1.00  0.00     0.123 A 
HETATM    8  C13 UNL     1      -0.563  -1.434  -1.193  1.00  0.00     0.103 A 
ENDROOT
BRANCH   8   9
HETATM    9  N7  UNL     1      -1.380  -0.609  -0.381  1.00  0.00    -0.374 N 
ATOM     10  H7  UNL     1      -1.173  -0.591   0.618  1.00  0.00     0.160 HD
BRANCH   9  11
HETATM   11  C14 UNL     1      -2.435   0.176  -0.820  1.00  0.00     0.176 C 
HETATM   12  C15 UNL     1      -3.666  -0.208  -1.524  1.00  0.00     0.385 C 
HETATM   13  N8  UNL     1      -4.240   0.994  -0.924  1.00  0.00     0.158 N 
HETATM   14  C16 UNL     1      -5.610   1.099  -0.671  1.00  0.00     0.398 C 
HETATM   15  C25 UNL     1      -3.425   0.663   0.241  1.00  0.00     0.284 C 
HETATM   16  C17 UNL     1      -5.799   1.079   0.821  1.00  0.00     0.340 A 
HETATM   17  C18 UNL     1      -6.565   0.140   1.561  1.00  0.00     0.402 A 
HETATM   18  N13 UNL     1      -5.425  -0.386   1.062  1.00  0.00     0.132 N 
HETATM   19  C24 UNL     1      -4.055  -0.342   1.135  1.00  0.00     0.314 C 
BRANCH  12  20
HETATM   20  O4  UNL     1      -4.321  -1.368  -1.325  1.00  0.00    -0.366 OA
ATOM     21  H4  UNL     1      -5.117  -1.616  -1.780  1.00  0.00     0.212 HD
ENDBRANCH  12  20
BRANCH  14  22
HETATM   22  O5  UNL     1      -6.377   0.091  -1.274  1.00  0.00    -0.366 OA
ATOM     23  H5  UNL     1      -7.309   0.162  -1.102  1.00  0.00     0.212 HD
ENDBRANCH  14  22
BRANCH  17  24
HETATM   24  N9  UNL     1      -7.839  -0.214   0.909  1.00  0.00    -0.181 N 
HETATM   25  N10 UNL     1      -8.328  -1.354   0.492  1.00  0.00    -0.222 N 
HETATM   26  N11 UNL     1      -9.531  -1.102  -0.064  1.00  0.00    -0.271 N 
ATOM     27  H10 UNL     1      -7.881  -2.267   0.573  1.00  0.00     0.210 HD
HETATM   28  C19 UNL     1      -9.792   0.195  -0.000  1.00  0.00     0.120 A 
ATOM     29  H11 UNL     1     -10.147  -1.805  -0.472  1.00  0.00     0.190 HD
HETATM   30  N12 UNL     1      -8.703   0.726   0.622  1.00  0.00    -0.267 N 
ATOM     31  H12 UNL     1      -8.579   1.716   0.834  1.00  0.00     0.190 HD
BRANCH  28  32
HETATM   32  C20 UNL     1     -10.940   1.031  -0.451  1.00  0.00     0.010 C 
HETATM   33  C21 UNL     1     -12.246   0.519   0.059  1.00  0.00     0.023 C 
HETATM   34  C22 UNL     1     -10.965   1.072  -1.962  1.00  0.00     0.023 C 
HETATM   35  C23 UNL     1     -10.725   2.467   0.004  1.00  0.00     0.023 C 
ENDBRANCH  28  32
ENDBRANCH  17  24
ENDBRANCH   9  11
ENDBRANCH   8   9
BRANCH   1  36
HETATM   36  N4  UNL     1       1.271  -1.348   0.222  1.00  0.00    -0.396 NA
BRANCH  36  37
HETATM   37  C9  UNL     1       1.500  -0.613   1.315  1.00  0.00     0.202 C 
BRANCH  37  38
HETATM   38  C8  UNL     1       2.546   0.497   1.217  1.00  0.00     0.121 C 
BRANCH  38  39
HETATM   39  N3  UNL     1       3.857   0.143   0.971  1.00  0.00    -0.365 N 
HETATM   40  C7  UNL     1       4.557  -0.504   2.007  1.00  0.00     0.147 C 
HETATM   41  C6  UNL     1       5.949   0.145   2.230  1.00  0.00     0.145 C 
HETATM   42  N2  UNL     1       6.588  -0.010   0.931  1.00  0.00    -0.357 N 
HETATM   43  C27 UNL     1       5.992   0.681  -0.173  1.00  0.00     0.169 C 
HETATM   44  C26 UNL     1       4.497   0.452  -0.236  1.00  0.00     0.083 C 
BRANCH  42  45
HETATM   45  C5  UNL     1       7.733  -0.791   0.815  1.00  0.00     0.142 C 
BRANCH  45  46
HETATM   46  C4  UNL     1       8.500  -1.118  -0.397  1.00  0.00     0.211 C 
BRANCH  46  47
HETATM   47  N1  UNL     1       9.903  -0.952  -0.174  1.00  0.00    -0.378 N 
ATOM     48  H1  UNL     1      10.503  -1.745   0.054  1.00  0.00     0.160 HD
BRANCH  47  49
HETATM   49  C3  UNL     1      10.417   0.342  -0.282  1.00  0.00     0.167 C 
BRANCH  49  50
HETATM   50  C2  UNL     1      10.119   1.447   0.596  1.00  0.00     0.297 C 
HETATM   51  O2  UNL     1       9.746   1.367   1.762  1.00  0.00    -0.259 OA
BRANCH  50  52
HETATM   52  O1  UNL     1      10.260   2.776   0.082  1.00  0.00    -0.322 OA
HETATM   53  C1  UNL     1       9.975   3.885   0.878  1.00  0.00     0.213 C 
ENDBRANCH  50  52
ENDBRANCH  49  50
ENDBRANCH  47  49
ENDBRANCH  46  47
BRANCH  46  54
HETATM   54  C28 UNL     1       8.193  -2.563  -0.770  1.00  0.00     0.284 C 
BRANCH  54  55
HETATM   55  O6  UNL     1       8.529  -3.473   0.208  1.00  0.00    -0.369 OA
ATOM     56  H6  UNL     1       8.338  -4.374  -0.025  1.00  0.00     0.212 HD
ENDBRANCH  54  55
BRANCH  54  57
HETATM   57  O7  UNL     1       6.838  -2.730  -1.096  1.00  0.00    -0.369 OA
ATOM     58  H7  UNL     1       6.647  -3.631  -1.329  1.00  0.00     0.212 HD
ENDBRANCH  54  57
ENDBRANCH  46  54
ENDBRANCH  45  46
BRANCH  45  59
HETATM   59  O3  UNL     1       8.251  -1.344   1.884  1.00  0.00    -0.348 OA
ATOM     60  H3  UNL     1       7.756  -1.133   2.667  1.00  0.00     0.219 HD
ENDBRANCH  45  59
ENDBRANCH  42  45
ENDBRANCH  38  39
ENDBRANCH  37  38
ENDBRANCH  36  37
ENDBRANCH   1  36
TORSDOF 20
