REMARK  3 active torsions:
REMARK  status: ('A' for Active; 'I' for Inactive)
REMARK    1  A    between atoms: C2_2  and  C4_4 
REMARK       I    between atoms: N1_6  and  C6_7 
REMARK    2  A    between atoms: C8_13  and  C9_14 
REMARK    3  A    between atoms: C9_14  and  N4_15 
ROOT
HETATM    1  C4  UNL     1      -2.274  -0.468   0.406  1.00  0.00     0.098 C 
HETATM    2  C5  UNL     1      -2.646   0.299  -0.870  1.00  0.00     0.150 C 
HETATM    3  N1  UNL     1      -1.550   1.225  -1.080  1.00  0.00    -0.352 N 
HETATM    4  C6  UNL     1      -1.755   2.508  -1.661  1.00  0.00     0.184 C 
HETATM    5  N2  UNL     1      -1.308   2.824  -2.831  1.00  0.00    -0.374 N 
ATOM      6  H21 UNL     1      -1.455   3.743  -3.247  1.00  0.00     0.158 HD
ATOM      7  H22 UNL     1      -0.789   2.115  -3.349  1.00  0.00     0.158 HD
HETATM    8  N3  UNL     1      -2.473   3.488  -0.945  1.00  0.00    -0.064 NA
HETATM    9  C7  UNL     1      -0.219   0.861  -0.703  1.00  0.00     0.152 C 
HETATM   10  C8  UNL     1       0.002  -0.567  -0.383  1.00  0.00     0.121 C 
HETATM   11  N5  UNL     1      -1.155  -1.283   0.072  1.00  0.00    -0.408 N 
ATOM     12  H5  UNL     1      -1.175  -2.300   0.150  1.00  0.00     0.154 HD
ENDROOT
BRANCH  10  13
HETATM   13  C9  UNL     1       1.108  -0.792   0.600  1.00  0.00     0.263 C 
BRANCH  13  14
HETATM   14  N4  UNL     1       2.394  -0.346   0.232  1.00  0.00    -0.065 N 
HETATM   15  C10 UNL     1       2.808  -0.665  -1.110  1.00  0.00     0.238 C 
HETATM   16  C11 UNL     1       4.343  -0.568  -1.084  1.00  0.00     0.034 C 
HETATM   17  C12 UNL     1       4.622  -0.354   0.374  1.00  0.00     0.015 C 
HETATM   18  C13 UNL     1       4.254   1.067   0.714  1.00  0.00     0.034 C 
HETATM   19  C15 UNL     1       3.421  -1.085   0.998  1.00  0.00     0.242 C 
HETATM   20  C14 UNL     1       2.722   1.012   0.602  1.00  0.00     0.238 C 
ENDBRANCH  13  14
ENDBRANCH  10  13
BRANCH   1  21
HETATM   21  C2  UNL     1      -3.448  -1.373   0.709  1.00  0.00     0.001 C 
HETATM   22  C1  UNL     1      -3.251  -2.204   1.938  1.00  0.00     0.011 C 
HETATM   23  C3  UNL     1      -4.680  -0.519   0.882  1.00  0.00     0.011 C 
ENDBRANCH   1  21
TORSDOF 3
