REMARK  5 active torsions:
REMARK  status: ('A' for Active; 'I' for Inactive)
REMARK       I    between atoms: N1_3  and  C3_5 
REMARK       I    between atoms: C3_5  and  N4_19 
REMARK    1  A    between atoms: N2_6  and  C4_8 
REMARK    2  A    between atoms: C4_8  and  N3_10 
REMARK    3  A    between atoms: N3_10  and  C5_12 
REMARK    4  A    between atoms: C5_12  and  C6_13 
REMARK    5  A    between atoms: N4_19  and  C12_21 
ROOT
HETATM    1  C1  UNL     1      -5.600  -2.826   0.900  1.00  0.00     0.037 C 
HETATM    2  C2  UNL     1      -4.694  -2.513   0.148  1.00  0.00     0.015 C 
HETATM    3  N1  UNL     1      -3.668  -2.168  -0.732  1.00  0.00    -0.149 N 
ATOM      4  H1  UNL     1      -3.586  -2.638  -1.633  1.00  0.00     0.195 HD
HETATM    5  C3  UNL     1      -2.738  -1.159  -0.367  1.00  0.00     0.688 C 
HETATM    6  N2  UNL     1      -1.506  -1.268  -0.680  1.00  0.00    -0.166 N 
ATOM      7  H2  UNL     1      -1.240  -2.106  -1.197  1.00  0.00     0.186 HD
HETATM    8  N4  UNL     1      -3.193  -0.033   0.346  1.00  0.00    -0.221 N 
ATOM      9  H4  UNL     1      -3.067  -0.039   1.358  1.00  0.00     0.178 HD
ENDROOT
BRANCH   6  10
HETATM   10  C4  UNL     1      -0.471  -0.353  -0.388  1.00  0.00     0.186 C 
HETATM   11  S1  UNL     1      -0.283   0.864  -1.490  1.00  0.00    -0.040 SA
BRANCH  10  12
HETATM   12  N3  UNL     1       0.349  -0.454   0.764  1.00  0.00    -0.366 N 
ATOM     13  H3  UNL     1       0.175  -1.220   1.415  1.00  0.00     0.161 HD
BRANCH  12  14
HETATM   14  C5  UNL     1       1.399   0.453   1.061  1.00  0.00     0.126 C 
BRANCH  14  15
HETATM   15  C6  UNL     1       2.587   0.388   0.176  1.00  0.00     0.003 C 
HETATM   16  C7  UNL     1       3.672   1.373   0.540  1.00  0.00     0.006 C 
HETATM   17  C8  UNL     1       4.544   1.485  -0.718  1.00  0.00     0.000 C 
HETATM   18  C9  UNL     1       5.269   0.170  -0.855  1.00  0.00     0.000 C 
HETATM   19  C10 UNL     1       4.304  -0.969  -0.908  1.00  0.00     0.000 C 
HETATM   20  C11 UNL     1       3.269  -0.969   0.184  1.00  0.00     0.006 C 
ENDBRANCH  14  15
ENDBRANCH  12  14
ENDBRANCH  10  12
ENDBRANCH   6  10
BRANCH   8  21
HETATM   21  C12 UNL     1      -3.824   1.132  -0.235  1.00  0.00     0.099 A 
HETATM   22  C13 UNL     1      -5.056   1.068  -1.024  1.00  0.00     0.028 A 
HETATM   23  C14 UNL     1      -5.163   1.541   0.412  1.00  0.00     0.028 A 
ENDBRANCH   8  21
TORSDOF 5
