REMARK  4 active torsions:
REMARK  status: ('A' for Active; 'I' for Inactive)
REMARK    1  A    between atoms: N1_6  and  C6_7 
REMARK    2  A    between atoms: C6_7  and  C7_8 
REMARK    3  A    between atoms: C7_8  and  N2_9 
REMARK       I    between atoms: N2_9  and  C8_11 
REMARK       I    between atoms: C8_11  and  N4_15 
REMARK    4  A    between atoms: C12_19  and  C13_20 
ROOT
HETATM    1  N2  UNL     1      -0.159  -1.392  -1.055  1.00  0.00    -0.225 N 
ATOM      2  H2  UNL     1      -0.342  -2.032  -1.828  1.00  0.00     0.177 HD
HETATM    3  C8  UNL     1      -0.974  -1.517   0.094  1.00  0.00     0.670 C 
HETATM    4  N3  UNL     1      -0.586  -2.133   1.152  1.00  0.00    -0.235 N 
ATOM      5  H31 UNL     1      -1.174  -2.223   1.981  1.00  0.00     0.174 HD
ATOM      6  H32 UNL     1       0.344  -2.550   1.192  1.00  0.00     0.174 HD
HETATM    7  N4  UNL     1      -2.269  -0.937   0.039  1.00  0.00    -0.213 N 
HETATM    8  C9  UNL     1      -3.267  -1.286  -0.955  1.00  0.00     0.146 C 
HETATM    9  C10 UNL     1      -4.344  -0.254  -0.867  1.00  0.00     0.016 C 
HETATM   10  C11 UNL     1      -4.837   0.204  -2.207  1.00  0.00     0.012 C 
HETATM   11  C12 UNL     1      -3.691   0.848  -0.060  1.00  0.00     0.115 C 
HETATM   12  C14 UNL     1      -2.846   0.062   0.909  1.00  0.00     0.112 C 
HETATM   13  C15 UNL     1      -3.708  -0.686   1.920  1.00  0.00     0.034 C 
ENDROOT
BRANCH   1  14
HETATM   14  C7  UNL     1       0.904  -0.441  -1.226  1.00  0.00     0.166 C 
BRANCH  14  15
HETATM   15  C6  UNL     1       2.041  -0.792  -0.287  1.00  0.00     0.263 C 
BRANCH  15  16
HETATM   16  N1  UNL     1       3.151   0.063  -0.381  1.00  0.00    -0.040 N 
HETATM   17  C2  UNL     1       4.411  -0.478  -0.002  1.00  0.00     0.109 C 
HETATM   18  C1  UNL     1       4.710  -1.681   0.411  1.00  0.00     0.046 C 
HETATM   19  C3  UNL     1       5.270   0.735  -0.218  1.00  0.00     0.046 C 
HETATM   20  C4  UNL     1       4.870   1.072  -1.635  1.00  0.00     0.039 C 
HETATM   21  C17 UNL     1       4.528   1.708   0.677  1.00  0.00     0.039 C 
HETATM   22  C5  UNL     1       3.458   0.522  -1.731  1.00  0.00     0.244 C 
HETATM   23  C16 UNL     1       3.091   1.245   0.461  1.00  0.00     0.244 C 
ENDBRANCH  15  16
ENDBRANCH  14  15
ENDBRANCH   1  14
BRANCH  11  24
HETATM   24  C13 UNL     1      -4.645   1.759   0.550  1.00  0.00     0.179 C 
HETATM   25  O1  UNL     1      -5.872   1.591   0.381  1.00  0.00    -0.648 OA
HETATM   26  O2  UNL     1      -4.212   2.817   1.319  1.00  0.00    -0.648 OA
ENDBRANCH  11  24
TORSDOF 4
