REMARK  6 active torsions:
REMARK  status: ('A' for Active; 'I' for Inactive)
REMARK    1  A    between atoms: C2_2  and  C3_3 
REMARK    2  A    between atoms: C3_3  and  C4_4 
REMARK    3  A    between atoms: C6_10  and  C7_11 
REMARK    4  A    between atoms: C7_11  and  C8_12 
REMARK    5  A    between atoms: C9_15  and  C10_16 
REMARK    6  A    between atoms: C10_16  and  C11_17 
ROOT
HETATM    1  C4  UNL     1       4.574  -0.483   0.352  1.00  0.00     0.103 A 
HETATM    2  N1  UNL     1       4.254   0.151  -0.788  1.00  0.00    -0.327 N 
ATOM      3  H1  UNL     1       4.930   0.487  -1.474  1.00  0.00     0.169 HD
HETATM    4  C5  UNL     1       2.920   0.283  -0.902  1.00  0.00     0.139 A 
HETATM    5  N2  UNL     1       1.935   0.760  -1.687  1.00  0.00    -0.337 N 
ATOM      6  H2  UNL     1       2.074   1.235  -2.579  1.00  0.00     0.167 HD
HETATM    7  C6  UNL     1       0.740   0.516  -1.119  1.00  0.00     0.089 A 
HETATM    8  C16 UNL     1       1.033  -0.137   0.058  1.00  0.00     0.229 A 
HETATM    9  O1  UNL     1       0.154  -0.528   0.867  1.00  0.00    -0.283 OA
HETATM   10  C17 UNL     1       2.401  -0.279   0.187  1.00  0.00     0.131 A 
HETATM   11  N5  UNL     1       3.398  -0.750   0.960  1.00  0.00    -0.336 N 
ATOM     12  H5  UNL     1       3.284  -1.228   1.854  1.00  0.00     0.168 HD
ENDROOT
BRANCH   7  13
HETATM   13  C7  UNL     1      -0.463   0.841  -1.602  1.00  0.00     0.065 C 
BRANCH  13  14
HETATM   14  C8  UNL     1      -1.661   0.489  -0.834  1.00  0.00     0.058 A 
HETATM   15  N3  UNL     1      -2.238   1.175   0.167  1.00  0.00    -0.344 N 
HETATM   16  C9  UNL     1      -3.334   0.534   0.636  1.00  0.00     0.083 A 
ATOM     17  H3  UNL     1      -1.894   2.065   0.527  1.00  0.00     0.167 HD
HETATM   18  N4  UNL     1      -3.438  -0.585  -0.099  1.00  0.00    -0.343 N 
HETATM   19  C13 UNL     1      -4.453  -1.593   0.037  1.00  0.00     0.157 C 
HETATM   20  C14 UNL     1      -2.430  -0.643  -1.007  1.00  0.00     0.035 A 
HETATM   21  C15 UNL     1      -2.225  -1.739  -1.989  1.00  0.00     0.070 C 
BRANCH  16  22
HETATM   22  C10 UNL     1      -4.213   1.003   1.745  1.00  0.00     0.076 C 
BRANCH  22  23
HETATM   23  C11 UNL     1      -5.329   1.884   1.304  1.00  0.00     0.003 C 
HETATM   24  C12 UNL     1      -6.290   1.282   0.333  1.00  0.00     0.005 C 
ENDBRANCH  22  23
ENDBRANCH  16  22
ENDBRANCH  13  14
ENDBRANCH   7  13
BRANCH   1  25
HETATM   25  C3  UNL     1       5.792  -0.798   0.814  1.00  0.00     0.021 C 
BRANCH  25  26
HETATM   26  C2  UNL     1       6.946  -0.408  -0.019  1.00  0.00     0.026 C 
HETATM   27  C1  UNL     1       8.238  -0.438   0.768  1.00  0.00     0.009 C 
ENDBRANCH  25  26
ENDBRANCH   1  25
TORSDOF 6
