REMARK  5 active torsions:
REMARK  status: ('A' for Active; 'I' for Inactive)
REMARK       I    between atoms: C3_5  and  N3_7 
REMARK       I    between atoms: N4_10  and  C6_11 
REMARK       I    between atoms: C6_11  and  N5_13 
REMARK    1  A    between atoms: N5_13  and  C7_15 
REMARK    2  A    between atoms: C7_15  and  C8_16 
REMARK    3  A    between atoms: C8_16  and  N6_17 
REMARK    4  A    between atoms: C12_21  and  C13_22 
REMARK    5  A    between atoms: C12_21  and  N7_25 
REMARK       I    between atoms: N7_25  and  C16_27 
ROOT
HETATM    1  C1  UNL     1      11.110   0.661   1.335  1.00  0.00     0.037 C 
HETATM    2  C2  UNL     1      10.060   0.189   0.975  1.00  0.00     0.001 C 
HETATM    3  N1  UNL     1       8.835  -0.344   0.551  1.00  0.00    -0.290 N 
ATOM      4  H1  UNL     1       8.774  -1.321   0.263  1.00  0.00     0.178 HD
HETATM    5  C3  UNL     1       7.784   0.405   0.526  1.00  0.00     0.199 C 
HETATM    6  N2  UNL     1       7.877   1.783   0.933  1.00  0.00    -0.063 NA
HETATM    7  N3  UNL     1       6.542  -0.124   0.100  1.00  0.00    -0.337 N 
HETATM    8  C4  UNL     1       6.009  -1.406   0.497  1.00  0.00     0.147 C 
HETATM    9  C5  UNL     1       4.525  -1.138   0.547  1.00  0.00     0.149 C 
HETATM   10  N4  UNL     1       4.296  -0.102  -0.427  1.00  0.00    -0.316 N 
HETATM   11  C6  UNL     1       3.052   0.314  -0.965  1.00  0.00     0.319 C 
HETATM   12  O1  UNL     1       2.982   1.251  -1.829  1.00  0.00    -0.247 OA
HETATM   13  N5  UNL     1       1.820  -0.276  -0.584  1.00  0.00    -0.341 N 
ATOM     14  H5  UNL     1       1.836  -1.029   0.104  1.00  0.00     0.164 HD
HETATM   15  C20 UNL     1       5.574   0.474  -0.789  1.00  0.00     0.256 C 
ENDROOT
BRANCH  13  16
HETATM   16  C7  UNL     1       0.547   0.134  -1.120  1.00  0.00     0.152 C 
BRANCH  16  17
HETATM   17  C8  UNL     1      -0.570  -0.682  -0.517  1.00  0.00     0.256 C 
BRANCH  17  18
HETATM   18  N6  UNL     1      -1.862  -0.320  -1.012  1.00  0.00    -0.069 N 
HETATM   19  C9  UNL     1      -1.836   0.061  -2.417  1.00  0.00     0.272 C 
HETATM   20  C10 UNL     1      -2.835  -1.386  -0.888  1.00  0.00     0.240 C 
HETATM   21  C11 UNL     1      -4.256  -0.869  -0.832  1.00  0.00     0.072 C 
HETATM   22  C12 UNL     1      -4.448  -0.156   0.488  1.00  0.00     0.099 C 
HETATM   23  C18 UNL     1      -3.072   0.224   0.990  1.00  0.00     0.072 C 
HETATM   24  C19 UNL     1      -2.331   0.812  -0.215  1.00  0.00     0.240 C 
BRANCH  22  25
HETATM   25  C13 UNL     1      -5.186   1.107   0.239  1.00  0.00    -0.075 C 
HETATM   26  C14 UNL     1      -5.789   2.134   0.058  1.00  0.00    -0.108 C 
HETATM   27  C15 UNL     1      -6.508   3.393  -0.147  1.00  0.00     0.112 C 
ENDBRANCH  22  25
BRANCH  22  28
HETATM   28  N7  UNL     1      -5.179  -0.923   1.449  1.00  0.00    -0.341 N 
HETATM   29  C16 UNL     1      -6.493  -1.341   1.164  1.00  0.00     0.214 C 
HETATM   30  C17 UNL     1      -7.309  -2.146   2.127  1.00  0.00     0.117 C 
HETATM   31  O2  UNL     1      -7.063  -1.059   0.071  1.00  0.00    -0.274 OA
ATOM     32  H7  UNL     1      -4.748  -1.167   2.341  1.00  0.00     0.164 HD
ENDBRANCH  22  28
ENDBRANCH  17  18
ENDBRANCH  16  17
ENDBRANCH  13  16
TORSDOF 5
