REMARK  18 active torsions:
REMARK  status: ('A' for Active; 'I' for Inactive)
REMARK    1  A    between atoms: C6_7  and  O1_8 
REMARK    2  A    between atoms: O1_8  and  C7_9 
REMARK    3  A    between atoms: C7_9  and  C8_10 
REMARK    4  A    between atoms: C8_10  and  O2_11 
REMARK    5  A    between atoms: O2_11  and  C9_12 
REMARK    6  A    between atoms: C9_12  and  C10_13 
REMARK    7  A    between atoms: C10_13  and  O3_14 
REMARK    8  A    between atoms: O3_14  and  C11_15 
REMARK    9  A    between atoms: C11_15  and  C12_16 
REMARK   10  A    between atoms: C12_16  and  O4_17 
REMARK   11  A    between atoms: O4_17  and  C13_18 
REMARK   12  A    between atoms: C13_18  and  C14_19 
REMARK   13  A    between atoms: C14_19  and  O5_20 
REMARK   14  A    between atoms: O5_20  and  C15_21 
REMARK   15  A    between atoms: C15_21  and  C16_22 
REMARK   16  A    between atoms: C16_22  and  O6_23 
REMARK   17  A    between atoms: O6_23  and  C17_24 
REMARK   18  A    between atoms: C17_24  and  C18_25 
ROOT
HETATM    1  O3  UNL     1       0.257  -1.734   3.722  1.00  0.00    -0.387 OA
ENDROOT
BRANCH   1   2
HETATM    2  C10 UNL     1      -0.891  -1.881   2.998  1.00  0.00     0.193 C 
BRANCH   2   3
HETATM    3  C9  UNL     1      -2.008  -0.987   3.530  1.00  0.00     0.193 C 
BRANCH   3   4
HETATM    4  O2  UNL     1      -1.708   0.349   3.501  1.00  0.00    -0.387 OA
BRANCH   4   5
HETATM    5  C8  UNL     1      -1.429   0.874   2.266  1.00  0.00     0.194 C 
BRANCH   5   6
HETATM    6  C7  UNL     1      -2.552   0.727   1.270  1.00  0.00     0.201 C 
BRANCH   6   7
HETATM    7  O1  UNL     1      -3.734   1.355   1.670  1.00  0.00    -0.349 OA
BRANCH   7   8
HETATM    8  C6  UNL     1      -4.833   1.284   0.834  1.00  0.00     0.069 A 
HETATM    9  C5  UNL     1      -4.781   0.605  -0.382  1.00  0.00     0.046 A 
HETATM   10  C4  UNL     1      -5.874   0.543  -1.198  1.00  0.00    -0.027 A 
HETATM   11  C3  UNL     1      -6.052  -0.107  -2.515  1.00  0.00     0.060 C 
HETATM   12  C26 UNL     1      -7.068   1.131  -0.879  1.00  0.00     0.036 A 
HETATM   13  C2  UNL     1      -7.323   0.481  -3.070  1.00  0.00     0.127 C 
HETATM   14  N1  UNL     1      -8.044   0.923  -1.890  1.00  0.00    -0.384 N 
HETATM   15  C1  UNL     1      -9.494   1.115  -1.773  1.00  0.00     0.149 C 
HETATM   16  C25 UNL     1      -7.129   1.807   0.327  1.00  0.00     0.033 A 
HETATM   17  C24 UNL     1      -6.032   1.878   1.161  1.00  0.00     0.039 A 
ENDBRANCH   7   8
ENDBRANCH   6   7
ENDBRANCH   5   6
ENDBRANCH   4   5
ENDBRANCH   3   4
ENDBRANCH   2   3
ENDBRANCH   1   2
BRANCH   1  18
HETATM   18  C11 UNL     1       1.279  -2.519   3.329  1.00  0.00     0.193 C 
BRANCH  18  19
HETATM   19  C12 UNL     1       1.749  -2.272   1.875  1.00  0.00     0.193 C 
BRANCH  19  20
HETATM   20  O4  UNL     1       2.779  -3.090   1.571  1.00  0.00    -0.387 OA
BRANCH  20  21
HETATM   21  C13 UNL     1       3.250  -3.094   0.315  1.00  0.00     0.193 C 
BRANCH  21  22
HETATM   22  C14 UNL     1       3.789  -1.791  -0.167  1.00  0.00     0.193 C 
BRANCH  22  23
HETATM   23  O5  UNL     1       2.865  -0.819  -0.186  1.00  0.00    -0.387 OA
BRANCH  23  24
HETATM   24  C15 UNL     1       3.278   0.426  -0.616  1.00  0.00     0.193 C 
BRANCH  24  25
HETATM   25  C16 UNL     1       4.352   1.040   0.180  1.00  0.00     0.194 C 
BRANCH  25  26
HETATM   26  O6  UNL     1       4.723   2.271  -0.283  1.00  0.00    -0.385 OA
BRANCH  26  27
HETATM   27  C17 UNL     1       5.269   2.301  -1.538  1.00  0.00     0.206 C 
BRANCH  27  28
HETATM   28  C18 UNL     1       6.502   1.473  -1.590  1.00  0.00    -0.035 A 
HETATM   29  C19 UNL     1       6.558   0.284  -2.279  1.00  0.00     0.009 A 
HETATM   30  C20 UNL     1       7.731  -0.447  -2.287  1.00  0.00     0.001 A 
HETATM   31  C21 UNL     1       8.849  -0.016  -1.621  1.00  0.00     0.000 A 
HETATM   32  C22 UNL     1       8.768   1.179  -0.936  1.00  0.00     0.001 A 
HETATM   33  C23 UNL     1       7.615   1.932  -0.909  1.00  0.00     0.009 A 
ENDBRANCH  27  28
ENDBRANCH  26  27
ENDBRANCH  25  26
ENDBRANCH  24  25
ENDBRANCH  23  24
ENDBRANCH  22  23
ENDBRANCH  21  22
ENDBRANCH  20  21
ENDBRANCH  19  20
ENDBRANCH  18  19
ENDBRANCH   1  18
TORSDOF 18
