REMARK  2 active torsions:
REMARK  status: ('A' for Active; 'I' for Inactive)
REMARK    1  A    between atoms: C2_4  and  N2_5 
REMARK       I    between atoms: N2_5  and  C3_7 
REMARK    2  A    between atoms: N4_9  and  O1_11 
ROOT
HETATM    1  N2  UNL     1      -0.625   0.260   0.683  1.00  0.00    -0.326 N 
ATOM      2  H2  UNL     1      -0.792   0.941   1.423  1.00  0.00     0.169 HD
HETATM    3  C3  UNL     1      -1.713  -0.147  -0.155  1.00  0.00     0.213 C 
HETATM    4  N3  UNL     1      -2.538   0.824  -0.771  1.00  0.00    -0.061 NA
HETATM    5  N4  UNL     1      -1.940  -1.380  -0.350  1.00  0.00    -0.241 N 
ATOM      6  H4  UNL     1      -1.338  -2.071   0.098  1.00  0.00     0.197 HD
ENDROOT
BRANCH   1   7
HETATM    7  C2  UNL     1       0.671  -0.262   0.505  1.00  0.00     0.178 C 
HETATM    8  N1  UNL     1       1.648   0.511   0.242  1.00  0.00    -0.390 N 
HETATM    9  C1  UNL     1       3.006   0.108   0.040  1.00  0.00     0.147 C 
ATOM     10  H1  UNL     1       1.444   1.508   0.169  1.00  0.00     0.159 HD
ENDBRANCH   1   7
BRANCH   5  11
HETATM   11  O1  UNL     1      -2.960  -1.805  -1.137  1.00  0.00    -0.287 OA
ATOM     12  H1  UNL     1      -3.130  -2.728  -1.283  1.00  0.00     0.244 HD
ENDBRANCH   5  11
TORSDOF 2
