REMARK  4 active torsions:
REMARK  status: ('A' for Active; 'I' for Inactive)
REMARK    1  A    between atoms: C3_3  and  N1_4 
REMARK    2  A    between atoms: C3_3  and  N2_8 
REMARK    3  A    between atoms: N2_8  and  N3_10 
REMARK    4  A    between atoms: C4_12  and  C5_13 
ROOT
HETATM    1  C1  UNL     1      -2.703   1.488  -1.326  1.00  0.00     0.016 C 
HETATM    2  C2  UNL     1      -2.357   0.670  -0.494  1.00  0.00    -0.062 C 
HETATM    3  C3  UNL     1      -1.938  -0.301   0.530  1.00  0.00     0.376 C 
ENDROOT
BRANCH   3   4
HETATM    4  N1  UNL     1      -2.936  -1.327   0.683  1.00  0.00    -0.046 N 
ATOM      5  H13 UNL     1      -3.856  -0.936   0.884  1.00  0.00     0.278 HD
ATOM      6  H12 UNL     1      -3.155  -1.780  -0.204  1.00  0.00     0.278 HD
ATOM      7  H11 UNL     1      -2.646  -2.000   1.393  1.00  0.00     0.278 HD
ENDBRANCH   3   4
BRANCH   3   8
HETATM    8  N2  UNL     1      -0.642  -0.835   0.173  1.00  0.00    -0.296 N 
ATOM      9  H2  UNL     1      -0.532  -1.837   0.017  1.00  0.00     0.183 HD
BRANCH   8  10
HETATM   10  N3  UNL     1       0.445   0.001   0.042  1.00  0.00    -0.310 N 
HETATM   11  C4  UNL     1       1.592  -0.348  -0.404  1.00  0.00     0.159 C 
ATOM     12  H3  UNL     1       0.326   0.974   0.323  1.00  0.00     0.185 HD
BRANCH  11  13
HETATM   13  C5  UNL     1       2.669   0.629  -0.496  1.00  0.00     0.166 A 
HETATM   14  N4  UNL     1       2.811   1.939  -0.213  1.00  0.00    -0.222 N 
HETATM   15  O1  UNL     1       4.050   1.937  -0.600  1.00  0.00    -0.153 OA
ATOM     16  H4  UNL     1       2.187   2.654   0.160  1.00  0.00     0.198 HD
HETATM   17  N5  UNL     1       3.949   0.675  -0.884  1.00  0.00    -0.222 N 
ATOM     18  H5  UNL     1       4.597  -0.017  -1.259  1.00  0.00     0.198 HD
ENDBRANCH  11  13
ENDBRANCH   8  10
ENDBRANCH   3   8
TORSDOF 4
