REMARK  4 active torsions:
REMARK  status: ('A' for Active; 'I' for Inactive)
REMARK    1  A    between atoms: C1_2  and  N1_3 
REMARK    2  A    between atoms: N1_3  and  C2_5 
REMARK    3  A    between atoms: C2_5  and  C3_6 
REMARK       I    between atoms: C3_6  and  N2_8 
REMARK    4  A    between atoms: N2_8  and  C4_10 
ROOT
HETATM    1  C3  UNL     1       0.564  -1.216  -0.106  1.00  0.00     0.240 C 
HETATM    2  O2  UNL     1      -0.037  -2.206  -0.625  1.00  0.00    -0.271 OA
HETATM    3  N2  UNL     1      -0.118  -0.027   0.195  1.00  0.00    -0.320 N 
ATOM      4  H2  UNL     1       0.395   0.744   0.623  1.00  0.00     0.169 HD
ENDROOT
BRANCH   3   5
HETATM    5  C4  UNL     1      -1.516   0.136  -0.082  1.00  0.00     0.130 A 
HETATM    6  C5  UNL     1      -2.430  -0.716  -0.638  1.00  0.00     0.203 A 
HETATM    7  O3  UNL     1      -3.580  -0.064  -0.664  1.00  0.00    -0.245 OA
HETATM    8  N3  UNL     1      -3.475   1.114  -0.177  1.00  0.00    -0.224 N 
HETATM    9  C6  UNL     1      -2.215   1.320   0.211  1.00  0.00     0.294 A 
ATOM     10  H3  UNL     1      -4.235   1.790  -0.098  1.00  0.00     0.198 HD
HETATM   11  O4  UNL     1      -1.732   2.379   0.743  1.00  0.00    -0.264 OA
ENDBRANCH   3   5
BRANCH   1  12
HETATM   12  C2  UNL     1       2.011  -1.355   0.181  1.00  0.00     0.225 C 
BRANCH  12  13
HETATM   13  N1  UNL     1       2.623  -0.178   0.667  1.00  0.00    -0.359 N 
ATOM     14  H1  UNL     1       2.981  -0.213   1.622  1.00  0.00     0.162 HD
BRANCH  13  15
HETATM   15  C1  UNL     1       2.792   1.033  -0.020  1.00  0.00     0.348 C 
HETATM   16  O1  UNL     1       2.394   1.168  -1.200  1.00  0.00    -0.284 OA
ENDBRANCH  13  15
ENDBRANCH  12  13
ENDBRANCH   1  12
TORSDOF 4
