REMARK  11 active torsions:
REMARK  status: ('A' for Active; 'I' for Inactive)
REMARK    1  A    between atoms: C3_3  and  N1_4 
REMARK    2  A    between atoms: N2_7  and  C6_8 
REMARK    3  A    between atoms: C6_8  and  C7_9 
REMARK    4  A    between atoms: C7_9  and  C8_10 
REMARK       I    between atoms: C8_10  and  N3_12 
REMARK       I    between atoms: N4_18  and  C13_19 
REMARK    5  A    between atoms: N6_21  and  C14_23 
REMARK    6  A    between atoms: C17_26  and  C18_27 
REMARK    7  A    between atoms: C19_28  and  C20_29 
REMARK    8  A    between atoms: C20_29  and  C21_30 
REMARK    9  A    between atoms: C21_30  and  C22_31 
REMARK   10  A    between atoms: C22_31  and  N7_32 
REMARK   11  A    between atoms: C23_36  and  C24_37 
ROOT
HETATM    1  C1  UNL     1       7.941   0.169  -4.404  1.00  0.00     0.013 C 
HETATM    2  C2  UNL     1       7.913  -0.367  -3.331  1.00  0.00    -0.089 C 
HETATM    3  C3  UNL     1       7.879  -1.043  -2.037  1.00  0.00     0.330 C 
ENDROOT
BRANCH   3   4
HETATM    4  N1  UNL     1       6.861  -0.569  -1.166  1.00  0.00    -0.052 N 
HETATM    5  C4  UNL     1       6.241   0.669  -1.655  1.00  0.00     0.266 C 
HETATM    6  C5  UNL     1       5.596   1.354  -0.478  1.00  0.00     0.265 C 
HETATM    7  N2  UNL     1       5.095   0.316   0.443  1.00  0.00    -0.062 N 
HETATM    8  C25 UNL     1       4.598  -0.757  -0.346  1.00  0.00     0.265 C 
HETATM    9  C27 UNL     1       6.350  -0.151   1.111  1.00  0.00     0.265 C 
HETATM   10  C26 UNL     1       5.844  -1.555  -0.835  1.00  0.00     0.266 C 
HETATM   11  C28 UNL     1       7.489  -0.238   0.135  1.00  0.00     0.266 C 
BRANCH   7  12
HETATM   12  C6  UNL     1       4.305   0.856   1.477  1.00  0.00     0.247 C 
BRANCH  12  13
HETATM   13  C7  UNL     1       2.936   0.414   1.726  1.00  0.00     0.131 C 
BRANCH  13  14
HETATM   14  C8  UNL     1       1.887   0.639   0.731  1.00  0.00     0.222 C 
HETATM   15  O1  UNL     1       2.120   1.149  -0.391  1.00  0.00    -0.273 OA
HETATM   16  N3  UNL     1       0.529   0.297   0.966  1.00  0.00    -0.333 N 
HETATM   17  C9  UNL     1      -0.060  -0.311   2.199  1.00  0.00     0.130 C 
HETATM   18  C11 UNL     1      -0.755   0.290   0.441  1.00  0.00     0.133 C 
HETATM   19  C10 UNL     1      -1.386   0.351   1.849  1.00  0.00     0.062 C 
HETATM   20  C12 UNL     1      -1.287  -0.970  -0.185  1.00  0.00     0.256 C 
HETATM   21  C23 UNL     1      -1.293   1.307  -0.490  1.00  0.00     0.151 C 
HETATM   22  O2  UNL     1      -0.677  -2.036  -0.403  1.00  0.00    -0.270 OA
HETATM   23  N4  UNL     1      -2.642  -0.635  -0.460  1.00  0.00    -0.280 N 
HETATM   24  C13 UNL     1      -3.730  -1.530  -0.422  1.00  0.00     0.194 C 
HETATM   25  C17 UNL     1      -2.718   0.774  -0.770  1.00  0.00     0.135 C 
HETATM   26  N5  UNL     1      -5.071  -1.096  -0.728  1.00  0.00    -0.063 NA
HETATM   27  N6  UNL     1      -3.606  -2.787  -0.117  1.00  0.00    -0.360 N 
ATOM     28  H6  UNL     1      -2.679  -3.149   0.107  1.00  0.00     0.162 HD
BRANCH  27  29
HETATM   29  C14 UNL     1      -4.733  -3.692  -0.083  1.00  0.00     0.076 C 
HETATM   30  C15 UNL     1      -5.175  -3.871   1.358  1.00  0.00     0.032 C 
HETATM   31  C16 UNL     1      -4.326  -5.029  -0.675  1.00  0.00     0.032 C 
ENDBRANCH  27  29
BRANCH  25  32
HETATM   32  C18 UNL     1      -3.685   1.539   0.024  1.00  0.00    -0.004 C 
HETATM   33  C19 UNL     1      -4.686   2.225  -0.509  1.00  0.00    -0.029 C 
BRANCH  33  34
HETATM   34  C20 UNL     1      -5.660   2.997   0.300  1.00  0.00     0.028 C 
BRANCH  34  35
HETATM   35  C21 UNL     1      -7.088   2.543   0.130  1.00  0.00     0.031 C 
BRANCH  35  36
HETATM   36  C22 UNL     1      -8.056   3.320   0.950  1.00  0.00     0.230 C 
BRANCH  36  37
HETATM   37  N7  UNL     1      -7.832   3.249   2.374  1.00  0.00    -0.079 N 
ATOM     38  H73 UNL     1      -7.808   2.277   2.681  1.00  0.00     0.274 HD
ATOM     39  H72 UNL     1      -6.876   3.527   2.596  1.00  0.00     0.274 HD
ATOM     40  H71 UNL     1      -8.496   3.782   2.936  1.00  0.00     0.274 HD
ENDBRANCH  36  37
ENDBRANCH  35  36
ENDBRANCH  34  35
ENDBRANCH  33  34
ENDBRANCH  25  32
BRANCH  21  41
HETATM   41  C24 UNL     1      -0.630   1.322  -1.796  1.00  0.00     0.182 C 
HETATM   42  O3  UNL     1      -0.273   2.405  -2.323  1.00  0.00    -0.648 OA
HETATM   43  O4  UNL     1      -0.374   0.153  -2.496  1.00  0.00    -0.648 OA
ENDBRANCH  21  41
ENDBRANCH  13  14
ENDBRANCH  12  13
ENDBRANCH   7  12
ENDBRANCH   3   4
TORSDOF 11
