REMARK  19 active torsions:
REMARK  status: ('A' for Active; 'I' for Inactive)
REMARK    1  A    between atoms: N1_2  and  C2_3 
REMARK    2  A    between atoms: N1_2  and  C9_10 
REMARK    3  A    between atoms: C2_3  and  C3_4 
REMARK    4  A    between atoms: C12_13  and  C13_14 
REMARK       I    between atoms: C13_14  and  N2_16 
REMARK    5  A    between atoms: N2_16  and  C14_17 
REMARK    6  A    between atoms: C14_17  and  C15_18 
REMARK    7  A    between atoms: C15_18  and  C16_19 
REMARK    8  A    between atoms: C16_19  and  C17_20 
REMARK    9  A    between atoms: C17_20  and  C18_21 
REMARK   10  A    between atoms: C18_21  and  C19_22 
REMARK   11  A    between atoms: C19_22  and  C20_23 
REMARK   12  A    between atoms: C20_23  and  C21_24 
REMARK   13  A    between atoms: C21_24  and  O2_25 
REMARK   14  A    between atoms: O2_25  and  C22_26 
REMARK   15  A    between atoms: C24_28  and  C25_29 
REMARK   16  A    between atoms: C25_29  and  N3_30 
REMARK   17  A    between atoms: C26_34  and  O3_35 
REMARK   18  A    between atoms: C27_37  and  O4_38 
REMARK   19  A    between atoms: C28_40  and  N4_41 
ROOT
HETATM    1  C18 UNL     1      -1.724  -1.224   0.404  1.00  0.00     0.000 C 
ENDROOT
BRANCH   1   2
HETATM    2  C17 UNL     1      -0.769  -0.774  -0.613  1.00  0.00     0.000 C 
BRANCH   2   3
HETATM    3  C16 UNL     1       0.228   0.264  -0.335  1.00  0.00     0.002 C 
BRANCH   3   4
HETATM    4  C15 UNL     1      -0.229   1.601   0.135  1.00  0.00     0.033 C 
BRANCH   4   5
HETATM    5  C14 UNL     1       1.113   2.455   0.219  1.00  0.00     0.222 C 
BRANCH   5   6
HETATM    6  N2  UNL     1       1.983   1.972   0.957  1.00  0.00    -0.411 NA
HETATM    7  C13 UNL     1       3.014   1.400   1.830  1.00  0.00     0.321 C 
HETATM    8  O1  UNL     1       2.977   1.179   3.010  1.00  0.00    -0.251 OA
BRANCH   7   9
HETATM    9  C12 UNL     1       4.225   1.086   1.012  1.00  0.00     0.046 A 
HETATM   10  C11 UNL     1       4.718   1.940   0.094  1.00  0.00     0.020 A 
HETATM   11  C10 UNL     1       5.840   1.622  -0.694  1.00  0.00     0.030 A 
HETATM   12  C9  UNL     1       6.439   0.381  -0.493  1.00  0.00     0.030 A 
HETATM   13  C30 UNL     1       5.945  -0.490   0.438  1.00  0.00     0.030 A 
HETATM   14  C29 UNL     1       4.826  -0.139   1.200  1.00  0.00     0.020 A 
BRANCH  12  15
HETATM   15  N1  UNL     1       7.590   0.057  -1.261  1.00  0.00    -0.381 N 
HETATM   16  C1  UNL     1       8.218   1.032  -2.131  1.00  0.00     0.150 C 
BRANCH  15  17
HETATM   17  C2  UNL     1       8.215  -1.254  -1.204  1.00  0.00     0.161 C 
BRANCH  17  18
HETATM   18  C3  UNL     1       9.431  -1.146  -0.389  1.00  0.00    -0.040 A 
HETATM   19  C4  UNL     1      10.427  -2.073  -0.474  1.00  0.00     0.009 A 
HETATM   20  C5  UNL     1      11.581  -2.058   0.251  1.00  0.00     0.001 A 
HETATM   21  C6  UNL     1      11.780  -1.018   1.162  1.00  0.00     0.000 A 
HETATM   22  C7  UNL     1      10.815  -0.060   1.291  1.00  0.00     0.001 A 
HETATM   23  C8  UNL     1       9.645  -0.109   0.529  1.00  0.00     0.009 A 
ENDBRANCH  17  18
ENDBRANCH  15  17
ENDBRANCH  12  15
ENDBRANCH   7   9
ENDBRANCH   5   6
ENDBRANCH   4   5
ENDBRANCH   3   4
ENDBRANCH   2   3
ENDBRANCH   1   2
BRANCH   1  24
HETATM   24  C19 UNL     1      -2.771  -0.268   0.877  1.00  0.00     0.002 C 
BRANCH  24  25
HETATM   25  C20 UNL     1      -3.575   0.162  -0.331  1.00  0.00     0.026 C 
BRANCH  25  26
HETATM   26  C21 UNL     1      -4.285  -0.945  -1.041  1.00  0.00     0.168 C 
BRANCH  26  27
HETATM   27  O2  UNL     1      -5.240  -1.540  -0.273  1.00  0.00    -0.384 OA
BRANCH  27  28
HETATM   28  C22 UNL     1      -6.316  -0.793   0.091  1.00  0.00     0.154 C 
HETATM   29  C23 UNL     1      -7.548  -1.421  -0.568  1.00  0.00     0.043 C 
HETATM   30  C24 UNL     1      -8.741  -0.542  -0.475  1.00  0.00     0.045 C 
HETATM   31  C26 UNL     1      -8.649   0.420   0.690  1.00  0.00     0.154 C 
HETATM   32  C27 UNL     1      -7.952  -0.190   1.877  1.00  0.00     0.180 C 
HETATM   33  C28 UNL     1      -6.581  -0.746   1.557  1.00  0.00     0.243 C 
BRANCH  30  34
HETATM   34  C25 UNL     1      -9.064   0.175  -1.762  1.00  0.00     0.236 C 
BRANCH  34  35
HETATM   35  N3  UNL     1      -7.991   1.022  -2.237  1.00  0.00    -0.079 N 
ATOM     36  H33 UNL     1      -7.709   1.685  -1.515  1.00  0.00     0.274 HD
ATOM     37  H32 UNL     1      -7.125   0.491  -2.328  1.00  0.00     0.274 HD
ATOM     38  H31 UNL     1      -8.209   1.507  -3.107  1.00  0.00     0.274 HD
ENDBRANCH  34  35
ENDBRANCH  30  34
BRANCH  31  39
HETATM   39  O3  UNL     1      -8.112   1.634   0.288  1.00  0.00    -0.393 OA
ATOM     40  H3  UNL     1      -8.054   2.238   1.019  1.00  0.00     0.210 HD
ENDBRANCH  31  39
BRANCH  32  41
HETATM   41  O4  UNL     1      -7.828   0.807   2.840  1.00  0.00    -0.391 OA
ATOM     42  H4  UNL     1      -7.388   0.422   3.589  1.00  0.00     0.210 HD
ENDBRANCH  32  41
BRANCH  33  43
HETATM   43  N4  UNL     1      -6.446  -2.059   2.102  1.00  0.00    -0.070 N 
ATOM     44  H43 UNL     1      -7.037  -2.739   1.624  1.00  0.00     0.274 HD
ATOM     45  H42 UNL     1      -5.541  -2.477   1.886  1.00  0.00     0.274 HD
ATOM     46  H41 UNL     1      -6.627  -2.027   3.105  1.00  0.00     0.274 HD
ENDBRANCH  33  43
ENDBRANCH  27  28
ENDBRANCH  26  27
ENDBRANCH  25  26
ENDBRANCH  24  25
ENDBRANCH   1  24
TORSDOF 19
