REMARK  1 active torsions:
REMARK  status: ('A' for Active; 'I' for Inactive)
REMARK    1  A    between atoms: O1_1  and  C1_3 
ROOT
HETATM    1  C1  UNL     1       0.997   0.525  -0.134  1.00  0.00     0.217 C 
HETATM    2  O2  UNL     1       1.697  -0.366  -0.918  1.00  0.00    -0.348 OA
HETATM    3  C2  UNL     1       2.151  -0.975   0.275  1.00  0.00     0.209 C 
HETATM    4  C3  UNL     1       0.832  -0.512   0.908  1.00  0.00     0.210 C 
HETATM    5  O3  UNL     1      -0.205  -1.365   0.773  1.00  0.00    -0.371 OA
HETATM    6  C4  UNL     1      -1.374  -0.853   0.281  1.00  0.00     0.148 C 
HETATM    7  C5  UNL     1      -1.788   0.443   0.955  1.00  0.00     0.200 C 
HETATM    8  O4  UNL     1      -1.075   1.458   0.377  1.00  0.00    -0.378 OA
HETATM    9  C6  UNL     1      -0.340   0.972  -0.670  1.00  0.00     0.189 C 
HETATM   10  C7  UNL     1      -1.068  -0.301  -1.118  1.00  0.00     0.071 C 
ENDROOT
BRANCH   1  11
HETATM   11  O1  UNL     1       1.769   1.608   0.204  1.00  0.00    -0.361 OA
ATOM     12  H1  UNL     1       1.286   2.222   0.745  1.00  0.00     0.213 HD
ENDBRANCH   1  11
TORSDOF 1
