REMARK  4 active torsions:
REMARK  status: ('A' for Active; 'I' for Inactive)
REMARK    1  A    between atoms: N1_2  and  C1_4 
REMARK    2  A    between atoms: C4_7  and  C5_8 
REMARK    3  A    between atoms: N2_9  and  N3_11 
REMARK    4  A    between atoms: C6_12  and  C7_13 
ROOT
HETATM    1  N3  UNL     1       0.416  -2.225  -0.133  1.00  0.00    -0.215 N 
HETATM    2  C6  UNL     1      -0.824  -1.918   0.284  1.00  0.00     0.125 A 
HETATM    3  N4  UNL     1      -1.521  -3.067   0.232  1.00  0.00    -0.285 N 
ATOM      4  H4  UNL     1      -2.503  -3.166   0.488  1.00  0.00     0.188 HD
HETATM    5  N5  UNL     1      -0.745  -4.054  -0.201  1.00  0.00    -0.273 N 
ATOM      6  H5  UNL     1      -1.030  -5.025  -0.331  1.00  0.00     0.189 HD
HETATM    7  C13 UNL     1       0.486  -3.552  -0.440  1.00  0.00     0.213 A 
HETATM    8  S1  UNL     1       1.809  -4.342  -0.986  1.00  0.00    -0.037 SA
ENDROOT
BRANCH   1   9
HETATM    9  N2  UNL     1       1.474  -1.346  -0.242  1.00  0.00    -0.299 N 
HETATM   10  C5  UNL     1       1.454  -0.363  -1.072  1.00  0.00     0.145 C 
ATOM     11  H2  UNL     1       2.293  -1.479   0.351  1.00  0.00     0.186 HD
BRANCH  10  12
HETATM   12  C4  UNL     1       2.556   0.580  -1.208  1.00  0.00     0.095 A 
HETATM   13  C3  UNL     1       3.723   0.523  -0.473  1.00  0.00     0.043 A 
HETATM   14  C2  UNL     1       4.515   1.571  -0.880  1.00  0.00     0.065 A 
HETATM   15  C1  UNL     1       3.789   2.225  -1.851  1.00  0.00     0.215 A 
HETATM   16  O3  UNL     1       2.651   1.611  -2.009  1.00  0.00    -0.287 OA
BRANCH  15  17
HETATM   17  N1  UNL     1       4.264   3.391  -2.541  1.00  0.00    -0.090 N 
HETATM   18  O1  UNL     1       5.380   3.887  -2.298  1.00  0.00    -0.530 OA
HETATM   19  O2  UNL     1       3.495   4.004  -3.503  1.00  0.00    -0.530 OA
ENDBRANCH  15  17
ENDBRANCH  10  12
ENDBRANCH   1   9
BRANCH   2  20
HETATM   20  C7  UNL     1      -1.315  -0.587   0.711  1.00  0.00     0.057 C 
HETATM   21  C8  UNL     1      -2.430  -0.159  -0.225  1.00  0.00     0.012 C 
HETATM   22  C9  UNL     1      -2.731   1.299   0.142  1.00  0.00     0.001 C 
HETATM   23  C10 UNL     1      -3.410   1.240   1.506  1.00  0.00     0.000 C 
HETATM   24  C11 UNL     1      -2.504   0.617   2.539  1.00  0.00     0.001 C 
HETATM   25  C12 UNL     1      -1.892  -0.666   2.104  1.00  0.00     0.012 C 
ENDBRANCH   2  20
TORSDOF 4
