REMARK  5 active torsions:
REMARK  status: ('A' for Active; 'I' for Inactive)
REMARK       I    between atoms: C2_2  and  N1_4 
REMARK    1  A    between atoms: N1_4  and  N2_6 
REMARK    2  A    between atoms: C3_8  and  S1_9 
REMARK    3  A    between atoms: C3_8  and  C12_19 
REMARK    4  A    between atoms: S1_9  and  S2_10 
REMARK    5  A    between atoms: S2_10  and  C4_11 
ROOT
HETATM    1  C12 UNL     1       1.120   2.418   0.103  1.00  0.00     0.258 C 
HETATM    2  C13 UNL     1       1.549   3.336  -0.979  1.00  0.00     0.085 C 
HETATM    3  N3  UNL     1       1.866   4.059  -1.824  1.00  0.00    -0.195 NA
HETATM    4  C14 UNL     1       0.818   3.232   1.283  1.00  0.00     0.085 C 
HETATM    5  N4  UNL     1       0.598   3.875   2.203  1.00  0.00    -0.195 NA
ENDROOT
BRANCH   1   6
HETATM    6  C3  UNL     1       2.227   1.471   0.362  1.00  0.00     0.104 C 
HETATM    7  N2  UNL     1       3.338   1.569  -0.274  1.00  0.00    -0.293 N 
ATOM      8  H2  UNL     1       3.476   2.303  -0.969  1.00  0.00     0.187 HD
BRANCH   7   9
HETATM    9  N1  UNL     1       4.352   0.655   0.002  1.00  0.00    -0.270 N 
HETATM   10  C2  UNL     1       5.170   0.113  -1.002  1.00  0.00     0.232 C 
HETATM   11  C1  UNL     1       6.230  -0.852  -0.657  1.00  0.00     0.119 C 
HETATM   12  O1  UNL     1       5.003   0.445  -2.191  1.00  0.00    -0.272 OA
ATOM     13  H1  UNL     1       4.506   0.369   0.969  1.00  0.00     0.190 HD
ENDBRANCH   7   9
BRANCH   6  14
HETATM   14  S1  UNL     1       1.976   0.196   1.575  1.00  0.00    -0.039 SA
BRANCH  14  15
HETATM   15  S2  UNL     1       0.005  -0.012   2.215  1.00  0.00    -0.074 SA
BRANCH  15  16
HETATM   16  C4  UNL     1      -0.950  -1.227   1.279  1.00  0.00     0.128 C 
HETATM   17  C5  UNL     1      -1.157  -0.914  -0.056  1.00  0.00    -0.166 C 
HETATM   18  C6  UNL     1      -0.968  -0.700  -1.437  1.00  0.00     0.085 C 
HETATM   19  C7  UNL     1      -2.417  -0.530  -1.994  1.00  0.00     0.038 C 
HETATM   20  C8  UNL     1      -3.412   0.011  -1.081  1.00  0.00    -0.026 C 
HETATM   21  C9  UNL     1      -4.089  -0.650   0.016  1.00  0.00    -0.008 C 
HETATM   22  C10 UNL     1      -3.499  -1.494   1.040  1.00  0.00    -0.025 C 
HETATM   23  C11 UNL     1      -2.379  -1.155   1.926  1.00  0.00     0.055 C 
ENDBRANCH  15  16
ENDBRANCH  14  15
ENDBRANCH   6  14
ENDBRANCH   1   6
TORSDOF 5
