REMARK  10 active torsions:
REMARK  status: ('A' for Active; 'I' for Inactive)
REMARK    1  A    between atoms: C2_2  and  O1_3 
REMARK    2  A    between atoms: O1_3  and  C3_4 
REMARK       I    between atoms: C3_4  and  N1_6 
REMARK    3  A    between atoms: N1_6  and  C4_8 
REMARK    4  A    between atoms: C6_12  and  S1_13 
REMARK    5  A    between atoms: S1_13  and  C7_14 
REMARK    6  A    between atoms: C7_14  and  C8_15 
REMARK    7  A    between atoms: C8_15  and  C9_16 
REMARK    8  A    between atoms: C9_16  and  C10_17 
REMARK    9  A    between atoms: C10_17  and  O3_18 
REMARK   10  A    between atoms: N3_20  and  O4_22 
ROOT
HETATM    1  C4  UNL     1      -2.413   0.968  -0.205  1.00  0.00     0.154 A 
HETATM    2  N2  UNL     1      -1.960  -0.277  -0.067  1.00  0.00    -0.344 N 
ATOM      3  H2  UNL     1      -2.591  -1.034   0.195  1.00  0.00     0.167 HD
HETATM    4  C5  UNL     1      -0.699  -0.508  -0.272  1.00  0.00     0.116 A 
HETATM    5  C6  UNL     1       0.102   0.546  -0.621  1.00  0.00     0.060 A 
HETATM    6  S2  UNL     1      -1.019   1.845  -0.638  1.00  0.00    -0.045 SA
ENDROOT
BRANCH   5   7
HETATM    7  S1  UNL     1       1.871   0.541  -0.967  1.00  0.00    -0.121 SA
BRANCH   7   8
HETATM    8  C7  UNL     1       2.707   0.846   0.617  1.00  0.00     0.080 C 
BRANCH   8   9
HETATM    9  C8  UNL     1       4.220   0.862   0.438  1.00  0.00     0.019 C 
BRANCH   9  10
HETATM   10  C9  UNL     1       4.739  -0.426  -0.094  1.00  0.00     0.086 C 
BRANCH  10  11
HETATM   11  C10 UNL     1       6.190  -0.389  -0.260  1.00  0.00     0.135 C 
HETATM   12  N3  UNL     1       6.930   0.584  -0.011  1.00  0.00    -0.251 N 
ATOM     13  H3  UNL     1       7.916   0.403  -0.197  1.00  0.00     0.196 HD
BRANCH  11  14
HETATM   14  O3  UNL     1       6.798  -1.560  -0.746  1.00  0.00    -0.348 OA
ATOM     15  H3  UNL     1       7.742  -1.536  -0.854  1.00  0.00     0.219 HD
ENDBRANCH  11  14
BRANCH  12  16
HETATM   16  O4  UNL     1       6.691   1.820   0.452  1.00  0.00    -0.288 OA
ATOM     17  H4  UNL     1       7.255   2.561   0.642  1.00  0.00     0.244 HD
ENDBRANCH  12  16
ENDBRANCH  10  11
ENDBRANCH   9  10
ENDBRANCH   8   9
ENDBRANCH   7   8
ENDBRANCH   5   7
BRANCH   1  18
HETATM   18  N1  UNL     1      -3.628   1.436  -0.052  1.00  0.00    -0.282 N 
HETATM   19  C3  UNL     1      -4.701   0.609   0.309  1.00  0.00     0.366 C 
HETATM   20  O2  UNL     1      -4.678  -0.150   1.331  1.00  0.00    -0.238 OA
ATOM     21  H1  UNL     1      -3.798   2.431  -0.200  1.00  0.00     0.173 HD
BRANCH  19  22
HETATM   22  O1  UNL     1      -5.838   0.606  -0.465  1.00  0.00    -0.304 OA
BRANCH  22  23
HETATM   23  C2  UNL     1      -6.978  -0.188  -0.193  1.00  0.00     0.176 C 
HETATM   24  C1  UNL     1      -6.568  -1.625  -0.214  1.00  0.00     0.034 C 
ENDBRANCH  22  23
ENDBRANCH  19  22
ENDBRANCH   1  18
TORSDOF 10
