REMARK  1 active torsions:
REMARK  status: ('A' for Active; 'I' for Inactive)
REMARK       I    between atoms: N2_8  and  C7_9 
REMARK       I    between atoms: C7_9  and  N4_13 
REMARK    1  A    between atoms: N4_13  and  C8_15 
ROOT
HETATM    1  N1  UNL     1       1.918   2.433   1.844  1.00  0.00    -0.195 NA
HETATM    2  C1  UNL     1       1.921   1.755   0.906  1.00  0.00     0.085 C 
HETATM    3  C2  UNL     1       1.944   0.906  -0.299  1.00  0.00     0.209 C 
HETATM    4  C3  UNL     1       3.214   1.163  -1.074  1.00  0.00     0.041 C 
HETATM    5  C4  UNL     1       4.409   0.499  -0.422  1.00  0.00     0.004 C 
HETATM    6  C5  UNL     1       4.104  -0.979  -0.315  1.00  0.00     0.020 C 
HETATM    7  C6  UNL     1       2.959  -1.133   0.663  1.00  0.00     0.143 C 
HETATM    8  N2  UNL     1       1.797  -0.456   0.106  1.00  0.00    -0.201 N 
HETATM    9  C7  UNL     1       0.556  -1.110  -0.036  1.00  0.00     0.671 C 
HETATM   10  N3  UNL     1       0.409  -2.283   0.454  1.00  0.00    -0.235 N 
ATOM     11  H31 UNL     1      -0.489  -2.756   0.351  1.00  0.00     0.174 HD
ATOM     12  H32 UNL     1       1.186  -2.730   0.941  1.00  0.00     0.174 HD
HETATM   13  N4  UNL     1      -0.517  -0.493  -0.709  1.00  0.00    -0.222 N 
ATOM     14  H4  UNL     1      -0.531  -0.555  -1.727  1.00  0.00     0.178 HD
ENDROOT
BRANCH  13  15
HETATM   15  C8  UNL     1      -1.601   0.222  -0.068  1.00  0.00     0.101 C 
HETATM   16  C9  UNL     1      -2.552   0.742  -1.085  1.00  0.00     0.040 C 
HETATM   17  C10 UNL     1      -3.904   0.117  -1.070  1.00  0.00     0.142 C 
HETATM   18  S1  UNL     1      -4.611   0.383   0.558  1.00  0.00     0.144 S 
HETATM   19  O1  UNL     1      -5.831  -0.468   0.738  1.00  0.00    -0.228 OA
HETATM   20  O2  UNL     1      -4.906   1.847   0.715  1.00  0.00    -0.228 OA
HETATM   21  C11 UNL     1      -3.338  -0.031   1.724  1.00  0.00     0.142 C 
HETATM   22  C12 UNL     1      -2.225  -0.706   0.941  1.00  0.00     0.040 C 
ENDBRANCH  13  15
TORSDOF 1
