REMARK  10 active torsions:
REMARK  status: ('A' for Active; 'I' for Inactive)
REMARK    1  A    between atoms: N1_1  and  C1_4 
REMARK    2  A    between atoms: C2_7  and  N3_8 
REMARK    3  A    between atoms: C4_12  and  N4_13 
REMARK    4  A    between atoms: N4_13  and  C5_15 
REMARK    5  A    between atoms: C6_20  and  C7_21 
REMARK    6  A    between atoms: C7_21  and  C8_22 
REMARK    7  A    between atoms: C8_22  and  C9_23 
REMARK    8  A    between atoms: C9_23  and  C10_24 
REMARK    9  A    between atoms: C10_24  and  N7_25 
REMARK   10  A    between atoms: N8_29  and  C11_30 
ROOT
HETATM    1  C1  UNL     1      -6.132   1.952   0.082  1.00  0.00     0.679 A 
HETATM    2  N2  UNL     1      -4.988   2.617  -0.041  1.00  0.00    -0.176 N 
ATOM      3  H2  UNL     1      -5.013   3.632   0.055  1.00  0.00     0.186 HD
HETATM    4  C2  UNL     1      -3.769   2.022  -0.290  1.00  0.00     0.132 A 
HETATM    5  C3  UNL     1      -3.792   0.629  -0.412  1.00  0.00     0.097 A 
HETATM    6  C4  UNL     1      -2.622  -0.047  -0.661  1.00  0.00     0.139 A 
HETATM    7  N9  UNL     1      -2.692  -1.409  -0.773  1.00  0.00    -0.337 N 
ATOM      8  H9  UNL     1      -1.844  -1.945  -0.957  1.00  0.00     0.168 HD
HETATM    9  C12 UNL     1      -3.863  -2.046  -0.643  1.00  0.00     0.183 A 
HETATM   10  N10 UNL     1      -5.008  -1.391  -0.400  1.00  0.00    -0.337 N 
ATOM     11  H10 UNL     1      -5.883  -1.907  -0.306  1.00  0.00     0.168 HD
HETATM   12  C13 UNL     1      -4.997  -0.049  -0.281  1.00  0.00     0.139 A 
HETATM   13  N11 UNL     1      -6.148   0.617  -0.036  1.00  0.00    -0.176 N 
ATOM     14  H11 UNL     1      -7.025   0.105   0.059  1.00  0.00     0.186 HD
ENDROOT
BRANCH   6  15
HETATM   15  N4  UNL     1      -1.512   0.559  -0.784  1.00  0.00    -0.174 N 
ATOM     16  H4  UNL     1      -1.485   1.575  -0.696  1.00  0.00     0.186 HD
BRANCH  15  17
HETATM   17  C5  UNL     1      -0.307  -0.149  -1.041  1.00  0.00     0.706 A 
HETATM   18  N5  UNL     1       0.041  -0.639  -2.244  1.00  0.00    -0.130 N 
HETATM   19  N6  UNL     1       1.207  -1.227  -2.105  1.00  0.00    -0.274 N 
ATOM     20  H5  UNL     1      -0.501  -0.567  -3.105  1.00  0.00     0.205 HD
HETATM   21  C6  UNL     1       1.642  -1.138  -0.832  1.00  0.00     0.120 A 
ATOM     22  H6  UNL     1       1.715  -1.689  -2.859  1.00  0.00     0.189 HD
HETATM   23  N8  UNL     1       0.674  -0.458  -0.184  1.00  0.00    -0.110 N 
BRANCH  21  24
HETATM   24  C7  UNL     1       2.914  -1.683  -0.294  1.00  0.00     0.079 C 
BRANCH  24  25
HETATM   25  C8  UNL     1       4.038  -0.672  -0.400  1.00  0.00     0.009 C 
BRANCH  25  26
HETATM   26  C9  UNL     1       5.300  -1.291   0.164  1.00  0.00     0.027 C 
BRANCH  26  27
HETATM   27  C10 UNL     1       6.450  -0.307   0.075  1.00  0.00     0.229 C 
BRANCH  27  28
HETATM   28  N7  UNL     1       6.158   0.898   0.825  1.00  0.00    -0.079 N 
ATOM     29  H73 UNL     1       5.277   1.320   0.532  1.00  0.00     0.274 HD
ATOM     30  H72 UNL     1       5.914   0.690   1.793  1.00  0.00     0.274 HD
ATOM     31  H71 UNL     1       6.932   1.560   0.765  1.00  0.00     0.274 HD
ENDBRANCH  27  28
ENDBRANCH  26  27
ENDBRANCH  25  26
ENDBRANCH  24  25
ENDBRANCH  21  24
BRANCH  23  32
HETATM   32  C11 UNL     1       0.720  -0.127   1.227  1.00  0.00     0.481 C 
HETATM   33  F1  UNL     1      -0.480  -0.395   1.852  1.00  0.00    -0.190 F 
HETATM   34  F2  UNL     1       1.093   1.197   1.358  1.00  0.00    -0.190 F 
ENDBRANCH  23  32
ENDBRANCH  15  17
ENDBRANCH   6  15
BRANCH   4  35
HETATM   35  N3  UNL     1      -2.759   2.736  -0.387  1.00  0.00    -0.384 N 
ATOM     36  H32 UNL     1      -2.742   3.752  -0.298  1.00  0.00     0.157 HD
ATOM     37  H31 UNL     1      -1.857   2.296  -0.571  1.00  0.00     0.157 HD
ENDBRANCH   4  35
BRANCH   1  38
HETATM   38  N1  UNL     1      -7.250   2.598   0.320  1.00  0.00    -0.234 N 
ATOM     39  H12 UNL     1      -7.238   3.614   0.410  1.00  0.00     0.174 HD
ATOM     40  H11 UNL     1      -8.128   2.088   0.414  1.00  0.00     0.174 HD
ENDBRANCH   1  38
TORSDOF 10
