REMARK  5 active torsions:
REMARK  status: ('A' for Active; 'I' for Inactive)
REMARK    1  A    between atoms: C2_2  and  C3_3 
REMARK    2  A    between atoms: C3_3  and  C4_4 
REMARK    3  A    between atoms: C4_4  and  C5_5 
REMARK    4  A    between atoms: C5_5  and  C6_6 
REMARK    5  A    between atoms: C6_6  and  N1_7 
ROOT
HETATM    1  N1  UNL     1      -0.011  -0.976   1.078  1.00  0.00    -0.379 N 
HETATM    2  C7  UNL     1       0.635  -2.298   1.335  1.00  0.00     0.128 C 
HETATM    3  C8  UNL     1      -0.410  -2.872   2.299  1.00  0.00     0.068 C 
HETATM    4  C9  UNL     1      -1.650  -2.443   1.529  1.00  0.00     0.013 A 
HETATM    5  S1  UNL     1      -3.267  -2.802   1.190  1.00  0.00    -0.086 SA
HETATM    6  C10 UNL     1      -3.607  -1.550   0.082  1.00  0.00     0.091 A 
HETATM    7  C11 UNL     1      -4.759  -1.199  -0.645  1.00  0.00     0.279 A 
HETATM    8  O1  UNL     1      -5.760  -1.925  -0.458  1.00  0.00    -0.265 OA
HETATM    9  N2  UNL     1      -4.754  -0.153  -1.476  1.00  0.00    -0.259 N 
HETATM   10  C12 UNL     1      -5.947   0.189  -2.211  1.00  0.00     0.181 C 
HETATM   11  N3  UNL     1      -3.626   0.500  -1.557  1.00  0.00    -0.280 N 
ATOM     12  H3  UNL     1      -3.606   1.302  -2.188  1.00  0.00     0.189 HD
HETATM   13  C13 UNL     1      -2.488   0.226  -0.896  1.00  0.00     0.128 A 
HETATM   14  N4  UNL     1      -1.473   0.976  -1.139  1.00  0.00    -0.384 N 
ATOM     15  H41 UNL     1      -0.610   0.768  -0.637  1.00  0.00     0.157 HD
ATOM     16  H42 UNL     1      -1.521   1.763  -1.786  1.00  0.00     0.157 HD
HETATM   17  C14 UNL     1      -2.422  -0.865  -0.000  1.00  0.00     0.059 A 
HETATM   18  C15 UNL     1      -1.390  -1.327   0.759  1.00  0.00     0.059 A 
ENDROOT
BRANCH   1  19
HETATM   19  C6  UNL     1       0.698   0.237   1.233  1.00  0.00     0.123 C 
BRANCH  19  20
HETATM   20  C5  UNL     1       1.827   0.452   0.227  1.00  0.00     0.020 C 
BRANCH  20  21
HETATM   21  C4  UNL     1       2.437   1.784   0.579  1.00  0.00     0.002 C 
BRANCH  21  22
HETATM   22  C3  UNL     1       3.547   2.118  -0.349  1.00  0.00    -0.000 C 
BRANCH  22  23
HETATM   23  C2  UNL     1       4.632   1.082  -0.285  1.00  0.00    -0.005 C 
HETATM   24  C1  UNL     1       5.776   1.458  -1.237  1.00  0.00     0.005 C 
ENDBRANCH  22  23
ENDBRANCH  21  22
ENDBRANCH  20  21
ENDBRANCH  19  20
ENDBRANCH   1  19
TORSDOF 5
