REMARK  4 active torsions:
REMARK  status: ('A' for Active; 'I' for Inactive)
REMARK    1  A    between atoms: C2_2  and  C3_3 
REMARK    2  A    between atoms: C2_2  and  N3_20 
REMARK       I    between atoms: C3_3  and  N1_5 
REMARK    3  A    between atoms: N1_5  and  C4_7 
REMARK    4  A    between atoms: N2_10  and  C7_11 
ROOT
HETATM    1  C4  UNL     1       0.055   0.475  -0.494  1.00  0.00     0.087 C 
HETATM    2  C5  UNL     1       0.759   1.325   0.533  1.00  0.00     0.045 C 
HETATM    3  C6  UNL     1       2.257   1.141   0.525  1.00  0.00     0.124 C 
HETATM    4  N2  UNL     1       2.629  -0.256   0.593  1.00  0.00    -0.390 N 
HETATM    5  C14 UNL     1       1.746  -1.277   0.056  1.00  0.00     0.124 C 
HETATM    6  C15 UNL     1       0.929  -0.630  -1.039  1.00  0.00     0.045 C 
ENDROOT
BRANCH   1   7
HETATM    7  N1  UNL     1      -1.133  -0.059   0.133  1.00  0.00    -0.354 N 
HETATM    8  C3  UNL     1      -2.420   0.225  -0.390  1.00  0.00     0.251 C 
HETATM    9  O1  UNL     1      -2.510   0.945  -1.403  1.00  0.00    -0.271 OA
ATOM     10  H1  UNL     1      -1.044  -0.647   0.962  1.00  0.00     0.162 HD
BRANCH   8  11
HETATM   11  C2  UNL     1      -3.585  -0.362   0.313  1.00  0.00     0.310 C 
HETATM   12  C1  UNL     1      -3.438  -1.867   0.279  1.00  0.00     0.053 C 
BRANCH  11  13
HETATM   13  N3  UNL     1      -4.841  -0.003  -0.313  1.00  0.00     0.101 N 
HETATM   14  C16 UNL     1      -5.078   1.405  -0.334  1.00  0.00     0.273 C 
HETATM   15  C17 UNL     1      -6.467   1.758   0.214  1.00  0.00     0.030 C 
HETATM   16  C18 UNL     1      -7.448   0.919  -0.616  1.00  0.00     0.003 C 
HETATM   17  C19 UNL     1      -7.244  -0.512  -0.190  1.00  0.00     0.030 C 
HETATM   18  C20 UNL     1      -5.876  -0.751   0.365  1.00  0.00     0.273 C 
ENDBRANCH  11  13
ENDBRANCH   8  11
ENDBRANCH   1   7
BRANCH   4  19
HETATM   19  C7  UNL     1       3.848  -0.615   1.182  1.00  0.00     0.088 C 
HETATM   20  C8  UNL     1       5.000  -0.657   0.535  1.00  0.00    -0.065 C 
HETATM   21  C9  UNL     1       4.992  -0.301  -0.906  1.00  0.00     0.035 C 
HETATM   22  C13 UNL     1       6.266  -1.034   1.162  1.00  0.00     0.035 C 
HETATM   23  C10 UNL     1       5.998   0.849  -1.051  1.00  0.00     0.004 C 
HETATM   24  C11 UNL     1       7.344   0.277  -0.693  1.00  0.00     0.001 C 
HETATM   25  C12 UNL     1       7.443  -0.229   0.702  1.00  0.00     0.004 C 
ENDBRANCH   4  19
TORSDOF 4
