REMARK  5 active torsions:
REMARK  status: ('A' for Active; 'I' for Inactive)
REMARK    1  A    between atoms: C2_2  and  C3_3 
REMARK    2  A    between atoms: C3_3  and  C4_4 
REMARK    3  A    between atoms: C4_4  and  N1_5 
REMARK       I    between atoms: N1_5  and  C5_6 
REMARK       I    between atoms: C5_6  and  N3_8 
REMARK    4  A    between atoms: N3_8  and  C6_10 
REMARK    5  A    between atoms: C8_12  and  C9_13 
ROOT
HETATM    1  C6  UNL     1      -0.542   0.056   0.697  1.00  0.00     0.125 A 
HETATM    2  C7  UNL     1      -1.784   0.660   0.725  1.00  0.00     0.077 A 
HETATM    3  C8  UNL     1      -2.634  -0.134  -0.011  1.00  0.00     0.039 A 
HETATM    4  N4  UNL     1      -1.949  -1.191  -0.478  1.00  0.00    -0.298 N 
HETATM    5  C13 UNL     1      -2.463  -2.281  -1.293  1.00  0.00     0.177 C 
HETATM    6  N5  UNL     1      -0.693  -1.055  -0.039  1.00  0.00    -0.283 N 
ATOM      7  H5  UNL     1       0.058  -1.715  -0.239  1.00  0.00     0.188 HD
ENDROOT
BRANCH   1   8
HETATM    8  N3  UNL     1       0.538   0.511   1.284  1.00  0.00    -0.304 N 
HETATM    9  C5  UNL     1       1.752  -0.197   1.185  1.00  0.00     0.263 C 
HETATM   10  N1  UNL     1       2.775   0.217   0.747  1.00  0.00    -0.418 NA
HETATM   11  N2  UNL     1       1.696  -1.562   1.694  1.00  0.00    -0.049 NA
ATOM     12  H3  UNL     1       0.499   1.381   1.815  1.00  0.00     0.171 HD
BRANCH  10  13
HETATM   13  C4  UNL     1       3.790   0.904   0.213  1.00  0.00     0.221 C 
BRANCH  13  14
HETATM   14  C3  UNL     1       4.681  -0.011  -0.646  1.00  0.00     0.033 C 
BRANCH  14  15
HETATM   15  C2  UNL     1       5.809   0.828  -1.192  1.00  0.00    -0.002 C 
HETATM   16  C1  UNL     1       6.592   1.380  -0.003  1.00  0.00     0.005 C 
ENDBRANCH  14  15
ENDBRANCH  13  14
ENDBRANCH  10  13
ENDBRANCH   1   8
BRANCH   3  17
HETATM   17  C9  UNL     1      -4.064   0.197  -0.196  1.00  0.00    -0.007 C 
HETATM   18  C10 UNL     1      -4.190   1.729  -0.231  1.00  0.00     0.021 C 
HETATM   19  C11 UNL     1      -4.649  -0.259  -1.502  1.00  0.00     0.021 C 
HETATM   20  C12 UNL     1      -4.905  -0.253   0.986  1.00  0.00     0.021 C 
ENDBRANCH   3  17
TORSDOF 5
