REMARK  13 active torsions:
REMARK  status: ('A' for Active; 'I' for Inactive)
REMARK    1  A    between atoms: C2_2  and  C4_4 
REMARK    2  A    between atoms: C7_7  and  C9_9 
REMARK    3  A    between atoms: C14_14  and  C16_16 
REMARK    4  A    between atoms: N2_19  and  C18_20 
REMARK    5  A    between atoms: C18_20  and  C19_21 
REMARK    6  A    between atoms: C19_21  and  O1_22 
REMARK    7  A    between atoms: C19_21  and  C20_24 
REMARK    8  A    between atoms: C20_24  and  C21_26 
REMARK    9  A    between atoms: C21_26  and  C22_27 
REMARK   10  A    between atoms: C22_27  and  O3_28 
REMARK   11  A    between atoms: C22_27  and  C23_30 
REMARK   12  A    between atoms: C23_30  and  N3_31 
REMARK   13  A    between atoms: C25_36  and  C26_37 
ROOT
HETATM    1  C9  UNL     1      -3.922   0.532  -0.301  1.00  0.00     0.031 C 
HETATM    2  C10 UNL     1      -3.551  -0.392  -1.461  1.00  0.00     0.009 C 
HETATM    3  C11 UNL     1      -2.589  -1.486  -1.075  1.00  0.00     0.005 C 
HETATM    4  C12 UNL     1      -1.358  -1.036  -0.370  1.00  0.00    -0.007 C 
HETATM    5  C13 UNL     1      -0.079  -1.307  -1.074  1.00  0.00     0.014 C 
HETATM    6  C14 UNL     1       1.047  -0.826  -0.180  1.00  0.00    -0.039 C 
HETATM    7  C15 UNL     1       1.712  -2.056   0.400  1.00  0.00     0.015 C 
HETATM    8  C29 UNL     1       0.569   0.013   0.980  1.00  0.00     0.010 C 
HETATM    9  C30 UNL     1      -0.386   1.113   0.482  1.00  0.00     0.009 C 
HETATM   10  C31 UNL     1      -1.548   0.454  -0.114  1.00  0.00     0.027 C 
HETATM   11  C32 UNL     1      -2.856   0.499   0.701  1.00  0.00     0.090 A 
HETATM   12  C33 UNL     1      -2.721   0.883   2.014  1.00  0.00     0.207 A 
HETATM   13  O4  UNL     1      -3.057  -0.409   1.713  1.00  0.00    -0.374 OA
ENDROOT
BRANCH   6  14
HETATM   14  C16 UNL     1       2.040  -0.111  -1.043  1.00  0.00     0.010 C 
HETATM   15  C17 UNL     1       3.235   0.435  -0.326  1.00  0.00     0.114 C 
HETATM   16  N1  UNL     1       4.319   0.427  -1.255  1.00  0.00    -0.238 NA
HETATM   17  N2  UNL     1       5.447  -0.306  -0.962  1.00  0.00    -0.244 NA
HETATM   18  C25 UNL     1       4.027  -0.495  -2.307  1.00  0.00     0.041 C 
HETATM   19  C24 UNL     1       5.156  -1.405  -1.838  1.00  0.00     0.135 C 
HETATM   20  C28 UNL     1       2.649  -1.069  -2.042  1.00  0.00     0.034 C 
BRANCH  17  21
HETATM   21  C18 UNL     1       5.747  -0.596   0.403  1.00  0.00     0.147 C 
BRANCH  21  22
HETATM   22  C19 UNL     1       7.071  -1.315   0.481  1.00  0.00     0.202 C 
BRANCH  22  23
HETATM   23  O1  UNL     1       6.957  -2.493  -0.264  1.00  0.00    -0.387 OA
ATOM     24  H1  UNL     1       7.791  -2.946  -0.215  1.00  0.00     0.210 HD
ENDBRANCH  22  23
BRANCH  22  25
HETATM   25  C20 UNL     1       8.227  -0.516   0.052  1.00  0.00     0.159 C 
HETATM   26  O2  UNL     1       8.938  -0.917  -0.843  1.00  0.00    -0.295 OA
BRANCH  25  27
HETATM   27  C21 UNL     1       8.520   0.777   0.718  1.00  0.00     0.114 C 
BRANCH  27  28
HETATM   28  C22 UNL     1       9.964   0.763   1.227  1.00  0.00     0.150 C 
BRANCH  28  29
HETATM   29  O3  UNL     1      10.797   0.580   0.153  1.00  0.00    -0.394 OA
ATOM     30  H3  UNL     1      11.693   0.571   0.469  1.00  0.00     0.210 HD
ENDBRANCH  28  29
BRANCH  28  31
HETATM   31  C23 UNL     1      10.243   2.005   2.017  1.00  0.00     0.261 C 
BRANCH  31  32
HETATM   32  N3  UNL     1       9.302   2.101   3.118  1.00  0.00    -0.077 N 
ATOM     33  H33 UNL     1       8.333   2.055   2.802  1.00  0.00     0.274 HD
ATOM     34  H32 UNL     1       9.305   1.264   3.702  1.00  0.00     0.274 HD
ATOM     35  H31 UNL     1       9.492   2.947   3.656  1.00  0.00     0.274 HD
ENDBRANCH  31  32
ENDBRANCH  28  31
ENDBRANCH  27  28
ENDBRANCH  25  27
ENDBRANCH  22  25
ENDBRANCH  21  22
ENDBRANCH  17  21
BRANCH  18  36
HETATM   36  C26 UNL     1       4.271  -0.042  -3.710  1.00  0.00     0.023 C 
HETATM   37  C27 UNL     1       3.461   1.178  -4.093  1.00  0.00     0.007 C 
ENDBRANCH  18  36
ENDBRANCH   6  14
BRANCH   1  38
HETATM   38  C7  UNL     1      -5.344   0.361   0.001  1.00  0.00    -0.037 C 
HETATM   39  C6  UNL     1      -5.761  -1.045   0.361  1.00  0.00     0.010 C 
HETATM   40  C5  UNL     1      -7.233  -1.183   0.545  1.00  0.00     0.010 C 
HETATM   41  C4  UNL     1      -7.792  -0.225   1.595  1.00  0.00     0.017 C 
HETATM   42  C35 UNL     1      -7.290   1.161   1.441  1.00  0.00    -0.010 C 
HETATM   43  C34 UNL     1      -5.800   1.178   1.217  1.00  0.00     0.014 C 
HETATM   44  C36 UNL     1      -8.087   2.121   0.656  1.00  0.00     0.010 C 
HETATM   45  C8  UNL     1      -6.085   0.835  -1.244  1.00  0.00     0.015 C 
BRANCH  41  46
HETATM   46  C2  UNL     1      -9.267  -0.386   1.630  1.00  0.00    -0.089 C 
HETATM   47  C1  UNL     1      -9.873  -0.886   2.705  1.00  0.00     0.014 C 
HETATM   48  C3  UNL     1     -10.182  -0.054   0.496  1.00  0.00     0.043 C 
ENDBRANCH  41  46
ENDBRANCH   1  38
TORSDOF 13
