REMARK  3 active torsions:
REMARK  status: ('A' for Active; 'I' for Inactive)
REMARK    1  A    between atoms: C3_5  and  C4_6 
REMARK    2  A    between atoms: C4_6  and  N2_7 
REMARK    3  A    between atoms: N2_7  and  C5_10 
ROOT
HETATM    1  N2  UNL     1      -0.387  -0.766   0.386  1.00  0.00    -0.061 N 
ATOM      2  H21 UNL     1      -0.046  -1.003   1.318  1.00  0.00     0.278 HD
ATOM      3  H22 UNL     1      -0.085  -1.596  -0.125  1.00  0.00     0.278 HD
ENDROOT
BRANCH   1   4
HETATM    4  C4  UNL     1       0.284   0.404  -0.113  1.00  0.00     0.308 C 
BRANCH   4   5
HETATM    5  C3  UNL     1       1.749   0.181  -0.110  1.00  0.00     0.106 A 
HETATM    6  N1  UNL     1       2.507  -0.598   0.650  1.00  0.00    -0.353 N 
HETATM    7  C2  UNL     1       3.805  -0.477   0.284  1.00  0.00     0.106 A 
ATOM      8  H1  UNL     1       2.163  -1.199   1.399  1.00  0.00     0.166 HD
HETATM    9  C1  UNL     1       3.821   0.425  -0.754  1.00  0.00     0.106 A 
HETATM   10  N4  UNL     1       2.565   0.807  -0.971  1.00  0.00    -0.353 N 
ATOM     11  H4  UNL     1       2.268   1.474  -1.683  1.00  0.00     0.166 HD
ENDBRANCH   4   5
ENDBRANCH   1   4
BRANCH   1  12
HETATM   12  C5  UNL     1      -1.820  -0.669   0.385  1.00  0.00     0.237 C 
HETATM   13  C6  UNL     1      -2.459  -0.501  -0.974  1.00  0.00     0.267 C 
HETATM   14  N3  UNL     1      -3.478   0.319  -0.302  1.00  0.00    -0.071 N 
HETATM   15  C7  UNL     1      -2.461   0.632   0.699  1.00  0.00     0.267 C 
ATOM     16  H32 UNL     1      -3.976   1.057  -0.800  1.00  0.00     0.277 HD
ATOM     17  H31 UNL     1      -4.381  -0.073  -0.034  1.00  0.00     0.277 HD
ENDBRANCH   1  12
TORSDOF 3
