REMARK  5 active torsions:
REMARK  status: ('A' for Active; 'I' for Inactive)
REMARK    1  A    between atoms: O1_2  and  C2_3 
REMARK    2  A    between atoms: C2_3  and  C3_5 
REMARK    3  A    between atoms: C5_8  and  C6_9 
REMARK       I    between atoms: C6_9  and  N1_11 
REMARK    4  A    between atoms: C21_27  and  C22_28 
REMARK    5  A    between atoms: C23_29  and  C24_30 
ROOT
HETATM    1  C3  UNL     1      -1.424  -2.155  -1.285  1.00  0.00     0.044 C 
HETATM    2  C4  UNL     1      -0.688  -2.128  -2.375  1.00  0.00     0.149 C 
HETATM    3  O3  UNL     1       0.201  -1.080  -2.491  1.00  0.00    -0.347 OA
HETATM    4  C5  UNL     1       0.884  -0.695  -1.286  1.00  0.00     0.224 C 
HETATM    5  C16 UNL     1      -0.180  -0.243  -0.267  1.00  0.00     0.037 C 
HETATM    6  C17 UNL     1      -0.462   1.216  -0.344  1.00  0.00     0.035 C 
HETATM    7  C18 UNL     1      -1.691   1.605  -1.043  1.00  0.00    -0.023 C 
HETATM    8  C19 UNL     1      -2.737   0.831  -0.981  1.00  0.00    -0.079 C 
HETATM    9  C20 UNL     1      -3.978   1.265  -1.710  1.00  0.00     0.044 C 
HETATM   10  C21 UNL     1      -2.707  -0.421  -0.232  1.00  0.00     0.045 C 
HETATM   11  C26 UNL     1      -1.368  -1.131  -0.223  1.00  0.00     0.045 C 
ENDROOT
BRANCH   4  12
HETATM   12  C6  UNL     1       1.854   0.331  -1.625  1.00  0.00     0.251 C 
HETATM   13  O4  UNL     1       1.856   0.808  -2.806  1.00  0.00    -0.270 OA
HETATM   14  N1  UNL     1       2.823   0.850  -0.724  1.00  0.00    -0.331 N 
HETATM   15  C7  UNL     1       2.915   0.364   0.638  1.00  0.00     0.166 C 
HETATM   16  C15 UNL     1       3.752   1.889  -1.162  1.00  0.00     0.164 C 
HETATM   17  C8  UNL     1       4.252   0.612   1.235  1.00  0.00    -0.034 A 
HETATM   18  C9  UNL     1       4.916  -0.251   2.070  1.00  0.00     0.009 A 
HETATM   19  C13 UNL     1       4.894   1.818   0.936  1.00  0.00    -0.048 A 
HETATM   20  C10 UNL     1       6.172   0.098   2.575  1.00  0.00     0.001 A 
HETATM   21  C11 UNL     1       6.770   1.299   2.254  1.00  0.00     0.001 A 
HETATM   22  C12 UNL     1       6.107   2.176   1.413  1.00  0.00     0.008 A 
HETATM   23  C14 UNL     1       4.128   2.729   0.011  1.00  0.00     0.076 C 
HETATM   24 BR1  UNL     1       5.352   0.984  -1.809  1.00  0.00    -0.068 Br
ENDBRANCH   4  12
BRANCH   1  25
HETATM   25  C2  UNL     1      -2.365  -3.290  -1.184  1.00  0.00     0.291 C 
HETATM   26  O2  UNL     1      -3.117  -3.420  -0.177  1.00  0.00    -0.260 OA
BRANCH  25  27
HETATM   27  O1  UNL     1      -2.474  -4.257  -2.166  1.00  0.00    -0.323 OA
HETATM   28  C1  UNL     1      -3.371  -5.328  -2.058  1.00  0.00     0.213 C 
ENDBRANCH  25  27
ENDBRANCH   1  25
BRANCH  10  29
HETATM   29  C22 UNL     1      -3.236  -0.199   1.144  1.00  0.00    -0.018 C 
HETATM   30  C23 UNL     1      -3.494   0.994   1.623  1.00  0.00     0.003 C 
BRANCH  30  31
HETATM   31  C24 UNL     1      -4.021   1.208   2.996  1.00  0.00     0.167 A 
HETATM   32  C25 UNL     1      -5.304   0.755   3.455  1.00  0.00     0.204 A 
HETATM   33  O5  UNL     1      -5.150   2.092   3.105  1.00  0.00    -0.377 OA
ENDBRANCH  30  31
ENDBRANCH  10  29
TORSDOF 5
