REMARK  19 active torsions:
REMARK  status: ('A' for Active; 'I' for Inactive)
REMARK    1  A    between atoms: C2_2  and  C3_3 
REMARK    2  A    between atoms: C3_3  and  C5_5 
REMARK    3  A    between atoms: C5_5  and  O1_6 
REMARK    4  A    between atoms: C5_5  and  C6_8 
REMARK    5  A    between atoms: C6_8  and  O2_9 
REMARK    6  A    between atoms: C6_8  and  C7_11 
REMARK    7  A    between atoms: C7_11  and  O3_12 
REMARK    8  A    between atoms: C7_11  and  C8_14 
REMARK    9  A    between atoms: C11_17  and  C12_18 
REMARK   10  A    between atoms: C12_18  and  C13_19 
REMARK   11  A    between atoms: C13_19  and  O4_20 
REMARK   12  A    between atoms: C13_19  and  C14_22 
REMARK   13  A    between atoms: C15_23  and  C17_25 
REMARK   14  A    between atoms: C17_25  and  C18_27 
REMARK   15  A    between atoms: C18_27  and  C19_28 
REMARK   16  A    between atoms: C19_28  and  C20_29 
REMARK   17  A    between atoms: C20_29  and  O7_31 
REMARK   18  A    between atoms: O7_31  and  C21_32 
REMARK   19  A    between atoms: C26_37  and  O8_38 
ROOT
HETATM    1  C13 UNL     1       0.877  -2.161   2.880  1.00  0.00     0.144 C 
ENDROOT
BRANCH   1   2
HETATM    2  C12 UNL     1      -0.544  -1.977   3.296  1.00  0.00     0.067 C 
BRANCH   2   3
HETATM    3  C11 UNL     1      -1.531  -1.802   2.202  1.00  0.00     0.124 C 
HETATM    4  C10 UNL     1      -1.596  -2.948   1.249  1.00  0.00     0.032 C 
HETATM    5  C9  UNL     1      -2.868  -2.828   0.458  1.00  0.00     0.012 C 
HETATM    6  C8  UNL     1      -3.436  -1.434   0.596  1.00  0.00     0.041 C 
HETATM    7  C27 UNL     1      -2.399  -0.372   0.642  1.00  0.00     0.175 C 
HETATM    8  O9  UNL     1      -1.303  -0.656   1.457  1.00  0.00    -0.385 OA
BRANCH   6   9
HETATM    9  C7  UNL     1      -4.292  -1.208  -0.658  1.00  0.00     0.155 C 
BRANCH   9  10
HETATM   10  C6  UNL     1      -4.953   0.129  -0.692  1.00  0.00     0.176 C 
BRANCH  10  11
HETATM   11  C5  UNL     1      -5.957   0.107  -1.839  1.00  0.00     0.153 C 
BRANCH  11  12
HETATM   12  C3  UNL     1      -6.913   1.259  -1.785  1.00  0.00     0.012 C 
HETATM   13  C4  UNL     1      -6.214   2.543  -2.078  1.00  0.00     0.012 C 
BRANCH  12  14
HETATM   14  C2  UNL     1      -8.019   1.092  -2.821  1.00  0.00     0.002 C 
HETATM   15  C1  UNL     1      -8.804  -0.173  -2.639  1.00  0.00     0.005 C 
ENDBRANCH  12  14
ENDBRANCH  11  12
BRANCH  11  16
HETATM   16  O1  UNL     1      -5.384   0.036  -3.080  1.00  0.00    -0.393 OA
ATOM     17  H1  UNL     1      -4.778  -0.695  -3.114  1.00  0.00     0.210 HD
ENDBRANCH  11  16
ENDBRANCH  10  11
BRANCH  10  18
HETATM   18  O2  UNL     1      -4.136   1.213  -0.849  1.00  0.00    -0.390 OA
ATOM     19  H2  UNL     1      -3.510   1.227  -0.134  1.00  0.00     0.210 HD
ENDBRANCH  10  18
ENDBRANCH   9  10
BRANCH   9  20
HETATM   20  O3  UNL     1      -5.339  -2.158  -0.518  1.00  0.00    -0.392 OA
ATOM     21  H3  UNL     1      -4.918  -3.009  -0.496  1.00  0.00     0.210 HD
ENDBRANCH   9  20
ENDBRANCH   6   9
ENDBRANCH   2   3
ENDBRANCH   1   2
BRANCH   1  22
HETATM   22  O4  UNL     1       1.037  -3.314   2.074  1.00  0.00    -0.392 OA
ATOM     23  H4  UNL     1       1.942  -3.431   1.809  1.00  0.00     0.210 HD
ENDBRANCH   1  22
BRANCH   1  24
HETATM   24  C14 UNL     1       1.479  -1.022   2.195  1.00  0.00     0.015 C 
HETATM   25  C15 UNL     1       2.230  -0.105   2.805  1.00  0.00    -0.018 C 
HETATM   26  C16 UNL     1       2.482  -0.221   4.248  1.00  0.00     0.052 C 
BRANCH  25  27
HETATM   27  C17 UNL     1       2.815   1.000   2.054  1.00  0.00     0.155 C 
HETATM   28  O5  UNL     1       2.611   1.093   0.791  1.00  0.00    -0.293 OA
BRANCH  27  29
HETATM   29  C18 UNL     1       3.635   2.013   2.699  1.00  0.00     0.093 C 
BRANCH  29  30
HETATM   30  C19 UNL     1       5.058   1.639   2.948  1.00  0.00     0.118 C 
BRANCH  30  31
HETATM   31  C20 UNL     1       5.854   1.302   1.776  1.00  0.00     0.259 C 
HETATM   32  O6  UNL     1       7.075   0.952   1.950  1.00  0.00    -0.265 OA
BRANCH  31  33
HETATM   33  O7  UNL     1       5.453   1.310   0.451  1.00  0.00    -0.313 OA
BRANCH  33  34
HETATM   34  C21 UNL     1       6.359   0.949  -0.600  1.00  0.00     0.161 C 
HETATM   35  C22 UNL     1       6.424   2.121  -1.553  1.00  0.00     0.039 C 
HETATM   36  C23 UNL     1       7.148   1.476  -2.742  1.00  0.00    -0.014 C 
HETATM   37  C24 UNL     1       8.650   1.593  -2.456  1.00  0.00     0.010 C 
HETATM   38  C25 UNL     1       6.726   0.035  -2.728  1.00  0.00     0.038 C 
HETATM   39  C26 UNL     1       5.835  -0.136  -1.487  1.00  0.00     0.148 C 
BRANCH  39  40
HETATM   40  O8  UNL     1       4.515   0.086  -1.829  1.00  0.00    -0.393 OA
ATOM     41  H8  UNL     1       4.182  -0.603  -2.392  1.00  0.00     0.210 HD
ENDBRANCH  39  40
ENDBRANCH  33  34
ENDBRANCH  31  33
ENDBRANCH  30  31
ENDBRANCH  29  30
ENDBRANCH  27  29
ENDBRANCH  25  27
ENDBRANCH   1  24
TORSDOF 19
