REMARK  6 active torsions:
REMARK  status: ('A' for Active; 'I' for Inactive)
REMARK    1  A    between atoms: C2_2  and  C3_3 
REMARK    2  A    between atoms: C3_3  and  O1_4 
REMARK    3  A    between atoms: O1_4  and  N1_5 
REMARK    4  A    between atoms: N1_5  and  C4_6 
REMARK    5  A    between atoms: C4_6  and  C5_7 
REMARK    6  A    between atoms: C5_7  and  C6_8 
ROOT
HETATM    1  C6  UNL     1      -2.333  -0.035  -0.573  1.00  0.00     0.056 A 
HETATM    2  N2  UNL     1      -3.034   0.775  -1.384  1.00  0.00    -0.309 N 
ATOM      3  H2  UNL     1      -2.831   0.954  -2.367  1.00  0.00     0.170 HD
HETATM    4  C7  UNL     1      -4.059   1.315  -0.673  1.00  0.00     0.326 A 
HETATM    5  O2  UNL     1      -4.924   2.117  -1.094  1.00  0.00    -0.247 OA
HETATM    6  N3  UNL     1      -4.025   0.858   0.592  1.00  0.00    -0.295 N 
ATOM      7  H3  UNL     1      -4.668   1.090   1.349  1.00  0.00     0.172 HD
HETATM    8  C8  UNL     1      -2.961   0.027   0.651  1.00  0.00     0.143 A 
HETATM    9  N4  UNL     1      -2.530  -0.694   1.807  1.00  0.00    -0.080 NA
ENDROOT
BRANCH   1  10
HETATM   10  C5  UNL     1      -1.129  -0.842  -0.895  1.00  0.00     0.079 C 
BRANCH  10  11
HETATM   11  C4  UNL     1       0.046  -0.131  -0.296  1.00  0.00     0.149 C 
BRANCH  11  12
HETATM   12  N1  UNL     1       1.303  -0.793  -0.521  1.00  0.00    -0.101 NA
BRANCH  12  13
HETATM   13  O1  UNL     1       2.289  -0.070   0.061  1.00  0.00    -0.283 OA
BRANCH  13  14
HETATM   14  C3  UNL     1       3.489  -0.719  -0.269  1.00  0.00     0.222 C 
BRANCH  14  15
HETATM   15  C2  UNL     1       4.661  -0.034   0.308  1.00  0.00    -0.009 C 
HETATM   16  C1  UNL     1       4.571   1.061   1.045  1.00  0.00     0.009 C 
ENDBRANCH  14  15
ENDBRANCH  13  14
ENDBRANCH  12  13
ENDBRANCH  11  12
ENDBRANCH  10  11
ENDBRANCH   1  10
TORSDOF 6
