REMARK  11 active torsions:
REMARK  status: ('A' for Active; 'I' for Inactive)
REMARK    1  A    between atoms: O1_2  and  C2_3 
REMARK    2  A    between atoms: C2_3  and  C3_5 
REMARK    3  A    between atoms: C3_5  and  S1_6 
REMARK    4  A    between atoms: S1_6  and  C4_7 
REMARK    5  A    between atoms: C4_7  and  C5_8 
REMARK    6  A    between atoms: N5_21  and  N6_23 
REMARK       I    between atoms: N6_23  and  C11_25 
REMARK       I    between atoms: C11_25  and  N7_27 
REMARK    7  A    between atoms: N7_27  and  C12_29 
REMARK    8  A    between atoms: C12_29  and  C13_30 
REMARK       I    between atoms: C13_30  and  N8_32 
REMARK    9  A    between atoms: N8_32  and  O5_34 
REMARK   10  A    between atoms: O5_34  and  C14_35 
REMARK   11  A    between atoms: C16_41  and  O6_42 
ROOT
HETATM    1  C5  UNL     1      -3.492  -1.443   1.533  1.00  0.00     0.069 A 
HETATM    2  N1  UNL     1      -4.313  -2.447   1.215  1.00  0.00    -0.300 N 
ATOM      3  H1  UNL     1      -5.196  -2.569   1.711  1.00  0.00     0.186 HD
HETATM    4  N2  UNL     1      -3.970  -3.274   0.257  1.00  0.00    -0.293 N 
ATOM      5  H2  UNL     1      -4.609  -4.035   0.026  1.00  0.00     0.187 HD
HETATM    6  C6  UNL     1      -2.811  -3.174  -0.445  1.00  0.00     0.106 A 
HETATM    7  S2  UNL     1      -2.378  -4.258  -1.688  1.00  0.00    -0.054 SA
HETATM    8  C7  UNL     1      -0.878  -3.886  -2.386  1.00  0.00     0.112 A 
HETATM    9  N3  UNL     1      -0.316  -4.664  -3.450  1.00  0.00    -0.093 NA
HETATM   10  C8  UNL     1      -0.230  -2.772  -1.852  1.00  0.00     0.104 A 
HETATM   11  C9  UNL     1       1.061  -2.502  -2.499  1.00  0.00     0.104 C 
HETATM   12  N4  UNL     1       2.090  -2.311  -3.037  1.00  0.00    -0.191 NA
HETATM   13  C10 UNL     1      -0.690  -1.979  -0.845  1.00  0.00     0.087 A 
HETATM   14  N5  UNL     1      -0.036  -0.981  -0.412  1.00  0.00    -0.294 N 
ATOM     15  H5  UNL     1      -0.526  -0.499   0.342  1.00  0.00     0.187 HD
HETATM   16  C15 UNL     1      -1.922  -2.179  -0.181  1.00  0.00     0.064 A 
HETATM   17  C16 UNL     1      -2.309  -1.304   0.848  1.00  0.00     0.105 A 
ENDROOT
BRANCH  14  18
HETATM   18  N6  UNL     1       1.138  -0.404  -0.700  1.00  0.00    -0.251 N 
HETATM   19  C11 UNL     1       2.296  -0.434   0.152  1.00  0.00     0.335 C 
HETATM   20  O3  UNL     1       2.249  -1.032   1.248  1.00  0.00    -0.246 OA
HETATM   21  N7  UNL     1       3.529   0.202  -0.204  1.00  0.00    -0.333 N 
ATOM     22  H7  UNL     1       3.588   0.694  -1.096  1.00  0.00     0.164 HD
ATOM     23  H6  UNL     1       1.216   0.092  -1.588  1.00  0.00     0.191 HD
BRANCH  21  24
HETATM   24  C12 UNL     1       4.676   0.173   0.641  1.00  0.00     0.229 C 
BRANCH  24  25
HETATM   25  C13 UNL     1       5.815   0.893   0.063  1.00  0.00     0.259 C 
HETATM   26  O4  UNL     1       6.931   0.954   0.718  1.00  0.00    -0.270 OA
HETATM   27  N8  UNL     1       5.833   1.556  -1.176  1.00  0.00    -0.225 N 
ATOM     28  H8  UNL     1       4.995   1.559  -1.757  1.00  0.00     0.198 HD
BRANCH  27  29
HETATM   29  O5  UNL     1       6.989   2.214  -1.624  1.00  0.00    -0.202 OA
BRANCH  29  30
HETATM   30  C14 UNL     1       7.422   3.359  -0.931  1.00  0.00     0.249 C 
HETATM   31  N9  UNL     1       6.508   4.126  -0.464  1.00  0.00    -0.366 N 
ATOM     32  H92 UNL     1       5.514   3.928  -0.581  1.00  0.00     0.159 HD
ATOM     33  H91 UNL     1       6.822   4.956   0.039  1.00  0.00     0.159 HD
HETATM   34  N10 UNL     1       8.810   3.635  -0.767  1.00  0.00    -0.055 NA
ENDBRANCH  29  30
ENDBRANCH  27  29
ENDBRANCH  24  25
ENDBRANCH  21  24
ENDBRANCH  14  18
BRANCH  17  35
HETATM   35  O6  UNL     1      -1.436  -0.257   1.169  1.00  0.00    -0.358 OA
ATOM     36  H6  UNL     1      -0.618  -0.161   0.695  1.00  0.00     0.217 HD
ENDBRANCH  17  35
BRANCH   1  37
HETATM   37  C4  UNL     1      -3.829  -0.462   2.614  1.00  0.00     0.135 C 
BRANCH  37  38
HETATM   38  S1  UNL     1      -5.413  -0.847   3.363  1.00  0.00    -0.153 SA
BRANCH  38  39
HETATM   39  C3  UNL     1      -6.770  -0.636   2.181  1.00  0.00     0.185 C 
BRANCH  39  40
HETATM   40  C2  UNL     1      -6.875   0.799   1.831  1.00  0.00     0.267 C 
HETATM   41  O2  UNL     1      -7.598   1.573   2.499  1.00  0.00    -0.264 OA
BRANCH  40  42
HETATM   42  O1  UNL     1      -6.187   1.356   0.756  1.00  0.00    -0.326 OA
HETATM   43  C1  UNL     1      -6.302   2.725   0.439  1.00  0.00     0.213 C 
ENDBRANCH  40  42
ENDBRANCH  39  40
ENDBRANCH  38  39
ENDBRANCH  37  38
ENDBRANCH   1  37
TORSDOF 11
