REMARK  10 active torsions:
REMARK  status: ('A' for Active; 'I' for Inactive)
REMARK    1  A    between atoms: C2_2  and  C3_3 
REMARK    2  A    between atoms: C3_3  and  C4_4 
REMARK    3  A    between atoms: C4_4  and  C5_5 
REMARK    4  A    between atoms: C5_5  and  C6_6 
REMARK    5  A    between atoms: C6_6  and  C7_7 
REMARK    6  A    between atoms: C6_6  and  C10_13 
REMARK    7  A    between atoms: C7_7  and  C8_8 
REMARK       I    between atoms: C8_8  and  N1_10 
REMARK       I    between atoms: C10_13  and  N2_15 
REMARK    8  A    between atoms: C14_19  and  C15_20 
REMARK    9  A    between atoms: C15_20  and  N3_21 
REMARK       I    between atoms: N3_21  and  C16_23 
REMARK       I    between atoms: C16_23  and  N6_29 
REMARK       I    between atoms: N4_24  and  C17_26 
REMARK   10  A    between atoms: N6_29  and  C18_31 
ROOT
HETATM    1  C10 UNL     1      -1.877   0.317   1.277  1.00  0.00     0.224 C 
HETATM    2  O2  UNL     1      -1.578   1.036   2.300  1.00  0.00    -0.273 OA
HETATM    3  N2  UNL     1      -0.887   0.096   0.299  1.00  0.00    -0.345 N 
HETATM    4  C11 UNL     1      -0.822  -0.629  -0.925  1.00  0.00     0.126 C 
HETATM    5  C12 UNL     1       0.142   0.139  -1.835  1.00  0.00     0.022 C 
HETATM    6  C13 UNL     1       0.614   1.287  -0.968  1.00  0.00     0.028 C 
HETATM    7  C14 UNL     1       0.472   0.680   0.411  1.00  0.00     0.105 C 
ENDROOT
BRANCH   7   8
HETATM    8  C15 UNL     1       1.488  -0.401   0.659  1.00  0.00     0.163 C 
BRANCH   8   9
HETATM    9  N3  UNL     1       2.781   0.199   0.760  1.00  0.00    -0.224 N 
HETATM   10  C16 UNL     1       3.986  -0.510   0.992  1.00  0.00     0.678 C 
HETATM   11  N4  UNL     1       4.271  -0.899   2.157  1.00  0.00    -0.144 N 
HETATM   12  N6  UNL     1       4.834  -0.758  -0.106  1.00  0.00    -0.218 N 
HETATM   13  C17 UNL     1       5.406  -1.605   2.571  1.00  0.00     0.346 C 
ATOM     14  H4  UNL     1       3.593  -0.672   2.885  1.00  0.00     0.188 HD
HETATM   15  N5  UNL     1       6.119  -1.138   3.716  1.00  0.00    -0.039 NA
HETATM   16  O3  UNL     1       5.855  -2.636   2.005  1.00  0.00    -0.250 OA
ATOM     17  H6  UNL     1       4.838  -1.705  -0.486  1.00  0.00     0.178 HD
ATOM     18  H3  UNL     1       2.841   1.212   0.658  1.00  0.00     0.177 HD
BRANCH  12  19
HETATM   19  C18 UNL     1       5.687   0.198  -0.733  1.00  0.00     0.036 C 
HETATM   20  C19 UNL     1       6.677   0.723   0.295  1.00  0.00     0.038 C 
HETATM   21  C20 UNL     1       4.954   1.348  -1.370  1.00  0.00     0.038 C 
HETATM   22  C21 UNL     1       6.506  -0.472  -1.815  1.00  0.00     0.038 C 
ENDBRANCH  12  19
ENDBRANCH   8   9
ENDBRANCH   7   8
BRANCH   1  23
HETATM   23  C6  UNL     1      -3.257  -0.218   1.222  1.00  0.00     0.086 C 
BRANCH  23  24
HETATM   24  C5  UNL     1      -4.101   0.464   0.187  1.00  0.00     0.014 C 
BRANCH  24  25
HETATM   25  C4  UNL     1      -3.983   1.993   0.323  1.00  0.00     0.001 C 
BRANCH  25  26
HETATM   26  C3  UNL     1      -4.830   2.685  -0.712  1.00  0.00    -0.000 C 
BRANCH  26  27
HETATM   27  C2  UNL     1      -4.439   2.338  -2.123  1.00  0.00    -0.005 C 
HETATM   28  C1  UNL     1      -5.375   3.111  -3.062  1.00  0.00     0.005 C 
ENDBRANCH  26  27
ENDBRANCH  25  26
ENDBRANCH  24  25
ENDBRANCH  23  24
BRANCH  23  29
HETATM   29  C7  UNL     1      -3.297  -1.710   1.175  1.00  0.00     0.117 C 
BRANCH  29  30
HETATM   30  C8  UNL     1      -4.599  -2.332   1.382  1.00  0.00     0.217 C 
HETATM   31  O1  UNL     1      -5.618  -1.639   1.645  1.00  0.00    -0.274 OA
HETATM   32  N1  UNL     1      -4.731  -3.743   1.289  1.00  0.00    -0.365 N 
HETATM   33  C9  UNL     1      -6.003  -4.410   1.486  1.00  0.00     0.149 C 
ATOM     34  H1  UNL     1      -3.906  -4.304   1.077  1.00  0.00     0.161 HD
ENDBRANCH  29  30
ENDBRANCH  23  29
ENDBRANCH   1  23
TORSDOF 10
