REMARK  2 active torsions:
REMARK  status: ('A' for Active; 'I' for Inactive)
REMARK    1  A    between atoms: C2_2  and  C3_3 
REMARK    2  A    between atoms: C3_3  and  N1_4 
ROOT
HETATM    1  N1  UNL     1      -0.897   0.186   0.500  1.00  0.00    -0.229 N 
HETATM    2  N2  UNL     1      -1.745   1.194   0.606  1.00  0.00    -0.278 N 
ATOM      3  H2  UNL     1      -1.749   2.067   1.134  1.00  0.00     0.189 HD
HETATM    4  C4  UNL     1      -2.602   0.616  -0.256  1.00  0.00     0.217 A 
HETATM    5  N3  UNL     1      -1.714  -0.391  -0.338  1.00  0.00    -0.278 N 
ATOM      6  H3  UNL     1      -1.689  -1.269  -0.856  1.00  0.00     0.189 HD
ENDROOT
BRANCH   1   7
HETATM    7  C3  UNL     1       0.413  -0.134   1.086  1.00  0.00     0.196 C 
BRANCH   7   8
HETATM    8  C2  UNL     1       1.494   0.397   0.231  1.00  0.00    -0.014 C 
HETATM    9  C1  UNL     1       2.374  -0.435  -0.283  1.00  0.00     0.008 C 
ENDBRANCH   7   8
ENDBRANCH   1   7
TORSDOF 2
