REMARK  15 active torsions:
REMARK  status: ('A' for Active; 'I' for Inactive)
REMARK    1  A    between atoms: C2_2  and  C3_3 
REMARK    2  A    between atoms: C3_3  and  N1_4 
REMARK    3  A    between atoms: N1_4  and  C4_5 
REMARK    4  A    between atoms: N1_4  and  C7_12 
REMARK    5  A    between atoms: C4_5  and  C5_6 
REMARK    6  A    between atoms: C5_6  and  C6_7 
REMARK    7  A    between atoms: C6_7  and  N2_8 
REMARK    8  A    between atoms: C7_12  and  C8_13 
REMARK    9  A    between atoms: C8_13  and  N3_14 
REMARK   10  A    between atoms: N3_14  and  C9_16 
REMARK   11  A    between atoms: C10_19  and  N5_20 
REMARK   12  A    between atoms: C11_25  and  N7_26 
REMARK   13  A    between atoms: N7_26  and  C12_28 
REMARK   14  A    between atoms: C13_32  and  O1_33 
REMARK   15  A    between atoms: C14_35  and  O2_36 
ROOT
HETATM    1  C9  UNL     1       0.908  -0.775   0.669  1.00  0.00     0.707 A 
HETATM    2  N4  UNL     1       1.315  -2.045   0.807  1.00  0.00    -0.022 N 
ATOM      3  H4  UNL     1       0.640  -2.755   1.091  1.00  0.00     0.203 HD
HETATM    4  C10 UNL     1       2.601  -2.409   0.578  1.00  0.00     0.705 A 
HETATM    5  N6  UNL     1       3.490  -1.473   0.203  1.00  0.00    -0.022 N 
ATOM      6  H6  UNL     1       4.458  -1.745   0.030  1.00  0.00     0.203 HD
HETATM    7  C11 UNL     1       3.133  -0.189   0.051  1.00  0.00     0.709 A 
HETATM    8  N9  UNL     1       1.852   0.131   0.287  1.00  0.00    -0.021 N 
ATOM      9  H9  UNL     1       1.569   1.105   0.175  1.00  0.00     0.203 HD
ENDROOT
BRANCH   1  10
HETATM   10  N3  UNL     1      -0.292  -0.402   0.881  1.00  0.00    -0.220 N 
ATOM     11  H3  UNL     1      -0.478   0.591   0.742  1.00  0.00     0.178 HD
BRANCH  10  12
HETATM   12  C8  UNL     1      -1.411  -1.191   1.288  1.00  0.00     0.182 C 
BRANCH  12  13
HETATM   13  C7  UNL     1      -2.668  -0.355   1.322  1.00  0.00     0.083 C 
BRANCH  13  14
HETATM   14  N1  UNL     1      -3.076   0.224   0.104  1.00  0.00    -0.372 N 
BRANCH  14  15
HETATM   15  C3  UNL     1      -2.198   1.225  -0.358  1.00  0.00     0.062 C 
BRANCH  15  16
HETATM   16  C2  UNL     1      -2.868   2.292  -1.203  1.00  0.00     0.040 C 
HETATM   17  C1  UNL     1      -3.950   3.032  -0.478  1.00  0.00     0.010 C 
ENDBRANCH  15  16
ENDBRANCH  14  15
BRANCH  14  18
HETATM   18  C4  UNL     1      -3.612  -0.677  -0.854  1.00  0.00     0.128 C 
BRANCH  18  19
HETATM   19  C5  UNL     1      -4.605  -1.653  -0.274  1.00  0.00     0.047 C 
BRANCH  19  20
HETATM   20  C6  UNL     1      -5.799  -0.950   0.332  1.00  0.00     0.231 C 
BRANCH  20  21
HETATM   21  N2  UNL     1      -6.729  -1.913   0.883  1.00  0.00    -0.079 N 
ATOM     22  H23 UNL     1      -7.009  -2.608   0.191  1.00  0.00     0.274 HD
ATOM     23  H22 UNL     1      -6.277  -2.537   1.551  1.00  0.00     0.274 HD
ATOM     24  H21 UNL     1      -7.534  -1.439   1.292  1.00  0.00     0.274 HD
ENDBRANCH  20  21
ENDBRANCH  19  20
ENDBRANCH  18  19
ENDBRANCH  14  18
ENDBRANCH  13  14
ENDBRANCH  12  13
ENDBRANCH  10  12
ENDBRANCH   1  10
BRANCH   4  25
HETATM   25  N5  UNL     1       2.988  -3.654   0.714  1.00  0.00    -0.234 N 
ATOM     26  H52 UNL     1       2.313  -4.364   0.999  1.00  0.00     0.174 HD
ATOM     27  H51 UNL     1       3.955  -3.928   0.542  1.00  0.00     0.174 HD
ENDBRANCH   4  25
BRANCH   7  28
HETATM   28  N7  UNL     1       3.988   0.709  -0.304  1.00  0.00    -0.193 N 
ATOM     29  H7  UNL     1       3.654   1.668  -0.404  1.00  0.00     0.180 HD
BRANCH  28  30
HETATM   30  C12 UNL     1       5.364   0.458  -0.566  1.00  0.00     0.335 C 
HETATM   31  N8  UNL     1       6.166   0.074   0.578  1.00  0.00    -0.022 N 
HETATM   32  C13 UNL     1       7.226   0.918   0.067  1.00  0.00     0.354 C 
ATOM     33  H82 UNL     1       5.813   0.198   1.527  1.00  0.00     0.282 HD
ATOM     34  H81 UNL     1       6.338  -0.909   0.787  1.00  0.00     0.282 HD
HETATM   35  C14 UNL     1       6.177   1.744  -0.636  1.00  0.00     0.225 C 
BRANCH  32  36
HETATM   36  O1  UNL     1       7.919   1.597   1.066  1.00  0.00    -0.368 OA
ATOM     37  H1  UNL     1       8.614   2.151   0.731  1.00  0.00     0.212 HD
ENDBRANCH  32  36
BRANCH  35  38
HETATM   38  O2  UNL     1       6.533   2.154  -1.911  1.00  0.00    -0.387 OA
ATOM     39  H2  UNL     1       7.040   2.956  -1.955  1.00  0.00     0.210 HD
ENDBRANCH  35  38
ENDBRANCH  28  30
ENDBRANCH   7  28
TORSDOF 15
