REMARK  13 active torsions:
REMARK  status: ('A' for Active; 'I' for Inactive)
REMARK    1  A    between atoms: O1_2  and  C2_3 
REMARK    2  A    between atoms: C3_6  and  N2_7 
REMARK    3  A    between atoms: C4_12  and  N4_13 
REMARK    4  A    between atoms: N4_13  and  C5_15 
REMARK    5  A    between atoms: C5_15  and  C6_16 
REMARK    6  A    between atoms: C6_16  and  C7_17 
REMARK    7  A    between atoms: C7_17  and  N5_18 
REMARK    8  A    between atoms: N5_18  and  C9_20 
REMARK    9  A    between atoms: C9_20  and  C10_21 
REMARK   10  A    between atoms: C10_21  and  C11_22 
REMARK   11  A    between atoms: C11_22  and  N6_23 
REMARK   12  A    between atoms: N6_23  and  C12_25 
REMARK   13  A    between atoms: C13_30  and  N9_31 
ROOT
HETATM    1  C7  UNL     1       0.323   2.013  -0.271  1.00  0.00     0.273 C 
ENDROOT
BRANCH   1   2
HETATM    2  C6  UNL     1       1.799   1.954  -0.459  1.00  0.00     0.050 C 
BRANCH   2   3
HETATM    3  C5  UNL     1       2.203   1.057  -1.633  1.00  0.00     0.140 C 
BRANCH   3   4
HETATM    4  N4  UNL     1       3.647   1.100  -1.685  1.00  0.00    -0.225 N 
ATOM      5  H4  UNL     1       4.097   1.754  -2.325  1.00  0.00     0.177 HD
BRANCH   4   6
HETATM    6  C4  UNL     1       4.371   0.356  -0.966  1.00  0.00     0.695 A 
HETATM    7  N3  UNL     1       3.845  -0.526  -0.103  1.00  0.00    -0.022 N 
HETATM    8  C3  UNL     1       4.631  -1.323   0.667  1.00  0.00     0.693 A 
ATOM      9  H3  UNL     1       2.831  -0.600  -0.023  1.00  0.00     0.203 HD
HETATM   10  N1  UNL     1       5.962  -1.201   0.537  1.00  0.00    -0.154 N 
HETATM   11  C2  UNL     1       6.511  -0.317  -0.328  1.00  0.00     0.252 A 
ATOM     12  H1  UNL     1       6.574  -1.789   1.104  1.00  0.00     0.188 HD
HETATM   13  N11 UNL     1       5.716   0.459  -1.078  1.00  0.00    -0.154 N 
ATOM     14  H11 UNL     1       6.124   1.126  -1.732  1.00  0.00     0.188 HD
BRANCH   8  15
HETATM   15  N2  UNL     1       4.147  -2.176   1.501  1.00  0.00    -0.234 N 
ATOM     16  H22 UNL     1       4.737  -2.774   2.079  1.00  0.00     0.174 HD
ATOM     17  H21 UNL     1       3.136  -2.269   1.600  1.00  0.00     0.174 HD
ENDBRANCH   8  15
BRANCH  11  18
HETATM   18  O1  UNL     1       7.881  -0.178  -0.476  1.00  0.00    -0.326 OA
HETATM   19  C1  UNL     1       8.777  -0.954   0.272  1.00  0.00     0.213 C 
ENDBRANCH  11  18
ENDBRANCH   4   6
ENDBRANCH   3   4
ENDBRANCH   2   3
ENDBRANCH   1   2
BRANCH   1  20
HETATM   20  N5  UNL     1      -0.297   0.755  -0.001  1.00  0.00     0.084 N 
HETATM   21  C8  UNL     1       0.034   0.189   1.267  1.00  0.00     0.309 C 
BRANCH  20  22
HETATM   22  C9  UNL     1      -1.711   0.883  -0.209  1.00  0.00     0.273 C 
BRANCH  22  23
HETATM   23  C10 UNL     1      -2.482  -0.386   0.060  1.00  0.00     0.050 C 
BRANCH  23  24
HETATM   24  C11 UNL     1      -3.928  -0.099  -0.200  1.00  0.00     0.140 C 
BRANCH  24  25
HETATM   25  N6  UNL     1      -4.796  -1.220   0.017  1.00  0.00    -0.224 N 
ATOM     26  H6  UNL     1      -4.418  -2.145   0.220  1.00  0.00     0.177 HD
BRANCH  25  27
HETATM   27  C12 UNL     1      -6.067  -1.023  -0.052  1.00  0.00     0.707 A 
HETATM   28  N7  UNL     1      -6.722   0.125  -0.308  1.00  0.00    -0.117 N 
HETATM   29  N8  UNL     1      -8.020  -0.076  -0.291  1.00  0.00    -0.118 N 
ATOM     30  H7  UNL     1      -6.274   1.023  -0.489  1.00  0.00     0.206 HD
HETATM   31  C13 UNL     1      -8.218  -1.367  -0.021  1.00  0.00     0.705 A 
ATOM     32  H8  UNL     1      -8.743   0.625  -0.454  1.00  0.00     0.206 HD
HETATM   33  N10 UNL     1      -7.005  -1.957   0.128  1.00  0.00    -0.020 N 
ATOM     34  H10 UNL     1      -6.839  -2.941   0.340  1.00  0.00     0.203 HD
BRANCH  31  35
HETATM   35  N9  UNL     1      -9.376  -1.947   0.081  1.00  0.00    -0.233 N 
ATOM     36  H92 UNL     1     -10.288  -1.504  -0.031  1.00  0.00     0.174 HD
ATOM     37  H91 UNL     1      -9.527  -2.934   0.287  1.00  0.00     0.174 HD
ENDBRANCH  31  35
ENDBRANCH  25  27
ENDBRANCH  24  25
ENDBRANCH  23  24
ENDBRANCH  22  23
ENDBRANCH  20  22
ENDBRANCH   1  20
TORSDOF 13
