REMARK  8 active torsions:
REMARK  status: ('A' for Active; 'I' for Inactive)
REMARK    1  A    between atoms: C8_10  and  C10_12 
REMARK    2  A    between atoms: C15_19  and  C16_20 
REMARK    3  A    between atoms: C16_20  and  C17_21 
REMARK    4  A    between atoms: C17_21  and  C18_22 
REMARK    5  A    between atoms: C18_22  and  C19_23 
REMARK    6  A    between atoms: C19_23  and  C20_24 
REMARK    7  A    between atoms: C20_24  and  O6_26 
REMARK    8  A    between atoms: O6_26  and  C21_27 
ROOT
HETATM    1  C1  UNL     1      -2.978   4.323  -1.420  1.00  0.00     0.025 C 
HETATM    2  C2  UNL     1      -2.691   3.142  -0.902  1.00  0.00     0.014 C 
HETATM    3  C3  UNL     1      -1.595   2.855   0.043  1.00  0.00     0.289 C 
HETATM    4  O1  UNL     1      -0.767   3.697   0.484  1.00  0.00    -0.260 OA
HETATM    5  O2  UNL     1      -1.677   1.479   0.333  1.00  0.00    -0.311 OA
HETATM    6  C4  UNL     1      -2.228   0.877  -0.791  1.00  0.00     0.145 C 
HETATM    7  C5  UNL     1      -3.381   1.850  -1.136  1.00  0.00     0.054 C 
HETATM    8  C6  UNL     1      -4.496   1.698  -0.156  1.00  0.00     0.013 C 
HETATM    9  C7  UNL     1      -5.005   0.277  -0.304  1.00  0.00     0.011 C 
HETATM   10  C8  UNL     1      -3.937  -0.665   0.189  1.00  0.00    -0.028 C 
HETATM   11  C9  UNL     1      -3.662  -0.410   1.653  1.00  0.00     0.016 C 
HETATM   12  C15 UNL     1      -2.697  -0.510  -0.680  1.00  0.00     0.025 C 
ENDROOT
BRANCH  12  13
HETATM   13  C16 UNL     1      -1.685  -1.509  -0.282  1.00  0.00     0.008 C 
BRANCH  13  14
HETATM   14  C17 UNL     1      -0.481  -1.767  -1.084  1.00  0.00     0.001 C 
BRANCH  14  15
HETATM   15  C18 UNL     1       0.584  -0.775  -1.177  1.00  0.00     0.010 C 
BRANCH  15  16
HETATM   16  C19 UNL     1       1.213  -0.539   0.204  1.00  0.00     0.111 C 
BRANCH  16  17
HETATM   17  C20 UNL     1       2.288   0.472   0.157  1.00  0.00     0.259 C 
HETATM   18  O5  UNL     1       1.964   1.698   0.151  1.00  0.00    -0.265 OA
BRANCH  17  19
HETATM   19  O6  UNL     1       3.627   0.134   0.119  1.00  0.00    -0.316 OA
BRANCH  19  20
HETATM   20  C21 UNL     1       4.611   1.138   0.076  1.00  0.00     0.132 C 
HETATM   21  C22 UNL     1       5.388   1.155  -1.209  1.00  0.00     0.035 C 
HETATM   22  C23 UNL     1       6.302   0.016  -1.463  1.00  0.00     0.037 C 
HETATM   23  C24 UNL     1       6.325  -1.064  -0.476  1.00  0.00     0.157 A 
HETATM   24  O7  UNL     1       7.361  -1.671   0.123  1.00  0.00    -0.370 OA
HETATM   25  C25 UNL     1       7.116  -0.492   0.715  1.00  0.00     0.084 A 
HETATM   26  C26 UNL     1       8.143   0.571   0.435  1.00  0.00     0.049 C 
HETATM   27  C27 UNL     1       6.073  -0.148   1.697  1.00  0.00     0.043 C 
HETATM   28  C28 UNL     1       5.465   1.168   1.312  1.00  0.00     0.035 C 
ENDBRANCH  19  20
ENDBRANCH  17  19
ENDBRANCH  16  17
ENDBRANCH  15  16
ENDBRANCH  14  15
ENDBRANCH  13  14
ENDBRANCH  12  13
BRANCH  10  29
HETATM   29  C10 UNL     1      -4.505  -2.053   0.090  1.00  0.00     0.057 C 
HETATM   30  C11 UNL     1      -5.759  -2.101   0.979  1.00  0.00     0.189 C 
HETATM   31  O3  UNL     1      -6.878  -2.105   0.161  1.00  0.00    -0.317 OA
HETATM   32  C12 UNL     1      -6.487  -2.119  -1.160  1.00  0.00     0.289 C 
HETATM   33  O4  UNL     1      -7.254  -1.896  -2.129  1.00  0.00    -0.260 OA
HETATM   34  C13 UNL     1      -5.045  -2.438  -1.205  1.00  0.00     0.015 C 
HETATM   35  C14 UNL     1      -4.466  -2.976  -2.260  1.00  0.00     0.025 C 
ENDBRANCH  10  29
TORSDOF 8
