REMARK  8 active torsions:
REMARK  status: ('A' for Active; 'I' for Inactive)
REMARK    1  A    between atoms: O1_2  and  C2_3 
REMARK       I    between atoms: C2_3  and  N1_5 
REMARK    2  A    between atoms: N1_5  and  C4_7 
REMARK    3  A    between atoms: C4_7  and  C5_8 
REMARK    4  A    between atoms: C5_8  and  C6_9 
REMARK    5  A    between atoms: C6_9  and  C7_10 
REMARK    6  A    between atoms: C7_10  and  C8_11 
REMARK    7  A    between atoms: C8_11  and  C9_12 
REMARK    8  A    between atoms: C16_20  and  N2_22 
ROOT
HETATM    1  C9  UNL     1       0.270  -0.513  -0.083  1.00  0.00    -0.002 C 
HETATM    2  C10 UNL     1       0.186   0.741  -0.926  1.00  0.00     0.083 C 
HETATM    3  C11 UNL     1      -0.103   1.776   0.065  1.00  0.00     0.132 C 
HETATM    4  O3  UNL     1       0.274   2.940  -0.014  1.00  0.00    -0.298 OA
HETATM    5  C12 UNL     1      -0.916   1.142   1.139  1.00  0.00     0.065 C 
HETATM    6  C13 UNL     1      -0.334  -0.225   1.239  1.00  0.00     0.005 C 
HETATM    7  C14 UNL     1      -1.447  -1.174   1.625  1.00  0.00     0.042 C 
HETATM    8  C15 UNL     1      -2.498  -1.211   0.545  1.00  0.00    -0.051 C 
HETATM    9  C16 UNL     1      -2.820  -2.358   0.031  1.00  0.00     0.036 C 
HETATM   10  C17 UNL     1      -2.160  -3.618   0.501  1.00  0.00     0.070 C 
HETATM   11  C20 UNL     1      -3.040   0.103   0.196  1.00  0.00     0.021 C 
HETATM   12  C21 UNL     1      -4.505   0.298   0.492  1.00  0.00     0.010 C 
HETATM   13  C22 UNL     1      -4.963   1.501  -0.287  1.00  0.00     0.009 C 
HETATM   14  C23 UNL     1      -4.147   2.716  -0.097  1.00  0.00    -0.047 C 
HETATM   15  C24 UNL     1      -4.835   3.591   0.956  1.00  0.00     0.015 C 
HETATM   16  C25 UNL     1      -4.252   3.529  -1.399  1.00  0.00     0.015 C 
HETATM   17  C26 UNL     1      -2.719   2.524   0.252  1.00  0.00     0.015 C 
HETATM   18  C27 UNL     1      -2.377   1.235   0.928  1.00  0.00     0.006 C 
ENDROOT
BRANCH   1  19
HETATM   19  C8  UNL     1       1.718  -0.930  -0.020  1.00  0.00     0.005 C 
BRANCH  19  20
HETATM   20  C7  UNL     1       2.611   0.094   0.581  1.00  0.00     0.000 C 
BRANCH  20  21
HETATM   21  C6  UNL     1       4.031  -0.385   0.618  1.00  0.00     0.002 C 
BRANCH  21  22
HETATM   22  C5  UNL     1       4.627  -0.706  -0.709  1.00  0.00     0.020 C 
BRANCH  22  23
HETATM   23  C4  UNL     1       6.033  -1.177  -0.575  1.00  0.00     0.127 C 
BRANCH  23  24
HETATM   24  N1  UNL     1       6.961  -0.283   0.019  1.00  0.00    -0.332 N 
HETATM   25  C2  UNL     1       7.705   0.660  -0.739  1.00  0.00     0.361 C 
HETATM   26  O2  UNL     1       8.535   1.441  -0.181  1.00  0.00    -0.238 OA
HETATM   27  C3  UNL     1       7.176  -0.330   1.448  1.00  0.00     0.155 C 
BRANCH  25  28
HETATM   28  O1  UNL     1       7.572   0.786  -2.115  1.00  0.00    -0.309 OA
HETATM   29  C1  UNL     1       8.340   1.741  -2.804  1.00  0.00     0.215 C 
ENDBRANCH  25  28
ENDBRANCH  23  24
ENDBRANCH  22  23
ENDBRANCH  21  22
ENDBRANCH  20  21
ENDBRANCH  19  20
ENDBRANCH   1  19
BRANCH   9  30
HETATM   30  N2  UNL     1      -3.791  -2.539  -0.995  1.00  0.00    -0.232 N 
HETATM   31  N3  UNL     1      -3.882  -1.932  -2.162  1.00  0.00    -0.220 N 
HETATM   32  N4  UNL     1      -4.928  -2.384  -2.829  1.00  0.00    -0.226 N 
ATOM     33  H3  UNL     1      -3.238  -1.217  -2.500  1.00  0.00     0.210 HD
HETATM   34  N5  UNL     1      -5.522  -3.295  -2.087  1.00  0.00    -0.272 N 
ATOM     35  H4  UNL     1      -5.224  -2.081  -3.757  1.00  0.00     0.210 HD
HETATM   36  C18 UNL     1      -4.819  -3.391  -0.953  1.00  0.00     0.116 A 
ATOM     37  H5  UNL     1      -6.358  -3.826  -2.330  1.00  0.00     0.190 HD
HETATM   38  C19 UNL     1      -5.127  -4.296   0.179  1.00  0.00     0.092 C 
ENDBRANCH   9  30
TORSDOF 8
