REMARK  18 active torsions:
REMARK  status: ('A' for Active; 'I' for Inactive)
REMARK    1  A    between atoms: C2_2  and  C4_4 
REMARK    2  A    between atoms: C4_4  and  C5_5 
REMARK    3  A    between atoms: C5_5  and  C6_6 
REMARK    4  A    between atoms: C7_7  and  C9_9 
REMARK    5  A    between atoms: C9_9  and  C10_10 
REMARK    6  A    between atoms: C10_10  and  C11_11 
REMARK    7  A    between atoms: C11_11  and  C12_12 
REMARK    8  A    between atoms: C18_18  and  O1_19 
REMARK    9  A    between atoms: C19_21  and  O2_22 
REMARK   10  A    between atoms: C19_21  and  C20_24 
REMARK   11  A    between atoms: C20_24  and  O3_25 
REMARK   12  A    between atoms: O3_25  and  C21_26 
REMARK   13  A    between atoms: C21_26  and  C22_28 
REMARK   14  A    between atoms: C22_28  and  C24_30 
REMARK   15  A    between atoms: C27_33  and  O5_34 
REMARK   16  A    between atoms: O5_34  and  C28_35 
REMARK   17  A    between atoms: C28_35  and  C29_37 
REMARK   18  A    between atoms: C29_37  and  C31_39 
ROOT
HETATM    1  C12 UNL     1       0.833   0.587   0.131  1.00  0.00     0.016 C 
HETATM    2  C13 UNL     1       0.834  -0.395   1.281  1.00  0.00     0.017 C 
HETATM    3  C14 UNL     1       0.543  -1.801   0.928  1.00  0.00     0.006 C 
HETATM    4  C15 UNL     1       0.022  -2.139  -0.402  1.00  0.00     0.036 C 
HETATM    5  C16 UNL     1      -0.459  -1.009  -1.225  1.00  0.00    -0.051 C 
HETATM    6  C17 UNL     1      -0.881  -1.269  -2.466  1.00  0.00     0.017 C 
HETATM    7  C18 UNL     1      -0.442   0.393  -0.703  1.00  0.00     0.127 C 
HETATM    8  C19 UNL     1      -1.689   0.935  -0.193  1.00  0.00     0.142 C 
HETATM    9  C27 UNL     1      -1.517   2.356   0.292  1.00  0.00     0.171 C 
HETATM   10  C33 UNL     1      -0.138   2.915   0.164  1.00  0.00     0.037 C 
HETATM   11  C34 UNL     1       0.866   1.950   0.686  1.00  0.00     0.020 C 
ENDROOT
BRANCH   1  12
HETATM   12  C11 UNL     1       1.934   0.345  -0.839  1.00  0.00    -0.014 C 
BRANCH  12  13
HETATM   13  C10 UNL     1       3.330   0.366  -0.470  1.00  0.00    -0.003 C 
BRANCH  13  14
HETATM   14  C9  UNL     1       4.058  -0.738  -0.540  1.00  0.00     0.007 C 
BRANCH  14  15
HETATM   15  C7  UNL     1       5.444  -0.881  -0.226  1.00  0.00    -0.055 C 
HETATM   16  C6  UNL     1       5.965  -2.113  -0.311  1.00  0.00     0.062 C 
HETATM   17  C8  UNL     1       6.253   0.300   0.044  1.00  0.00     0.049 C 
BRANCH  16  18
HETATM   18  C5  UNL     1       7.296  -2.511  -0.175  1.00  0.00    -0.127 C 
BRANCH  18  19
HETATM   19  C4  UNL     1       8.470  -2.877  -0.057  1.00  0.00     0.061 C 
BRANCH  19  20
HETATM   20  C2  UNL     1       9.735  -2.126   0.166  1.00  0.00    -0.064 C 
HETATM   21  C1  UNL     1      10.798  -2.815   0.252  1.00  0.00     0.019 C 
HETATM   22  C3  UNL     1       9.775  -0.664   0.189  1.00  0.00     0.048 C 
ENDBRANCH  19  20
ENDBRANCH  18  19
ENDBRANCH  16  18
ENDBRANCH  14  15
ENDBRANCH  13  14
ENDBRANCH  12  13
ENDBRANCH   1  12
BRANCH   7  23
HETATM   23  O1  UNL     1      -0.168   1.167  -1.870  1.00  0.00    -0.381 OA
ATOM     24  H1  UNL     1      -0.957   1.047  -2.386  1.00  0.00     0.211 HD
ENDBRANCH   7  23
BRANCH   8  25
HETATM   25  O2  UNL     1      -2.540   1.036  -1.346  1.00  0.00    -0.381 OA
ATOM     26  H2  UNL     1      -3.356   1.391  -1.012  1.00  0.00     0.211 HD
ENDBRANCH   8  25
BRANCH   8  27
HETATM   27  C20 UNL     1      -2.523   0.149   0.763  1.00  0.00     0.222 C 
BRANCH  27  28
HETATM   28  O3  UNL     1      -2.857  -1.137   0.275  1.00  0.00    -0.318 OA
BRANCH  28  29
HETATM   29  C21 UNL     1      -3.597  -2.030   1.037  1.00  0.00     0.263 C 
HETATM   30  O4  UNL     1      -3.950  -1.605   2.157  1.00  0.00    -0.265 OA
BRANCH  29  31
HETATM   31  C22 UNL     1      -3.949  -3.383   0.604  1.00  0.00     0.085 C 
HETATM   32  C23 UNL     1      -4.343  -4.198   1.842  1.00  0.00     0.021 C 
BRANCH  31  33
HETATM   33  C24 UNL     1      -4.967  -3.529  -0.463  1.00  0.00    -0.010 C 
HETATM   34  C25 UNL     1      -6.293  -2.961  -0.091  1.00  0.00     0.010 C 
HETATM   35  C26 UNL     1      -4.450  -2.864  -1.725  1.00  0.00     0.010 C 
ENDBRANCH  31  33
ENDBRANCH  29  31
ENDBRANCH  28  29
ENDBRANCH  27  28
ENDBRANCH   8  27
BRANCH   9  36
HETATM   36  O5  UNL     1      -2.430   3.219  -0.327  1.00  0.00    -0.312 OA
BRANCH  36  37
HETATM   37  C28 UNL     1      -3.390   3.933   0.363  1.00  0.00     0.263 C 
HETATM   38  O6  UNL     1      -3.437   3.824   1.636  1.00  0.00    -0.265 OA
BRANCH  37  39
HETATM   39  C29 UNL     1      -4.347   4.805  -0.364  1.00  0.00     0.081 C 
HETATM   40  C30 UNL     1      -5.271   3.965  -1.241  1.00  0.00     0.020 C 
BRANCH  39  41
HETATM   41  C31 UNL     1      -5.102   5.716   0.525  1.00  0.00     0.010 C 
HETATM   42  C32 UNL     1      -4.280   6.709   1.300  1.00  0.00     0.006 C 
ENDBRANCH  39  41
ENDBRANCH  37  39
ENDBRANCH  36  37
ENDBRANCH   9  36
TORSDOF 18
