REMARK  9 active torsions:
REMARK  status: ('A' for Active; 'I' for Inactive)
REMARK    1  A    between atoms: C4_4  and  O1_5 
REMARK    2  A    between atoms: C9_12  and  O3_13 
REMARK    3  A    between atoms: C19_25  and  S1_26 
REMARK    4  A    between atoms: S1_26  and  C20_27 
REMARK    5  A    between atoms: C20_27  and  C21_28 
REMARK    6  A    between atoms: C21_28  and  C22_29 
REMARK    7  A    between atoms: C22_29  and  C23_30 
REMARK    8  A    between atoms: C23_30  and  C24_31 
REMARK    9  A    between atoms: C25_34  and  O5_35 
ROOT
HETATM    1  C1  UNL     1       0.429  -1.976   1.063  1.00  0.00     0.018 C 
HETATM    2  C2  UNL     1       0.141  -0.899   0.086  1.00  0.00    -0.011 C 
HETATM    3  C3  UNL     1      -1.283  -0.977  -0.392  1.00  0.00     0.050 C 
HETATM    4  C4  UNL     1      -2.207  -0.534   0.712  1.00  0.00     0.068 C 
HETATM    5  C5  UNL     1      -3.509  -1.330   0.545  1.00  0.00     0.071 C 
HETATM    6  C6  UNL     1      -4.052  -0.988  -0.817  1.00  0.00     0.132 C 
HETATM    7  O2  UNL     1      -5.002  -1.936  -1.142  1.00  0.00    -0.385 OA
HETATM    8  C7  UNL     1      -6.129  -1.800  -0.367  1.00  0.00     0.172 C 
HETATM    9  C8  UNL     1      -6.823  -0.553  -0.835  1.00  0.00     0.080 C 
HETATM   10  C9  UNL     1      -5.967   0.658  -0.902  1.00  0.00     0.154 C 
HETATM   11  C10 UNL     1      -6.346   1.380  -2.145  1.00  0.00     0.098 C 
HETATM   12  N1  UNL     1      -6.642   1.924  -3.122  1.00  0.00    -0.194 NA
HETATM   13  C11 UNL     1      -4.487   0.416  -0.822  1.00  0.00     0.065 C 
HETATM   14  C12 UNL     1      -3.963   1.182   0.352  1.00  0.00     0.023 C 
HETATM   15  C13 UNL     1      -2.512   0.929   0.696  1.00  0.00    -0.012 C 
HETATM   16  C14 UNL     1      -2.291   1.589   2.059  1.00  0.00     0.018 C 
HETATM   17  C15 UNL     1      -1.684   1.703  -0.292  1.00  0.00     0.012 C 
HETATM   18  C16 UNL     1      -0.240   1.548  -0.254  1.00  0.00     0.006 C 
HETATM   19  C17 UNL     1       0.380   0.498   0.584  1.00  0.00    -0.003 C 
HETATM   20  C18 UNL     1       1.901   0.658   0.440  1.00  0.00     0.023 C 
HETATM   21  C19 UNL     1       2.388  -0.491  -0.372  1.00  0.00     0.077 C 
HETATM   22  C25 UNL     1       1.143  -1.000  -1.044  1.00  0.00     0.140 C 
ENDROOT
BRANCH  10  23
HETATM   23  O3  UNL     1      -6.409   1.519   0.136  1.00  0.00    -0.375 OA
ATOM     24  H3  UNL     1      -5.861   2.294   0.093  1.00  0.00     0.211 HD
ENDBRANCH  10  23
BRANCH   4  25
HETATM   25  O1  UNL     1      -1.725  -0.913   1.971  1.00  0.00    -0.389 OA
ATOM     26  H1  UNL     1      -2.308  -0.634   2.667  1.00  0.00     0.210 HD
ENDBRANCH   4  25
BRANCH  22  27
HETATM   27  O5  UNL     1       1.257  -2.328  -1.451  1.00  0.00    -0.394 OA
ATOM     28  H5  UNL     1       1.886  -2.391  -2.160  1.00  0.00     0.210 HD
ENDBRANCH  22  27
BRANCH  21  29
HETATM   29  S1  UNL     1       3.705  -0.099  -1.524  1.00  0.00    -0.162 SA
BRANCH  29  30
HETATM   30  C20 UNL     1       5.187   0.351  -0.483  1.00  0.00     0.074 C 
BRANCH  30  31
HETATM   31  C21 UNL     1       5.640  -0.848   0.266  1.00  0.00     0.010 C 
BRANCH  31  32
HETATM   32  C22 UNL     1       6.767  -0.641   1.180  1.00  0.00     0.010 C 
BRANCH  32  33
HETATM   33  C23 UNL     1       8.056  -0.143   0.663  1.00  0.00     0.099 C 
BRANCH  33  34
HETATM   34  C24 UNL     1       8.139   1.213   0.155  1.00  0.00     0.231 C 
HETATM   35  N2  UNL     1       8.996   1.603  -0.902  1.00  0.00    -0.062 NA
HETATM   36  O4  UNL     1       7.433   2.159   0.648  1.00  0.00    -0.277 OA
ENDBRANCH  33  34
ENDBRANCH  32  33
ENDBRANCH  31  32
ENDBRANCH  30  31
ENDBRANCH  29  30
ENDBRANCH  21  29
TORSDOF 9
