REMARK  4 active torsions:
REMARK  status: ('A' for Active; 'I' for Inactive)
REMARK    1  A    between atoms: N1_1  and  C1_4 
REMARK    2  A    between atoms: C2_5  and  S1_6 
REMARK    3  A    between atoms: S1_6  and  N2_7 
REMARK    4  A    between atoms: N5_15  and  N6_16 
ROOT
HETATM    1  C1  UNL     1      -0.477  -0.312   0.348  1.00  0.00     0.178 A 
HETATM    2  C2  UNL     1       0.503   0.614   0.067  1.00  0.00     0.208 A 
HETATM    3  N3  UNL     1      -0.142   1.642  -0.514  1.00  0.00    -0.268 N 
ATOM      4  H3  UNL     1       0.309   2.495  -0.843  1.00  0.00     0.185 HD
HETATM    5  N4  UNL     1      -1.440   1.398  -0.601  1.00  0.00     0.003 NA
HETATM    6  N5  UNL     1      -1.656   0.184  -0.067  1.00  0.00    -0.167 N 
ENDROOT
BRANCH   2   7
HETATM    7  S1  UNL     1       2.199   0.408   0.426  1.00  0.00     0.277 S 
HETATM    8  O1  UNL     1       2.784   1.795   0.619  1.00  0.00    -0.199 OA
HETATM    9  O2  UNL     1       2.434  -0.338   1.694  1.00  0.00    -0.199 OA
BRANCH   7  10
HETATM   10  N2  UNL     1       3.054  -0.335  -0.862  1.00  0.00    -0.323 N 
ATOM     11  H22 UNL     1       2.607  -0.619  -1.734  1.00  0.00     0.169 HD
ATOM     12  H21 UNL     1       4.045  -0.455  -0.652  1.00  0.00     0.169 HD
ENDBRANCH   7  10
ENDBRANCH   2   7
BRANCH   1  13
HETATM   13  N1  UNL     1      -0.299  -1.459   0.913  1.00  0.00    -0.381 N 
ATOM     14  H12 UNL     1       0.595  -1.835   1.228  1.00  0.00     0.157 HD
ATOM     15  H11 UNL     1      -1.025  -2.145   1.121  1.00  0.00     0.157 HD
ENDBRANCH   1  13
BRANCH   6  16
HETATM   16  N6  UNL     1      -2.875  -0.483   0.057  1.00  0.00    -0.324 N 
ATOM     17  H62 UNL     1      -3.039  -1.405   0.462  1.00  0.00     0.178 HD
ATOM     18  H61 UNL     1      -3.769  -0.107  -0.258  1.00  0.00     0.178 HD
ENDBRANCH   6  16
TORSDOF 4
