REMARK  14 active torsions:
REMARK  status: ('A' for Active; 'I' for Inactive)
REMARK    1  A    between atoms: C2_2  and  C3_3 
REMARK    2  A    between atoms: C3_3  and  N1_4 
REMARK    3  A    between atoms: C7_11  and  C8_12 
REMARK    4  A    between atoms: C8_12  and  C9_13 
REMARK    5  A    between atoms: C13_20  and  C14_21 
REMARK    6  A    between atoms: C17_24  and  C18_25 
REMARK    7  A    between atoms: C18_25  and  N4_26 
REMARK    8  A    between atoms: C19_32  and  O3_33 
REMARK    9  A    between atoms: C20_35  and  C21_36 
REMARK   10  A    between atoms: C21_36  and  C22_37 
REMARK   11  A    between atoms: C25_42  and  O4_43 
REMARK   12  A    between atoms: C26_47  and  C27_48 
REMARK   13  A    between atoms: C27_48  and  C28_49 
REMARK   14  A    between atoms: C31_52  and  O5_53 
ROOT
HETATM    1  N1  UNL     1       2.090  -1.235  -1.871  1.00  0.00    -0.355 N 
HETATM    2  C4  UNL     1       1.163  -0.149  -2.186  1.00  0.00     0.160 C 
HETATM    3  C5  UNL     1      -0.072  -0.106  -1.398  1.00  0.00     0.197 C 
HETATM    4  C6  UNL     1      -1.141  -0.931  -2.098  1.00  0.00     0.243 C 
HETATM    5  O1  UNL     1      -1.248  -0.929  -3.373  1.00  0.00    -0.271 OA
HETATM    6  N2  UNL     1      -2.062  -1.734  -1.397  1.00  0.00    -0.346 N 
ATOM      7  H2  UNL     1      -2.526  -2.522  -1.849  1.00  0.00     0.163 HD
HETATM    8  C7  UNL     1      -2.327  -1.403  -0.015  1.00  0.00     0.177 C 
HETATM    9  C12 UNL     1      -3.541  -0.528  -0.070  1.00  0.00     0.240 C 
HETATM   10  O2  UNL     1      -4.612  -1.239  -0.153  1.00  0.00    -0.271 OA
HETATM   11  N3  UNL     1      -3.631   0.847  -0.042  1.00  0.00    -0.352 N 
ATOM     12  H3  UNL     1      -4.280   1.177   0.673  1.00  0.00     0.163 HD
HETATM   13  C13 UNL     1      -3.042   1.911  -0.764  1.00  0.00     0.112 C 
HETATM   14  C17 UNL     1      -1.873   1.613  -1.618  1.00  0.00     0.129 C 
HETATM   15  N6  UNL     1      -0.672   1.119  -0.914  1.00  0.00    -0.337 N 
HETATM   16  C19 UNL     1      -0.297   1.890   0.211  1.00  0.00     0.162 C 
HETATM   17  C20 UNL     1       0.917   2.623   0.626  1.00  0.00     0.064 C 
HETATM   18  N7  UNL     1       2.030   2.575  -0.224  1.00  0.00    -0.322 N 
ATOM     19  H7  UNL     1       1.905   3.087  -1.097  1.00  0.00     0.169 HD
HETATM   20  C25 UNL     1       3.299   1.950  -0.102  1.00  0.00     0.221 C 
HETATM   21  N8  UNL     1       3.718   0.769   0.432  1.00  0.00    -0.322 N 
ATOM     22  H8  UNL     1       4.264   0.950   1.274  1.00  0.00     0.169 HD
HETATM   23  C26 UNL     1       3.646  -0.639   0.203  1.00  0.00     0.063 C 
HETATM   24  C31 UNL     1       3.204  -1.241  -1.004  1.00  0.00     0.161 C 
ENDROOT
BRANCH  14  25
HETATM   25  C18 UNL     1      -1.534   2.814  -2.450  1.00  0.00     0.166 C 
BRANCH  25  26
HETATM   26  N4  UNL     1      -0.424   2.653  -3.339  1.00  0.00    -0.341 N 
HETATM   27  N5  UNL     1      -0.594   2.325  -4.549  1.00  0.00    -0.349 N 
ATOM     28  H52 UNL     1      -1.547   2.176  -4.881  1.00  0.00     0.176 HD
ATOM     29  H51 UNL     1       0.197   2.210  -5.183  1.00  0.00     0.176 HD
ATOM     30  H4  UNL     1       0.522   2.806  -2.990  1.00  0.00     0.179 HD
ENDBRANCH  25  26
ENDBRANCH  14  25
BRANCH  13  31
HETATM   31  C14 UNL     1      -4.189   2.376  -1.698  1.00  0.00     0.002 C 
HETATM   32  C15 UNL     1      -4.655   1.343  -2.638  1.00  0.00     0.011 C 
HETATM   33  C16 UNL     1      -5.386   2.760  -0.781  1.00  0.00     0.011 C 
ENDBRANCH  13  31
BRANCH  16  34
HETATM   34  O3  UNL     1      -1.199   2.042   1.170  1.00  0.00    -0.345 OA
ATOM     35  H3  UNL     1      -0.947   2.560   1.926  1.00  0.00     0.219 HD
ENDBRANCH  16  34
BRANCH  17  36
HETATM   36  C21 UNL     1       1.131   2.418   2.095  1.00  0.00     0.065 C 
BRANCH  36  37
HETATM   37  C22 UNL     1       2.271   3.118   2.722  1.00  0.00    -0.017 C 
HETATM   38  C23 UNL     1       2.329   2.782   4.227  1.00  0.00     0.010 C 
HETATM   39  C24 UNL     1       2.124   4.635   2.699  1.00  0.00     0.010 C 
ENDBRANCH  36  37
ENDBRANCH  17  36
BRANCH   8  40
HETATM   40  C8  UNL     1      -2.626  -2.713   0.696  1.00  0.00     0.038 C 
BRANCH  40  41
HETATM   41  C9  UNL     1      -2.919  -2.540   2.143  1.00  0.00    -0.020 C 
HETATM   42  C10 UNL     1      -1.794  -1.920   2.931  1.00  0.00     0.009 C 
HETATM   43  C11 UNL     1      -3.197  -3.900   2.748  1.00  0.00     0.009 C 
ENDBRANCH  40  41
ENDBRANCH   8  40
BRANCH   1  44
HETATM   44  C3  UNL     1       1.799  -2.493  -2.627  1.00  0.00     0.151 C 
BRANCH  44  45
HETATM   45  C2  UNL     1       2.501  -2.428  -3.933  1.00  0.00    -0.017 C 
HETATM   46  C1  UNL     1       3.400  -3.329  -4.261  1.00  0.00     0.008 C 
ENDBRANCH  44  45
ENDBRANCH   1  44
BRANCH  24  47
HETATM   47  O5  UNL     1       4.097  -2.088  -1.513  1.00  0.00    -0.345 OA
ATOM     48  H5  UNL     1       4.847  -2.092  -0.930  1.00  0.00     0.219 HD
ENDBRANCH  24  47
BRANCH  20  49
HETATM   49  O4  UNL     1       4.240   2.695  -0.623  1.00  0.00    -0.332 OA
ATOM     50  H4  UNL     1       5.089   2.277  -0.541  1.00  0.00     0.220 HD
ENDBRANCH  20  49
BRANCH  23  51
HETATM   51  C27 UNL     1       3.226  -1.230   1.532  1.00  0.00     0.065 C 
BRANCH  51  52
HETATM   52  C28 UNL     1       3.081  -2.684   1.655  1.00  0.00    -0.017 C 
HETATM   53  C29 UNL     1       4.321  -3.477   1.341  1.00  0.00     0.010 C 
HETATM   54  C30 UNL     1       1.846  -3.318   1.094  1.00  0.00     0.010 C 
ENDBRANCH  51  52
ENDBRANCH  23  51
TORSDOF 14
