REMARK  11 active torsions:
REMARK  status: ('A' for Active; 'I' for Inactive)
REMARK    1  A    between atoms: C2_2  and  C4_4 
REMARK    2  A    between atoms: C4_4  and  C5_5 
REMARK    3  A    between atoms: C7_10  and  C8_11 
REMARK    4  A    between atoms: C8_11  and  C9_12 
REMARK    5  A    between atoms: C9_12  and  C10_13 
REMARK    6  A    between atoms: C10_13  and  N2_14 
REMARK    7  A    between atoms: C13_23  and  C14_24 
REMARK    8  A    between atoms: C14_24  and  C15_25 
REMARK    9  A    between atoms: C20_32  and  C21_33 
REMARK   10  A    between atoms: C25_40  and  C26_41 
REMARK   11  A    between atoms: C26_41  and  C27_42 
ROOT
HETATM    1  C5  UNL     1      -0.118  -2.875   0.766  1.00  0.00     0.177 C 
HETATM    2  N1  UNL     1       1.192  -2.780   0.171  1.00  0.00    -0.346 N 
ATOM      3  H1  UNL     1       1.729  -3.647   0.203  1.00  0.00     0.163 HD
HETATM    4  C6  UNL     1       1.851  -1.729  -0.434  1.00  0.00     0.241 C 
HETATM    5  O1  UNL     1       2.130  -1.847  -1.690  1.00  0.00    -0.271 OA
HETATM    6  C7  UNL     1       2.317  -0.431   0.118  1.00  0.00     0.177 C 
HETATM    7  N5  UNL     1       1.931   0.624  -0.788  1.00  0.00    -0.343 N 
ATOM      8  H5  UNL     1       1.582   0.292  -1.687  1.00  0.00     0.163 HD
HETATM    9  C12 UNL     1       1.946   1.994  -0.666  1.00  0.00     0.265 C 
HETATM   10  O2  UNL     1       2.615   2.637  -1.571  1.00  0.00    -0.266 OA
HETATM   11  C13 UNL     1       1.313   2.905   0.348  1.00  0.00     0.082 C 
HETATM   12  N6  UNL     1       0.326   3.738  -0.272  1.00  0.00    -0.319 N 
HETATM   13  C18 UNL     1       0.464   5.204  -0.081  1.00  0.00     0.159 C 
HETATM   14  C19 UNL     1      -0.756   3.387  -1.100  1.00  0.00     0.247 C 
HETATM   15  O3  UNL     1      -0.888   4.031  -2.219  1.00  0.00    -0.271 OA
HETATM   16  C20 UNL     1      -1.826   2.377  -0.937  1.00  0.00     0.180 C 
HETATM   17  N7  UNL     1      -1.512   1.150  -1.650  1.00  0.00    -0.346 N 
ATOM     18  H7  UNL     1      -0.770   1.237  -2.345  1.00  0.00     0.163 HD
HETATM   19  C24 UNL     1      -2.054  -0.113  -1.540  1.00  0.00     0.241 C 
HETATM   20  O4  UNL     1      -2.351  -0.686  -2.666  1.00  0.00    -0.271 OA
HETATM   21  C25 UNL     1      -2.367  -0.955  -0.379  1.00  0.00     0.182 C 
HETATM   22  N9  UNL     1      -1.591  -0.751   0.799  1.00  0.00    -0.346 N 
ATOM     23  H9  UNL     1      -1.708   0.141   1.279  1.00  0.00     0.163 HD
HETATM   24  C31 UNL     1      -0.661  -1.679   1.375  1.00  0.00     0.241 C 
HETATM   25  O5  UNL     1      -0.292  -1.396   2.551  1.00  0.00    -0.271 OA
ENDROOT
BRANCH   6  26
HETATM   26  C8  UNL     1       3.834  -0.434   0.333  1.00  0.00     0.036 C 
BRANCH  26  27
HETATM   27  C9  UNL     1       4.630  -0.661  -0.901  1.00  0.00     0.022 C 
BRANCH  27  28
HETATM   28  C10 UNL     1       6.113  -0.602  -0.473  1.00  0.00     0.122 C 
BRANCH  28  29
HETATM   29  N2  UNL     1       6.965  -0.814  -1.624  1.00  0.00    -0.367 N 
HETATM   30  C11 UNL     1       7.426  -1.968  -1.968  1.00  0.00     0.196 C 
HETATM   31  N3  UNL     1       8.248  -2.049  -3.113  1.00  0.00    -0.067 NA
HETATM   32  N4  UNL     1       7.108  -3.119  -1.206  1.00  0.00    -0.067 NA
ATOM     33  H2  UNL     1       7.214  -0.006  -2.194  1.00  0.00     0.161 HD
ENDBRANCH  28  29
ENDBRANCH  27  28
ENDBRANCH  26  27
ENDBRANCH   6  26
BRANCH   1  34
HETATM   34  C4  UNL     1      -0.028  -3.994   1.823  1.00  0.00     0.038 C 
BRANCH  34  35
HETATM   35  C2  UNL     1      -1.361  -4.183   2.499  1.00  0.00    -0.020 C 
HETATM   36  C1  UNL     1      -1.162  -5.305   3.517  1.00  0.00     0.009 C 
HETATM   37  C3  UNL     1      -2.335  -4.668   1.446  1.00  0.00     0.009 C 
ENDBRANCH  34  35
ENDBRANCH   1  34
BRANCH  11  38
HETATM   38  C14 UNL     1       1.049   2.266   1.638  1.00  0.00     0.067 C 
BRANCH  38  39
HETATM   39  C15 UNL     1       0.464   3.086   2.752  1.00  0.00    -0.017 C 
HETATM   40  C16 UNL     1       1.277   4.285   3.145  1.00  0.00     0.010 C 
HETATM   41  C17 UNL     1      -1.004   3.296   2.752  1.00  0.00     0.010 C 
ENDBRANCH  38  39
ENDBRANCH  11  38
BRANCH  21  42
HETATM   42  C26 UNL     1      -3.864  -0.909  -0.032  1.00  0.00     0.091 C 
BRANCH  42  43
HETATM   43  C27 UNL     1      -4.721  -1.393  -1.128  1.00  0.00     0.011 A 
HETATM   44  C28 UNL     1      -5.076  -2.733  -1.269  1.00  0.00     0.026 A 
HETATM   45  C29 UNL     1      -5.885  -2.825  -2.384  1.00  0.00     0.019 A 
HETATM   46  C30 UNL     1      -5.988  -1.547  -2.870  1.00  0.00     0.088 A 
HETATM   47  N8  UNL     1      -5.282  -0.680  -2.108  1.00  0.00    -0.369 N 
ATOM     48  H8  UNL     1      -5.195   0.326  -2.254  1.00  0.00     0.165 HD
ENDBRANCH  42  43
ENDBRANCH  21  42
BRANCH  16  49
HETATM   49  C21 UNL     1      -3.170   2.862  -1.499  1.00  0.00     0.009 C 
HETATM   50  C22 UNL     1      -3.160   3.162  -2.949  1.00  0.00     0.012 C 
HETATM   51  C23 UNL     1      -3.664   4.073  -0.745  1.00  0.00     0.012 C 
ENDBRANCH  16  49
TORSDOF 11
