REMARK  11 active torsions:
REMARK  status: ('A' for Active; 'I' for Inactive)
REMARK    1  A    between atoms: S1_2  and  C2_5 
REMARK    2  A    between atoms: N2_9  and  C4_11 
REMARK    3  A    between atoms: C4_11  and  C5_12 
REMARK    4  A    between atoms: C4_11  and  C6_14 
REMARK    5  A    between atoms: C6_14  and  C7_15 
REMARK    6  A    between atoms: C7_15  and  C8_16 
REMARK    7  A    between atoms: C8_16  and  O3_17 
REMARK    8  A    between atoms: C8_16  and  C9_19 
REMARK    9  A    between atoms: C8_16  and  C16_34 
REMARK   10  A    between atoms: C10_24  and  C11_25 
REMARK   11  A    between atoms: C19_39  and  C20_40 
ROOT
HETATM    1  C6  UNL     1       1.143  -0.352   0.205  1.00  0.00     0.031 C 
ENDROOT
BRANCH   1   2
HETATM    2  C4  UNL     1       2.322  -0.386   1.178  1.00  0.00     0.128 C 
BRANCH   2   3
HETATM    3  N2  UNL     1       3.194   0.656   0.709  1.00  0.00    -0.219 N 
HETATM    4  C3  UNL     1       4.392   0.516   0.285  1.00  0.00     0.682 A 
HETATM    5  N1  UNL     1       5.127   1.569  -0.136  1.00  0.00    -0.166 N 
HETATM    6  N5  UNL     1       4.999  -0.672   0.217  1.00  0.00    -0.175 N 
HETATM    7  C2  UNL     1       6.387   1.435  -0.593  1.00  0.00     0.218 A 
ATOM      8  H1  UNL     1       4.712   2.500  -0.107  1.00  0.00     0.186 HD
HETATM    9  N6  UNL     1       6.940   0.192  -0.631  1.00  0.00    -0.317 N 
HETATM   10  C19 UNL     1       6.235  -0.868  -0.222  1.00  0.00     0.164 A 
ATOM     11  H6  UNL     1       7.893   0.069  -0.972  1.00  0.00     0.169 HD
ATOM     12  H5  UNL     1       4.473  -1.489   0.526  1.00  0.00     0.185 HD
ATOM     13  H2  UNL     1       2.819   1.604   0.715  1.00  0.00     0.178 HD
BRANCH   7  14
HETATM   14  S1  UNL     1       7.353   2.745  -1.171  1.00  0.00     0.204 S 
HETATM   15  C1  UNL     1       7.563   3.965   0.073  1.00  0.00     0.170 C 
HETATM   16  O1  UNL     1       6.786   3.376  -2.401  1.00  0.00    -0.220 OA
HETATM   17  O2  UNL     1       8.734   2.257  -1.548  1.00  0.00    -0.220 OA
ENDBRANCH   7  14
BRANCH  10  18
HETATM   18  C20 UNL     1       6.812  -2.259  -0.268  1.00  0.00     0.420 C 
HETATM   19  F3  UNL     1       7.056  -2.652  -1.583  1.00  0.00    -0.206 F 
HETATM   20  F4  UNL     1       7.985  -2.280   0.406  1.00  0.00    -0.206 F 
ENDBRANCH  10  18
ENDBRANCH   2   3
BRANCH   2  21
HETATM   21  C5  UNL     1       2.887  -1.721   1.426  1.00  0.00     0.247 C 
HETATM   22  F1  UNL     1       1.895  -2.553   1.970  1.00  0.00    -0.253 F 
ENDBRANCH   2  21
ENDBRANCH   1   2
BRANCH   1  23
HETATM   23  C7  UNL     1       0.137  -1.423   0.400  1.00  0.00     0.049 C 
BRANCH  23  24
HETATM   24  C8  UNL     1      -1.006  -1.261  -0.571  1.00  0.00     0.128 C 
BRANCH  24  25
HETATM   25  O3  UNL     1      -0.514  -1.247  -1.856  1.00  0.00    -0.381 OA
ATOM     26  H3  UNL     1      -1.234  -1.145  -2.468  1.00  0.00     0.211 HD
ENDBRANCH  24  25
BRANCH  24  27
HETATM   27  C9  UNL     1      -1.979  -0.186  -0.230  1.00  0.00     0.175 A 
HETATM   28  N3  UNL     1      -1.793   1.121  -0.101  1.00  0.00    -0.279 N 
HETATM   29  N4  UNL     1      -2.983   1.664   0.219  1.00  0.00    -0.277 N 
ATOM     30  H3  UNL     1      -0.913   1.622  -0.222  1.00  0.00     0.189 HD
HETATM   31  C10 UNL     1      -3.911   0.711   0.292  1.00  0.00     0.211 A 
ATOM     32  H4  UNL     1      -3.149   2.657   0.381  1.00  0.00     0.189 HD
HETATM   33  O6  UNL     1      -3.268  -0.399   0.014  1.00  0.00    -0.273 OA
BRANCH  31  34
HETATM   34  C11 UNL     1      -5.371   0.773   0.606  1.00  0.00     0.293 C 
HETATM   35  F2  UNL     1      -5.685  -0.376   1.371  1.00  0.00    -0.200 F 
HETATM   36  C12 UNL     1      -6.109   0.578  -0.704  1.00  0.00     0.250 C 
HETATM   37  O4  UNL     1      -7.467   0.368  -0.506  1.00  0.00    -0.385 OA
HETATM   38  C13 UNL     1      -8.100   1.604  -0.598  1.00  0.00     0.170 C 
HETATM   39  C14 UNL     1      -7.914   2.431   0.638  1.00  0.00     0.052 C 
HETATM   40  C15 UNL     1      -7.079   1.718   1.669  1.00  0.00     0.174 C 
HETATM   41  O5  UNL     1      -5.731   1.868   1.313  1.00  0.00    -0.343 OA
ENDBRANCH  31  34
ENDBRANCH  24  27
BRANCH  24  42
HETATM   42  C16 UNL     1      -1.869  -2.562  -0.525  1.00  0.00     0.028 A 
HETATM   43  C17 UNL     1      -2.475  -2.851   0.824  1.00  0.00     0.008 A 
HETATM   44  C18 UNL     1      -1.486  -3.743   0.214  1.00  0.00     0.008 A 
ENDBRANCH  24  42
ENDBRANCH  23  24
ENDBRANCH   1  23
TORSDOF 11
