REMARK  6 active torsions:
REMARK  status: ('A' for Active; 'I' for Inactive)
REMARK    1  A    between atoms: C2_2  and  N1_3 
REMARK    2  A    between atoms: C5_6  and  C6_7 
REMARK    3  A    between atoms: C14_15  and  C15_16 
REMARK       I    between atoms: C15_16  and  N2_18 
REMARK    4  A    between atoms: N2_18  and  C16_20 
REMARK    5  A    between atoms: C25_32  and  C26_33 
REMARK    6  A    between atoms: C26_33  and  O2_34 
ROOT
HETATM    1  C6  UNL     1      -2.037   0.144  -0.367  1.00  0.00     0.013 C 
HETATM    2  C7  UNL     1      -1.783   1.487   0.186  1.00  0.00     0.009 C 
HETATM    3  C8  UNL     1      -0.837   1.519   1.341  1.00  0.00     0.007 C 
HETATM    4  C9  UNL     1      -0.020   0.246   1.583  1.00  0.00     0.007 C 
HETATM    5  C10 UNL     1       1.317   0.577   1.034  1.00  0.00    -0.035 C 
HETATM    6  C11 UNL     1       2.020   1.381   2.181  1.00  0.00     0.016 C 
HETATM    7  C12 UNL     1       1.480   1.482  -0.115  1.00  0.00     0.011 C 
HETATM    8  C13 UNL     1       1.982   0.643  -1.315  1.00  0.00     0.015 C 
HETATM    9  C14 UNL     1       2.666  -0.514  -0.697  1.00  0.00     0.083 C 
HETATM   10  C21 UNL     1       2.275  -0.525   0.729  1.00  0.00     0.007 C 
HETATM   11  C22 UNL     1       1.564  -1.836   1.041  1.00  0.00     0.007 C 
HETATM   12  C23 UNL     1       0.195  -1.799   0.357  1.00  0.00     0.015 C 
HETATM   13  C24 UNL     1      -0.690  -1.038   1.326  1.00  0.00    -0.006 C 
HETATM   14  C25 UNL     1      -0.947  -2.046   2.379  1.00  0.00    -0.051 C 
HETATM   15  C27 UNL     1      -1.934  -1.807   3.268  1.00  0.00    -0.021 C 
HETATM   16  C28 UNL     1      -2.785  -0.568   3.225  1.00  0.00     0.028 C 
HETATM   17  C29 UNL     1      -3.102  -0.343   1.756  1.00  0.00     0.010 C 
HETATM   18  C30 UNL     1      -2.100  -0.816   0.801  1.00  0.00     0.007 C 
ENDROOT
BRANCH   9  19
HETATM   19  C15 UNL     1       4.153  -0.310  -0.858  1.00  0.00     0.227 C 
HETATM   20  O1  UNL     1       4.575   0.677  -1.459  1.00  0.00    -0.273 OA
HETATM   21  N2  UNL     1       5.062  -1.281  -0.299  1.00  0.00    -0.310 N 
ATOM     22  H2  UNL     1       4.699  -2.099   0.190  1.00  0.00     0.170 HD
BRANCH  21  23
HETATM   23  C16 UNL     1       6.459  -1.094  -0.432  1.00  0.00     0.147 A 
HETATM   24  N3  UNL     1       6.931  -0.004  -1.082  1.00  0.00    -0.350 N 
HETATM   25  C17 UNL     1       8.238   0.233  -1.241  1.00  0.00     0.090 A 
ATOM     26  H3  UNL     1       6.263   0.664  -1.466  1.00  0.00     0.166 HD
HETATM   27  C18 UNL     1       9.196  -0.636  -0.742  1.00  0.00     0.020 A 
HETATM   28  C19 UNL     1       8.718  -1.765  -0.067  1.00  0.00     0.047 A 
HETATM   29  C20 UNL     1       7.367  -1.989   0.084  1.00  0.00     0.160 A 
HETATM   30  F1  UNL     1       6.925  -3.078   0.732  1.00  0.00    -0.202 F 
ENDBRANCH  21  23
ENDBRANCH   9  19
BRANCH  14  31
HETATM   31  C26 UNL     1      -0.337  -3.389   2.504  1.00  0.00     0.199 C 
BRANCH  31  32
HETATM   32  O2  UNL     1      -0.973  -4.136   3.570  1.00  0.00    -0.397 OA
ATOM     33  H2  UNL     1      -0.582  -4.998   3.650  1.00  0.00     0.209 HD
ENDBRANCH  31  32
ENDBRANCH  14  31
BRANCH   1  34
HETATM   34  C5  UNL     1      -3.269   0.030  -1.194  1.00  0.00    -0.015 C 
HETATM   35  C4  UNL     1      -4.143   0.941  -1.494  1.00  0.00    -0.027 C 
HETATM   36  C3  UNL     1      -4.508   2.366  -1.323  1.00  0.00     0.308 C 
HETATM   37  C31 UNL     1      -5.392   0.874  -2.352  1.00  0.00     0.308 C 
HETATM   38  N1  UNL     1      -5.762   2.213  -2.043  1.00  0.00     0.095 N 
BRANCH  38  39
HETATM   39  C2  UNL     1      -5.906   3.103  -3.172  1.00  0.00     0.268 C 
HETATM   40  C1  UNL     1      -7.266   2.814  -3.799  1.00  0.00     0.037 C 
ENDBRANCH  38  39
ENDBRANCH   1  34
TORSDOF 6
