REMARK  3 active torsions:
REMARK  status: ('A' for Active; 'I' for Inactive)
REMARK    1  A    between atoms: C3_4  and  C4_5 
REMARK    2  A    between atoms: C5_8  and  N2_9 
REMARK    3  A    between atoms: N2_9  and  C6_11 
ROOT
HETATM    1  C4  UNL     1       2.747   0.382   0.354  1.00  0.00     0.153 A 
HETATM    2  N1  UNL     1       1.904  -0.379  -0.362  1.00  0.00    -0.173 N 
ATOM      3  H1  UNL     1       2.175  -0.951  -1.162  1.00  0.00     0.186 HD
HETATM    4  C5  UNL     1       0.653  -0.283   0.121  1.00  0.00     0.694 A 
HETATM    5  N3  UNL     1       0.725   0.561   1.165  1.00  0.00    -0.131 N 
ATOM      6  H3  UNL     1      -0.057   0.848   1.754  1.00  0.00     0.205 HD
HETATM    7  N4  UNL     1       2.000   0.963   1.303  1.00  0.00    -0.270 N 
ATOM      8  H4  UNL     1       2.344   1.607   2.015  1.00  0.00     0.189 HD
ENDROOT
BRANCH   4   9
HETATM    9  N2  UNL     1      -0.525  -0.952  -0.383  1.00  0.00    -0.220 N 
ATOM     10  H2  UNL     1      -0.453  -1.574  -1.188  1.00  0.00     0.178 HD
BRANCH   9  11
HETATM   11  C6  UNL     1      -1.806  -0.740   0.254  1.00  0.00     0.099 C 
HETATM   12  C7  UNL     1      -2.172   0.727   0.191  1.00  0.00     0.026 C 
HETATM   13  C8  UNL     1      -3.321   0.890  -0.786  1.00  0.00     0.002 C 
HETATM   14  C9  UNL     1      -4.530   0.207  -0.211  1.00  0.00     0.000 C 
HETATM   15  C10 UNL     1      -4.243  -1.261   0.017  1.00  0.00     0.002 C 
HETATM   16  C11 UNL     1      -2.833  -1.618  -0.394  1.00  0.00     0.026 C 
ENDBRANCH   9  11
ENDBRANCH   4   9
BRANCH   1  17
HETATM   17  C3  UNL     1       4.181   0.544   0.145  1.00  0.00     0.050 A 
HETATM   18  S1  UNL     1       5.286   1.493   1.023  1.00  0.00    -0.098 SA
HETATM   19  C2  UNL     1       6.713   1.133   0.156  1.00  0.00     0.050 A 
HETATM   20  C1  UNL     1       6.270   0.266  -0.810  1.00  0.00     0.009 A 
HETATM   21  C12 UNL     1       4.964  -0.033  -0.811  1.00  0.00     0.023 A 
ENDBRANCH   1  17
TORSDOF 3
