REMARK  5 active torsions:
REMARK  status: ('A' for Active; 'I' for Inactive)
REMARK    1  A    between atoms: N3_4  and  N4_6 
REMARK    2  A    between atoms: C2_8  and  C3_9 
REMARK    3  A    between atoms: C6_12  and  O1_13 
REMARK    4  A    between atoms: O1_13  and  C7_14 
REMARK    5  A    between atoms: C7_14  and  C8_15 
ROOT
HETATM    1  C3  UNL     1       1.296   0.766   0.211  1.00  0.00    -0.019 A 
HETATM    2  C4  UNL     1       0.375  -0.235  -0.013  1.00  0.00     0.015 A 
HETATM    3  C5  UNL     1      -0.893  -0.185   0.538  1.00  0.00     0.037 A 
HETATM    4  C6  UNL     1      -1.313   0.853   1.335  1.00  0.00     0.069 A 
HETATM    5  C12 UNL     1      -0.380   1.877   1.568  1.00  0.00     0.037 A 
HETATM    6  C13 UNL     1       0.869   1.808   1.014  1.00  0.00     0.015 A 
ENDROOT
BRANCH   1   7
HETATM    7  C2  UNL     1       2.630   0.734  -0.357  1.00  0.00     0.118 C 
HETATM    8  N4  UNL     1       2.988  -0.249  -1.096  1.00  0.00    -0.309 N 
ATOM      9  H4  UNL     1       2.310  -0.992  -1.265  1.00  0.00     0.186 HD
BRANCH   8  10
HETATM   10  N3  UNL     1       4.230  -0.364  -1.676  1.00  0.00    -0.276 N 
HETATM   11  C1  UNL     1       5.248  -0.717  -0.990  1.00  0.00     0.215 C 
HETATM   12  N1  UNL     1       5.111  -0.996   0.390  1.00  0.00    -0.065 NA
HETATM   13  N2  UNL     1       6.499  -0.815  -1.658  1.00  0.00    -0.065 NA
ATOM     14  H3  UNL     1       4.340  -0.164  -2.670  1.00  0.00     0.189 HD
ENDBRANCH   8  10
ENDBRANCH   1   7
BRANCH   4  15
HETATM   15  O1  UNL     1      -2.566   0.921   1.889  1.00  0.00    -0.345 OA
BRANCH  15  16
HETATM   16  C7  UNL     1      -3.555  -0.023   1.699  1.00  0.00     0.232 C 
BRANCH  16  17
HETATM   17  C8  UNL     1      -4.019  -0.189   0.300  1.00  0.00     0.033 A 
HETATM   18  C9  UNL     1      -3.893   0.686  -0.775  1.00  0.00     0.028 A 
HETATM   19  C10 UNL     1      -4.468   0.114  -1.868  1.00  0.00     0.019 A 
HETATM   20  C11 UNL     1      -4.949  -1.108  -1.479  1.00  0.00     0.088 A 
HETATM   21  N5  UNL     1      -4.666  -1.260  -0.182  1.00  0.00    -0.367 N 
ATOM     22  H5  UNL     1      -4.910  -2.083   0.369  1.00  0.00     0.165 HD
ENDBRANCH  16  17
ENDBRANCH  15  16
ENDBRANCH   4  15
TORSDOF 5
