REMARK  6 active torsions:
REMARK  status: ('A' for Active; 'I' for Inactive)
REMARK    1  A    between atoms: N1_1  and  C1_5 
REMARK    2  A    between atoms: C1_5  and  C2_6 
REMARK    3  A    between atoms: C2_6  and  N2_7 
REMARK    4  A    between atoms: N2_7  and  S1_9 
REMARK    5  A    between atoms: C9_18  and  O2_19 
REMARK    6  A    between atoms: C10_21  and  O3_22 
ROOT
HETATM    1  S1  UNL     1       0.537  -0.191   0.162  1.00  0.00     0.101 S 
HETATM    2  O1  UNL     1       1.278   0.157   1.405  1.00  0.00    -0.240 OA
HETATM    3  C3  UNL     1      -0.887   0.794  -0.073  1.00  0.00     0.112 A 
HETATM    4  C4  UNL     1      -0.863   1.964  -0.814  1.00  0.00     0.040 A 
HETATM    5  C5  UNL     1      -2.023   2.700  -0.966  1.00  0.00     0.004 A 
HETATM    6  C6  UNL     1      -3.185   2.245  -0.373  1.00  0.00     0.017 A 
HETATM    7  C7  UNL     1      -3.182   1.082   0.356  1.00  0.00     0.092 A 
HETATM    8  N3  UNL     1      -2.026   0.366   0.498  1.00  0.00    -0.346 N 
HETATM    9  C8  UNL     1      -2.000  -0.844   1.253  1.00  0.00     0.164 C 
HETATM   10  C9  UNL     1      -1.441  -2.040   0.519  1.00  0.00     0.178 C 
HETATM   11  C10 UNL     1       0.014  -1.884   0.169  1.00  0.00     0.255 C 
ENDROOT
BRANCH   1  12
HETATM   12  N2  UNL     1       1.583   0.058  -0.945  1.00  0.00    -0.322 N 
ATOM     13  H2  UNL     1       1.236   0.479  -1.807  1.00  0.00     0.174 HD
BRANCH  12  14
HETATM   14  C2  UNL     1       2.928  -0.222  -0.903  1.00  0.00     0.097 C 
BRANCH  14  15
HETATM   15  C1  UNL     1       3.759   0.153   0.252  1.00  0.00     0.274 C 
BRANCH  15  16
HETATM   16  N1  UNL     1       3.775   1.592   0.510  1.00  0.00    -0.075 N 
ATOM     17  H13 UNL     1       4.060   2.106  -0.323  1.00  0.00     0.274 HD
ATOM     18  H12 UNL     1       2.826   1.952   0.614  1.00  0.00     0.274 HD
ATOM     19  H11 UNL     1       4.351   1.852   1.311  1.00  0.00     0.274 HD
ENDBRANCH  15  16
ENDBRANCH  14  15
ENDBRANCH  12  14
ENDBRANCH   1  12
BRANCH  11  20
HETATM   20  O3  UNL     1       0.344  -2.445  -1.061  1.00  0.00    -0.379 OA
ATOM     21  H3  UNL     1       0.064  -3.353  -1.057  1.00  0.00     0.211 HD
ENDBRANCH  11  20
BRANCH  10  22
HETATM   22  O2  UNL     1      -2.239  -2.229  -0.612  1.00  0.00    -0.390 OA
ATOM     23  H2  UNL     1      -1.887  -2.981  -1.074  1.00  0.00     0.210 HD
ENDBRANCH  10  22
TORSDOF 6
