REMARK  10 active torsions:
REMARK  status: ('A' for Active; 'I' for Inactive)
REMARK    1  A    between atoms: C1_2  and  C2_3 
REMARK       I    between atoms: C1_2  and  N4_27 
REMARK    2  A    between atoms: C2_3  and  N1_4 
REMARK    3  A    between atoms: C9_11  and  O2_12 
REMARK    4  A    between atoms: N2_14  and  C10_15 
REMARK    5  A    between atoms: C10_15  and  C11_16 
REMARK    6  A    between atoms: C11_16  and  C12_17 
REMARK    7  A    between atoms: C12_17  and  N3_18 
REMARK    8  A    between atoms: C18_24  and  O3_25 
REMARK    9  A    between atoms: N4_27  and  C19_29 
REMARK   10  A    between atoms: C19_29  and  C20_30 
ROOT
HETATM    1  N1  UNL     1       0.168  -1.094   2.297  1.00  0.00    -0.368 N 
HETATM    2  C3  UNL     1      -0.003  -2.470   2.785  1.00  0.00     0.123 C 
HETATM    3  C4  UNL     1       0.866  -2.730   3.990  1.00  0.00     0.020 C 
HETATM    4  C5  UNL     1       2.281  -2.931   3.477  1.00  0.00     0.006 C 
HETATM    5  C6  UNL     1       3.101  -1.682   3.578  1.00  0.00     0.045 C 
HETATM    6  C7  UNL     1       2.681  -0.714   2.535  1.00  0.00     0.024 A 
HETATM    7  C8  UNL     1       1.424  -0.489   2.011  1.00  0.00     0.093 A 
HETATM    8  C9  UNL     1       1.528   0.507   1.070  1.00  0.00     0.172 A 
HETATM    9  N2  UNL     1       2.843   0.881   1.026  1.00  0.00    -0.306 N 
HETATM   10  C18 UNL     1       3.552   0.158   1.901  1.00  0.00     0.153 A 
ENDROOT
BRANCH   1  11
HETATM   11  C2  UNL     1      -1.031  -0.325   2.105  1.00  0.00     0.225 C 
BRANCH  11  12
HETATM   12  C1  UNL     1      -1.868  -0.815   0.995  1.00  0.00     0.235 C 
HETATM   13  O1  UNL     1      -1.467  -1.816   0.352  1.00  0.00    -0.272 OA
HETATM   14  N4  UNL     1      -3.083  -0.192   0.654  1.00  0.00    -0.359 N 
ATOM     15  H4  UNL     1      -3.395   0.620   1.186  1.00  0.00     0.162 HD
BRANCH  14  16
HETATM   16  C19 UNL     1      -3.892  -0.677  -0.428  1.00  0.00     0.132 C 
BRANCH  16  17
HETATM   17  C20 UNL     1      -5.143   0.130  -0.622  1.00  0.00    -0.023 C 
HETATM   18  C21 UNL     1      -5.914  -0.462  -1.776  1.00  0.00     0.015 C 
HETATM   19  C22 UNL     1      -7.258   0.214  -1.954  1.00  0.00    -0.013 C 
HETATM   20  C23 UNL     1      -6.972   1.662  -2.311  1.00  0.00     0.009 C 
HETATM   21  C27 UNL     1      -8.107   0.171  -0.718  1.00  0.00     0.009 C 
HETATM   22  C24 UNL     1      -6.207   2.258  -1.162  1.00  0.00    -0.013 C 
HETATM   23  C25 UNL     1      -7.014   2.224   0.130  1.00  0.00     0.009 C 
HETATM   24  C29 UNL     1      -4.859   1.573  -0.968  1.00  0.00     0.015 C 
HETATM   25  C26 UNL     1      -7.321   0.764   0.418  1.00  0.00    -0.013 C 
HETATM   26  C28 UNL     1      -6.003   0.060   0.612  1.00  0.00     0.015 C 
ENDBRANCH  16  17
ENDBRANCH  14  16
ENDBRANCH  11  12
ENDBRANCH   1  11
BRANCH   8  27
HETATM   27  O2  UNL     1       0.492   1.033   0.307  1.00  0.00    -0.344 OA
ATOM     28  H2  UNL     1       0.564   1.722  -0.344  1.00  0.00     0.219 HD
ENDBRANCH   8  27
BRANCH  10  29
HETATM   29  O3  UNL     1       4.905   0.248   2.143  1.00  0.00    -0.345 OA
ATOM     30  H3  UNL     1       5.502   0.846   1.708  1.00  0.00     0.219 HD
ENDBRANCH  10  29
BRANCH   9  31
HETATM   31  C10 UNL     1       3.339   1.909   0.157  1.00  0.00     0.135 C 
BRANCH  31  32
HETATM   32  C11 UNL     1       3.763   1.421  -1.202  1.00  0.00     0.050 C 
BRANCH  32  33
HETATM   33  C12 UNL     1       4.855   0.405  -1.162  1.00  0.00     0.274 C 
BRANCH  33  34
HETATM   34  N3  UNL     1       5.265  -0.057  -2.462  1.00  0.00     0.088 N 
HETATM   35  C13 UNL     1       5.939   0.926  -3.266  1.00  0.00     0.272 C 
HETATM   36  C14 UNL     1       7.304   1.278  -2.697  1.00  0.00     0.030 C 
HETATM   37  C15 UNL     1       8.122  -0.009  -2.735  1.00  0.00     0.003 C 
HETATM   38  C16 UNL     1       7.440  -1.017  -1.869  1.00  0.00     0.030 C 
HETATM   39  C17 UNL     1       6.034  -1.293  -2.369  1.00  0.00     0.272 C 
ENDBRANCH  33  34
ENDBRANCH  32  33
ENDBRANCH  31  32
ENDBRANCH   9  31
TORSDOF 10
