REMARK  13 active torsions:
REMARK  status: ('A' for Active; 'I' for Inactive)
REMARK    1  A    between atoms: C4_4  and  O1_5 
REMARK    2  A    between atoms: C7_9  and  O2_10 
REMARK    3  A    between atoms: O2_10  and  C8_11 
REMARK    4  A    between atoms: C8_11  and  C9_13 
REMARK    5  A    between atoms: C9_13  and  C10_14 
REMARK    6  A    between atoms: C11_15  and  C12_16 
REMARK    7  A    between atoms: C13_17  and  N1_18 
REMARK    8  A    between atoms: N1_18  and  C14_20 
REMARK    9  A    between atoms: C14_20  and  C15_21 
REMARK   10  A    between atoms: C15_21  and  O4_22 
REMARK   11  A    between atoms: C17_24  and  C18_25 
REMARK   12  A    between atoms: C22_30  and  O6_31 
REMARK   13  A    between atoms: C26_36  and  C27_37 
ROOT
HETATM    1  C12 UNL     1      -1.769   0.441   0.700  1.00  0.00     0.037 C 
HETATM    2  C13 UNL     1      -2.592   1.676   0.976  1.00  0.00     0.100 C 
HETATM    3  C17 UNL     1      -3.990   1.260   0.542  1.00  0.00     0.079 C 
HETATM    4  C19 UNL     1      -3.808   0.120  -0.414  1.00  0.00    -0.025 C 
HETATM    5  C20 UNL     1      -4.257   0.624  -1.780  1.00  0.00     0.016 C 
HETATM    6  C21 UNL     1      -4.684  -1.020   0.014  1.00  0.00     0.042 C 
HETATM    7  C22 UNL     1      -3.804  -2.221   0.158  1.00  0.00     0.128 C 
HETATM    8  C23 UNL     1      -2.442  -1.822  -0.279  1.00  0.00    -0.002 C 
HETATM    9  C24 UNL     1      -1.314  -2.477   0.479  1.00  0.00     0.014 C 
HETATM   10  C25 UNL     1      -0.672  -2.964  -0.797  1.00  0.00     0.011 C 
HETATM   11  C26 UNL     1      -1.951  -2.523  -1.504  1.00  0.00     0.025 C 
HETATM   12  C30 UNL     1      -2.376  -0.314  -0.419  1.00  0.00     0.016 C 
ENDROOT
BRANCH   1  13
HETATM   13  C11 UNL     1      -0.344   0.789   0.614  1.00  0.00    -0.023 C 
HETATM   14  C10 UNL     1       0.526   0.575  -0.340  1.00  0.00    -0.020 C 
BRANCH  14  15
HETATM   15  C9  UNL     1       1.932   1.029  -0.203  1.00  0.00     0.138 C 
BRANCH  15  16
HETATM   16  C8  UNL     1       2.949  -0.007  -0.256  1.00  0.00     0.262 C 
HETATM   17  O3  UNL     1       2.683  -1.228  -0.390  1.00  0.00    -0.265 OA
BRANCH  16  18
HETATM   18  O2  UNL     1       4.328   0.273  -0.160  1.00  0.00    -0.311 OA
BRANCH  18  19
HETATM   19  C7  UNL     1       5.292  -0.753  -0.213  1.00  0.00     0.166 C 
HETATM   20  C2  UNL     1       6.248  -0.664   0.936  1.00  0.00    -0.057 C 
HETATM   21  C1  UNL     1       6.066  -0.203   2.140  1.00  0.00     0.017 C 
HETATM   22  C3  UNL     1       7.534  -1.236   0.427  1.00  0.00     0.068 C 
HETATM   23  C4  UNL     1       7.427  -1.256  -1.067  1.00  0.00     0.128 C 
HETATM   24  C5  UNL     1       6.212  -0.425  -1.377  1.00  0.00     0.044 C 
HETATM   25  C6  UNL     1       6.607   1.034  -1.267  1.00  0.00     0.015 C 
BRANCH  23  26
HETATM   26  O1  UNL     1       8.526  -0.586  -1.631  1.00  0.00    -0.395 OA
ATOM     27  H1  UNL     1       8.458  -0.599  -2.578  1.00  0.00     0.210 HD
ENDBRANCH  23  26
ENDBRANCH  18  19
ENDBRANCH  16  18
ENDBRANCH  15  16
ENDBRANCH  14  15
ENDBRANCH   1  13
BRANCH   2  28
HETATM   28  N1  UNL     1      -2.248   2.929   0.512  1.00  0.00    -0.394 N 
ATOM     29  H1  UNL     1      -2.876   3.326  -0.186  1.00  0.00     0.159 HD
BRANCH  28  30
HETATM   30  C14 UNL     1      -1.175   3.718   0.860  1.00  0.00     0.082 C 
BRANCH  30  31
HETATM   31  C15 UNL     1      -1.185   4.221   2.301  1.00  0.00     0.211 C 
BRANCH  31  32
HETATM   32  O4  UNL     1      -2.327   4.981   2.512  1.00  0.00    -0.391 OA
HETATM   33  C16 UNL     1      -2.425   5.485   3.786  1.00  0.00     0.201 C 
ENDBRANCH  31  32
ENDBRANCH  30  31
ENDBRANCH  28  30
ENDBRANCH   2  28
BRANCH   3  34
HETATM   34  C18 UNL     1      -4.748   2.402  -0.063  1.00  0.00     0.238 C 
HETATM   35  O5  UNL     1      -5.621   3.010   0.557  1.00  0.00    -0.306 OA
ENDBRANCH   3  34
BRANCH   7  36
HETATM   36  O6  UNL     1      -3.835  -2.751   1.449  1.00  0.00    -0.395 OA
ATOM     37  H6  UNL     1      -3.276  -3.514   1.540  1.00  0.00     0.210 HD
ENDBRANCH   7  36
BRANCH  11  38
HETATM   38  C27 UNL     1      -2.602  -3.703  -2.061  1.00  0.00    -0.088 C 
HETATM   39  C28 UNL     1      -2.864  -3.733  -3.358  1.00  0.00     0.014 C 
HETATM   40  C29 UNL     1      -2.963  -4.951  -1.312  1.00  0.00     0.043 C 
ENDBRANCH  11  38
TORSDOF 13
