REMARK  11 active torsions:
REMARK  status: ('A' for Active; 'I' for Inactive)
REMARK    1  A    between atoms: C2_2  and  C3_3 
REMARK    2  A    between atoms: C3_3  and  C4_4 
REMARK    3  A    between atoms: C4_4  and  N1_5 
REMARK    4  A    between atoms: C6_7  and  C7_8 
REMARK    5  A    between atoms: N2_9  and  N3_11 
REMARK    6  A    between atoms: C8_14  and  C9_15 
REMARK    7  A    between atoms: C15_24  and  C16_25 
REMARK    8  A    between atoms: C16_25  and  C17_26 
REMARK    9  A    between atoms: C17_26  and  C18_27 
REMARK   10  A    between atoms: C17_26  and  N6_36 
REMARK   11  A    between atoms: C20_33  and  O3_34 
ROOT
HETATM    1  N1  UNL     1       0.421   1.463  -0.390  1.00  0.00    -0.346 N 
HETATM    2  C5  UNL     1       1.499   1.718  -1.125  1.00  0.00     0.107 A 
HETATM    3  C6  UNL     1       2.579   0.791  -1.259  1.00  0.00     0.024 A 
HETATM    4  C8  UNL     1       2.435  -0.359  -0.580  1.00  0.00     0.057 A 
HETATM    5  N4  UNL     1       1.320  -0.577   0.148  1.00  0.00    -0.344 N 
ATOM      6  H4  UNL     1       1.242  -1.464   0.645  1.00  0.00     0.167 HD
HETATM    7  C15 UNL     1       0.281   0.318   0.265  1.00  0.00     0.086 A 
ENDROOT
BRANCH   7   8
HETATM    8  C16 UNL     1      -0.889  -0.131   1.042  1.00  0.00     0.117 C 
BRANCH   8   9
HETATM    9  C17 UNL     1      -1.725  -1.255   0.553  1.00  0.00     0.257 C 
BRANCH   9  10
HETATM   10  C18 UNL     1      -2.769  -1.473   1.652  1.00  0.00     0.140 A 
HETATM   11  O1  UNL     1      -3.246  -0.577   2.480  1.00  0.00    -0.259 OA
HETATM   12  C19 UNL     1      -4.123  -1.055   3.293  1.00  0.00     0.371 A 
HETATM   13  O2  UNL     1      -4.713  -0.355   4.179  1.00  0.00    -0.238 OA
HETATM   14  N5  UNL     1      -4.247  -2.346   3.003  1.00  0.00    -0.281 N 
HETATM   15  C20 UNL     1      -3.395  -2.633   1.966  1.00  0.00     0.177 A 
ATOM     16  H5  UNL     1      -4.867  -3.008   3.470  1.00  0.00     0.173 HD
BRANCH  15  17
HETATM   17  O3  UNL     1      -3.312  -3.929   1.460  1.00  0.00    -0.344 OA
ATOM     18  H3  UNL     1      -3.751  -4.742   1.680  1.00  0.00     0.219 HD
ENDBRANCH  15  17
ENDBRANCH   9  10
BRANCH   9  19
HETATM   19  N6  UNL     1      -2.463  -1.060  -0.661  1.00  0.00    -0.068 N 
HETATM   20  C21 UNL     1      -3.205  -2.276  -1.064  1.00  0.00     0.272 C 
HETATM   21  C22 UNL     1      -1.673  -0.761  -1.834  1.00  0.00     0.272 C 
HETATM   22  C23 UNL     1      -3.447   0.010  -0.502  1.00  0.00     0.272 C 
ENDBRANCH   9  19
ENDBRANCH   8   9
ENDBRANCH   7   8
BRANCH   1  23
HETATM   23  C4  UNL     1      -0.560   2.548  -0.236  1.00  0.00     0.130 C 
BRANCH  23  24
HETATM   24  C3  UNL     1      -0.151   3.487   0.877  1.00  0.00     0.020 C 
BRANCH  24  25
HETATM   25  C2  UNL     1      -1.219   4.563   0.940  1.00  0.00    -0.003 C 
HETATM   26  C1  UNL     1      -0.940   5.573   1.996  1.00  0.00     0.005 C 
ENDBRANCH  24  25
ENDBRANCH  23  24
ENDBRANCH   1  23
BRANCH   4  27
HETATM   27  C9  UNL     1       3.508  -1.367  -0.434  1.00  0.00    -0.008 A 
HETATM   28  C10 UNL     1       4.769  -1.014  -0.005  1.00  0.00     0.015 A 
HETATM   29  C11 UNL     1       5.719  -2.009   0.148  1.00  0.00     0.024 A 
HETATM   30  C12 UNL     1       5.448  -3.334  -0.113  1.00  0.00     0.034 A 
HETATM   31 CL1  UNL     1       6.688  -4.573   0.087  1.00  0.00    -0.084 Cl
HETATM   32  C13 UNL     1       4.181  -3.687  -0.543  1.00  0.00     0.024 A 
HETATM   33  C14 UNL     1       3.216  -2.679  -0.699  1.00  0.00     0.015 A 
ENDBRANCH   4  27
BRANCH   3  34
HETATM   34  C7  UNL     1       3.521   1.099  -2.285  1.00  0.00     0.121 C 
HETATM   35  N2  UNL     1       4.320   0.567  -3.058  1.00  0.00    -0.318 N 
ATOM     36  H2  UNL     1       4.807   1.245  -3.644  1.00  0.00     0.185 HD
BRANCH  35  37
HETATM   37  N3  UNL     1       4.708  -0.726  -3.315  1.00  0.00    -0.345 N 
ATOM     38  H32 UNL     1       4.209  -1.386  -2.718  1.00  0.00     0.176 HD
ATOM     39  H31 UNL     1       5.369  -1.166  -3.955  1.00  0.00     0.176 HD
ENDBRANCH  35  37
ENDBRANCH   3  34
TORSDOF 11
