REMARK  7 active torsions:
REMARK  status: ('A' for Active; 'I' for Inactive)
REMARK    1  A    between atoms: C2_2  and  C3_3 
REMARK    2  A    between atoms: C2_2  and  C5_11 
REMARK    3  A    between atoms: C3_3  and  C4_4 
REMARK    4  A    between atoms: C4_4  and  O1_5 
REMARK    5  A    between atoms: N1_7  and  O2_9 
REMARK    6  A    between atoms: C5_11  and  C6_13 
REMARK    7  A    between atoms: C6_13  and  C9_16 
ROOT
HETATM    1  C1  UNL     1       0.860   2.203   0.237  1.00  0.00     0.018 C 
HETATM    2  C2  UNL     1       0.883   0.683   0.170  1.00  0.00     0.060 C 
ENDROOT
BRANCH   2   3
HETATM    3  C3  UNL     1       2.220   0.281  -0.384  1.00  0.00     0.097 C 
BRANCH   3   4
HETATM    4  C4  UNL     1       2.501  -1.138  -0.499  1.00  0.00     0.135 C 
HETATM    5  N1  UNL     1       3.478  -1.681   0.227  1.00  0.00    -0.251 N 
ATOM      6  H1  UNL     1       3.663  -2.680   0.134  1.00  0.00     0.196 HD
BRANCH   4   7
HETATM    7  O1  UNL     1       1.878  -2.074  -1.292  1.00  0.00    -0.348 OA
ATOM      8  H1  UNL     1       2.062  -3.003  -1.367  1.00  0.00     0.219 HD
ENDBRANCH   4   7
BRANCH   5   9
HETATM    9  O2  UNL     1       4.230  -0.959   1.079  1.00  0.00    -0.288 OA
ATOM     10  H2  UNL     1       4.926  -1.346   1.596  1.00  0.00     0.244 HD
ENDBRANCH   5   9
ENDBRANCH   3   4
ENDBRANCH   2   3
BRANCH   2  11
HETATM   11  C5  UNL     1      -0.290   0.133  -0.515  1.00  0.00     0.143 C 
HETATM   12  O3  UNL     1      -0.070  -0.217  -1.700  1.00  0.00    -0.297 OA
BRANCH  11  13
HETATM   13  C6  UNL     1      -1.652  -0.067  -0.059  1.00  0.00     0.063 C 
HETATM   14  C7  UNL     1      -1.704  -0.935   1.219  1.00  0.00     0.027 C 
HETATM   15  C8  UNL     1      -2.447  -0.948  -1.074  1.00  0.00     0.027 C 
BRANCH  13  16
HETATM   16  C9  UNL     1      -2.548   1.110   0.131  1.00  0.00     0.202 C 
HETATM   17 CL1  UNL     1      -2.723   2.003  -1.420  1.00  0.00    -0.083 Cl
HETATM   18 CL2  UNL     1      -4.216   0.379   0.346  1.00  0.00    -0.083 Cl
HETATM   19 CL3  UNL     1      -2.210   2.134   1.499  1.00  0.00    -0.083 Cl
ENDBRANCH  13  16
ENDBRANCH  11  13
ENDBRANCH   2  11
TORSDOF 7
