REMARK  14 active torsions:
REMARK  status: ('A' for Active; 'I' for Inactive)
REMARK    1  A    between atoms: C3_3  and  N1_4 
REMARK    2  A    between atoms: N1_4  and  C4_6 
REMARK    3  A    between atoms: C4_6  and  C5_10 
REMARK    4  A    between atoms: C5_10  and  C6_11 
REMARK    5  A    between atoms: C6_11  and  C7_12 
REMARK    6  A    between atoms: C7_12  and  C8_13 
REMARK    7  A    between atoms: C8_13  and  C9_14 
REMARK    8  A    between atoms: C9_14  and  N3_15 
REMARK       I    between atoms: N3_15  and  C10_17 
REMARK       I    between atoms: C10_17  and  N4_19 
REMARK    9  A    between atoms: C13_22  and  C14_23 
REMARK   10  A    between atoms: C14_23  and  C15_24 
REMARK   11  A    between atoms: C15_24  and  C16_25 
REMARK   12  A    between atoms: C16_25  and  C17_26 
REMARK       I    between atoms: C17_26  and  N5_28 
REMARK   13  A    between atoms: N5_28  and  C18_30 
REMARK   14  A    between atoms: C22_34  and  C23_35 
REMARK       I    between atoms: C23_35  and  N6_37 
ROOT
HETATM    1  C1  UNL     1      12.303   0.272   0.856  1.00  0.00     0.014 C 
HETATM    2  C2  UNL     1      11.723   0.862  -0.024  1.00  0.00    -0.098 C 
HETATM    3  C3  UNL     1      11.005   1.593  -1.077  1.00  0.00     0.214 C 
ENDROOT
BRANCH   3   4
HETATM    4  N1  UNL     1      10.125   0.738  -1.837  1.00  0.00    -0.370 N 
ATOM      5  H1  UNL     1      10.333   0.534  -2.814  1.00  0.00     0.161 HD
BRANCH   4   6
HETATM    6  C4  UNL     1       8.973   0.182  -1.228  1.00  0.00     0.071 C 
HETATM    7  N2  UNL     1       9.010  -0.081   0.035  1.00  0.00    -0.389 N 
ATOM      8  H22 UNL     1       9.830   0.097   0.615  1.00  0.00     0.157 HD
ATOM      9  H21 UNL     1       8.181  -0.481   0.473  1.00  0.00     0.157 HD
BRANCH   6  10
HETATM   10  C5  UNL     1       7.789  -0.075  -2.065  1.00  0.00     0.075 C 
BRANCH  10  11
HETATM   11  C6  UNL     1       6.697  -0.620  -1.152  1.00  0.00     0.007 C 
BRANCH  11  12
HETATM   12  C7  UNL     1       5.460  -0.924  -1.933  1.00  0.00     0.002 C 
BRANCH  12  13
HETATM   13  C8  UNL     1       4.358  -1.480  -1.046  1.00  0.00     0.020 C 
BRANCH  13  14
HETATM   14  C9  UNL     1       3.949  -0.516   0.008  1.00  0.00     0.124 C 
BRANCH  14  15
HETATM   15  N3  UNL     1       2.936  -1.068   0.852  1.00  0.00    -0.343 N 
HETATM   16  C10 UNL     1       1.669  -1.450   0.390  1.00  0.00     0.318 C 
HETATM   17  O1  UNL     1       1.427  -1.275  -0.862  1.00  0.00    -0.247 OA
HETATM   18  N4  UNL     1       0.688  -1.999   1.227  1.00  0.00    -0.334 N 
HETATM   19  C11 UNL     1       0.894  -2.211   2.621  1.00  0.00     0.128 C 
HETATM   20  C26 UNL     1      -0.602  -2.368   0.685  1.00  0.00     0.128 C 
HETATM   21  C12 UNL     1       0.072  -1.100   3.306  1.00  0.00     0.024 C 
HETATM   22  C13 UNL     1      -1.254  -0.928   2.606  1.00  0.00    -0.012 C 
HETATM   23  C25 UNL     1      -1.647  -2.097   1.779  1.00  0.00     0.024 C 
ATOM     24  H3  UNL     1       3.146  -1.190   1.843  1.00  0.00     0.164 HD
BRANCH  22  25
HETATM   25  C14 UNL     1      -2.279  -0.535   3.606  1.00  0.00     0.005 C 
BRANCH  25  26
HETATM   26  C15 UNL     1      -3.621  -0.360   2.992  1.00  0.00     0.010 C 
BRANCH  26  27
HETATM   27  C16 UNL     1      -3.539   0.679   1.878  1.00  0.00     0.103 C 
BRANCH  27  28
HETATM   28  C17 UNL     1      -4.871   0.897   1.282  1.00  0.00     0.217 C 
HETATM   29  O2  UNL     1      -5.868   0.355   1.818  1.00  0.00    -0.274 OA
HETATM   30  N5  UNL     1      -5.053   1.691   0.138  1.00  0.00    -0.356 N 
ATOM     31  H5  UNL     1      -4.234   2.121  -0.291  1.00  0.00     0.162 HD
BRANCH  30  32
HETATM   32  C18 UNL     1      -6.357   1.928  -0.464  1.00  0.00     0.097 C 
HETATM   33  C19 UNL     1      -6.574   3.367  -0.756  1.00  0.00     0.026 C 
HETATM   34  C20 UNL     1      -6.691   3.492  -2.239  1.00  0.00     0.003 C 
HETATM   35  C21 UNL     1      -6.321   2.194  -2.878  1.00  0.00     0.016 C 
HETATM   36  C22 UNL     1      -6.546   1.205  -1.764  1.00  0.00     0.100 C 
BRANCH  36  37
HETATM   37  C23 UNL     1      -7.891   0.608  -1.756  1.00  0.00     0.223 C 
HETATM   38  O3  UNL     1      -8.664   0.822  -0.803  1.00  0.00    -0.273 OA
HETATM   39  N6  UNL     1      -8.321  -0.212  -2.819  1.00  0.00    -0.365 N 
HETATM   40  C24 UNL     1      -9.655  -0.824  -2.832  1.00  0.00     0.149 C 
ATOM     41  H6  UNL     1      -7.688  -0.385  -3.600  1.00  0.00     0.161 HD
ENDBRANCH  36  37
ENDBRANCH  30  32
ENDBRANCH  27  28
ENDBRANCH  26  27
ENDBRANCH  25  26
ENDBRANCH  22  25
ENDBRANCH  14  15
ENDBRANCH  13  14
ENDBRANCH  12  13
ENDBRANCH  11  12
ENDBRANCH  10  11
ENDBRANCH   6  10
ENDBRANCH   4   6
ENDBRANCH   3   4
TORSDOF 14
