REMARK  14 active torsions:
REMARK  status: ('A' for Active; 'I' for Inactive)
REMARK       I    between atoms: C2_2  and  N1_4 
REMARK    1  A    between atoms: N1_4  and  C3_6 
REMARK    2  A    between atoms: C3_6  and  C4_7 
REMARK    3  A    between atoms: C4_7  and  C5_8 
REMARK    4  A    between atoms: C5_8  and  C6_9 
REMARK    5  A    between atoms: C6_9  and  C7_10 
REMARK    6  A    between atoms: C7_10  and  C8_11 
REMARK    7  A    between atoms: C8_11  and  N2_12 
REMARK       I    between atoms: N2_12  and  C9_14 
REMARK       I    between atoms: C9_14  and  N4_18 
REMARK    8  A    between atoms: N4_18  and  C10_20 
REMARK    9  A    between atoms: C10_20  and  C11_21 
REMARK   10  A    between atoms: C11_21  and  C12_22 
REMARK   11  A    between atoms: C12_22  and  C13_23 
REMARK   12  A    between atoms: C13_23  and  N5_24 
REMARK   13  A    between atoms: N5_24  and  C14_26 
REMARK   14  A    between atoms: C14_26  and  C15_28 
ROOT
HETATM    1  C10 UNL     1       1.127   0.280  -1.186  1.00  0.00     0.138 C 
ENDROOT
BRANCH   1   2
HETATM    2  N4  UNL     1       2.576   0.502  -1.116  1.00  0.00    -0.227 N 
HETATM    3  C9  UNL     1       3.276  -0.138  -0.056  1.00  0.00     0.667 C 
HETATM    4  N2  UNL     1       4.124   0.652   0.731  1.00  0.00    -0.227 N 
HETATM    5  N3  UNL     1       3.098  -1.406   0.123  1.00  0.00    -0.235 N 
ATOM      6  H2  UNL     1       3.739   1.271   1.444  1.00  0.00     0.177 HD
ATOM      7  H32 UNL     1       3.600  -1.865   0.883  1.00  0.00     0.174 HD
ATOM      8  H31 UNL     1       2.481  -1.981  -0.450  1.00  0.00     0.174 HD
ATOM      9  H4  UNL     1       3.059   1.089  -1.796  1.00  0.00     0.177 HD
BRANCH   4  10
HETATM   10  C8  UNL     1       5.565   0.577   0.516  1.00  0.00     0.138 C 
BRANCH  10  11
HETATM   11  C7  UNL     1       5.932   1.152  -0.803  1.00  0.00     0.024 C 
BRANCH  11  12
HETATM   12  C6  UNL     1       7.378   1.151  -1.095  1.00  0.00     0.028 C 
BRANCH  12  13
HETATM   13  C5  UNL     1       8.141  -0.094  -1.230  1.00  0.00    -0.029 C 
BRANCH  13  14
HETATM   14  C4  UNL     1       8.301  -1.056  -0.156  1.00  0.00    -0.011 C 
BRANCH  14  15
HETATM   15  C3  UNL     1       8.941  -0.760   1.128  1.00  0.00     0.149 C 
BRANCH  15  16
HETATM   16  N1  UNL     1      10.335  -0.452   1.163  1.00  0.00    -0.358 N 
HETATM   17  C2  UNL     1      11.094   0.581   0.643  1.00  0.00     0.213 C 
HETATM   18  C1  UNL     1      12.593   0.586   0.868  1.00  0.00     0.117 C 
HETATM   19  O1  UNL     1      10.672   1.535  -0.009  1.00  0.00    -0.274 OA
ATOM     20  H1  UNL     1      10.886  -1.137   1.680  1.00  0.00     0.162 HD
ENDBRANCH  15  16
ENDBRANCH  14  15
ENDBRANCH  13  14
ENDBRANCH  12  13
ENDBRANCH  11  12
ENDBRANCH  10  11
ENDBRANCH   4  10
ENDBRANCH   1   2
BRANCH   1  21
HETATM   21  C11 UNL     1       0.542   0.973   0.004  1.00  0.00     0.022 C 
BRANCH  21  22
HETATM   22  C12 UNL     1      -0.951   0.802   0.054  1.00  0.00     0.021 C 
BRANCH  22  23
HETATM   23  C13 UNL     1      -1.563   1.397  -1.184  1.00  0.00     0.120 C 
BRANCH  23  24
HETATM   24  N5  UNL     1      -3.009   1.298  -1.207  1.00  0.00    -0.384 N 
ATOM     25  H5  UNL     1      -3.556   2.153  -1.105  1.00  0.00     0.160 HD
BRANCH  24  26
HETATM   26  C14 UNL     1      -3.688   0.088  -1.362  1.00  0.00     0.077 C 
HETATM   27  S1  UNL     1      -2.926  -1.310  -1.558  1.00  0.00    -0.065 SA
BRANCH  26  28
HETATM   28  C15 UNL     1      -5.197   0.095  -1.364  1.00  0.00     0.051 C 
HETATM   29  C16 UNL     1      -5.789  -1.252  -1.529  1.00  0.00     0.045 C 
HETATM   30  C17 UNL     1      -6.978  -1.532  -0.611  1.00  0.00     0.191 C 
HETATM   31  C18 UNL     1      -6.409  -2.122   0.605  1.00  0.00     0.033 C 
HETATM   32  N6  UNL     1      -7.765  -0.365  -0.509  1.00  0.00    -0.066 N 
HETATM   33  C19 UNL     1      -7.084  -2.033   1.900  1.00  0.00     0.002 C 
HETATM   34  C20 UNL     1      -7.494  -0.739   2.425  1.00  0.00     0.002 C 
HETATM   35  C21 UNL     1      -7.132   0.507   1.745  1.00  0.00     0.033 C 
HETATM   36  C22 UNL     1      -7.063   0.621   0.279  1.00  0.00     0.191 C 
HETATM   37  C23 UNL     1      -5.674   0.900  -0.220  1.00  0.00     0.045 C 
HETATM   38  C24 UNL     1      -9.098  -0.558   0.028  1.00  0.00     0.273 C 
HETATM   39  C25 UNL     1      -7.985   0.231  -1.828  1.00  0.00     0.273 C 
ENDBRANCH  26  28
ENDBRANCH  24  26
ENDBRANCH  23  24
ENDBRANCH  22  23
ENDBRANCH  21  22
ENDBRANCH   1  21
TORSDOF 14
