REMARK  2 active torsions:
REMARK  status: ('A' for Active; 'I' for Inactive)
REMARK    1  A    between atoms: O1_1  and  C1_3 
REMARK    2  A    between atoms: C2_4  and  C3_5 
ROOT
HETATM    1  C3  UNL     1       0.111  -0.053  -0.204  1.00  0.00     0.033 A 
HETATM    2  C4  UNL     1      -0.990  -0.376  -1.022  1.00  0.00     0.031 A 
HETATM    3  C5  UNL     1      -2.109  -0.222  -0.238  1.00  0.00     0.019 A 
HETATM    4  C6  UNL     1      -1.740   0.179   1.021  1.00  0.00     0.088 A 
HETATM    5  N1  UNL     1      -0.384   0.268   0.991  1.00  0.00    -0.366 N 
ATOM      6  H1  UNL     1       0.187   0.547   1.789  1.00  0.00     0.165 HD
ENDROOT
BRANCH   1   7
HETATM    7  C2  UNL     1       1.463  -0.108  -0.715  1.00  0.00     0.053 C 
HETATM    8  C1  UNL     1       2.496   0.185   0.019  1.00  0.00     0.133 C 
BRANCH   8   9
HETATM    9  O1  UNL     1       2.392   0.567   1.325  1.00  0.00    -0.373 OA
ATOM     10  H1  UNL     1       3.147   0.781   1.861  1.00  0.00     0.216 HD
ENDBRANCH   8   9
ENDBRANCH   1   7
TORSDOF 2
