REMARK  3 active torsions:
REMARK  status: ('A' for Active; 'I' for Inactive)
REMARK    1  A    between atoms: C2_2  and  C8_9 
REMARK    2  A    between atoms: C3_3  and  C4_4 
REMARK    3  A    between atoms: C4_4  and  N1_5 
ROOT
HETATM    1  C1  UNL     1       2.086  -1.263  -0.390  1.00  0.00     0.055 C 
HETATM    2  C2  UNL     1       1.867   0.066   0.222  1.00  0.00     0.012 C 
HETATM    3  C3  UNL     1       0.680   0.399   0.688  1.00  0.00     0.014 C 
ENDROOT
BRANCH   3   4
HETATM    4  C4  UNL     1      -0.422  -0.557   0.596  1.00  0.00     0.265 C 
BRANCH   4   5
HETATM    5  N1  UNL     1      -1.545  -0.074  -0.175  1.00  0.00    -0.065 N 
HETATM    6  C5  UNL     1      -1.373   1.101  -1.013  1.00  0.00     0.273 C 
HETATM    7  C6  UNL     1      -2.391  -1.154  -0.684  1.00  0.00     0.265 A 
HETATM    8  C7  UNL     1      -2.896  -0.263   0.371  1.00  0.00     0.265 A 
ENDBRANCH   4   5
ENDBRANCH   3   4
BRANCH   2   9
HETATM    9  C8  UNL     1       2.948   1.027   0.322  1.00  0.00     0.204 C 
HETATM   10  O1  UNL     1       4.081   0.723  -0.117  1.00  0.00    -0.644 OA
HETATM   11  O2  UNL     1       2.783   2.283   0.889  1.00  0.00    -0.644 OA
ENDBRANCH   2   9
TORSDOF 3
