REMARK  11 active torsions:
REMARK  status: ('A' for Active; 'I' for Inactive)
REMARK    1  A    between atoms: C2_2  and  N1_3 
REMARK    2  A    between atoms: C2_2  and  C12_17 
REMARK    3  A    between atoms: N1_3  and  C3_5 
REMARK    4  A    between atoms: C3_5  and  O1_6 
REMARK    5  A    between atoms: C4_8  and  C6_11 
REMARK    6  A    between atoms: C12_17  and  N3_18 
REMARK    7  A    between atoms: C12_17  and  N4_22 
REMARK    8  A    between atoms: C16_26  and  C17_27 
REMARK       I    between atoms: C17_27  and  N5_29 
REMARK    9  A    between atoms: N5_29  and  C18_31 
REMARK   10  A    between atoms: C21_34  and  O3_35 
REMARK   11  A    between atoms: O3_35  and  C22_36 
ROOT
HETATM    1  C3  UNL     1      -4.000   0.603   0.924  1.00  0.00     0.158 C 
HETATM    2  C4  UNL     1      -4.640   1.682   1.121  1.00  0.00     0.105 C 
HETATM    3  C5  UNL     1      -4.034   2.704   1.966  1.00  0.00     0.104 C 
HETATM    4  N2  UNL     1      -3.531   3.508   2.637  1.00  0.00    -0.191 NA
ENDROOT
BRANCH   2   5
HETATM    5  C6  UNL     1      -5.905   2.039   0.537  1.00  0.00    -0.011 A 
HETATM    6  C7  UNL     1      -6.987   2.467   1.269  1.00  0.00     0.013 A 
HETATM    7  C8  UNL     1      -8.131   2.851   0.628  1.00  0.00     0.001 A 
HETATM    8  C9  UNL     1      -8.237   2.823  -0.743  1.00  0.00     0.000 A 
HETATM    9  C10 UNL     1      -7.169   2.398  -1.477  1.00  0.00     0.001 A 
HETATM   10  C11 UNL     1      -6.013   2.008  -0.838  1.00  0.00     0.013 A 
ENDBRANCH   2   5
BRANCH   1  11
HETATM   11  N1  UNL     1      -4.344  -0.551   0.163  1.00  0.00    -0.362 N 
ATOM     12  H1  UNL     1      -5.151  -0.487  -0.458  1.00  0.00     0.162 HD
BRANCH  11  13
HETATM   13  C2  UNL     1      -3.628  -1.808   0.210  1.00  0.00     0.129 C 
HETATM   14  C1  UNL     1      -3.553  -2.230   1.643  1.00  0.00     0.036 C 
BRANCH  13  15
HETATM   15  C12 UNL     1      -2.337  -1.688  -0.513  1.00  0.00     0.306 C 
BRANCH  15  16
HETATM   16  N3  UNL     1      -2.721  -1.253  -1.891  1.00  0.00    -0.056 N 
ATOM     17  H33 UNL     1      -3.399  -1.864  -2.347  1.00  0.00     0.276 HD
ATOM     18  H32 UNL     1      -3.293  -0.409  -1.917  1.00  0.00     0.276 HD
ATOM     19  H31 UNL     1      -1.834  -1.171  -2.388  1.00  0.00     0.276 HD
ENDBRANCH  15  16
BRANCH  15  20
HETATM   20  N4  UNL     1      -1.589  -2.865  -0.709  1.00  0.00    -0.351 N 
HETATM   21  C13 UNL     1      -1.082  -3.605   0.344  1.00  0.00     0.061 C 
HETATM   22  C14 UNL     1      -0.199  -4.661  -0.292  1.00  0.00     0.047 C 
HETATM   23  C15 UNL     1      -0.364  -4.480  -1.786  1.00  0.00     0.040 C 
HETATM   24  C16 UNL     1      -0.901  -3.042  -1.914  1.00  0.00     0.178 C 
BRANCH  24  25
HETATM   25  C17 UNL     1       0.218  -2.138  -2.201  1.00  0.00     0.240 C 
HETATM   26  O2  UNL     1       0.634  -2.081  -3.401  1.00  0.00    -0.271 OA
HETATM   27  N5  UNL     1       0.888  -1.318  -1.278  1.00  0.00    -0.355 N 
ATOM     28  H5  UNL     1       0.584  -1.346  -0.305  1.00  0.00     0.162 HD
BRANCH  27  29
HETATM   29  C18 UNL     1       1.988  -0.431  -1.624  1.00  0.00     0.084 C 
HETATM   30  C19 UNL     1       3.298  -0.976  -1.065  1.00  0.00     0.028 C 
HETATM   31  C20 UNL     1       4.414  -0.084  -1.574  1.00  0.00     0.034 C 
HETATM   32  C21 UNL     1       4.282   1.314  -1.020  1.00  0.00     0.122 C 
HETATM   33  C28 UNL     1       2.932   1.819  -1.424  1.00  0.00     0.034 C 
HETATM   34  C29 UNL     1       1.789   0.937  -1.016  1.00  0.00     0.028 C 
BRANCH  32  35
HETATM   35  O3  UNL     1       4.486   1.241   0.348  1.00  0.00    -0.381 OA
BRANCH  35  36
HETATM   36  C22 UNL     1       5.574   2.002   0.763  1.00  0.00     0.122 C 
HETATM   37  C23 UNL     1       6.637   1.199   1.445  1.00  0.00     0.032 C 
HETATM   38  C24 UNL     1       6.162   0.440   2.650  1.00  0.00     0.002 C 
HETATM   39  C25 UNL     1       5.026   1.126   3.341  1.00  0.00     0.000 C 
HETATM   40  C26 UNL     1       5.196   2.623   3.176  1.00  0.00     0.002 C 
HETATM   41  C27 UNL     1       5.056   3.040   1.730  1.00  0.00     0.032 C 
ENDBRANCH  35  36
ENDBRANCH  32  35
ENDBRANCH  27  29
ENDBRANCH  24  25
ENDBRANCH  15  20
ENDBRANCH  13  15
ENDBRANCH  11  13
ENDBRANCH   1  11
BRANCH   1  42
HETATM   42  O1  UNL     1      -2.722   0.502   1.556  1.00  0.00    -0.345 OA
ATOM     43  H1  UNL     1      -2.493   1.272   2.064  1.00  0.00     0.219 HD
ENDBRANCH   1  42
TORSDOF 11
