REMARK  10 active torsions:
REMARK  status: ('A' for Active; 'I' for Inactive)
REMARK    1  A    between atoms: C2_2  and  N1_5 
REMARK       I    between atoms: N1_5  and  C5_7 
REMARK       I    between atoms: C5_7  and  N2_9 
REMARK    2  A    between atoms: N2_9  and  C6_11 
REMARK    3  A    between atoms: C6_11  and  C7_12 
REMARK    4  A    between atoms: C6_11  and  C14_19 
REMARK    5  A    between atoms: C7_12  and  C8_13 
REMARK    6  A    between atoms: C14_19  and  O2_20 
REMARK    7  A    between atoms: C14_19  and  C15_22 
REMARK    8  A    between atoms: C15_22  and  N3_23 
REMARK    9  A    between atoms: C22_30  and  C23_31 
REMARK       I    between atoms: C23_31  and  N4_33 
REMARK   10  A    between atoms: N4_33  and  C24_35 
ROOT
HETATM    1  C14 UNL     1      -1.326   0.284  -0.185  1.00  0.00     0.169 C 
ENDROOT
BRANCH   1   2
HETATM    2  C6  UNL     1      -2.681   0.433   0.423  1.00  0.00     0.117 C 
BRANCH   2   3
HETATM    3  N2  UNL     1      -2.851  -0.796   1.238  1.00  0.00    -0.336 N 
HETATM    4  C5  UNL     1      -3.798  -1.779   0.944  1.00  0.00     0.317 C 
HETATM    5  N1  UNL     1      -3.920  -2.922   1.748  1.00  0.00    -0.335 N 
HETATM    6  O1  UNL     1      -4.534  -1.583  -0.079  1.00  0.00    -0.247 OA
ATOM      7  H1  UNL     1      -3.310  -3.047   2.556  1.00  0.00     0.165 HD
ATOM      8  H2  UNL     1      -2.248  -0.928   2.050  1.00  0.00     0.164 HD
BRANCH   5   9
HETATM    9  C2  UNL     1      -4.916  -3.924   1.426  1.00  0.00     0.023 C 
HETATM   10  C1  UNL     1      -6.278  -3.257   1.458  1.00  0.00     0.037 C 
HETATM   11  C3  UNL     1      -4.901  -4.977   2.499  1.00  0.00     0.037 C 
HETATM   12  C4  UNL     1      -4.633  -4.551   0.098  1.00  0.00     0.037 C 
ENDBRANCH   5   9
ENDBRANCH   2   3
BRANCH   2  13
HETATM   13  C7  UNL     1      -2.904   1.558   1.346  1.00  0.00     0.032 C 
BRANCH  13  14
HETATM   14  C8  UNL     1      -2.859   2.945   0.888  1.00  0.00    -0.013 C 
HETATM   15  C9  UNL     1      -1.659   3.526   0.278  1.00  0.00     0.005 C 
HETATM   16  C10 UNL     1      -1.751   5.050   0.442  1.00  0.00     0.000 C 
HETATM   17  C11 UNL     1      -3.021   5.593  -0.142  1.00  0.00     0.000 C 
HETATM   18  C12 UNL     1      -4.245   4.795   0.134  1.00  0.00     0.000 C 
HETATM   19  C13 UNL     1      -4.034   3.309  -0.041  1.00  0.00     0.005 C 
ENDBRANCH  13  14
ENDBRANCH   2  13
ENDBRANCH   1   2
BRANCH   1  20
HETATM   20  O2  UNL     1      -1.329  -0.904  -0.967  1.00  0.00    -0.392 OA
ATOM     21  H2  UNL     1      -0.467  -0.999  -1.354  1.00  0.00     0.210 HD
ENDBRANCH   1  20
BRANCH   1  22
HETATM   22  C15 UNL     1      -0.188   0.172   0.776  1.00  0.00     0.306 C 
BRANCH  22  23
HETATM   23  N3  UNL     1       1.054   0.065   0.034  1.00  0.00     0.096 N 
HETATM   24  C16 UNL     1       1.235  -1.154  -0.678  1.00  0.00     0.278 C 
HETATM   25  C17 UNL     1       2.732  -1.520  -0.681  1.00  0.00     0.027 C 
HETATM   26  C18 UNL     1       3.066  -1.816   0.753  1.00  0.00     0.009 C 
HETATM   27  C22 UNL     1       3.515  -0.310  -1.139  1.00  0.00     0.086 C 
HETATM   28  C19 UNL     1       2.701  -0.667   1.666  1.00  0.00     0.036 C 
HETATM   29  C20 UNL     1       2.208   0.476   0.780  1.00  0.00     0.224 C 
HETATM   30  C21 UNL     1       3.341   0.816  -0.170  1.00  0.00     0.050 C 
BRANCH  27  31
HETATM   31  C23 UNL     1       4.937  -0.621  -1.307  1.00  0.00     0.227 C 
HETATM   32  O3  UNL     1       5.347  -1.806  -1.223  1.00  0.00    -0.273 OA
HETATM   33  N4  UNL     1       5.903   0.389  -1.572  1.00  0.00    -0.313 N 
ATOM     34  H4  UNL     1       5.604   1.362  -1.637  1.00  0.00     0.170 HD
BRANCH  33  35
HETATM   35  C24 UNL     1       7.273   0.070  -1.748  1.00  0.00     0.107 A 
HETATM   36  C25 UNL     1       8.224   1.066  -1.989  1.00  0.00     0.048 A 
HETATM   37  C26 UNL     1       9.557   0.783  -2.176  1.00  0.00     0.005 A 
HETATM   38  C27 UNL     1       9.989  -0.530  -2.129  1.00  0.00     0.017 A 
HETATM   39  C28 UNL     1       9.020  -1.491  -1.889  1.00  0.00     0.089 A 
HETATM   40  N5  UNL     1       7.736  -1.185  -1.711  1.00  0.00    -0.352 N 
ATOM     41  H5  UNL     1       7.075  -1.942  -1.538  1.00  0.00     0.166 HD
ENDBRANCH  33  35
ENDBRANCH  27  31
ENDBRANCH  22  23
ENDBRANCH   1  22
TORSDOF 10
