REMARK  8 active torsions:
REMARK  status: ('A' for Active; 'I' for Inactive)
REMARK    1  A    between atoms: C2_3  and  N3_7 
REMARK       I    between atoms: N3_7  and  C3_9 
REMARK    2  A    between atoms: C3_9  and  C4_11 
REMARK    3  A    between atoms: C4_11  and  C5_12 
REMARK    4  A    between atoms: C5_12  and  C6_13 
REMARK    5  A    between atoms: C6_13  and  N4_14 
REMARK    6  A    between atoms: C6_13  and  N5_18 
REMARK    7  A    between atoms: C6_13  and  N6_22 
REMARK    8  A    between atoms: N6_22  and  N7_23 
ROOT
HETATM    1  N1  UNL     1       4.194   2.170  -0.740  1.00  0.00    -0.188 NA
HETATM    2  C1  UNL     1       3.971   1.018  -0.852  1.00  0.00     0.136 C 
HETATM    3  C2  UNL     1       3.728  -0.375  -1.002  1.00  0.00     0.184 C 
HETATM    4  N2  UNL     1       4.641  -1.075  -1.629  1.00  0.00    -0.377 N 
ATOM      5  H21 UNL     1       4.467  -2.074  -1.737  1.00  0.00     0.158 HD
ATOM      6  H22 UNL     1       5.473  -0.599  -1.977  1.00  0.00     0.158 HD
ENDROOT
BRANCH   3   7
HETATM    7  N3  UNL     1       2.590  -1.026  -0.526  1.00  0.00    -0.305 N 
HETATM    8  C3  UNL     1       1.542  -0.331   0.172  1.00  0.00     0.223 C 
HETATM    9  O1  UNL     1       1.716   0.899   0.325  1.00  0.00    -0.273 OA
ATOM     10  H3  UNL     1       2.498  -2.030  -0.678  1.00  0.00     0.171 HD
BRANCH   8  11
HETATM   11  C4  UNL     1       0.360  -1.056   0.655  1.00  0.00     0.109 C 
BRANCH  11  12
HETATM   12  C5  UNL     1      -0.833  -0.264   1.054  1.00  0.00     0.099 C 
BRANCH  12  13
HETATM   13  C6  UNL     1      -1.552   0.493  -0.017  1.00  0.00     0.371 C 
BRANCH  13  14
HETATM   14  N4  UNL     1      -0.790   1.481  -0.704  1.00  0.00    -0.028 N 
ATOM     15  H43 UNL     1      -0.384   2.133  -0.033  1.00  0.00     0.279 HD
ATOM     16  H42 UNL     1       0.057   1.060  -1.087  1.00  0.00     0.279 HD
ATOM     17  H41 UNL     1      -1.280   1.997  -1.434  1.00  0.00     0.279 HD
ENDBRANCH  13  14
BRANCH  13  18
HETATM   18  N5  UNL     1      -2.009  -0.460  -0.987  1.00  0.00    -0.028 N 
ATOM     19  H53 UNL     1      -1.259  -1.048  -1.351  1.00  0.00     0.279 HD
ATOM     20  H52 UNL     1      -2.575  -1.204  -0.578  1.00  0.00     0.279 HD
ATOM     21  H51 UNL     1      -2.499   0.056  -1.717  1.00  0.00     0.279 HD
ENDBRANCH  13  18
BRANCH  13  22
HETATM   22  N6  UNL     1      -2.665   1.191   0.622  1.00  0.00    -0.081 NA
BRANCH  22  23
HETATM   23  N7  UNL     1      -3.553   0.330   1.241  1.00  0.00    -0.344 N 
ATOM     24  H72 UNL     1      -3.430  -0.683   1.242  1.00  0.00     0.172 HD
ATOM     25  H71 UNL     1      -4.330   0.817   1.687  1.00  0.00     0.172 HD
ENDBRANCH  22  23
ENDBRANCH  13  22
ENDBRANCH  12  13
ENDBRANCH  11  12
ENDBRANCH   8  11
ENDBRANCH   3   7
TORSDOF 8
