REMARK  11 active torsions:
REMARK  status: ('A' for Active; 'I' for Inactive)
REMARK    1  A    between atoms: C2_2  and  O1_4 
REMARK    2  A    between atoms: O1_4  and  N2_5 
REMARK    3  A    between atoms: N2_5  and  C3_6 
REMARK    4  A    between atoms: C3_6  and  C4_7 
REMARK    5  A    between atoms: C3_6  and  C14_33 
REMARK       I    between atoms: C4_7  and  N3_9 
REMARK    6  A    between atoms: N4_16  and  O3_18 
REMARK    7  A    between atoms: C9_21  and  C10_22 
REMARK    8  A    between atoms: C10_22  and  O4_23 
REMARK    9  A    between atoms: C10_22  and  O5_25 
REMARK   10  A    between atoms: C11_27  and  C12_28 
REMARK   11  A    between atoms: C16_36  and  N8_37 
ROOT
HETATM    1  C4  UNL     1       1.828  -0.227   0.389  1.00  0.00     0.250 C 
HETATM    2  O2  UNL     1       2.393  -0.018   1.514  1.00  0.00    -0.271 OA
HETATM    3  N3  UNL     1       0.618  -0.827   0.363  1.00  0.00    -0.313 N 
ATOM      4  H3  UNL     1       0.720  -1.711  -0.135  1.00  0.00     0.170 HD
HETATM    5  C5  UNL     1      -0.571  -0.722   0.709  1.00  0.00     0.111 C 
HETATM    6  C6  UNL     1      -1.233   0.378   1.456  1.00  0.00     0.169 C 
HETATM    7  C7  UNL     1      -0.316   1.539   1.517  1.00  0.00     0.116 C 
HETATM    8  S1  UNL     1      -1.587   2.897   1.686  1.00  0.00    -0.089 SA
HETATM    9  C8  UNL     1      -2.735   2.023   0.571  1.00  0.00     0.168 C 
HETATM   10  N4  UNL     1      -3.522   2.660  -0.185  1.00  0.00    -0.230 N 
ATOM     11  H4  UNL     1      -4.134   2.103  -0.782  1.00  0.00     0.198 HD
HETATM   12  N5  UNL     1      -2.461   0.656   0.811  1.00  0.00    -0.310 N 
HETATM   13  C9  UNL     1      -3.320  -0.475   0.471  1.00  0.00     0.101 C 
HETATM   14  C11 UNL     1      -2.819  -1.684   0.253  1.00  0.00     0.129 C 
HETATM   15  N7  UNL     1      -1.411  -1.847   0.366  1.00  0.00    -0.333 N 
HETATM   16  C13 UNL     1      -0.766  -3.134   0.145  1.00  0.00     0.158 C 
ENDROOT
BRANCH   1  17
HETATM   17  C3  UNL     1       2.503   0.190  -0.877  1.00  0.00     0.249 C 
BRANCH  17  18
HETATM   18  N2  UNL     1       3.780   0.810  -0.662  1.00  0.00    -0.072 NA
BRANCH  18  19
HETATM   19  O1  UNL     1       3.723   1.931   0.086  1.00  0.00    -0.229 OA
BRANCH  19  20
HETATM   20  C2  UNL     1       4.769   2.472   0.795  1.00  0.00     0.166 C 
HETATM   21  C1  UNL     1       5.621   1.681   1.376  1.00  0.00     0.070 C 
HETATM   22  N1  UNL     1       4.930   3.879   0.899  1.00  0.00    -0.074 NA
ENDBRANCH  19  20
ENDBRANCH  18  19
ENDBRANCH  17  18
BRANCH  17  23
HETATM   23  C14 UNL     1       2.649  -0.987  -1.823  1.00  0.00     0.049 A 
HETATM   24  C15 UNL     1       1.747  -1.193  -2.831  1.00  0.00     0.080 A 
HETATM   25  S3  UNL     1       2.348  -2.604  -3.577  1.00  0.00    -0.064 SA
HETATM   26  C16 UNL     1       3.703  -2.856  -2.579  1.00  0.00     0.142 A 
HETATM   27  N9  UNL     1       3.637  -1.847  -1.715  1.00  0.00    -0.338 N 
ATOM     28  H9  UNL     1       4.339  -1.743  -0.983  1.00  0.00     0.168 HD
BRANCH  26  29
HETATM   29  N8  UNL     1       4.604  -3.813  -2.639  1.00  0.00    -0.380 N 
ATOM     30  H82 UNL     1       4.655  -4.587  -3.302  1.00  0.00     0.158 HD
ATOM     31  H81 UNL     1       5.416  -3.964  -2.041  1.00  0.00     0.158 HD
ENDBRANCH  26  29
ENDBRANCH  17  23
ENDBRANCH   1  17
BRANCH  14  32
HETATM   32  C12 UNL     1      -3.609  -2.864  -0.098  1.00  0.00     0.283 C 
HETATM   33  N6  UNL     1      -4.996  -2.879  -0.279  1.00  0.00    -0.056 NA
HETATM   34  O6  UNL     1      -3.024  -3.993  -0.263  1.00  0.00    -0.269 OA
ENDBRANCH  14  32
BRANCH  13  35
HETATM   35  C10 UNL     1      -4.779  -0.183   0.391  1.00  0.00     0.308 C 
BRANCH  35  36
HETATM   36  O4  UNL     1      -5.122   0.781   1.418  1.00  0.00    -0.366 OA
ATOM     37  H4  UNL     1      -6.052   0.967   1.367  1.00  0.00     0.213 HD
ENDBRANCH  35  36
BRANCH  35  38
HETATM   38  O5  UNL     1      -5.211   0.261  -0.827  1.00  0.00    -0.366 OA
ATOM     39  H5  UNL     1      -6.141   0.447  -0.878  1.00  0.00     0.213 HD
ENDBRANCH  35  38
ENDBRANCH  13  35
BRANCH  10  40
HETATM   40  O3  UNL     1      -3.637   4.003  -0.285  1.00  0.00    -0.188 OA
HETATM   41  S2  UNL     1      -3.162   5.103   0.972  1.00  0.00     0.125 SA
ENDBRANCH  10  40
TORSDOF 11
