REMARK  3 active torsions:
REMARK  status: ('A' for Active; 'I' for Inactive)
REMARK    1  A    between atoms: N1_1  and  C1_5 
REMARK    2  A    between atoms: C1_5  and  C2_6 
REMARK    3  A    between atoms: C2_6  and  C3_7 
ROOT
HETATM    1  C3  UNL     1       0.133  -0.420   0.566  1.00  0.00     0.225 C 
HETATM    2  C4  UNL     1      -0.053   0.544  -0.581  1.00  0.00     0.042 C 
HETATM    3  C5  UNL     1      -1.340   1.237  -0.147  1.00  0.00     0.018 C 
HETATM    4  C6  UNL     1      -2.506   0.311  -0.046  1.00  0.00     0.036 C 
HETATM    5  C7  UNL     1      -2.107  -0.620   1.072  1.00  0.00     0.273 C 
HETATM    6  N2  UNL     1      -0.836  -0.076   1.596  1.00  0.00     0.093 N 
HETATM    7  C8  UNL     1      -1.002   1.353   1.355  1.00  0.00     0.277 C 
ENDROOT
BRANCH   1   8
HETATM    8  C2  UNL     1       1.527  -0.547   1.061  1.00  0.00     0.063 C 
BRANCH   8   9
HETATM    9  C1  UNL     1       2.453  -1.058  -0.002  1.00  0.00     0.231 C 
BRANCH   9  10
HETATM   10  N1  UNL     1       2.557  -0.241  -1.177  1.00  0.00    -0.079 N 
ATOM     11  H13 UNL     1       1.631  -0.077  -1.571  1.00  0.00     0.274 HD
ATOM     12  H12 UNL     1       2.815   0.711  -0.918  1.00  0.00     0.274 HD
ATOM     13  H11 UNL     1       3.187  -0.589  -1.900  1.00  0.00     0.274 HD
ENDBRANCH   9  10
ENDBRANCH   8   9
ENDBRANCH   1   8
TORSDOF 3
