REMARK  4 active torsions:
REMARK  status: ('A' for Active; 'I' for Inactive)
REMARK    1  A    between atoms: C5_5  and  C6_6 
REMARK    2  A    between atoms: C7_9  and  C8_10 
REMARK    3  A    between atoms: C9_12  and  N2_13 
REMARK       I    between atoms: N2_13  and  C10_15 
REMARK       I    between atoms: C10_15  and  N3_17 
REMARK    4  A    between atoms: N3_17  and  N4_19 
ROOT
HETATM    1  C6  UNL     1      -0.610  -0.294  -0.022  1.00  0.00     0.057 A 
HETATM    2  N1  UNL     1      -0.138  -1.272   0.693  1.00  0.00    -0.349 N 
ATOM      3  H1  UNL     1      -0.761  -2.027   0.980  1.00  0.00     0.166 HD
HETATM    4  C7  UNL     1       1.119  -1.307   1.051  1.00  0.00     0.105 A 
HETATM    5  C9  UNL     1       1.912  -0.273   0.640  1.00  0.00     0.110 A 
HETATM    6  S1  UNL     1       0.772   0.687  -0.243  1.00  0.00    -0.056 SA
ENDROOT
BRANCH   5   7
HETATM    7  N2  UNL     1       3.304   0.003   0.847  1.00  0.00    -0.299 N 
HETATM    8  C10 UNL     1       3.795   1.227   0.241  1.00  0.00     0.340 C 
HETATM    9  O2  UNL     1       3.029   1.965  -0.408  1.00  0.00    -0.245 OA
HETATM   10  N3  UNL     1       5.162   1.550   0.413  1.00  0.00    -0.243 N 
ATOM     11  H3  UNL     1       5.730   0.901   0.957  1.00  0.00     0.192 HD
ATOM     12  H2  UNL     1       3.908  -0.619   1.384  1.00  0.00     0.171 HD
BRANCH  10  13
HETATM   13  N4  UNL     1       5.798   2.682  -0.099  1.00  0.00    -0.241 N 
HETATM   14  C11 UNL     1       5.290   3.682  -0.837  1.00  0.00     0.224 A 
HETATM   15  N5  UNL     1       6.273   4.571  -1.109  1.00  0.00    -0.293 N 
HETATM   16  N6  UNL     1       7.362   4.138  -0.557  1.00  0.00    -0.293 N 
ATOM     17  H5  UNL     1       6.174   5.429  -1.652  1.00  0.00     0.187 HD
HETATM   18  C12 UNL     1       7.111   2.989   0.068  1.00  0.00     0.224 A 
ATOM     19  H6  UNL     1       8.269   4.604  -0.595  1.00  0.00     0.187 HD
ENDBRANCH  10  13
ENDBRANCH   5   7
BRANCH   4  20
HETATM   20  C8  UNL     1       1.642  -2.434   1.869  1.00  0.00     0.290 C 
HETATM   21  O1  UNL     1       2.830  -2.472   2.209  1.00  0.00    -0.300 OA
ENDBRANCH   4  20
BRANCH   1  22
HETATM   22  C5  UNL     1      -2.015  -0.058  -0.540  1.00  0.00     0.043 C 
HETATM   23  C4  UNL     1      -2.321  -1.130  -1.541  1.00  0.00     0.011 C 
HETATM   24  C3  UNL     1      -3.817  -1.002  -1.830  1.00  0.00     0.005 C 
HETATM   25  C2  UNL     1      -4.483  -1.597  -0.599  1.00  0.00    -0.019 C 
HETATM   26  C1  UNL     1      -5.987  -1.624  -0.784  1.00  0.00     0.010 C 
HETATM   27  C14 UNL     1      -4.052  -0.935   0.664  1.00  0.00     0.005 C 
HETATM   28  C13 UNL     1      -2.997   0.088   0.551  1.00  0.00     0.011 C 
ENDBRANCH   1  22
TORSDOF 4
