REMARK  5 active torsions:
REMARK  status: ('A' for Active; 'I' for Inactive)
REMARK    1  A    between atoms: C1_4  and  S1_6 
REMARK    2  A    between atoms: S1_6  and  C2_7 
REMARK    3  A    between atoms: C2_7  and  C3_8 
REMARK    4  A    between atoms: C3_8  and  C4_10 
REMARK    5  A    between atoms: C8_21  and  C9_22 
ROOT
HETATM    1  C4  UNL     1       0.878  -0.438  -0.737  1.00  0.00     0.085 C 
HETATM    2  N3  UNL     1       1.010  -1.143  -1.790  1.00  0.00    -0.286 N 
ATOM      3  H3  UNL     1       1.781  -0.837  -2.384  1.00  0.00     0.188 HD
HETATM    4  N4  UNL     1       0.328  -2.239  -2.302  1.00  0.00    -0.247 N 
ATOM      5  H4  UNL     1       0.180  -2.144  -3.307  1.00  0.00     0.208 HD
HETATM    6  N5  UNL     1      -0.162  -3.325  -1.869  1.00  0.00    -0.322 N 
ATOM      7  H5  UNL     1      -0.613  -3.915  -2.568  1.00  0.00     0.181 HD
HETATM    8  C5  UNL     1      -0.168  -3.848  -0.497  1.00  0.00     0.148 C 
HETATM    9  C6  UNL     1      -1.176  -2.998   0.234  1.00  0.00     0.100 C 
HETATM   10  C7  UNL     1      -0.590  -1.757   0.788  1.00  0.00     0.139 C 
HETATM   11  O2  UNL     1      -0.557  -1.886   2.025  1.00  0.00    -0.297 OA
HETATM   12  C8  UNL     1      -0.046  -0.455   0.412  1.00  0.00     0.114 C 
ENDROOT
BRANCH   1  13
HETATM   13  C3  UNL     1       1.867   0.631  -0.647  1.00  0.00     0.183 C 
HETATM   14  O1  UNL     1       1.836   1.388   0.350  1.00  0.00    -0.290 OA
BRANCH  13  15
HETATM   15  C2  UNL     1       2.873   0.788  -1.735  1.00  0.00     0.167 C 
BRANCH  15  16
HETATM   16  S1  UNL     1       3.938   2.185  -1.309  1.00  0.00    -0.090 SA
BRANCH  16  17
HETATM   17  C1  UNL     1       4.911   1.833   0.141  1.00  0.00     0.148 C 
HETATM   18  N1  UNL     1       5.718   2.723   0.576  1.00  0.00    -0.382 N 
ATOM     19  H12 UNL     1       6.275   2.521   1.406  1.00  0.00     0.157 HD
ATOM     20  H11 UNL     1       5.799   3.620   0.097  1.00  0.00     0.157 HD
HETATM   21  N2  UNL     1       4.798   0.586   0.807  1.00  0.00    -0.075 NA
ENDBRANCH  16  17
ENDBRANCH  15  16
ENDBRANCH  13  15
ENDBRANCH   1  13
BRANCH  12  22
HETATM   22  C9  UNL     1      -1.097   0.625   0.281  1.00  0.00     0.003 C 
HETATM   23  C10 UNL     1      -1.970   0.532  -0.916  1.00  0.00     0.006 C 
HETATM   24  C11 UNL     1      -3.438   0.746  -0.604  1.00  0.00     0.000 C 
HETATM   25  C12 UNL     1      -3.712   1.810   0.398  1.00  0.00     0.000 C 
HETATM   26  C13 UNL     1      -2.710   1.963   1.491  1.00  0.00     0.000 C 
HETATM   27  C14 UNL     1      -1.923   0.670   1.579  1.00  0.00     0.006 C 
ENDBRANCH  12  22
TORSDOF 5
