REMARK  17 active torsions:
REMARK  status: ('A' for Active; 'I' for Inactive)
REMARK    1  A    between atoms: C2_2  and  C3_3 
REMARK    2  A    between atoms: C3_3  and  C4_4 
REMARK    3  A    between atoms: C4_4  and  C5_5 
REMARK    4  A    between atoms: C5_5  and  N1_6 
REMARK    5  A    between atoms: N1_6  and  C6_8 
REMARK    6  A    between atoms: C6_8  and  O1_10 
REMARK    7  A    between atoms: O1_10  and  C7_11 
REMARK    8  A    between atoms: C8_12  and  O2_13 
REMARK    9  A    between atoms: O2_13  and  C9_14 
REMARK   10  A    between atoms: C10_16  and  C11_17 
REMARK   11  A    between atoms: C11_17  and  O4_18 
REMARK   12  A    between atoms: C12_20  and  O5_21 
REMARK   13  A    between atoms: C13_23  and  O6_24 
REMARK   14  A    between atoms: C14_26  and  O7_27 
REMARK   15  A    between atoms: C18_33  and  N2_34 
REMARK   16  A    between atoms: N2_34  and  N3_36 
REMARK   17  A    between atoms: N3_36  and  N4_37 
ROOT
HETATM    1  C7  UNL     1       0.136   0.238   0.039  1.00  0.00     0.214 C 
HETATM    2  C8  UNL     1      -1.107  -0.058   0.806  1.00  0.00     0.295 C 
HETATM    3  O8  UNL     1      -0.767   0.302   2.108  1.00  0.00    -0.346 OA
HETATM    4  C15 UNL     1      -0.083   1.523   1.987  1.00  0.00     0.082 C 
HETATM    5  C16 UNL     1      -1.021   2.674   1.809  1.00  0.00     0.048 C 
HETATM    6  C17 UNL     1       0.799   1.690   3.214  1.00  0.00     0.048 C 
HETATM    7  C18 UNL     1       0.775   1.400   0.762  1.00  0.00     0.182 C 
ENDROOT
BRANCH   2   8
HETATM    8  O2  UNL     1      -2.136   0.750   0.329  1.00  0.00    -0.326 OA
BRANCH   8   9
HETATM    9  C9  UNL     1      -3.237   0.029  -0.100  1.00  0.00     0.294 C 
HETATM   10  O3  UNL     1      -4.368   0.257   0.673  1.00  0.00    -0.348 OA
HETATM   11  C10 UNL     1      -5.176  -0.881   0.603  1.00  0.00     0.179 C 
HETATM   12  C12 UNL     1      -5.334  -1.339  -0.828  1.00  0.00     0.180 C 
HETATM   13  C13 UNL     1      -4.977  -0.233  -1.801  1.00  0.00     0.183 C 
HETATM   14  C14 UNL     1      -3.566   0.216  -1.534  1.00  0.00     0.204 C 
BRANCH  11  15
HETATM   15  C11 UNL     1      -6.528  -0.656   1.204  1.00  0.00     0.198 C 
BRANCH  15  16
HETATM   16  O4  UNL     1      -7.349  -1.771   1.172  1.00  0.00    -0.398 OA
ATOM     17  H4  UNL     1      -8.207  -1.628   1.554  1.00  0.00     0.209 HD
ENDBRANCH  15  16
ENDBRANCH  11  15
BRANCH  12  18
HETATM   18  O5  UNL     1      -6.673  -1.625  -1.053  1.00  0.00    -0.390 OA
ATOM     19  H5  UNL     1      -6.772  -1.913  -1.953  1.00  0.00     0.210 HD
ENDBRANCH  12  18
BRANCH  13  20
HETATM   20  O6  UNL     1      -5.062  -0.788  -3.080  1.00  0.00    -0.390 OA
ATOM     21  H6  UNL     1      -4.838  -0.095  -3.690  1.00  0.00     0.210 HD
ENDBRANCH  13  20
BRANCH  14  22
HETATM   22  O7  UNL     1      -2.652  -0.393  -2.396  1.00  0.00    -0.388 OA
ATOM     23  H7  UNL     1      -2.863  -0.273  -3.315  1.00  0.00     0.210 HD
ENDBRANCH  14  22
ENDBRANCH   8   9
ENDBRANCH   2   8
BRANCH   1  24
HETATM   24  O1  UNL     1       0.997  -0.828  -0.165  1.00  0.00    -0.314 OA
BRANCH  24  25
HETATM   25  C6  UNL     1       1.640  -1.605   0.760  1.00  0.00     0.210 C 
HETATM   26  S1  UNL     1       0.736  -2.481   1.795  1.00  0.00    -0.033 SA
BRANCH  25  27
HETATM   27  N1  UNL     1       3.051  -1.688   0.864  1.00  0.00    -0.361 N 
ATOM     28  H1  UNL     1       3.457  -2.290   1.580  1.00  0.00     0.162 HD
BRANCH  27  29
HETATM   29  C5  UNL     1       3.940  -0.946  -0.013  1.00  0.00     0.122 C 
BRANCH  29  30
HETATM   30  C4  UNL     1       5.379  -1.189   0.281  1.00  0.00     0.020 C 
BRANCH  30  31
HETATM   31  C3  UNL     1       6.195  -0.358  -0.702  1.00  0.00     0.001 C 
BRANCH  31  32
HETATM   32  C2  UNL     1       7.680  -0.546  -0.472  1.00  0.00    -0.004 C 
HETATM   33  C1  UNL     1       8.396   0.315  -1.493  1.00  0.00     0.005 C 
ENDBRANCH  31  32
ENDBRANCH  30  31
ENDBRANCH  29  30
ENDBRANCH  27  29
ENDBRANCH  25  27
ENDBRANCH  24  25
ENDBRANCH   1  24
BRANCH   7  34
HETATM   34  N2  UNL     1       0.841   2.578  -0.048  1.00  0.00    -0.242 N 
ATOM     35  H2  UNL     1       1.041   3.458   0.428  1.00  0.00     0.197 HD
BRANCH  34  36
HETATM   36  N3  UNL     1       0.680   2.625  -1.257  1.00  0.00    -0.248 NA
BRANCH  36  37
HETATM   37  N4  UNL     1       0.187   2.798  -2.368  1.00  0.00    -0.261 N 
ATOM     38  H42 UNL     1      -0.707   3.138  -2.015  1.00  0.00     0.193 HD
ATOM     39  H41 UNL     1       0.052   2.837  -3.378  1.00  0.00     0.193 HD
ENDBRANCH  36  37
ENDBRANCH  34  36
ENDBRANCH   7  34
TORSDOF 17
