REMARK  18 active torsions:
REMARK  status: ('A' for Active; 'I' for Inactive)
REMARK    1  A    between atoms: C2_3  and  O1_4 
REMARK    2  A    between atoms: C2_3  and  C3_6 
REMARK    3  A    between atoms: C3_6  and  N2_7 
REMARK    4  A    between atoms: C3_6  and  C20_46 
REMARK    5  A    between atoms: N2_7  and  C4_9 
REMARK    6  A    between atoms: C4_9  and  C5_10 
REMARK    7  A    between atoms: C4_9  and  C15_30 
REMARK    8  A    between atoms: C5_10  and  O3_12 
REMARK    9  A    between atoms: O3_12  and  C6_13 
REMARK   10  A    between atoms: C7_14  and  C8_15 
REMARK   11  A    between atoms: C11_22  and  N4_23 
REMARK       I    between atoms: N4_23  and  C12_25 
REMARK   12  A    between atoms: C15_30  and  C16_31 
REMARK   13  A    between atoms: C15_30  and  N6_36 
REMARK   14  A    between atoms: C16_31  and  N5_32 
REMARK   15  A    between atoms: C18_38  and  C19_39 
REMARK   16  A    between atoms: C19_39  and  O8_40 
REMARK   17  A    between atoms: C20_46  and  O9_48 
REMARK   18  A    between atoms: C20_46  and  C22_50 
ROOT
HETATM    1  C1  UNL     1       1.203   4.520  -2.365  1.00  0.00     0.262 C 
HETATM    2  N1  UNL     1       0.752   3.235  -2.167  1.00  0.00    -0.429 NA
HETATM    3  C2  UNL     1       0.330   1.965  -1.970  1.00  0.00     0.234 C 
ENDROOT
BRANCH   3   4
HETATM    4  O1  UNL     1       1.378   1.118  -1.670  1.00  0.00    -0.334 OA
ATOM      5  H1  UNL     1       1.082   0.226  -1.532  1.00  0.00     0.220 HD
ENDBRANCH   3   4
BRANCH   3   6
HETATM    6  C3  UNL     1      -0.889   1.266  -1.975  1.00  0.00     0.112 C 
BRANCH   6   7
HETATM    7  N2  UNL     1      -0.919   0.022  -1.648  1.00  0.00    -0.371 N 
ATOM      8  H2  UNL     1      -1.871  -0.339  -1.708  1.00  0.00     0.160 HD
BRANCH   7   9
HETATM    9  C4  UNL     1      -0.041  -0.983  -1.236  1.00  0.00     0.209 C 
BRANCH   9  10
HETATM   10  C5  UNL     1      -0.093  -1.118   0.274  1.00  0.00     0.289 C 
HETATM   11  O2  UNL     1      -0.988  -1.683   0.889  1.00  0.00    -0.262 OA
BRANCH  10  12
HETATM   12  O3  UNL     1       0.964  -0.548   1.016  1.00  0.00    -0.271 OA
BRANCH  12  13
HETATM   13  C6  UNL     1       1.138  -0.541   2.350  1.00  0.00     0.160 C 
HETATM   14  C7  UNL     1       0.594   0.295   3.192  1.00  0.00     0.147 C 
HETATM   15  N3  UNL     1       0.841   0.254   4.626  1.00  0.00    -0.348 N 
HETATM   16  C9  UNL     1       0.789   1.078   5.842  1.00  0.00     0.201 C 
HETATM   17  C10 UNL     1       1.288  -0.988   5.179  1.00  0.00     0.179 C 
HETATM   18  S1  UNL     1       1.829  -0.134   6.700  1.00  0.00    -0.121 SA
HETATM   19  C11 UNL     1       2.505  -1.395   4.308  1.00  0.00     0.194 C 
HETATM   20  C14 UNL     1       2.051  -1.582   2.954  1.00  0.00     0.211 C 
HETATM   21  O7  UNL     1       2.363  -2.559   2.219  1.00  0.00    -0.288 OA
BRANCH  14  22
HETATM   22  C8  UNL     1      -0.289   1.366   2.741  1.00  0.00     0.229 C 
HETATM   23  O4  UNL     1      -0.907   2.112   3.545  1.00  0.00    -0.643 OA
HETATM   24  O5  UNL     1      -0.484   1.632   1.420  1.00  0.00    -0.643 OA
ENDBRANCH  14  22
BRANCH  19  25
HETATM   25  N4  UNL     1       3.239  -2.399   5.006  1.00  0.00    -0.347 N 
HETATM   26  C12 UNL     1       4.436  -1.936   5.660  1.00  0.00     0.214 C 
HETATM   27  C13 UNL     1       5.253  -2.936   6.456  1.00  0.00     0.117 C 
HETATM   28  O6  UNL     1       4.832  -0.809   5.621  1.00  0.00    -0.274 OA
ATOM     29  H4  UNL     1       2.938  -3.373   5.040  1.00  0.00     0.163 HD
ENDBRANCH  19  25
ENDBRANCH  12  13
ENDBRANCH  10  12
ENDBRANCH   9  10
BRANCH   9  30
HETATM   30  C15 UNL     1      -0.493  -2.271  -1.941  1.00  0.00     0.166 C 
BRANCH  30  31
HETATM   31  C16 UNL     1       0.349  -3.454  -1.672  1.00  0.00     0.259 C 
BRANCH  31  32
HETATM   32  N5  UNL     1       0.375  -3.917  -0.333  1.00  0.00    -0.077 N 
ATOM     33  H53 UNL     1       0.644  -3.155   0.289  1.00  0.00     0.274 HD
ATOM     34  H52 UNL     1      -0.577  -4.092  -0.011  1.00  0.00     0.274 HD
ATOM     35  H51 UNL     1       0.957  -4.734  -0.147  1.00  0.00     0.274 HD
ENDBRANCH  31  32
ENDBRANCH  30  31
BRANCH  30  36
HETATM   36  N6  UNL     1      -0.608  -2.007  -3.386  1.00  0.00    -0.278 N 
HETATM   37  C17 UNL     1      -1.530  -2.610  -4.162  1.00  0.00     0.141 A 
HETATM   38  C18 UNL     1      -1.390  -2.150  -5.488  1.00  0.00     0.067 A 
HETATM   39  N7  UNL     1      -0.366  -1.278  -5.428  1.00  0.00    -0.287 N 
HETATM   40  N8  UNL     1       0.077  -1.215  -4.159  1.00  0.00    -0.240 N 
ATOM     41  H7  UNL     1       0.012  -0.751  -6.215  1.00  0.00     0.188 HD
ATOM     42  H8  UNL     1       0.847  -0.625  -3.845  1.00  0.00     0.208 HD
BRANCH  38  43
HETATM   43  C19 UNL     1      -2.234  -2.595  -6.631  1.00  0.00     0.224 C 
BRANCH  43  44
HETATM   44  O8  UNL     1      -1.908  -3.888  -6.974  1.00  0.00    -0.395 OA
ATOM     45  H8  UNL     1      -2.447  -4.172  -7.703  1.00  0.00     0.209 HD
ENDBRANCH  43  44
ENDBRANCH  38  43
ENDBRANCH  30  36
ENDBRANCH   9  30
ENDBRANCH   7   9
ENDBRANCH   6   7
BRANCH   6  46
HETATM   46  C20 UNL     1      -2.203   1.845  -2.290  1.00  0.00     0.151 C 
HETATM   47  C21 UNL     1      -2.238   2.516  -3.657  1.00  0.00     0.061 C 
BRANCH  46  48
HETATM   48  O9  UNL     1      -3.135   0.775  -2.344  1.00  0.00    -0.377 OA
ATOM     49  H9  UNL     1      -3.984   1.149  -2.548  1.00  0.00     0.211 HD
ENDBRANCH  46  48
BRANCH  46  50
HETATM   50  C22 UNL     1      -2.755   2.829  -1.323  1.00  0.00     0.110 A 
HETATM   51  N9  UNL     1      -4.004   2.793  -0.837  1.00  0.00    -0.293 N 
HETATM   52  N10 UNL     1      -4.425   3.675  -0.054  1.00  0.00    -0.281 N 
ATOM     53  H9  UNL     1      -4.624   2.031  -1.111  1.00  0.00     0.187 HD
HETATM   54  C23 UNL     1      -3.613   4.675   0.311  1.00  0.00     0.174 A 
ATOM     55  H10 UNL     1      -5.379   3.632   0.303  1.00  0.00     0.188 HD
HETATM   56  N11 UNL     1      -3.902   5.782   1.178  1.00  0.00    -0.073 NA
HETATM   57  S2  UNL     1      -2.191   4.244  -0.568  1.00  0.00    -0.038 SA
ENDBRANCH  46  50
ENDBRANCH   6  46
ENDBRANCH   3   6
TORSDOF 18
