REMARK  15 active torsions:
REMARK  status: ('A' for Active; 'I' for Inactive)
REMARK    1  A    between atoms: N1_4  and  C4_5 
REMARK    2  A    between atoms: C4_5  and  C5_6 
REMARK    3  A    between atoms: C8_11  and  N3_12 
REMARK       I    between atoms: N3_12  and  C9_14 
REMARK    4  A    between atoms: C9_14  and  C10_16 
REMARK    5  A    between atoms: N4_18  and  O2_19 
REMARK    6  A    between atoms: O2_19  and  C12_20 
REMARK    7  A    between atoms: C12_20  and  C13_22 
REMARK    8  A    between atoms: C13_22  and  N5_23 
REMARK    9  A    between atoms: C13_22  and  C14_27 
REMARK   10  A    between atoms: C14_27  and  C15_28 
REMARK   11  A    between atoms: C15_28  and  C16_29 
REMARK   12  A    between atoms: C21_39  and  C22_40 
REMARK   13  A    between atoms: N10_47  and  C23_48 
REMARK   14  A    between atoms: C24_53  and  N13_54 
REMARK   15  A    between atoms: N15_59  and  N16_60 
ROOT
HETATM    1  C5  UNL     1      -2.805  -1.533  -1.011  1.00  0.00    -0.024 C 
HETATM    2  C6  UNL     1      -1.954  -0.583  -1.071  1.00  0.00    -0.017 C 
HETATM    3  C7  UNL     1      -1.854   0.873  -1.205  1.00  0.00     0.093 C 
HETATM    4  N2  UNL     1      -0.774   1.297  -0.609  1.00  0.00    -0.376 N 
ATOM      5  H2  UNL     1      -0.470   2.269  -0.559  1.00  0.00     0.161 HD
HETATM    6  C8  UNL     1      -0.061   0.145  -0.018  1.00  0.00     0.202 C 
HETATM    7  C19 UNL     1      -0.516  -0.948  -0.908  1.00  0.00     0.124 C 
HETATM    8  S1  UNL     1      -0.656  -2.545  -0.061  1.00  0.00    -0.151 SA
HETATM    9  C20 UNL     1      -2.209  -2.919  -0.910  1.00  0.00     0.115 C 
ENDROOT
BRANCH   1  10
HETATM   10  C4  UNL     1      -4.299  -1.487  -1.064  1.00  0.00     0.106 C 
BRANCH  10  11
HETATM   11  N1  UNL     1      -4.900  -0.219  -1.201  1.00  0.00    -0.312 N 
HETATM   12  C3  UNL     1      -5.274   0.383  -2.334  1.00  0.00     0.124 A 
HETATM   13  C2  UNL     1      -5.855   1.603  -2.013  1.00  0.00     0.048 A 
HETATM   14  C1  UNL     1      -6.425   2.620  -2.936  1.00  0.00     0.072 C 
HETATM   15  N15 UNL     1      -5.821   1.709  -0.693  1.00  0.00    -0.246 N 
HETATM   16  C21 UNL     1      -5.234   0.592  -0.182  1.00  0.00     0.181 A 
BRANCH  15  17
HETATM   17  N16 UNL     1      -6.297   2.781   0.069  1.00  0.00    -0.337 N 
ATOM     18 2H16 UNL     1      -6.737   3.618  -0.314  1.00  0.00     0.177 HD
ATOM     19 1H16 UNL     1      -6.271   2.863   1.085  1.00  0.00     0.177 HD
ENDBRANCH  15  17
BRANCH  16  20
HETATM   20  C22 UNL     1      -5.041   0.386   1.261  1.00  0.00     0.209 A 
HETATM   21  N7  UNL     1      -3.886   0.640   1.952  1.00  0.00    -0.265 N 
HETATM   22  N8  UNL     1      -4.077   0.333   3.230  1.00  0.00    -0.226 N 
ATOM     23  H7  UNL     1      -3.022   1.005   1.551  1.00  0.00     0.190 HD
HETATM   24  N9  UNL     1      -5.297  -0.107   3.403  1.00  0.00    -0.205 N 
ATOM     25  H8  UNL     1      -3.377   0.426   3.966  1.00  0.00     0.210 HD
HETATM   26  N10 UNL     1      -5.882  -0.074   2.193  1.00  0.00    -0.047 N 
ATOM     27  H9  UNL     1      -5.719  -0.413   4.279  1.00  0.00     0.211 HD
BRANCH  26  28
HETATM   28  C23 UNL     1      -7.231  -0.476   1.935  1.00  0.00     0.736 A 
HETATM   29  N11 UNL     1      -8.321  -0.169   2.682  1.00  0.00    -0.115 N 
HETATM   30  N12 UNL     1      -9.404  -0.706   2.136  1.00  0.00    -0.117 N 
ATOM     31  H11 UNL     1      -8.309   0.390   3.535  1.00  0.00     0.206 HD
HETATM   32  C24 UNL     1      -9.041  -1.371   1.032  1.00  0.00     0.705 A 
ATOM     33  H12 UNL     1     -10.355  -0.626   2.497  1.00  0.00     0.206 HD
HETATM   34  N14 UNL     1      -7.690  -1.216   0.926  1.00  0.00    -0.018 N 
ATOM     35  H14 UNL     1      -7.114  -1.610   0.182  1.00  0.00     0.203 HD
BRANCH  32  36
HETATM   36  N13 UNL     1      -9.784  -2.031   0.189  1.00  0.00    -0.233 N 
ATOM     37 2H13 UNL     1     -10.794  -2.147   0.268  1.00  0.00     0.174 HD
ATOM     38 1H13 UNL     1      -9.507  -2.538  -0.652  1.00  0.00     0.174 HD
ENDBRANCH  32  36
ENDBRANCH  26  28
ENDBRANCH  16  20
ENDBRANCH  10  11
ENDBRANCH   1  10
BRANCH   6  39
HETATM   39  N3  UNL     1       1.357   0.330   0.011  1.00  0.00    -0.333 N 
HETATM   40  C9  UNL     1       2.042   0.873   1.140  1.00  0.00     0.271 C 
HETATM   41  O1  UNL     1       1.393   1.228   2.145  1.00  0.00    -0.266 OA
ATOM     42  H3  UNL     1       1.902   0.063  -0.809  1.00  0.00     0.165 HD
BRANCH  40  43
HETATM   43  C10 UNL     1       3.488   1.020   1.137  1.00  0.00     0.124 A 
HETATM   44  C11 UNL     1       4.342   0.262   0.346  1.00  0.00     0.164 A 
HETATM   45  N4  UNL     1       5.578   0.631   0.577  1.00  0.00    -0.170 N 
HETATM   46  C17 UNL     1       5.533   1.624   1.510  1.00  0.00     0.353 A 
HETATM   47  O6  UNL     1       6.554   2.233   1.988  1.00  0.00    -0.244 OA
HETATM   48  N6  UNL     1       4.258   1.854   1.843  1.00  0.00    -0.296 N 
HETATM   49  C18 UNL     1       3.797   2.882   2.795  1.00  0.00     0.161 C 
BRANCH  45  50
HETATM   50  O2  UNL     1       6.784   0.167   0.090  1.00  0.00    -0.186 OA
BRANCH  50  51
HETATM   51  C12 UNL     1       6.983  -1.087  -0.454  1.00  0.00     0.312 C 
HETATM   52  O3  UNL     1       5.991  -1.873  -0.538  1.00  0.00    -0.261 OA
BRANCH  51  53
HETATM   53  C13 UNL     1       8.301  -1.558  -0.952  1.00  0.00     0.284 C 
BRANCH  53  54
HETATM   54  N5  UNL     1       8.017  -2.813  -1.708  1.00  0.00    -0.066 N 
ATOM     55  H53 UNL     1       7.510  -3.512  -1.166  1.00  0.00     0.275 HD
ATOM     56  H52 UNL     1       7.318  -2.700  -2.442  1.00  0.00     0.275 HD
ATOM     57  H51 UNL     1       8.922  -3.136  -2.050  1.00  0.00     0.275 HD
ENDBRANCH  53  54
BRANCH  53  58
HETATM   58  C14 UNL     1       9.262  -1.946   0.133  1.00  0.00     0.054 C 
BRANCH  58  59
HETATM   59  C15 UNL     1       9.531  -0.797   1.054  1.00  0.00     0.115 C 
BRANCH  59  60
HETATM   60  C16 UNL     1      10.129   0.386   0.398  1.00  0.00     0.172 C 
HETATM   61  O4  UNL     1      10.551   0.427  -0.780  1.00  0.00    -0.648 OA
HETATM   62  O5  UNL     1      10.246   1.586   1.115  1.00  0.00    -0.648 OA
ENDBRANCH  59  60
ENDBRANCH  58  59
ENDBRANCH  53  58
ENDBRANCH  51  53
ENDBRANCH  50  51
ENDBRANCH  45  50
ENDBRANCH  40  43
ENDBRANCH   6  39
TORSDOF 15
