REMARK  2 active torsions:
REMARK  status: ('A' for Active; 'I' for Inactive)
REMARK    1  A    between atoms: C4_5  and  N2_6 
REMARK    2  A    between atoms: C5_10  and  N3_11 
ROOT
HETATM    1  C1  UNL     1      -2.299   0.303  -0.031  1.00  0.00     0.312 C 
HETATM    2  N1  UNL     1      -1.036  -0.155   0.463  1.00  0.00     0.117 N 
HETATM    3  C2  UNL     1      -0.583  -1.388  -0.081  1.00  0.00     0.277 C 
HETATM    4  C3  UNL     1       0.788  -1.187  -0.653  1.00  0.00     0.067 C 
HETATM    5  C4  UNL     1       0.975   0.297  -0.628  1.00  0.00     0.245 C 
HETATM    6  C5  UNL     1       0.016   0.807   0.406  1.00  0.00     0.446 C 
ENDROOT
BRANCH   5   7
HETATM    7  N2  UNL     1       2.340   0.699  -0.394  1.00  0.00    -0.071 N 
ATOM      8  H23 UNL     1       2.700   0.275   0.461  1.00  0.00     0.274 HD
ATOM      9  H22 UNL     1       2.966   0.267  -1.074  1.00  0.00     0.274 HD
ATOM     10  H21 UNL     1       2.468   1.711  -0.377  1.00  0.00     0.274 HD
ENDBRANCH   5   7
BRANCH   6  11
HETATM   11  N3  UNL     1       0.642   0.856   1.728  1.00  0.00    -0.045 N 
ATOM     12  H33 UNL     1      -0.025   1.041   2.477  1.00  0.00     0.277 HD
ATOM     13  H32 UNL     1       0.957  -0.058   2.052  1.00  0.00     0.277 HD
ATOM     14  H31 UNL     1       1.394   1.544   1.687  1.00  0.00     0.277 HD
ENDBRANCH   6  11
TORSDOF 2
