REMARK  2 active torsions:
REMARK  status: ('A' for Active; 'I' for Inactive)
REMARK    1  A    between atoms: C15_16  and  O2_17 
REMARK    2  A    between atoms: C16_19  and  O3_20 
ROOT
HETATM    1  C1  UNL     1       4.428   1.703   0.152  1.00  0.00     0.046 C 
HETATM    2  C2  UNL     1       3.489   0.843   0.435  1.00  0.00     0.041 C 
HETATM    3  C3  UNL     1       2.538   1.097   1.556  1.00  0.00     0.064 C 
HETATM    4  C4  UNL     1       1.167   0.718   1.114  1.00  0.00     0.019 C 
HETATM    5  C5  UNL     1       1.059   0.349  -0.335  1.00  0.00     0.086 C 
HETATM    6  C6  UNL     1      -0.404   0.057  -0.653  1.00  0.00     0.071 C 
HETATM    7  C7  UNL     1      -0.588   0.526  -2.108  1.00  0.00     0.047 C 
HETATM    8  O1  UNL     1      -1.098   0.945   0.119  1.00  0.00    -0.369 OA
HETATM    9  C8  UNL     1      -2.399   0.779   0.340  1.00  0.00     0.055 C 
HETATM   10  C9  UNL     1      -3.177   1.968  -0.227  1.00  0.00     0.045 C 
HETATM   11  C10 UNL     1      -2.627   0.848   1.860  1.00  0.00     0.045 C 
HETATM   12  C11 UNL     1      -3.042  -0.471  -0.139  1.00  0.00     0.038 C 
HETATM   13  C12 UNL     1      -2.130  -1.619   0.117  1.00  0.00     0.010 C 
HETATM   14  C13 UNL     1      -0.777  -1.359  -0.562  1.00  0.00     0.023 C 
HETATM   15  C14 UNL     1       0.180  -2.270   0.150  1.00  0.00     0.045 C 
HETATM   16  C15 UNL     1       1.604  -2.089  -0.161  1.00  0.00     0.181 C 
HETATM   17  C16 UNL     1       1.987  -0.749  -0.700  1.00  0.00     0.200 C 
HETATM   18  O4  UNL     1       3.285  -0.352  -0.251  1.00  0.00    -0.316 OA
ENDROOT
BRANCH  17  19
HETATM   19  O3  UNL     1       2.131  -0.884  -2.090  1.00  0.00    -0.363 OA
ATOM     20  H3  UNL     1       2.725  -1.587  -2.324  1.00  0.00     0.213 HD
ENDBRANCH  17  19
BRANCH  16  21
HETATM   21  O2  UNL     1       2.342  -2.273   1.033  1.00  0.00    -0.390 OA
ATOM     22  H2  UNL     1       3.263  -2.156   0.832  1.00  0.00     0.210 HD
ENDBRANCH  16  21
TORSDOF 2
