REMARK  1 active torsions:
REMARK  status: ('A' for Active; 'I' for Inactive)
REMARK    1  A    between atoms: N2_6  and  N3_7 
ROOT
HETATM    1  C1  UNL     1       1.762   0.094   0.065  1.00  0.00     0.321 C 
HETATM    2  N1  UNL     1       0.381   0.021   0.532  1.00  0.00     0.095 N 
HETATM    3 CL1  UNL     1       0.091   0.672   2.092  1.00  0.00     0.140 Cl
HETATM    4  C2  UNL     1      -0.241  -1.280   0.349  1.00  0.00     0.300 A 
HETATM    5  C3  UNL     1      -1.094  -0.744  -0.759  1.00  0.00     0.179 A 
HETATM    6  N2  UNL     1      -0.451   0.499  -0.485  1.00  0.00    -0.040 NA
ENDROOT
BRANCH   6   7
HETATM    7  N3  UNL     1      -1.241   1.583  -0.178  1.00  0.00    -0.339 NA
ATOM      8  H32 UNL     1      -0.781   2.472   0.018  1.00  0.00     0.172 HD
ATOM      9  H31 UNL     1      -1.848   1.932  -0.920  1.00  0.00     0.172 HD
ENDBRANCH   6   7
TORSDOF 1
