REMARK  3 active torsions:
REMARK  status: ('A' for Active; 'I' for Inactive)
REMARK    1  A    between atoms: N1_2  and  C3_4 
REMARK    2  A    between atoms: N1_2  and  C6_8 
REMARK    3  A    between atoms: C3_4  and  C4_5 
ROOT
HETATM    1  C6  UNL     1      -1.337  -0.564   0.224  1.00  0.00     0.217 C 
HETATM    2  C7  UNL     1      -1.726   0.205   1.448  1.00  0.00     0.062 C 
HETATM    3  C8  UNL     1      -2.393   1.443   0.957  1.00  0.00     0.234 C 
HETATM    4  N3  UNL     1      -2.463   1.414  -0.461  1.00  0.00    -0.073 N 
ATOM      5  H31 UNL     1      -1.964   2.191  -0.893  1.00  0.00     0.277 HD
ATOM      6  H32 UNL     1      -3.395   1.634  -0.811  1.00  0.00     0.277 HD
HETATM    7  C9  UNL     1      -1.988   0.126  -0.919  1.00  0.00     0.265 C 
ENDROOT
BRANCH   1   8
HETATM    8  N1  UNL     1       0.086  -0.753   0.082  1.00  0.00    -0.066 N 
HETATM    9  C1  UNL     1       0.287  -1.541  -1.124  1.00  0.00     0.272 C 
HETATM   10  C2  UNL     1       0.473  -1.645   1.192  1.00  0.00     0.272 C 
BRANCH   8  11
HETATM   11  C3  UNL     1       0.854   0.439   0.129  1.00  0.00     0.265 C 
BRANCH  11  12
HETATM   12  C4  UNL     1       1.541   0.783  -1.139  1.00  0.00     0.015 C 
HETATM   13  C5  UNL     1       2.845   0.898  -1.246  1.00  0.00     0.097 C 
HETATM   14  N2  UNL     1       3.668   0.688  -0.100  1.00  0.00    -0.115 NA
ENDBRANCH  11  12
ENDBRANCH   8  11
ENDBRANCH   1   8
TORSDOF 3
