REMARK  9 active torsions:
REMARK  status: ('A' for Active; 'I' for Inactive)
REMARK    1  A    between atoms: O1_1  and  C1_3 
REMARK    2  A    between atoms: C4_8  and  N2_9 
REMARK    3  A    between atoms: N2_9  and  C5_11 
REMARK    4  A    between atoms: C5_11  and  C6_12 
REMARK    5  A    between atoms: N3_19  and  C12_20 
REMARK    6  A    between atoms: C13_24  and  C14_25 
REMARK    7  A    between atoms: C14_25  and  C15_26 
REMARK    8  A    between atoms: C16_30  and  O2_31 
REMARK    9  A    between atoms: C17_33  and  O3_34 
ROOT
HETATM    1  C1  UNL     1       0.159  -2.632  -1.504  1.00  0.00     0.161 A 
HETATM    2  C2  UNL     1      -1.032  -3.306  -1.819  1.00  0.00     0.144 A 
HETATM    3  N1  UNL     1      -2.162  -3.041  -1.150  1.00  0.00    -0.368 N 
ATOM      4  H1  UNL     1      -3.023  -3.535  -1.384  1.00  0.00     0.164 HD
HETATM    5  C3  UNL     1      -2.156  -2.109  -0.155  1.00  0.00     0.136 A 
HETATM    6  C4  UNL     1      -1.017  -1.434   0.178  1.00  0.00     0.123 A 
HETATM    7  N3  UNL     1       0.136  -1.733  -0.534  1.00  0.00    -0.280 N 
ENDROOT
BRANCH   7   8
HETATM    8  C12 UNL     1       1.275  -0.986  -0.120  1.00  0.00     0.326 C 
HETATM    9  N4  UNL     1       1.155   0.415  -0.600  1.00  0.00    -0.044 N 
HETATM   10  C13 UNL     1       2.466   1.001  -0.258  1.00  0.00     0.228 C 
ATOM     11  H42 UNL     1       0.892   0.507  -1.581  1.00  0.00     0.280 HD
ATOM     12  H41 UNL     1       0.353   0.924  -0.229  1.00  0.00     0.280 HD
HETATM   13  C16 UNL     1       3.408  -0.127  -0.016  1.00  0.00     0.181 C 
HETATM   14  C17 UNL     1       2.607  -1.287  -0.709  1.00  0.00     0.199 C 
BRANCH  10  15
HETATM   15  C14 UNL     1       2.336   1.986   0.855  1.00  0.00     0.153 C 
BRANCH  15  16
HETATM   16  C15 UNL     1       3.640   2.627   1.250  1.00  0.00     0.389 C 
HETATM   17  F1  UNL     1       3.451   3.535   2.284  1.00  0.00    -0.171 F 
HETATM   18  F2  UNL     1       4.549   1.676   1.671  1.00  0.00    -0.171 F 
HETATM   19  F3  UNL     1       4.226   3.319   0.219  1.00  0.00    -0.171 F 
ENDBRANCH  15  16
ENDBRANCH  10  15
BRANCH  13  20
HETATM   20  O2  UNL     1       4.610   0.003  -0.692  1.00  0.00    -0.391 OA
ATOM     21  H2  UNL     1       5.211  -0.716  -0.538  1.00  0.00     0.210 HD
ENDBRANCH  13  20
BRANCH  14  22
HETATM   22  O3  UNL     1       3.239  -2.426  -0.256  1.00  0.00    -0.389 OA
ATOM     23  H3  UNL     1       4.090  -2.618  -0.632  1.00  0.00     0.210 HD
ENDBRANCH  14  22
ENDBRANCH   7   8
BRANCH   1  24
HETATM   24  O1  UNL     1       1.312  -2.940  -2.227  1.00  0.00    -0.345 OA
ATOM     25  H1  UNL     1       2.118  -2.484  -2.014  1.00  0.00     0.219 HD
ENDBRANCH   1  24
BRANCH   6  26
HETATM   26  N2  UNL     1      -0.964  -0.544   1.116  1.00  0.00    -0.371 N 
ATOM     27  H2  UNL     1      -0.086  -0.068   1.325  1.00  0.00     0.161 HD
BRANCH  26  28
HETATM   28  C5  UNL     1      -2.149  -0.233   1.859  1.00  0.00     0.160 C 
BRANCH  28  29
HETATM   29  C6  UNL     1      -3.100   0.646   1.113  1.00  0.00    -0.040 A 
HETATM   30  C7  UNL     1      -4.337   0.940   1.653  1.00  0.00     0.010 A 
HETATM   31  C8  UNL     1      -5.263   1.744   1.023  1.00  0.00     0.024 A 
HETATM   32  C9  UNL     1      -4.945   2.285  -0.206  1.00  0.00     0.034 A 
HETATM   33 CL1  UNL     1      -6.076   3.322  -1.072  1.00  0.00    -0.084 Cl
HETATM   34  C10 UNL     1      -3.712   1.996  -0.752  1.00  0.00     0.024 A 
HETATM   35  C11 UNL     1      -2.792   1.182  -0.099  1.00  0.00     0.010 A 
ENDBRANCH  28  29
ENDBRANCH  26  28
ENDBRANCH   6  26
TORSDOF 9
