REMARK  0 active torsions:
REMARK  status: ('A' for Active; 'I' for Inactive)
REMARK       I    between atoms: C1_4  and  N3_6 
ROOT
HETATM    1  N1  UNL     1       2.451   1.331  -0.270  1.00  0.00    -0.374 N 
ATOM      2  H11 UNL     1       1.960   2.169  -0.581  1.00  0.00     0.158 HD
ATOM      3  H12 UNL     1       3.462   1.343  -0.132  1.00  0.00     0.158 HD
HETATM    4  C1  UNL     1       1.762   0.258  -0.056  1.00  0.00     0.183 C 
HETATM    5  N2  UNL     1       2.442  -0.902   0.374  1.00  0.00    -0.064 NA
HETATM    6  N3  UNL     1       0.352   0.241  -0.248  1.00  0.00    -0.356 N 
HETATM    7  C2  UNL     1      -0.421  -0.806  -0.888  1.00  0.00     0.125 C 
HETATM    8  C3  UNL     1      -1.649  -0.944  -0.001  1.00  0.00     0.021 C 
HETATM    9  C4  UNL     1      -1.758   0.389   0.692  1.00  0.00     0.021 C 
HETATM   10  C5  UNL     1      -0.613   1.244   0.145  1.00  0.00     0.125 C 
ENDROOT
TORSDOF 0
