REMARK  1 active torsions:
REMARK  status: ('A' for Active; 'I' for Inactive)
REMARK    1  A    between atoms: N1_2  and  C4_5 
ROOT
HETATM    1  C4  UNL     1       0.395   0.294  -0.091  1.00  0.00     0.386 C 
HETATM    2  C5  UNL     1       1.119  -0.974  -0.345  1.00  0.00     0.065 C 
HETATM    3  C6  UNL     1       2.299  -0.940   0.615  1.00  0.00     0.031 C 
HETATM    4  C7  UNL     1       2.316   0.471   1.177  1.00  0.00     0.235 C 
HETATM    5  N2  UNL     1       0.939   0.892   1.085  1.00  0.00    -0.046 N 
ATOM      6  H21 UNL     1       0.400   0.684   1.926  1.00  0.00     0.279 HD
ATOM      7  H22 UNL     1       0.828   1.906   1.106  1.00  0.00     0.279 HD
ENDROOT
BRANCH   1   8
HETATM    8  N1  UNL     1      -1.030   0.182  -0.024  1.00  0.00    -0.050 N 
HETATM    9  C1  UNL     1      -1.588  -0.718  -1.003  1.00  0.00     0.274 C 
HETATM   10  C2  UNL     1      -1.529  -0.207   1.270  1.00  0.00     0.274 C 
HETATM   11  C3  UNL     1      -1.565   1.530  -0.283  1.00  0.00     0.274 C 
ENDBRANCH   1   8
TORSDOF 1
