REMARK  1 active torsions:
REMARK  status: ('A' for Active; 'I' for Inactive)
REMARK    1  A    between atoms: C2_2  and  C3_3 
ROOT
HETATM    1  C3  UNL     1      -1.219  -0.038   0.511  1.00  0.00     0.059 C 
HETATM    2  C4  UNL     1      -0.382  -0.704  -0.593  1.00  0.00     0.247 C 
HETATM    3  N1  UNL     1       0.704   0.126  -0.148  1.00  0.00    -0.066 N 
HETATM    4  C5  UNL     1       1.561  -0.459   0.824  1.00  0.00     0.239 C 
HETATM    5  C6  UNL     1       2.746   0.032  -0.019  1.00  0.00     0.056 C 
HETATM    6  C7  UNL     1       1.712   0.480  -1.064  1.00  0.00     0.239 C 
HETATM    7  C8  UNL     1      -0.234   1.119   0.282  1.00  0.00     0.247 C 
ENDROOT
BRANCH   1   8
HETATM    8  C2  UNL     1      -2.588   0.208   0.056  1.00  0.00    -0.029 C 
HETATM    9  C1  UNL     1      -3.121  -0.586  -0.859  1.00  0.00     0.007 C 
ENDBRANCH   1   8
TORSDOF 1
