REMARK  6 active torsions:
REMARK  status: ('A' for Active; 'I' for Inactive)
REMARK       I    between atoms: N1_2  and  C2_4 
REMARK    1  A    between atoms: C2_4  and  C3_6 
REMARK    2  A    between atoms: C4_10  and  C5_11 
REMARK    3  A    between atoms: C5_11  and  S1_12 
REMARK    4  A    between atoms: S1_12  and  C6_13 
REMARK    5  A    between atoms: C10_21  and  N5_22 
REMARK    6  A    between atoms: C11_27  and  N7_28 
ROOT
HETATM    1  C6  UNL     1       1.777  -0.123  -1.518  1.00  0.00     0.161 A 
HETATM    2  N3  UNL     1       2.184  -1.204  -0.818  1.00  0.00    -0.278 N 
ATOM      3  H3  UNL     1       3.135  -1.571  -0.779  1.00  0.00     0.189 HD
HETATM    4  N4  UNL     1       1.138  -1.700  -0.196  1.00  0.00    -0.282 N 
ATOM      5  H4  UNL     1       1.162  -2.522   0.407  1.00  0.00     0.188 HD
HETATM    6  C7  UNL     1       0.018  -0.972  -0.463  1.00  0.00     0.149 A 
HETATM    7  C8  UNL     1      -1.291  -1.259   0.074  1.00  0.00     0.098 A 
HETATM    8  C9  UNL     1      -1.466  -2.327   0.930  1.00  0.00     0.082 A 
HETATM    9  C10 UNL     1      -2.695  -2.638   1.468  1.00  0.00     0.117 A 
HETATM   10  N6  UNL     1      -3.758  -1.883   1.157  1.00  0.00    -0.177 N 
ATOM     11  H6  UNL     1      -4.677  -2.095   1.545  1.00  0.00     0.185 HD
HETATM   12  C11 UNL     1      -3.589  -0.840   0.323  1.00  0.00     0.682 A 
HETATM   13  N9  UNL     1      -2.374  -0.532  -0.211  1.00  0.00    -0.188 N 
ATOM     14  H9  UNL     1      -2.290   0.267  -0.839  1.00  0.00     0.184 HD
HETATM   15  N10 UNL     1       0.460  -0.008  -1.284  1.00  0.00    -0.319 N 
ATOM     16  H10 UNL     1      -0.131   0.722  -1.681  1.00  0.00     0.169 HD
ENDROOT
BRANCH   1  17
HETATM   17  S1  UNL     1       2.842   0.933  -2.533  1.00  0.00    -0.084 SA
BRANCH  17  18
HETATM   18  C5  UNL     1       3.545   2.189  -1.415  1.00  0.00     0.169 C 
BRANCH  18  19
HETATM   19  C4  UNL     1       4.418   1.501  -0.447  1.00  0.00     0.158 A 
HETATM   20  O2  UNL     1       3.932   1.029   0.700  1.00  0.00    -0.222 OA
HETATM   21  N2  UNL     1       4.872   0.472   1.374  1.00  0.00    -0.238 N 
HETATM   22  C3  UNL     1       6.015   0.564   0.683  1.00  0.00     0.196 A 
ATOM     23  H2  UNL     1       4.765   0.031   2.288  1.00  0.00     0.196 HD
HETATM   24  N11 UNL     1       5.705   1.213  -0.458  1.00  0.00    -0.318 N 
ATOM     25  H11 UNL     1       6.359   1.443  -1.206  1.00  0.00     0.169 HD
BRANCH  22  26
HETATM   26  C2  UNL     1       7.326   0.076   1.055  1.00  0.00     0.287 C 
HETATM   27  N1  UNL     1       8.455   0.244   0.210  1.00  0.00    -0.359 N 
HETATM   28  C1  UNL     1       9.773  -0.240   0.569  1.00  0.00     0.149 C 
ATOM     29  H1  UNL     1       8.334   0.723  -0.682  1.00  0.00     0.162 HD
HETATM   30  O1  UNL     1       7.433  -0.516   2.179  1.00  0.00    -0.264 OA
ENDBRANCH  22  26
ENDBRANCH  18  19
ENDBRANCH  17  18
ENDBRANCH   1  17
BRANCH   9  31
HETATM   31  N5  UNL     1      -2.851  -3.634   2.268  1.00  0.00    -0.385 N 
ATOM     32  H52 UNL     1      -2.042  -4.209   2.505  1.00  0.00     0.157 HD
ATOM     33  H51 UNL     1      -3.761  -3.864   2.666  1.00  0.00     0.157 HD
ENDBRANCH   9  31
BRANCH  12  34
HETATM   34  N7  UNL     1      -4.760  -0.089   0.013  1.00  0.00    -0.214 N 
HETATM   35  C12 UNL     1      -5.371   0.680   1.070  1.00  0.00     0.160 C 
HETATM   36  C13 UNL     1      -6.452   1.610   0.642  1.00  0.00     0.134 C 
HETATM   37  N8  UNL     1      -7.055   1.364  -0.621  1.00  0.00    -0.418 N 
HETATM   38  C14 UNL     1      -6.791   0.102  -1.227  1.00  0.00     0.134 C 
ATOM     39  H8  UNL     1      -7.649   2.059  -1.073  1.00  0.00     0.153 HD
HETATM   40  C15 UNL     1      -5.275  -0.129  -1.335  1.00  0.00     0.160 C 
ENDBRANCH  12  34
TORSDOF 6
