REMARK  1 active torsions:
REMARK  status: ('A' for Active; 'I' for Inactive)
REMARK    1  A    between atoms: C2_2  and  N1_3 
REMARK       I    between atoms: C3_5  and  N2_6 
REMARK       I    between atoms: C3_5  and  N4_11 
ROOT
HETATM    1  N1  UNL     1      -0.293   0.748  -0.719  1.00  0.00    -0.227 N 
ATOM      2  H1  UNL     1       0.436   1.393  -1.025  1.00  0.00     0.177 HD
HETATM    3  C3  UNL     1       0.113  -0.351  -0.276  1.00  0.00     0.676 C 
HETATM    4  N2  UNL     1       1.484  -0.647  -0.217  1.00  0.00    -0.183 N 
ATOM      5  H2  UNL     1       1.748  -1.632  -0.223  1.00  0.00     0.185 HD
HETATM    6  C4  UNL     1       2.429   0.208  -0.157  1.00  0.00     0.105 C 
HETATM    7  C5  UNL     1       3.837  -0.235  -0.099  1.00  0.00     0.086 C 
HETATM    8  N3  UNL     1       2.180   1.609  -0.142  1.00  0.00    -0.087 NA
HETATM    9  N4  UNL     1      -0.802  -1.319   0.175  1.00  0.00    -0.227 N 
HETATM   10  C6  UNL     1      -1.190  -2.415  -0.689  1.00  0.00     0.168 C 
HETATM   11  C7  UNL     1      -1.379  -1.257   1.497  1.00  0.00     0.168 C 
ENDROOT
BRANCH   1  12
HETATM   12  C2  UNL     1      -1.630   1.225  -0.856  1.00  0.00     0.133 C 
HETATM   13  C1  UNL     1      -2.108   2.101   0.247  1.00  0.00     0.027 C 
ENDBRANCH   1  12
TORSDOF 1
