REMARK  1 active torsions:
REMARK  status: ('A' for Active; 'I' for Inactive)
REMARK    1  A    between atoms: O1_2  and  C2_3 
REMARK       I    between atoms: N4_11  and  C4_13 
REMARK       I    between atoms: C4_13  and  N5_14 
REMARK       I    between atoms: C4_13  and  N6_18 
ROOT
HETATM    1  C2  UNL     1       2.352   0.366  -0.175  1.00  0.00     0.228 C 
HETATM    2  N1  UNL     1       2.029  -0.811   0.179  1.00  0.00    -0.260 N 
ATOM      3  H1  UNL     1       2.801  -1.476   0.132  1.00  0.00     0.190 HD
HETATM    4  N2  UNL     1       0.819  -1.385   0.624  1.00  0.00    -0.226 N 
ATOM      5  H2  UNL     1       0.850  -2.364   0.908  1.00  0.00     0.209 HD
HETATM    6  N3  UNL     1      -0.428  -0.736   0.714  1.00  0.00    -0.117 N 
ATOM      7  H3  UNL     1      -1.153  -1.267   1.196  1.00  0.00     0.207 HD
HETATM    8  C3  UNL     1      -0.839   0.542   0.240  1.00  0.00     0.699 C 
HETATM    9  N4  UNL     1      -2.071   0.806   0.116  1.00  0.00    -0.172 N 
ATOM     10  H4  UNL     1      -2.294   1.740  -0.229  1.00  0.00     0.181 HD
HETATM   11  C4  UNL     1      -3.178  -0.032   0.396  1.00  0.00     0.494 C 
HETATM   12  N5  UNL     1      -4.396   0.701   0.022  1.00  0.00    -0.032 N 
ATOM     13  H51 UNL     1      -5.193   0.098   0.224  1.00  0.00     0.278 HD
ATOM     14  H52 UNL     1      -4.381   1.030  -0.944  1.00  0.00     0.278 HD
ATOM     15  H53 UNL     1      -4.465   1.613   0.473  1.00  0.00     0.278 HD
HETATM   16  N6  UNL     1      -3.126  -1.181  -0.503  1.00  0.00    -0.032 N 
ATOM     17  H61 UNL     1      -3.923  -1.784  -0.301  1.00  0.00     0.278 HD
ATOM     18  H62 UNL     1      -2.236  -1.677  -0.454  1.00  0.00     0.278 HD
ATOM     19  H63 UNL     1      -3.079  -0.909  -1.485  1.00  0.00     0.278 HD
HETATM   20  N7  UNL     1       0.060   1.587  -0.120  1.00  0.00    -0.151 N 
ATOM     21  H7  UNL     1      -0.374   2.486  -0.332  1.00  0.00     0.188 HD
HETATM   22  C5  UNL     1       1.499   1.551  -0.226  1.00  0.00     0.312 C 
HETATM   23  O2  UNL     1       2.107   2.628  -0.378  1.00  0.00    -0.263 OA
ENDROOT
BRANCH   1  24
HETATM   24  O1  UNL     1       3.678   0.581  -0.568  1.00  0.00    -0.336 OA
HETATM   25  C1  UNL     1       4.668  -0.367  -0.199  1.00  0.00     0.212 C 
ENDBRANCH   1  24
TORSDOF 1
