REMARK  5 active torsions:
REMARK  status: ('A' for Active; 'I' for Inactive)
REMARK    1  A    between atoms: C2_5  and  N3_6 
REMARK    2  A    between atoms: N3_6  and  N4_8 
REMARK    3  A    between atoms: N4_8  and  C3_10 
REMARK    4  A    between atoms: C5_17  and  N7_18 
REMARK    5  A    between atoms: N7_18  and  N8_20 
REMARK       I    between atoms: N8_20  and  C6_21 
ROOT
HETATM    1  C1  UNL     1       1.970  -0.457  -1.616  1.00  0.00     0.180 C 
HETATM    2  N1  UNL     1       0.792  -0.382  -0.735  1.00  0.00    -0.260 N 
HETATM    3  N2  UNL     1      -0.228  -1.200  -0.983  1.00  0.00    -0.127 N 
ATOM      4  H2  UNL     1      -0.178  -1.863  -1.757  1.00  0.00     0.206 HD
HETATM    5  C2  UNL     1      -1.325  -1.147  -0.206  1.00  0.00     0.714 A 
HETATM    6  N6  UNL     1      -1.352  -0.264   0.798  1.00  0.00    -0.150 N 
ATOM      7  H6  UNL     1      -2.188  -0.230   1.382  1.00  0.00     0.188 HD
HETATM    8  C4  UNL     1      -0.364   0.568   1.082  1.00  0.00     0.307 A 
HETATM    9  O1  UNL     1      -0.344   1.414   2.010  1.00  0.00    -0.263 OA
HETATM   10  C5  UNL     1       0.808   0.523   0.266  1.00  0.00     0.217 A 
ENDROOT
BRANCH   5  11
HETATM   11  N3  UNL     1      -2.331  -1.954  -0.463  1.00  0.00    -0.129 N 
ATOM     12  H3  UNL     1      -2.300  -2.616  -1.239  1.00  0.00     0.205 HD
BRANCH  11  13
HETATM   13  N4  UNL     1      -3.456  -1.862   0.384  1.00  0.00    -0.264 N 
ATOM     14  H4  UNL     1      -3.443  -2.350   1.279  1.00  0.00     0.189 HD
BRANCH  13  15
HETATM   15  C3  UNL     1      -4.595  -1.117   0.030  1.00  0.00     0.200 C 
HETATM   16  N5  UNL     1      -5.713  -1.048   0.906  1.00  0.00    -0.068 NA
HETATM   17  S1  UNL     1      -4.696  -0.302  -1.376  1.00  0.00    -0.043 SA
ENDBRANCH  13  15
ENDBRANCH  11  13
ENDBRANCH   5  11
BRANCH  10  18
HETATM   18  N7  UNL     1       1.736   1.284   0.517  1.00  0.00    -0.208 N 
ATOM     19  H7  UNL     1       1.417   1.821   1.324  1.00  0.00     0.204 HD
BRANCH  18  20
HETATM   20  N8  UNL     1       2.881   1.729   0.274  1.00  0.00    -0.266 NA
HETATM   21  C6  UNL     1       4.122   2.212   0.009  1.00  0.00     0.424 C 
HETATM   22  N9  UNL     1       5.229   1.550   0.701  1.00  0.00    -0.024 NA
HETATM   23  O2  UNL     1       4.527   3.142  -0.735  1.00  0.00    -0.232 OA
ENDBRANCH  18  20
ENDBRANCH  10  18
TORSDOF 5
