REMARK  2 active torsions:
REMARK  status: ('A' for Active; 'I' for Inactive)
REMARK    1  A    between atoms: N1_1  and  C1_4 
REMARK    2  A    between atoms: C3_11  and  N4_12 
ROOT
HETATM    1  C1  UNL     1       1.927  -0.295  -1.193  1.00  0.00     0.692 A 
HETATM    2  N2  UNL     1       2.879  -0.135  -0.258  1.00  0.00    -0.165 N 
ATOM      3  H2  UNL     1       3.860  -0.133  -0.538  1.00  0.00     0.186 HD
HETATM    4  C2  UNL     1       2.562   0.022   1.039  1.00  0.00     0.208 A 
HETATM    5 CL1  UNL     1       3.796   0.229   2.247  1.00  0.00    -0.044 Cl
HETATM    6  N3  UNL     1       1.279   0.023   1.444  1.00  0.00    -0.164 N 
ATOM      7  H3  UNL     1       1.049   0.142   2.431  1.00  0.00     0.186 HD
HETATM    8  C3  UNL     1       0.299  -0.136   0.529  1.00  0.00     0.701 A 
HETATM    9  N7  UNL     1       0.643  -0.291  -0.762  1.00  0.00    -0.022 N 
ATOM     10  H7  UNL     1      -0.100  -0.411  -1.451  1.00  0.00     0.203 HD
ENDROOT
BRANCH   8  11
HETATM   11  N4  UNL     1      -1.044  -0.132   0.978  1.00  0.00    -0.165 N 
HETATM   12  C4  UNL     1      -2.063  -0.270   0.234  1.00  0.00     0.215 C 
HETATM   13  N5  UNL     1      -1.927  -0.446  -1.159  1.00  0.00    -0.066 NA
HETATM   14  N6  UNL     1      -3.358  -0.248   0.805  1.00  0.00    -0.066 NA
ATOM     15  H4  UNL     1      -1.205  -0.009   1.978  1.00  0.00     0.186 HD
ENDBRANCH   8  11
BRANCH   1  16
HETATM   16  N1  UNL     1       2.231  -0.445  -2.437  1.00  0.00    -0.234 N 
ATOM     17  H12 UNL     1       3.198  -0.448  -2.762  1.00  0.00     0.174 HD
ATOM     18  H11 UNL     1       1.508  -0.566  -3.147  1.00  0.00     0.174 HD
ENDBRANCH   1  16
TORSDOF 2
