REMARK  6 active torsions:
REMARK  status: ('A' for Active; 'I' for Inactive)
REMARK    1  A    between atoms: C2_2  and  C3_3 
REMARK       I    between atoms: N1_6  and  C5_8 
REMARK    2  A    between atoms: C5_8  and  C6_10 
REMARK    3  A    between atoms: C10_14  and  C12_16 
REMARK    4  A    between atoms: C16_20  and  C17_21 
REMARK    5  A    between atoms: C17_21  and  O3_23 
REMARK    6  A    between atoms: O3_23  and  C18_24 
ROOT
HETATM    1  C3  UNL     1       0.742   4.763   0.896  1.00  0.00    -0.041 C 
HETATM    2  C4  UNL     1       1.128   5.494   1.776  1.00  0.00    -0.017 C 
HETATM    3 BR1  UNL     1       1.734   6.660   3.128  1.00  0.00     0.011 Br
ENDROOT
BRANCH   1   4
HETATM    4  C2  UNL     1       0.284   3.914  -0.166  1.00  0.00     0.063 C 
HETATM    5  C1  UNL     1      -0.390   4.484  -1.364  1.00  0.00     0.079 C 
HETATM    6  N1  UNL     1       0.460   2.629  -0.078  1.00  0.00    -0.323 N 
HETATM    7  C5  UNL     1       0.009   1.756  -1.128  1.00  0.00     0.231 C 
ATOM      8  H1  UNL     1       0.922   2.237   0.743  1.00  0.00     0.169 HD
HETATM    9  O1  UNL     1       0.380   2.044  -2.289  1.00  0.00    -0.272 OA
BRANCH   7  10
HETATM   10  C6  UNL     1      -0.863   0.564  -0.825  1.00  0.00     0.117 C 
HETATM   11  C7  UNL     1      -2.079   1.153  -0.153  1.00  0.00     0.044 C 
HETATM   12  C8  UNL     1      -2.715   0.100   0.785  1.00  0.00     0.085 C 
HETATM   13  C9  UNL     1      -2.977  -1.074  -0.169  1.00  0.00     0.037 C 
HETATM   14  N3  UNL     1      -1.718  -0.262   1.691  1.00  0.00    -0.385 N 
HETATM   15  C10 UNL     1      -1.963  -2.076   0.358  1.00  0.00    -0.015 C 
HETATM   16  C11 UNL     1      -2.664  -2.785   1.527  1.00  0.00     0.018 C 
HETATM   17  C15 UNL     1      -0.881  -1.244   0.951  1.00  0.00     0.128 C 
HETATM   18  C16 UNL     1      -0.079  -0.325   0.117  1.00  0.00     0.032 C 
HETATM   19  C24 UNL     1      -1.847  -0.371   3.034  1.00  0.00     0.116 C 
BRANCH  15  20
HETATM   20  C12 UNL     1      -1.623  -3.129  -0.614  1.00  0.00    -0.012 C 
HETATM   21  C13 UNL     1      -2.942  -3.833  -1.005  1.00  0.00     0.010 C 
HETATM   22  C14 UNL     1      -0.825  -4.275   0.022  1.00  0.00     0.010 C 
ENDBRANCH  15  20
BRANCH  18  23
HETATM   23  C17 UNL     1       1.182  -0.764  -0.439  1.00  0.00     0.289 C 
HETATM   24  O2  UNL     1       1.604  -1.900  -0.623  1.00  0.00    -0.260 OA
BRANCH  23  25
HETATM   25  O3  UNL     1       2.089   0.245  -0.843  1.00  0.00    -0.296 OA
BRANCH  25  26
HETATM   26  C18 UNL     1       3.347  -0.055  -1.398  1.00  0.00     0.274 A 
HETATM   27  C19 UNL     1       3.840   0.752  -2.472  1.00  0.00     0.264 A 
HETATM   28  O4  UNL     1       3.572   0.950  -3.674  1.00  0.00    -0.269 OA
HETATM   29  N2  UNL     1       4.820   1.286  -1.607  1.00  0.00    -0.291 N 
HETATM   30  C20 UNL     1       5.883   2.051  -1.192  1.00  0.00     0.100 A 
HETATM   31  C23 UNL     1       4.411   0.575  -0.600  1.00  0.00     0.058 A 
HETATM   32  C21 UNL     1       6.130   1.794   0.124  1.00  0.00     0.020 A 
HETATM   33  C22 UNL     1       5.208   0.861   0.520  1.00  0.00     0.030 A 
ENDBRANCH  25  26
ENDBRANCH  23  25
ENDBRANCH  18  23
ENDBRANCH   7  10
ENDBRANCH   1   4
TORSDOF 6
