REMARK  4 active torsions:
REMARK  status: ('A' for Active; 'I' for Inactive)
REMARK    1  A    between atoms: C12_14  and  C13_15 
REMARK    2  A    between atoms: C13_15  and  N1_16 
REMARK    3  A    between atoms: N2_25  and  C21_26 
REMARK    4  A    between atoms: C21_26  and  C22_27 
ROOT
HETATM    1 BR1  UNL     1      -3.625  -5.108   0.274  1.00  0.00    -0.051 Br
HETATM    2  C1  UNL     1      -1.799  -4.649   0.040  1.00  0.00     0.018 A 
HETATM    3  C2  UNL     1      -1.311  -3.440   0.139  1.00  0.00    -0.026 A 
HETATM    4  C3  UNL     1      -2.201  -2.322   0.451  1.00  0.00     0.066 C 
HETATM    5  C4  UNL     1      -1.538  -1.065   0.964  1.00  0.00     0.088 C 
HETATM    6  C5  UNL     1      -0.457  -1.388   1.989  1.00  0.00     0.027 C 
HETATM    7  C6  UNL     1       0.922  -0.930   1.561  1.00  0.00     0.024 C 
HETATM    8  C7  UNL     1       1.109  -1.190   0.133  1.00  0.00     0.067 C 
HETATM    9  C8  UNL     1       1.163  -2.676  -0.146  1.00  0.00     0.073 C 
HETATM   10  C9  UNL     1       0.149  -3.512  -0.122  1.00  0.00     0.002 A 
HETATM   11  C10 UNL     1       0.422  -4.911  -0.381  1.00  0.00     0.016 A 
HETATM   12  C11 UNL     1      -0.735  -5.584  -0.284  1.00  0.00     0.020 A 
HETATM   13  O1  UNL     1       2.502  -2.492  -0.346  1.00  0.00    -0.336 OA
HETATM   14  C12 UNL     1       2.448  -1.028  -0.523  1.00  0.00     0.115 C 
HETATM   15  C18 UNL     1       2.081  -0.638  -1.895  1.00  0.00     0.047 C 
HETATM   16  C19 UNL     1       0.776   0.213  -1.701  1.00  0.00     0.030 C 
HETATM   17  C20 UNL     1       0.026  -0.666  -0.781  1.00  0.00     0.102 C 
HETATM   18  N2  UNL     1      -1.086  -0.192  -0.056  1.00  0.00    -0.382 N 
ENDROOT
BRANCH  14  19
HETATM   19  C13 UNL     1       3.484  -0.377   0.291  1.00  0.00     0.098 C 
BRANCH  19  20
HETATM   20  N1  UNL     1       3.601   1.002   0.279  1.00  0.00    -0.386 N 
HETATM   21  C14 UNL     1       4.140   1.739  -0.780  1.00  0.00     0.148 C 
HETATM   22  C15 UNL     1       3.746   3.219  -0.549  1.00  0.00     0.187 C 
HETATM   23  O2  UNL     1       4.505   3.623   0.536  1.00  0.00    -0.388 OA
HETATM   24  C16 UNL     1       4.166   2.968   1.695  1.00  0.00     0.187 C 
HETATM   25  C17 UNL     1       3.942   1.508   1.596  1.00  0.00     0.148 C 
ENDBRANCH  19  20
ENDBRANCH  14  19
BRANCH  18  26
HETATM   26  C21 UNL     1      -1.613   1.062  -0.278  1.00  0.00     0.064 C 
BRANCH  26  27
HETATM   27  C22 UNL     1      -2.970   1.256  -0.835  1.00  0.00     0.028 C 
HETATM   28  C23 UNL     1      -3.247   2.766  -0.981  1.00  0.00     0.036 C 
HETATM   29  C24 UNL     1      -3.917   3.215   0.289  1.00  0.00     0.168 C 
HETATM   30  O3  UNL     1      -5.270   2.857   0.245  1.00  0.00    -0.391 OA
HETATM   31  C25 UNL     1      -5.386   1.606  -0.357  1.00  0.00     0.168 C 
HETATM   32  C26 UNL     1      -4.139   0.761  -0.039  1.00  0.00     0.036 C 
ENDBRANCH  26  27
ENDBRANCH  18  26
TORSDOF 4
