REMARK  0 active torsions:
REMARK  status: ('A' for Active; 'I' for Inactive)
ROOT
HETATM    1  C1  UNL     1      -2.192   0.280   0.261  1.00  0.00     0.302 C 
HETATM    2  N1  UNL     1      -0.771   0.109   0.087  1.00  0.00     0.005 N 
HETATM    3  C2  UNL     1      -0.180  -0.962   0.886  1.00  0.00     0.270 C 
HETATM    4  C3  UNL     1       0.802  -1.141  -0.279  1.00  0.00     0.044 C 
HETATM    5  C4  UNL     1       1.881  -0.108  -0.239  1.00  0.00     0.029 C 
HETATM    6  C5  UNL     1       1.330   1.190   0.254  1.00  0.00     0.147 C 
HETATM    7  N2  UNL     1      -0.087   1.264   0.312  1.00  0.00    -0.253 N 
ATOM      8  H2  UNL     1      -0.569   2.140   0.513  1.00  0.00     0.187 HD
HETATM    9  C6  UNL     1      -0.376  -0.624  -1.088  1.00  0.00     0.270 C 
ENDROOT
TORSDOF 0
