REMARK  8 active torsions:
REMARK  status: ('A' for Active; 'I' for Inactive)
REMARK    1  A    between atoms: N1_1  and  C1_5 
REMARK    2  A    between atoms: C1_5  and  C2_6 
REMARK    3  A    between atoms: C2_6  and  S1_7 
REMARK    4  A    between atoms: S1_7  and  C3_8 
REMARK    5  A    between atoms: C3_8  and  C4_9 
REMARK    6  A    between atoms: N3_13  and  C6_15 
REMARK    7  A    between atoms: C6_15  and  C7_16 
REMARK    8  A    between atoms: C14_27  and  O2_28 
ROOT
HETATM    1  C4  UNL     1       2.084  -1.229  -0.365  1.00  0.00     0.146 C 
HETATM    2  N2  UNL     1       0.812  -1.173   0.338  1.00  0.00    -0.218 N 
ATOM      3  H2  UNL     1       0.794  -0.899   1.320  1.00  0.00     0.178 HD
HETATM    4  C5  UNL     1      -0.417  -1.497  -0.327  1.00  0.00     0.677 C 
HETATM    5  N3  UNL     1      -1.493  -1.299   0.315  1.00  0.00    -0.222 N 
ATOM      6  H3  UNL     1      -1.385  -0.923   1.257  1.00  0.00     0.178 HD
HETATM    7  N5  UNL     1      -0.332  -2.013  -1.649  1.00  0.00    -0.158 N 
ATOM      8  H5  UNL     1      -1.182  -2.256  -2.158  1.00  0.00     0.187 HD
HETATM    9  C13 UNL     1       0.940  -2.190  -2.261  1.00  0.00     0.266 C 
HETATM   10  O1  UNL     1       1.074  -2.194  -3.526  1.00  0.00    -0.270 OA
HETATM   11  C14 UNL     1       2.106  -2.369  -1.349  1.00  0.00     0.234 C 
ENDROOT
BRANCH   5  12
HETATM   12  C6  UNL     1      -2.832  -1.534  -0.110  1.00  0.00     0.176 C 
BRANCH  12  13
HETATM   13  C7  UNL     1      -3.616  -0.266   0.057  1.00  0.00    -0.040 A 
HETATM   14  C8  UNL     1      -4.298   0.035   1.203  1.00  0.00     0.011 A 
HETATM   15  C9  UNL     1      -5.010   1.223   1.309  1.00  0.00     0.027 A 
HETATM   16  C10 UNL     1      -5.032   2.107   0.256  1.00  0.00     0.046 A 
HETATM   17  N4  UNL     1      -5.752   3.332   0.332  1.00  0.00    -0.102 NA
HETATM   18  C11 UNL     1      -4.338   1.804  -0.915  1.00  0.00     0.027 A 
HETATM   19  C12 UNL     1      -3.645   0.622  -0.987  1.00  0.00     0.011 A 
ENDBRANCH  12  13
ENDBRANCH   5  12
BRANCH   1  20
HETATM   20  C3  UNL     1       3.221  -1.383   0.641  1.00  0.00     0.102 C 
BRANCH  20  21
HETATM   21  S1  UNL     1       3.247   0.022   1.789  1.00  0.00    -0.165 SA
BRANCH  21  22
HETATM   22  C2  UNL     1       3.667   1.559   0.909  1.00  0.00     0.101 C 
BRANCH  22  23
HETATM   23  C1  UNL     1       5.100   1.434   0.421  1.00  0.00     0.239 C 
BRANCH  23  24
HETATM   24  N1  UNL     1       5.496   2.641  -0.295  1.00  0.00    -0.079 N 
ATOM     25  H13 UNL     1       4.853   2.861  -1.055  1.00  0.00     0.274 HD
ATOM     26  H12 UNL     1       5.357   3.480   0.268  1.00  0.00     0.274 HD
ATOM     27  H11 UNL     1       6.458   2.557  -0.623  1.00  0.00     0.274 HD
ENDBRANCH  23  24
ENDBRANCH  22  23
ENDBRANCH  21  22
ENDBRANCH  20  21
ENDBRANCH   1  20
BRANCH  11  28
HETATM   28  O2  UNL     1       1.911  -3.598  -0.696  1.00  0.00    -0.384 OA
ATOM     29  H2  UNL     1       1.925  -4.317  -1.317  1.00  0.00     0.210 HD
ENDBRANCH  11  28
TORSDOF 8
