REMARK  12 active torsions:
REMARK  status: ('A' for Active; 'I' for Inactive)
REMARK    1  A    between atoms: S1_2  and  C3_4 
REMARK    2  A    between atoms: C3_4  and  C4_5 
REMARK    3  A    between atoms: C4_5  and  N1_6 
REMARK       I    between atoms: N1_6  and  C5_8 
REMARK    4  A    between atoms: C5_8  and  C6_10 
REMARK    5  A    between atoms: N4_21  and  C11_22 
REMARK    6  A    between atoms: C11_22  and  C12_23 
REMARK    7  A    between atoms: C12_23  and  C13_24 
REMARK    8  A    between atoms: C13_24  and  C14_25 
REMARK    9  A    between atoms: C14_25  and  N5_26 
REMARK   10  A    between atoms: N5_26  and  C15_29 
REMARK   11  A    between atoms: C15_29  and  C16_30 
REMARK   12  A    between atoms: C16_30  and  C17_31 
ROOT
HETATM    1  C4  UNL     1      -1.929  -0.346  -0.196  1.00  0.00     0.123 C 
HETATM    2  C9  UNL     1      -1.441  -1.701  -0.781  1.00  0.00     0.061 C 
HETATM    3  C10 UNL     1       0.066  -1.639  -0.754  1.00  0.00     0.129 C 
HETATM    4  N4  UNL     1       0.415  -0.506   0.068  1.00  0.00    -0.350 N 
HETATM    5  C18 UNL     1      -0.784  -0.045   0.695  1.00  0.00     0.249 C 
HETATM    6  O3  UNL     1      -0.794   0.510   1.812  1.00  0.00    -0.270 OA
ENDROOT
BRANCH   1   7
HETATM    7  C3  UNL     1      -2.092   0.628  -1.331  1.00  0.00     0.103 C 
BRANCH   7   8
HETATM    8  S1  UNL     1      -2.675   2.165  -0.805  1.00  0.00    -0.225 SA
HETATM    9  C1  UNL     1      -1.742   3.078   0.322  1.00  0.00     0.078 C 
HETATM   10  C2  UNL     1      -4.404   2.327  -0.659  1.00  0.00     0.078 C 
ENDBRANCH   7   8
ENDBRANCH   1   7
BRANCH   1  11
HETATM   11  N1  UNL     1      -3.131  -0.599   0.538  1.00  0.00    -0.340 N 
HETATM   12  C5  UNL     1      -4.327  -1.159   0.028  1.00  0.00     0.259 C 
HETATM   13  O1  UNL     1      -4.352  -1.471  -1.183  1.00  0.00    -0.271 OA
ATOM     14  H1  UNL     1      -3.126  -0.351   1.527  1.00  0.00     0.163 HD
BRANCH  12  15
HETATM   15  C6  UNL     1      -5.534  -1.391   0.836  1.00  0.00     0.369 C 
HETATM   16  N2  UNL     1      -6.616  -1.968   0.085  1.00  0.00    -0.038 N 
HETATM   17  C7  UNL     1      -7.502  -2.455   1.128  1.00  0.00     0.358 C 
ATOM     18  H22 UNL     1      -7.053  -1.339  -0.589  1.00  0.00     0.280 HD
ATOM     19  H21 UNL     1      -6.335  -2.669  -0.600  1.00  0.00     0.280 HD
HETATM   20  N3  UNL     1      -6.553  -3.058   2.070  1.00  0.00    -0.336 N 
HETATM   21  C8  UNL     1      -5.324  -2.377   1.916  1.00  0.00     0.259 C 
ATOM     22  H3  UNL     1      -6.744  -3.825   2.715  1.00  0.00     0.164 HD
HETATM   23  O2  UNL     1      -4.266  -2.549   2.544  1.00  0.00    -0.271 OA
ENDBRANCH  12  15
ENDBRANCH   1  11
BRANCH   4  24
HETATM   24  C11 UNL     1       1.767   0.022   0.185  1.00  0.00     0.126 C 
BRANCH  24  25
HETATM   25  C12 UNL     1       1.954   1.040  -0.899  1.00  0.00     0.022 C 
BRANCH  25  26
HETATM   26  C13 UNL     1       3.260   1.737  -0.898  1.00  0.00     0.029 C 
BRANCH  26  27
HETATM   27  C14 UNL     1       4.499   0.936  -1.059  1.00  0.00     0.232 C 
BRANCH  27  28
HETATM   28  N5  UNL     1       4.716   0.006  -0.002  1.00  0.00    -0.075 N 
ATOM     29  H52 UNL     1       4.704   0.483   0.899  1.00  0.00     0.277 HD
ATOM     30  H51 UNL     1       3.904  -0.600   0.110  1.00  0.00     0.277 HD
BRANCH  28  31
HETATM   31  C15 UNL     1       5.907  -0.776  -0.136  1.00  0.00     0.239 C 
BRANCH  31  32
HETATM   32  C16 UNL     1       7.164   0.058   0.019  1.00  0.00     0.100 C 
BRANCH  32  33
HETATM   33  C17 UNL     1       7.174   0.683   1.351  1.00  0.00     0.088 C 
HETATM   34  N6  UNL     1       7.195   1.965   1.545  1.00  0.00    -0.391 N 
ATOM     35  H62 UNL     1       7.206   2.559   0.716  1.00  0.00     0.157 HD
ATOM     36  H61 UNL     1       7.202   2.398   2.468  1.00  0.00     0.157 HD
HETATM   37  N7  UNL     1       7.159  -0.145   2.506  1.00  0.00    -0.088 NA
ENDBRANCH  32  33
ENDBRANCH  31  32
ENDBRANCH  28  31
ENDBRANCH  27  28
ENDBRANCH  26  27
ENDBRANCH  25  26
ENDBRANCH  24  25
ENDBRANCH   4  24
TORSDOF 12
