REMARK  11 active torsions:
REMARK  status: ('A' for Active; 'I' for Inactive)
REMARK    1  A    between atoms: C2_2  and  C4_4 
REMARK    2  A    between atoms: C4_4  and  C5_5 
REMARK    3  A    between atoms: C5_5  and  N1_6 
REMARK    4  A    between atoms: C9_13  and  C10_14 
REMARK    5  A    between atoms: C10_14  and  C11_15 
REMARK    6  A    between atoms: C11_15  and  C12_16 
REMARK    7  A    between atoms: C12_16  and  N3_17 
REMARK    8  A    between atoms: C15_26  and  C16_27 
REMARK    9  A    between atoms: C16_27  and  C17_28 
REMARK   10  A    between atoms: C17_28  and  C18_29 
REMARK   11  A    between atoms: C18_29  and  N7_30 
ROOT
HETATM    1  N1  UNL     1      -2.063  -0.658  -0.320  1.00  0.00    -0.312 N 
HETATM    2  C6  UNL     1      -0.987  -1.319   0.215  1.00  0.00     0.088 C 
HETATM    3  C7  UNL     1      -0.468  -2.649   0.075  1.00  0.00     0.167 C 
HETATM    4  N2  UNL     1       0.789  -2.718   0.801  1.00  0.00    -0.355 N 
ATOM      5  H2  UNL     1       1.270  -3.612   0.700  1.00  0.00     0.162 HD
HETATM    6  C8  UNL     1       1.470  -1.805   1.610  1.00  0.00     0.240 C 
HETATM    7  O1  UNL     1       1.576  -2.148   2.858  1.00  0.00    -0.271 OA
HETATM    8  C9  UNL     1       2.103  -0.517   1.332  1.00  0.00     0.177 C 
HETATM    9  N6  UNL     1       1.655   0.610   2.103  1.00  0.00    -0.343 N 
ATOM     10  H6  UNL     1       2.407   1.038   2.644  1.00  0.00     0.163 HD
HETATM   11  C14 UNL     1       0.443   1.249   2.282  1.00  0.00     0.265 C 
HETATM   12  O2  UNL     1       0.013   1.297   3.506  1.00  0.00    -0.266 OA
HETATM   13  C15 UNL     1      -0.494   1.912   1.327  1.00  0.00     0.083 C 
HETATM   14  N10 UNL     1      -1.814   1.339   1.305  1.00  0.00    -0.302 N 
HETATM   15  C20 UNL     1      -2.635   1.643   2.536  1.00  0.00     0.161 C 
HETATM   16  C21 UNL     1      -2.478   0.569   0.344  1.00  0.00     0.328 C 
HETATM   17  O3  UNL     1      -3.645   0.982  -0.035  1.00  0.00    -0.246 OA
ENDROOT
BRANCH   8  18
HETATM   18  C10 UNL     1       3.617  -0.729   1.602  1.00  0.00     0.036 C 
BRANCH  18  19
HETATM   19  C11 UNL     1       4.231  -1.760   0.766  1.00  0.00     0.022 C 
BRANCH  19  20
HETATM   20  C12 UNL     1       5.697  -1.867   1.126  1.00  0.00     0.122 C 
BRANCH  20  21
HETATM   21  N3  UNL     1       6.384  -2.860   0.352  1.00  0.00    -0.367 N 
HETATM   22  C13 UNL     1       7.372  -2.562  -0.437  1.00  0.00     0.196 C 
HETATM   23  N4  UNL     1       7.989  -3.629  -1.166  1.00  0.00    -0.067 NA
HETATM   24  N5  UNL     1       7.839  -1.225  -0.585  1.00  0.00    -0.067 NA
ATOM     25  H3  UNL     1       6.087  -3.833   0.423  1.00  0.00     0.161 HD
ENDBRANCH  20  21
ENDBRANCH  19  20
ENDBRANCH  18  19
ENDBRANCH   8  18
BRANCH  13  26
HETATM   26  C16 UNL     1       0.112   2.345   0.052  1.00  0.00     0.065 C 
BRANCH  26  27
HETATM   27  C17 UNL     1      -0.781   3.014  -0.929  1.00  0.00     0.026 C 
BRANCH  27  28
HETATM   28  C18 UNL     1      -1.419   4.279  -0.392  1.00  0.00     0.122 C 
BRANCH  28  29
HETATM   29  N7  UNL     1      -2.258   4.832  -1.427  1.00  0.00    -0.367 N 
HETATM   30  C19 UNL     1      -2.546   6.097  -1.438  1.00  0.00     0.196 C 
HETATM   31  N8  UNL     1      -2.027   6.936  -0.418  1.00  0.00    -0.067 NA
HETATM   32  N9  UNL     1      -3.366   6.665  -2.442  1.00  0.00    -0.067 NA
ATOM     33  H7  UNL     1      -2.628   4.223  -2.157  1.00  0.00     0.161 HD
ENDBRANCH  28  29
ENDBRANCH  27  28
ENDBRANCH  26  27
ENDBRANCH  13  26
BRANCH   1  34
HETATM   34  C5  UNL     1      -2.812  -0.964  -1.510  1.00  0.00     0.133 C 
BRANCH  34  35
HETATM   35  C4  UNL     1      -4.079  -1.696  -1.286  1.00  0.00     0.024 C 
BRANCH  35  36
HETATM   36  C2  UNL     1      -4.044  -3.078  -0.779  1.00  0.00    -0.021 C 
HETATM   37  C1  UNL     1      -3.360  -4.036  -1.735  1.00  0.00     0.009 C 
HETATM   38  C3  UNL     1      -5.496  -3.550  -0.636  1.00  0.00     0.009 C 
ENDBRANCH  35  36
ENDBRANCH  34  35
ENDBRANCH   1  34
TORSDOF 11
