REMARK  7 active torsions:
REMARK  status: ('A' for Active; 'I' for Inactive)
REMARK    1  A    between atoms: C1_2  and  C2_4 
REMARK    2  A    between atoms: C3_5  and  C4_6 
REMARK    3  A    between atoms: C4_6  and  N2_7 
REMARK    4  A    between atoms: C4_6  and  C5_11 
REMARK    5  A    between atoms: C9_24  and  N7_25 
REMARK    6  A    between atoms: N7_25  and  C10_27 
REMARK    7  A    between atoms: N10_33  and  N11_34 
ROOT
HETATM    1  C2  UNL     1       0.432  -0.737   0.602  1.00  0.00     0.099 A 
HETATM    2  C3  UNL     1      -0.708  -0.039   0.667  1.00  0.00     0.069 A 
HETATM    3  N5  UNL     1      -0.758   1.155   0.011  1.00  0.00    -0.318 N 
ATOM      4  H5  UNL     1      -1.620   1.699   0.055  1.00  0.00     0.169 HD
HETATM    5  C8  UNL     1       0.255   1.638  -0.677  1.00  0.00     0.267 A 
HETATM    6  F1  UNL     1       0.116   2.841  -1.302  1.00  0.00    -0.165 F 
HETATM    7  N6  UNL     1       1.400   0.931  -0.746  1.00  0.00    -0.303 N 
ATOM      8  H6  UNL     1       2.186   1.302  -1.281  1.00  0.00     0.171 HD
HETATM    9  C9  UNL     1       1.525  -0.243  -0.129  1.00  0.00     0.141 A 
ENDROOT
BRANCH   2  10
HETATM   10  C4  UNL     1      -1.977  -0.487   1.270  1.00  0.00     0.300 C 
BRANCH  10  11
HETATM   11  N2  UNL     1      -2.175  -1.952   1.144  1.00  0.00    -0.063 N 
ATOM     12  H23 UNL     1      -2.104  -2.251   0.171  1.00  0.00     0.275 HD
ATOM     13  H22 UNL     1      -1.383  -2.465   1.530  1.00  0.00     0.275 HD
ATOM     14  H21 UNL     1      -3.053  -2.262   1.561  1.00  0.00     0.275 HD
ENDBRANCH  10  11
BRANCH  10  15
HETATM   15  C5  UNL     1      -3.104   0.108   0.446  1.00  0.00     0.110 C 
HETATM   16  N3  UNL     1      -3.958  -0.532  -0.223  1.00  0.00    -0.376 N 
HETATM   17  C6  UNL     1      -4.899   0.341  -0.896  1.00  0.00     0.140 C 
ATOM     18  H3  UNL     1      -3.984  -1.550  -0.284  1.00  0.00     0.160 HD
HETATM   19  C7  UNL     1      -4.298   1.726  -0.767  1.00  0.00     0.140 C 
HETATM   20  N4  UNL     1      -3.345   1.491   0.317  1.00  0.00    -0.376 N 
ATOM     21  H4  UNL     1      -2.919   2.218   0.893  1.00  0.00     0.160 HD
ENDBRANCH  10  15
ENDBRANCH   2  10
BRANCH   1  22
HETATM   22  C1  UNL     1       0.702  -1.926   1.367  1.00  0.00     0.270 C 
HETATM   23  N1  UNL     1       0.162  -2.314   2.606  1.00  0.00    -0.057 NA
HETATM   24  O1  UNL     1       1.559  -2.757   0.871  1.00  0.00    -0.271 OA
ENDBRANCH   1  22
BRANCH   9  25
HETATM   25  N7  UNL     1       2.583  -0.909  -0.186  1.00  0.00    -0.172 N 
ATOM     26  H7  UNL     1       2.598  -1.798   0.313  1.00  0.00     0.186 HD
BRANCH  25  27
HETATM   27  C10 UNL     1       3.763  -0.541  -0.881  1.00  0.00     0.720 A 
HETATM   28  N8  UNL     1       4.155  -0.815  -2.122  1.00  0.00    -0.129 N 
HETATM   29  N9  UNL     1       5.334  -0.253  -2.323  1.00  0.00    -0.279 N 
ATOM     30  H8  UNL     1       3.633  -1.366  -2.804  1.00  0.00     0.205 HD
HETATM   31  C11 UNL     1       5.722   0.395  -1.210  1.00  0.00     0.241 A 
ATOM     32  H9  UNL     1       5.869  -0.303  -3.190  1.00  0.00     0.188 HD
HETATM   33  N10 UNL     1       4.733   0.205  -0.324  1.00  0.00    -0.086 N 
BRANCH  33  34
HETATM   34  N11 UNL     1       4.727   0.718   0.991  1.00  0.00    -0.323 N 
ATOM     35 2H11 UNL     1       3.975   0.574   1.665  1.00  0.00     0.178 HD
ATOM     36 1H11 UNL     1       5.463   1.284   1.414  1.00  0.00     0.178 HD
ENDBRANCH  33  34
ENDBRANCH  25  27
ENDBRANCH   9  25
TORSDOF 7
