REMARK  8 active torsions:
REMARK  status: ('A' for Active; 'I' for Inactive)
REMARK    1  A    between atoms: N1_1  and  N2_4 
REMARK    2  A    between atoms: N2_4  and  C1_5 
REMARK    3  A    between atoms: C1_5  and  N3_6 
REMARK    4  A    between atoms: C1_5  and  C2_10 
REMARK    5  A    between atoms: N5_19  and  C7_20 
REMARK    6  A    between atoms: C8_24  and  C9_25 
REMARK    7  A    between atoms: C9_25  and  N7_26 
REMARK    8  A    between atoms: C9_25  and  O3_30 
REMARK       I    between atoms: N8_34  and  C11_35 
ROOT
HETATM    1  C2  UNL     1       2.428  -0.050   0.194  1.00  0.00     0.071 A 
HETATM    2  C3  UNL     1       2.430  -1.378  -0.146  1.00  0.00     0.050 A 
HETATM    3  C4  UNL     1       1.135  -1.784  -0.315  1.00  0.00     0.079 A 
HETATM    4  C5  UNL     1       0.650  -3.040  -0.668  1.00  0.00     0.263 A 
HETATM    5  O1  UNL     1       1.447  -3.984  -0.863  1.00  0.00    -0.267 OA
HETATM    6  N4  UNL     1      -0.673  -3.147  -0.775  1.00  0.00    -0.274 N 
ATOM      7  H4  UNL     1      -1.086  -4.044  -1.031  1.00  0.00     0.173 HD
HETATM    8  C6  UNL     1      -1.467  -2.095  -0.552  1.00  0.00     0.334 A 
HETATM    9  O2  UNL     1      -2.719  -2.228  -0.662  1.00  0.00    -0.246 OA
HETATM   10  N5  UNL     1      -1.020  -0.846  -0.204  1.00  0.00    -0.232 N 
HETATM   11  C10 UNL     1       0.306  -0.678  -0.075  1.00  0.00     0.141 A 
HETATM   12  N8  UNL     1       1.120   0.376   0.237  1.00  0.00    -0.251 N 
HETATM   13  C11 UNL     1       0.768   1.690   0.479  1.00  0.00     0.341 C 
HETATM   14  N9  UNL     1       1.820   2.726   0.330  1.00  0.00    -0.039 NA
HETATM   15  O5  UNL     1      -0.275   2.218   0.796  1.00  0.00    -0.250 OA
ENDROOT
BRANCH  10  16
HETATM   16  C7  UNL     1      -1.973   0.216  -0.073  1.00  0.00     0.446 C 
HETATM   17  N6  UNL     1      -2.840   0.205   1.082  1.00  0.00     0.001 N 
HETATM   18  C8  UNL     1      -3.818   0.668   0.093  1.00  0.00     0.385 C 
ATOM     19  H62 UNL     1      -2.980  -0.612   1.676  1.00  0.00     0.285 HD
ATOM     20  H61 UNL     1      -2.634   0.702   1.948  1.00  0.00     0.285 HD
HETATM   21  O4  UNL     1      -3.190  -0.223  -0.774  1.00  0.00    -0.306 OA
BRANCH  18  22
HETATM   22  C9  UNL     1      -5.239   0.401   0.444  1.00  0.00     0.373 C 
BRANCH  22  23
HETATM   23  N7  UNL     1      -6.126   0.961  -0.549  1.00  0.00    -0.049 N 
ATOM     24  H73 UNL     1      -5.953   1.956  -0.692  1.00  0.00     0.277 HD
ATOM     25  H72 UNL     1      -5.900   0.630  -1.487  1.00  0.00     0.277 HD
ATOM     26  H71 UNL     1      -7.100   0.778  -0.308  1.00  0.00     0.277 HD
ENDBRANCH  22  23
BRANCH  22  27
HETATM   27  O3  UNL     1      -5.571  -0.918   0.616  1.00  0.00    -0.367 OA
ATOM     28  H3  UNL     1      -6.478  -1.088   0.840  1.00  0.00     0.212 HD
ENDBRANCH  22  27
ENDBRANCH  18  22
ENDBRANCH  10  16
BRANCH   1  29
HETATM   29  C1  UNL     1       3.676   0.664   0.463  1.00  0.00     0.345 C 
BRANCH  29  30
HETATM   30  N2  UNL     1       4.497   0.687  -0.738  1.00  0.00    -0.108 NA
BRANCH  30  31
HETATM   31  N1  UNL     1       5.758   1.212  -0.513  1.00  0.00    -0.346 N 
ATOM     32  H12 UNL     1       6.064   1.543   0.402  1.00  0.00     0.172 HD
ATOM     33  H11 UNL     1       6.334   1.228  -1.355  1.00  0.00     0.172 HD
ENDBRANCH  30  31
ENDBRANCH  29  30
BRANCH  29  34
HETATM   34  N3  UNL     1       4.491  -0.211   1.385  1.00  0.00    -0.054 N 
ATOM     35  H33 UNL     1       4.732  -1.128   1.009  1.00  0.00     0.276 HD
ATOM     36  H32 UNL     1       5.455   0.091   1.527  1.00  0.00     0.276 HD
ATOM     37  H31 UNL     1       3.915  -0.227   2.227  1.00  0.00     0.276 HD
ENDBRANCH  29  34
ENDBRANCH   1  29
TORSDOF 8
