REMARK  5 active torsions:
REMARK  status: ('A' for Active; 'I' for Inactive)
REMARK    1  A    between atoms: C6_6  and  C7_7 
REMARK    2  A    between atoms: C11_11  and  C12_12 
REMARK    3  A    between atoms: C13_15  and  S1_16 
REMARK    4  A    between atoms: S1_16  and  C14_17 
REMARK    5  A    between atoms: C14_17  and  C15_18 
ROOT
HETATM    1  C12 UNL     1       0.914  -0.649  -0.676  1.00  0.00     0.072 A 
HETATM    2  N1  UNL     1       1.876   0.008  -1.325  1.00  0.00    -0.335 N 
ATOM      3  H1  UNL     1       1.629   0.909  -1.734  1.00  0.00     0.168 HD
HETATM    4  C13 UNL     1       3.148  -0.414  -1.488  1.00  0.00     0.148 A 
HETATM    5  N5  UNL     1       3.462  -1.606  -0.942  1.00  0.00    -0.302 N 
ATOM      6  H5  UNL     1       4.411  -1.967  -1.040  1.00  0.00     0.171 HD
HETATM    7  C18 UNL     1       2.547  -2.328  -0.271  1.00  0.00     0.270 A 
HETATM    8  O1  UNL     1       2.879  -3.448   0.231  1.00  0.00    -0.266 OA
HETATM    9  C19 UNL     1       1.262  -1.859  -0.129  1.00  0.00     0.140 A 
HETATM   10  C20 UNL     1       0.350  -2.713   0.634  1.00  0.00     0.107 C 
HETATM   11  N6  UNL     1      -0.383  -3.371   1.238  1.00  0.00    -0.191 NA
ENDROOT
BRANCH   1  12
HETATM   12  C11 UNL     1      -0.458  -0.234  -0.531  1.00  0.00     0.006 A 
HETATM   13  C2  UNL     1      -0.766   0.283   0.735  1.00  0.00    -0.034 A 
HETATM   14  C1  UNL     1       0.273   0.540   1.759  1.00  0.00     0.050 C 
HETATM   15  C3  UNL     1      -2.099   0.589   0.951  1.00  0.00     0.025 A 
HETATM   16  C4  UNL     1      -3.056   0.399  -0.021  1.00  0.00    -0.015 A 
HETATM   17  C25 UNL     1      -2.328   1.094   2.310  1.00  0.00     0.162 C 
HETATM   18  C5  UNL     1      -2.663  -0.110  -1.232  1.00  0.00     0.018 A 
HETATM   19  C21 UNL     1      -4.501   0.655   0.008  1.00  0.00     0.311 C 
HETATM   20  C6  UNL     1      -1.347  -0.460  -1.572  1.00  0.00    -0.037 A 
HETATM   21  N7  UNL     1      -5.077   0.495   1.328  1.00  0.00     0.088 N 
HETATM   22  C22 UNL     1      -6.520   0.607   1.166  1.00  0.00     0.310 C 
HETATM   23  C23 UNL     1      -4.681   1.613   2.193  1.00  0.00     0.280 C 
HETATM   24  C24 UNL     1      -3.586   1.088   3.092  1.00  0.00     0.114 C 
HETATM   25  O2  UNL     1      -1.365   1.573   2.853  1.00  0.00    -0.292 OA
BRANCH  20  26
HETATM   26  C7  UNL     1      -1.024  -0.988  -2.876  1.00  0.00    -0.023 C 
HETATM   27  C8  UNL     1      -0.087  -0.328  -3.817  1.00  0.00     0.019 C 
HETATM   28  C9  UNL     1      -2.341  -0.873  -3.698  1.00  0.00     0.019 C 
HETATM   29  C10 UNL     1      -0.913  -2.524  -2.966  1.00  0.00     0.019 C 
ENDBRANCH  20  26
ENDBRANCH   1  12
BRANCH   4  30
HETATM   30  S1  UNL     1       4.331   0.550  -2.400  1.00  0.00    -0.086 SA
BRANCH  30  31
HETATM   31  C14 UNL     1       5.129   1.719  -1.287  1.00  0.00     0.160 C 
BRANCH  31  32
HETATM   32  C15 UNL     1       5.948   0.996  -0.266  1.00  0.00     0.109 A 
HETATM   33  N2  UNL     1       7.213   0.548  -0.411  1.00  0.00    -0.286 N 
HETATM   34  N3  UNL     1       7.582  -0.011   0.720  1.00  0.00    -0.275 N 
ATOM     35  H2  UNL     1       7.784   0.629  -1.252  1.00  0.00     0.188 HD
HETATM   36  C16 UNL     1       6.572   0.067   1.602  1.00  0.00     0.194 A 
ATOM     37  H3  UNL     1       8.491  -0.437   0.899  1.00  0.00     0.189 HD
HETATM   38  S2  UNL     1       6.589  -0.505   3.150  1.00  0.00    -0.039 SA
HETATM   39  N4  UNL     1       5.568   0.693   0.980  1.00  0.00    -0.315 N 
HETATM   40  C17 UNL     1       4.291   0.974   1.648  1.00  0.00     0.160 C 
ENDBRANCH  31  32
ENDBRANCH  30  31
ENDBRANCH   4  30
TORSDOF 5
