REMARK  8 active torsions:
REMARK  status: ('A' for Active; 'I' for Inactive)
REMARK    1  A    between atoms: N1_2  and  C2_4 
REMARK    2  A    between atoms: C4_8  and  C5_9 
REMARK    3  A    between atoms: N3_11  and  C7_12 
REMARK    4  A    between atoms: C15_24  and  C16_25 
REMARK    5  A    between atoms: C16_25  and  C17_26 
REMARK    6  A    between atoms: C17_26  and  O1_27 
REMARK    7  A    between atoms: C17_26  and  N6_29 
REMARK    8  A    between atoms: N6_29  and  C18_30 
ROOT
HETATM    1  C7  UNL     1       2.540  -3.080  -0.717  1.00  0.00     0.139 A 
HETATM    2  N4  UNL     1       3.517  -3.904  -1.332  1.00  0.00    -0.337 N 
ATOM      3  H4  UNL     1       4.240  -3.467  -1.904  1.00  0.00     0.168 HD
HETATM    4  C8  UNL     1       3.523  -5.212  -1.190  1.00  0.00     0.182 A 
HETATM    5  N5  UNL     1       2.614  -5.862  -0.457  1.00  0.00    -0.352 N 
ATOM      6  H5  UNL     1       2.642  -6.877  -0.364  1.00  0.00     0.166 HD
HETATM    7  C9  UNL     1       1.663  -5.138   0.152  1.00  0.00     0.048 A 
HETATM    8  C10 UNL     1       0.718  -5.777   0.912  1.00  0.00     0.031 A 
HETATM    9  C11 UNL     1      -0.265  -5.099   1.550  1.00  0.00     0.014 A 
HETATM   10  C12 UNL     1      -0.321  -3.736   1.436  1.00  0.00    -0.025 A 
HETATM   11  C13 UNL     1      -1.333  -3.035   2.080  1.00  0.00     0.013 A 
HETATM   12  C14 UNL     1      -1.418  -1.675   1.976  1.00  0.00     0.008 A 
HETATM   13  C15 UNL     1      -0.495  -0.988   1.226  1.00  0.00    -0.049 A 
HETATM   14  C25 UNL     1       0.530  -1.667   0.571  1.00  0.00     0.021 A 
HETATM   15  C26 UNL     1       0.615  -3.019   0.675  1.00  0.00    -0.009 A 
HETATM   16  C27 UNL     1       1.628  -3.728   0.018  1.00  0.00     0.047 A 
ENDROOT
BRANCH   1  17
HETATM   17  N3  UNL     1       2.758  -1.744  -1.010  1.00  0.00    -0.232 N 
HETATM   18  C6  UNL     1       3.631  -0.860  -0.406  1.00  0.00     0.148 A 
HETATM   19  C5  UNL     1       3.670   0.281  -1.136  1.00  0.00     0.082 A 
HETATM   20  N9  UNL     1       2.840   0.116  -2.171  1.00  0.00    -0.281 N 
HETATM   21  N8  UNL     1       2.312  -1.094  -2.073  1.00  0.00    -0.014 NA
ATOM     22  H9  UNL     1       2.648   0.799  -2.904  1.00  0.00     0.184 HD
BRANCH  19  23
HETATM   23  C4  UNL     1       4.493   1.481  -0.859  1.00  0.00     0.053 A 
HETATM   24  C3  UNL     1       5.401   1.649   0.151  1.00  0.00     0.111 A 
HETATM   25  N2  UNL     1       6.047   2.776   0.226  1.00  0.00    -0.345 N 
HETATM   26  C2  UNL     1       5.792   3.714  -0.687  1.00  0.00     0.144 A 
ATOM     27  H2  UNL     1       6.731   2.938   0.965  1.00  0.00     0.167 HD
HETATM   28  S1  UNL     1       4.602   2.966  -1.674  1.00  0.00    -0.051 SA
BRANCH  26  29
HETATM   29  N1  UNL     1       6.312   4.913  -0.841  1.00  0.00    -0.375 N 
HETATM   30  C1  UNL     1       7.327   5.290   0.135  1.00  0.00     0.148 C 
ATOM     31  H1  UNL     1       6.024   5.538  -1.594  1.00  0.00     0.161 HD
ENDBRANCH  26  29
ENDBRANCH  19  23
ENDBRANCH   1  17
BRANCH  13  32
HETATM   32  C16 UNL     1      -0.690   0.482   1.143  1.00  0.00     0.138 C 
BRANCH  32  33
HETATM   33  C17 UNL     1      -1.490   0.771  -0.146  1.00  0.00     0.194 C 
BRANCH  33  34
HETATM   34  O1  UNL     1      -0.733   0.717  -1.217  1.00  0.00    -0.339 OA
ATOM     35  H1  UNL     1      -1.225   0.895  -2.010  1.00  0.00     0.220 HD
ENDBRANCH  33  34
BRANCH  33  36
HETATM   36  N6  UNL     1      -2.745   1.033  -0.254  1.00  0.00    -0.385 NA
BRANCH  36  37
HETATM   37  C18 UNL     1      -3.908   1.361  -0.160  1.00  0.00     0.113 A 
HETATM   38  C19 UNL     1      -4.871   1.158  -1.166  1.00  0.00     0.069 A 
HETATM   39  C20 UNL     1      -6.184   1.511  -1.031  1.00  0.00     0.008 A 
HETATM   40  C21 UNL     1      -7.188   1.278  -2.118  1.00  0.00     0.068 C 
HETATM   41  N7  UNL     1      -6.589   2.081   0.116  1.00  0.00    -0.363 N 
HETATM   42  C22 UNL     1      -5.732   2.309   1.128  1.00  0.00     0.008 A 
ATOM     43  H7  UNL     1      -7.568   2.347   0.222  1.00  0.00     0.165 HD
HETATM   44  C23 UNL     1      -6.246   2.936   2.370  1.00  0.00     0.068 C 
HETATM   45  C24 UNL     1      -4.403   1.958   1.003  1.00  0.00     0.069 A 
ENDBRANCH  36  37
ENDBRANCH  33  36
ENDBRANCH  32  33
ENDBRANCH  13  32
TORSDOF 8
