REMARK  15 active torsions:
REMARK  status: ('A' for Active; 'I' for Inactive)
REMARK    1  A    between atoms: N1_2  and  C2_4 
REMARK    2  A    between atoms: C3_5  and  O1_6 
REMARK    3  A    between atoms: C6_11  and  O3_12 
REMARK    4  A    between atoms: O3_12  and  C7_13 
REMARK    5  A    between atoms: C8_14  and  N2_15 
REMARK    6  A    between atoms: C10_20  and  N3_21 
REMARK    7  A    between atoms: C11_25  and  O4_26 
REMARK    8  A    between atoms: O4_26  and  C12_27 
REMARK    9  A    between atoms: C13_28  and  N4_29 
REMARK   10  A    between atoms: C15_37  and  O5_38 
REMARK   11  A    between atoms: O5_38  and  C16_39 
REMARK   12  A    between atoms: C17_42  and  C18_43 
REMARK   13  A    between atoms: C18_43  and  O8_44 
REMARK   14  A    between atoms: C19_47  and  O10_48 
REMARK   15  A    between atoms: C20_50  and  O11_51 
ROOT
HETATM    1  C7  UNL     1      -1.509   0.155  -1.411  1.00  0.00     0.186 C 
HETATM    2  C8  UNL     1      -1.446  -0.201  -2.854  1.00  0.00     0.217 C 
HETATM    3  C9  UNL     1      -0.837  -1.578  -3.010  1.00  0.00     0.071 C 
HETATM    4  C10 UNL     1       0.377  -1.780  -2.157  1.00  0.00     0.217 C 
HETATM    5  C11 UNL     1       0.915  -0.408  -1.774  1.00  0.00     0.183 C 
HETATM    6  C19 UNL     1      -0.084   0.307  -0.890  1.00  0.00     0.180 C 
ENDROOT
BRANCH   5   7
HETATM    7  O4  UNL     1       2.121  -0.497  -1.112  1.00  0.00    -0.369 OA
BRANCH   7   8
HETATM    8  C12 UNL     1       3.103   0.108  -1.838  1.00  0.00     0.210 C 
HETATM    9  C13 UNL     1       4.257  -0.803  -2.186  1.00  0.00     0.242 C 
HETATM   10  C14 UNL     1       5.321   0.219  -2.566  1.00  0.00     0.271 C 
HETATM   11  N5  UNL     1       4.957   1.454  -1.948  1.00  0.00    -0.044 N 
HETATM   12  C15 UNL     1       3.822   1.209  -1.084  1.00  0.00     0.356 C 
ATOM     13  H52 UNL     1       5.736   1.894  -1.459  1.00  0.00     0.280 HD
ATOM     14  H51 UNL     1       4.783   2.197  -2.625  1.00  0.00     0.280 HD
BRANCH   9  15
HETATM   15  N4  UNL     1       4.725  -1.503  -1.021  1.00  0.00    -0.071 N 
ATOM     16  H43 UNL     1       4.966  -0.861  -0.266  1.00  0.00     0.274 HD
ATOM     17  H42 UNL     1       3.971  -2.010  -0.557  1.00  0.00     0.274 HD
ATOM     18  H41 UNL     1       5.504  -2.118  -1.256  1.00  0.00     0.274 HD
ENDBRANCH   9  15
BRANCH  12  19
HETATM   19  O5  UNL     1       4.324   0.719   0.130  1.00  0.00    -0.301 OA
BRANCH  19  20
HETATM   20  C16 UNL     1       3.868   1.470   1.189  1.00  0.00     0.451 C 
HETATM   21  O6  UNL     1       3.207   0.609   2.067  1.00  0.00    -0.177 OA
HETATM   22  O7  UNL     1       4.083   0.181   2.929  1.00  0.00    -0.201 OA
HETATM   23  C17 UNL     1       5.298   0.786   2.661  1.00  0.00     0.325 C 
HETATM   24  O9  UNL     1       4.907   1.949   2.003  1.00  0.00    -0.301 OA
BRANCH  23  25
HETATM   25  C18 UNL     1       6.067   1.103   3.928  1.00  0.00     0.228 C 
BRANCH  25  26
HETATM   26  O8  UNL     1       6.310  -0.066   4.622  1.00  0.00    -0.396 OA
ATOM     27  H8  UNL     1       6.792   0.133   5.416  1.00  0.00     0.209 HD
ENDBRANCH  25  26
ENDBRANCH  23  25
ENDBRANCH  19  20
ENDBRANCH  12  19
ENDBRANCH   7   8
ENDBRANCH   5   7
BRANCH   4  28
HETATM   28  N3  UNL     1       0.184  -2.627  -1.020  1.00  0.00    -0.072 N 
ATOM     29  H33 UNL     1      -0.591  -2.284  -0.453  1.00  0.00     0.274 HD
ATOM     30  H32 UNL     1      -0.194  -3.528  -1.312  1.00  0.00     0.274 HD
ATOM     31  H31 UNL     1       1.011  -2.765  -0.439  1.00  0.00     0.274 HD
ENDBRANCH   4  28
BRANCH   6  32
HETATM   32  O10 UNL     1       0.267   1.636  -0.838  1.00  0.00    -0.390 OA
ATOM     33  H10 UNL     1       1.155   1.731  -0.513  1.00  0.00     0.210 HD
ENDBRANCH   6  32
BRANCH   1  34
HETATM   34  O3  UNL     1      -2.134  -0.750  -0.604  1.00  0.00    -0.349 OA
BRANCH  34  35
HETATM   35  C6  UNL     1      -3.184  -0.197   0.175  1.00  0.00     0.291 C 
HETATM   36  O2  UNL     1      -2.914  -0.230   1.497  1.00  0.00    -0.351 OA
HETATM   37  C4  UNL     1      -3.713  -0.886   2.360  1.00  0.00     0.151 C 
HETATM   38  C3  UNL     1      -5.157  -1.044   2.012  1.00  0.00     0.172 C 
HETATM   39  C5  UNL     1      -3.578  -0.171   3.722  1.00  0.00     0.042 C 
HETATM   40  C2  UNL     1      -5.556  -0.398   0.744  1.00  0.00     0.144 C 
HETATM   41  C20 UNL     1      -4.499  -0.729  -0.286  1.00  0.00     0.198 C 
BRANCH  38  42
HETATM   42  O1  UNL     1      -6.007  -0.749   3.086  1.00  0.00    -0.391 OA
ATOM     43  H1  UNL     1      -5.751  -1.164   3.901  1.00  0.00     0.210 HD
ENDBRANCH  38  42
BRANCH  40  44
HETATM   44  N1  UNL     1      -5.968   0.904   0.703  1.00  0.00    -0.398 N 
HETATM   45  C1  UNL     1      -5.296   2.049   1.020  1.00  0.00     0.112 C 
ATOM     46  H1  UNL     1      -6.928   1.042   0.386  1.00  0.00     0.158 HD
ENDBRANCH  40  44
BRANCH  41  47
HETATM   47  O11 UNL     1      -4.480  -2.131  -0.444  1.00  0.00    -0.388 OA
ATOM     48  H11 UNL     1      -3.816  -2.339  -1.091  1.00  0.00     0.210 HD
ENDBRANCH  41  47
ENDBRANCH  34  35
ENDBRANCH   1  34
BRANCH   2  49
HETATM   49  N2  UNL     1      -2.708  -0.200  -3.528  1.00  0.00    -0.072 N 
ATOM     50  H23 UNL     1      -3.368  -0.808  -3.043  1.00  0.00     0.274 HD
ATOM     51  H22 UNL     1      -3.173   0.700  -3.406  1.00  0.00     0.274 HD
ATOM     52  H21 UNL     1      -2.665  -0.444  -4.517  1.00  0.00     0.274 HD
ENDBRANCH   2  49
TORSDOF 15
