REMARK  3 active torsions:
REMARK  status: ('A' for Active; 'I' for Inactive)
REMARK    1  A    between atoms: N3_4  and  C2_6 
REMARK    2  A    between atoms: C3_7  and  C4_8 
REMARK    3  A    between atoms: C6_15  and  C7_16 
ROOT
HETATM    1  C2  UNL     1       0.534  -0.700  -0.028  1.00  0.00     0.140 C 
HETATM    2  C3  UNL     1       1.063  -2.130   0.196  1.00  0.00     0.168 C 
HETATM    3  N4  UNL     1       0.007  -3.008  -0.265  1.00  0.00    -0.373 N 
ATOM      4  H4  UNL     1       0.147  -3.675  -1.024  1.00  0.00     0.161 HD
HETATM    5  C5  UNL     1      -1.239  -2.877   0.412  1.00  0.00     0.172 C 
HETATM    6  N5  UNL     1      -1.522  -1.731   0.895  1.00  0.00    -0.376 N 
ATOM      7  H5  UNL     1      -2.413  -1.635   1.382  1.00  0.00     0.161 HD
HETATM    8  C6  UNL     1      -0.685  -0.562   0.808  1.00  0.00     0.140 C 
ENDROOT
BRANCH   8   9
HETATM    9  C7  UNL     1      -1.541   0.599   0.520  1.00  0.00    -0.034 A 
HETATM   10  C8  UNL     1      -2.655   0.808   1.303  1.00  0.00     0.009 A 
HETATM   11  C9  UNL     1      -3.512   1.880   1.079  1.00  0.00     0.001 A 
HETATM   12  C10 UNL     1      -3.242   2.752   0.051  1.00  0.00     0.000 A 
HETATM   13  C11 UNL     1      -2.136   2.570  -0.750  1.00  0.00     0.001 A 
HETATM   14  C12 UNL     1      -1.290   1.478  -0.497  1.00  0.00     0.009 A 
ENDBRANCH   8   9
BRANCH   1  15
HETATM   15  N3  UNL     1       1.584   0.179   0.442  1.00  0.00    -0.358 N 
HETATM   16  C1  UNL     1       2.437   0.808  -0.244  1.00  0.00     0.197 C 
HETATM   17  N1  UNL     1       3.372   1.614   0.467  1.00  0.00    -0.067 NA
HETATM   18  N2  UNL     1       2.512   0.761  -1.683  1.00  0.00    -0.067 NA
ATOM     19  H3  UNL     1       1.642   0.306   1.452  1.00  0.00     0.162 HD
ENDBRANCH   1  15
BRANCH   2  20
HETATM   20  C4  UNL     1       2.333  -2.376  -0.500  1.00  0.00     0.258 C 
HETATM   21  O1  UNL     1       2.377  -3.233  -1.358  1.00  0.00    -0.305 OA
ENDBRANCH   2  20
TORSDOF 3
