REMARK  8 active torsions:
REMARK  status: ('A' for Active; 'I' for Inactive)
REMARK    1  A    between atoms: C3_6  and  N3_7 
REMARK    2  A    between atoms: C5_9  and  N4_10 
REMARK    3  A    between atoms: C6_14  and  O1_15 
REMARK    4  A    between atoms: C9_20  and  N5_21 
REMARK    5  A    between atoms: N5_21  and  N6_23 
REMARK    6  A    between atoms: N6_23  and  N7_25 
REMARK    7  A    between atoms: C10_30  and  C11_31 
REMARK    8  A    between atoms: C11_31  and  N9_32 
REMARK       I    between atoms: N9_32  and  C12_35 
REMARK       I    between atoms: C12_35  and  N10_36 
REMARK       I    between atoms: C12_35  and  N11_40 
ROOT
HETATM    1  N1  UNL     1       2.733  -0.400   3.399  1.00  0.00    -0.190 NA
HETATM    2  C1  UNL     1       2.146  -0.008   2.456  1.00  0.00     0.119 C 
HETATM    3  C2  UNL     1       1.402   0.450   1.292  1.00  0.00     0.140 A 
HETATM    4  N2  UNL     1       0.089   0.445   1.238  1.00  0.00    -0.329 N 
ATOM      5  H2  UNL     1      -0.444   0.048   2.012  1.00  0.00     0.168 HD
HETATM    6  C3  UNL     1      -0.565   0.957   0.176  1.00  0.00     0.157 A 
HETATM    7  C9  UNL     1       0.099   1.557  -0.928  1.00  0.00     0.167 A 
HETATM    8  N8  UNL     1       1.438   1.514  -0.832  1.00  0.00    -0.338 N 
ATOM      9  H8  UNL     1       1.998   1.902  -1.591  1.00  0.00     0.167 HD
HETATM   10  C10 UNL     1       2.047   0.996   0.193  1.00  0.00     0.074 A 
ENDROOT
BRANCH  10  11
HETATM   11  C11 UNL     1       3.506   0.653   0.235  1.00  0.00     0.296 C 
BRANCH  11  12
HETATM   12  N9  UNL     1       3.748  -0.185  -0.965  1.00  0.00    -0.017 N 
HETATM   13  C12 UNL     1       4.574  -1.330  -0.451  1.00  0.00     0.576 C 
HETATM   14  N10 UNL     1       5.909  -1.043  -0.116  1.00  0.00    -0.026 N 
HETATM   15  N11 UNL     1       4.335  -2.557  -1.133  1.00  0.00    -0.026 N 
ATOM     16 3H10 UNL     1       6.378  -0.614  -0.914  1.00  0.00     0.278 HD
ATOM     17 2H10 UNL     1       5.936  -0.273   0.553  1.00  0.00     0.278 HD
ATOM     18 1H10 UNL     1       6.470  -1.820   0.233  1.00  0.00     0.278 HD
ATOM     19 3H11 UNL     1       3.343  -2.792  -1.115  1.00  0.00     0.278 HD
ATOM     20 2H11 UNL     1       4.465  -2.442  -2.138  1.00  0.00     0.278 HD
ATOM     21 1H11 UNL     1       4.896  -3.334  -0.784  1.00  0.00     0.278 HD
ATOM     22  H92 UNL     1       2.900  -0.468  -1.456  1.00  0.00     0.282 HD
ATOM     23  H91 UNL     1       4.168   0.316  -1.748  1.00  0.00     0.282 HD
ENDBRANCH  11  12
ENDBRANCH  10  11
BRANCH   6  24
HETATM   24  N3  UNL     1      -1.928   0.516  -0.024  1.00  0.00    -0.298 N 
HETATM   25  C4  UNL     1      -2.682   0.088   1.154  1.00  0.00     0.169 C 
HETATM   26  C5  UNL     1      -3.499  -1.138   0.686  1.00  0.00     0.230 C 
HETATM   27  C6  UNL     1      -4.604  -0.615  -0.207  1.00  0.00     0.159 C 
HETATM   28  C7  UNL     1      -4.058   0.313  -1.230  1.00  0.00     0.137 C 
HETATM   29  C8  UNL     1      -2.559   0.310  -1.258  1.00  0.00     0.228 C 
HETATM   30  O2  UNL     1      -1.952   0.094  -2.369  1.00  0.00    -0.273 OA
BRANCH  26  31
HETATM   31  N4  UNL     1      -2.673  -2.048  -0.117  1.00  0.00    -0.071 N 
ATOM     32  H43 UNL     1      -2.237  -1.565  -0.903  1.00  0.00     0.274 HD
ATOM     33  H42 UNL     1      -1.828  -2.328   0.382  1.00  0.00     0.274 HD
ATOM     34  H41 UNL     1      -3.212  -2.857  -0.426  1.00  0.00     0.274 HD
ENDBRANCH  26  31
BRANCH  27  35
HETATM   35  O1  UNL     1      -5.211  -1.655  -0.854  1.00  0.00    -0.393 OA
ATOM     36  H1  UNL     1      -5.904  -1.327  -1.414  1.00  0.00     0.210 HD
ENDBRANCH  27  35
ENDBRANCH   6  24
BRANCH   7  37
HETATM   37  N5  UNL     1      -0.688   2.246  -1.861  1.00  0.00    -0.268 N 
ATOM     38  H5  UNL     1      -0.882   1.772  -2.743  1.00  0.00     0.190 HD
BRANCH  37  39
HETATM   39  N6  UNL     1      -1.191   3.426  -1.708  1.00  0.00    -0.248 N 
ATOM     40  H6  UNL     1      -1.760   3.825  -2.455  1.00  0.00     0.207 HD
BRANCH  39  41
HETATM   41  N7  UNL     1      -0.974   4.172  -0.541  1.00  0.00    -0.331 N 
ATOM     42  H72 UNL     1      -0.403   3.758   0.196  1.00  0.00     0.178 HD
ATOM     43  H71 UNL     1      -1.371   5.104  -0.420  1.00  0.00     0.178 HD
ENDBRANCH  39  41
ENDBRANCH  37  39
ENDBRANCH   7  37
TORSDOF 8
