REMARK  6 active torsions:
REMARK  status: ('A' for Active; 'I' for Inactive)
REMARK    1  A    between atoms: O1_2  and  C2_3 
REMARK    2  A    between atoms: C2_3  and  C3_5 
REMARK    3  A    between atoms: N2_8  and  C4_9 
REMARK    4  A    between atoms: C5_12  and  N4_13 
REMARK    5  A    between atoms: C7_20  and  N6_21 
REMARK    6  A    between atoms: N6_21  and  C8_23 
ROOT
HETATM    1  C4  UNL     1      -0.481   1.594   0.315  1.00  0.00     0.170 A 
HETATM    2  N3  UNL     1      -0.227   2.602   1.200  1.00  0.00    -0.173 N 
ATOM      3  H3  UNL     1       0.733   2.738   1.518  1.00  0.00     0.186 HD
HETATM    4  C5  UNL     1      -1.176   3.421   1.671  1.00  0.00     0.680 A 
HETATM    5  N5  UNL     1      -2.438   3.231   1.245  1.00  0.00    -0.154 N 
ATOM      6  H5  UNL     1      -3.165   3.852   1.601  1.00  0.00     0.187 HD
HETATM    7  C6  UNL     1      -2.792   2.272   0.380  1.00  0.00     0.290 A 
HETATM    8  O3  UNL     1      -3.983   2.109  -0.009  1.00  0.00    -0.265 OA
HETATM    9  C7  UNL     1      -1.765   1.431  -0.093  1.00  0.00     0.144 A 
ENDROOT
BRANCH   1  10
HETATM   10  N2  UNL     1       0.577   0.790  -0.171  1.00  0.00    -0.274 N 
HETATM   11  N1  UNL     1       0.956  -0.435   0.327  1.00  0.00    -0.295 N 
HETATM   12  C3  UNL     1       2.150  -0.890   0.151  1.00  0.00     0.101 C 
ATOM     13  H1  UNL     1       0.279  -0.995   0.846  1.00  0.00     0.187 HD
HETATM   14  C13 UNL     1       3.155  -0.099  -0.618  1.00  0.00     0.066 C 
HETATM   15  C12 UNL     1       2.489   0.637  -1.754  1.00  0.00     0.028 C 
HETATM   16  C11 UNL     1       1.307   1.370  -1.277  1.00  0.00     0.151 C 
BRANCH  12  17
HETATM   17  C2  UNL     1       2.531  -2.172   0.678  1.00  0.00     0.306 C 
HETATM   18  O2  UNL     1       1.680  -2.851   1.308  1.00  0.00    -0.258 OA
BRANCH  17  19
HETATM   19  O1  UNL     1       3.791  -2.709   0.533  1.00  0.00    -0.322 OA
HETATM   20  C1  UNL     1       4.149  -3.976   1.060  1.00  0.00     0.213 C 
ENDBRANCH  17  19
ENDBRANCH  12  17
ENDBRANCH   1  10
BRANCH   9  21
HETATM   21  N6  UNL     1      -2.164   0.397  -0.965  1.00  0.00    -0.379 N 
ATOM     22  H6  UNL     1      -1.873   0.448  -1.941  1.00  0.00     0.160 HD
BRANCH  21  23
HETATM   23  C8  UNL     1      -2.964  -0.731  -0.545  1.00  0.00     0.074 C 
HETATM   24  C9  UNL     1      -3.115  -1.718  -1.711  1.00  0.00     0.031 C 
HETATM   25  C10 UNL     1      -2.508  -1.479   0.642  1.00  0.00     0.031 C 
ENDBRANCH  21  23
ENDBRANCH   9  21
BRANCH   4  26
HETATM   26  N4  UNL     1      -0.837   4.346   2.502  1.00  0.00    -0.234 N 
ATOM     27  H42 UNL     1       0.120   4.490   2.825  1.00  0.00     0.174 HD
ATOM     28  H41 UNL     1      -1.560   4.970   2.861  1.00  0.00     0.174 HD
ENDBRANCH   4  26
TORSDOF 6
