REMARK  8 active torsions:
REMARK  status: ('A' for Active; 'I' for Inactive)
REMARK    1  A    between atoms: C2_2  and  C3_3 
REMARK    2  A    between atoms: C3_3  and  C4_4 
REMARK    3  A    between atoms: C4_4  and  C5_5 
REMARK    4  A    between atoms: C7_9  and  C8_10 
REMARK    5  A    between atoms: C12_17  and  C13_18 
REMARK    6  A    between atoms: C13_18  and  C14_19 
REMARK    7  A    between atoms: C17_24  and  O4_25 
REMARK    8  A    between atoms: C21_33  and  C22_34 
ROOT
HETATM    1  C5  UNL     1      -2.710  -0.877  -0.467  1.00  0.00     0.223 C 
HETATM    2  O1  UNL     1      -1.881  -1.540   0.411  1.00  0.00    -0.305 OA
HETATM    3  C6  UNL     1      -0.900  -2.466   0.277  1.00  0.00     0.283 C 
HETATM    4  O2  UNL     1      -0.969  -3.626   0.725  1.00  0.00    -0.263 OA
HETATM    5  C7  UNL     1       0.342  -2.099  -0.441  1.00  0.00     0.188 C 
HETATM    6  N1  UNL     1       1.143  -1.272   0.412  1.00  0.00    -0.342 N 
ATOM      7  H1  UNL     1       0.618  -0.862   1.185  1.00  0.00     0.163 HD
HETATM    8  C11 UNL     1       2.478  -0.913   0.407  1.00  0.00     0.268 C 
HETATM    9  O3  UNL     1       3.059  -1.117   1.551  1.00  0.00    -0.266 OA
HETATM   10  C12 UNL     1       3.349  -0.362  -0.607  1.00  0.00     0.099 C 
HETATM   11  N2  UNL     1       2.925   0.691  -1.465  1.00  0.00    -0.335 N 
ATOM     12  H2  UNL     1       3.687   0.951  -2.092  1.00  0.00     0.168 HD
HETATM   13  C17 UNL     1       1.831   1.468  -1.724  1.00  0.00     0.139 C 
HETATM   14  C18 UNL     1       1.066   2.476  -0.985  1.00  0.00     0.155 C 
HETATM   15  C19 UNL     1       1.620   3.890  -1.175  1.00  0.00     0.041 C 
HETATM   16  N3  UNL     1       0.891   2.299   0.416  1.00  0.00    -0.348 N 
ATOM     17  H3  UNL     1       1.755   2.095   0.918  1.00  0.00     0.163 HD
HETATM   18  C20 UNL     1      -0.228   2.351   1.227  1.00  0.00     0.241 C 
HETATM   19  O5  UNL     1      -0.030   2.837   2.416  1.00  0.00    -0.271 OA
HETATM   20  C21 UNL     1      -1.629   1.958   1.009  1.00  0.00     0.180 C 
HETATM   21  N4  UNL     1      -2.051   1.635  -0.294  1.00  0.00    -0.345 N 
ATOM     22  H4  UNL     1      -2.296   2.449  -0.857  1.00  0.00     0.163 HD
HETATM   23  C25 UNL     1      -2.201   0.427  -0.967  1.00  0.00     0.248 C 
HETATM   24  O6  UNL     1      -1.846   0.445  -2.205  1.00  0.00    -0.271 OA
ENDROOT
BRANCH   1  25
HETATM   25  C4  UNL     1      -4.063  -0.678   0.231  1.00  0.00     0.042 C 
BRANCH  25  26
HETATM   26  C3  UNL     1      -4.738  -1.923   0.644  1.00  0.00     0.003 C 
BRANCH  26  27
HETATM   27  C2  UNL     1      -5.035  -2.817  -0.533  1.00  0.00    -0.004 C 
HETATM   28  C1  UNL     1      -5.749  -4.075  -0.051  1.00  0.00     0.005 C 
ENDBRANCH  26  27
ENDBRANCH  25  26
ENDBRANCH   1  25
BRANCH   5  29
HETATM   29  C8  UNL     1       1.015  -3.357  -0.907  1.00  0.00     0.010 C 
HETATM   30  C9  UNL     1       1.408  -4.311   0.169  1.00  0.00     0.012 C 
HETATM   31  C10 UNL     1       0.045  -4.029  -1.891  1.00  0.00     0.012 C 
ENDBRANCH   5  29
BRANCH  20  32
HETATM   32  C22 UNL     1      -2.430   3.177   1.516  1.00  0.00     0.009 C 
HETATM   33  C23 UNL     1      -2.047   4.428   0.717  1.00  0.00     0.012 C 
HETATM   34  C24 UNL     1      -3.896   3.010   1.438  1.00  0.00     0.012 C 
ENDBRANCH  20  32
BRANCH  10  35
HETATM   35  C13 UNL     1       4.763  -0.166  -0.198  1.00  0.00     0.012 C 
BRANCH  35  36
HETATM   36  C14 UNL     1       5.180   0.693   0.890  1.00  0.00     0.002 C 
HETATM   37  C15 UNL     1       6.731   0.578   0.952  1.00  0.00     0.013 C 
HETATM   38  C16 UNL     1       4.948   2.166   0.778  1.00  0.00     0.013 C 
ENDBRANCH  35  36
ENDBRANCH  10  35
BRANCH  13  39
HETATM   39  O4  UNL     1       1.330   1.284  -2.923  1.00  0.00    -0.348 OA
ATOM     40  H4  UNL     1       0.570   1.824  -3.103  1.00  0.00     0.219 HD
ENDBRANCH  13  39
TORSDOF 8
