REMARK  5 active torsions:
REMARK  status: ('A' for Active; 'I' for Inactive)
REMARK    1  A    between atoms: C4_9  and  C5_10 
REMARK    2  A    between atoms: C5_10  and  N3_11 
REMARK    3  A    between atoms: N3_11  and  C6_13 
REMARK    4  A    between atoms: C6_13  and  C7_14 
REMARK    5  A    between atoms: C7_14  and  C8_15 
ROOT
HETATM    1  C5  UNL     1      -1.756  -0.277   1.241  1.00  0.00     0.102 C 
ENDROOT
BRANCH   1   2
HETATM    2  C4  UNL     1      -2.709  -0.376   0.300  1.00  0.00     0.075 A 
HETATM    3  C2  UNL     1      -3.513  -1.462   0.025  1.00  0.00     0.056 A 
HETATM    4  C1  UNL     1      -3.467  -2.615   0.667  1.00  0.00     0.045 C 
HETATM    5  N1  UNL     1      -4.351  -1.144  -1.011  1.00  0.00    -0.298 N 
HETATM    6  N2  UNL     1      -4.072   0.093  -1.360  1.00  0.00    -0.265 N 
ATOM      7  H1  UNL     1      -5.056  -1.750  -1.431  1.00  0.00     0.187 HD
HETATM    8  C3  UNL     1      -3.090   0.601  -0.601  1.00  0.00     0.273 A 
ATOM      9  H2  UNL     1      -4.541   0.600  -2.110  1.00  0.00     0.190 HD
HETATM   10  O1  UNL     1      -2.586   1.756  -0.672  1.00  0.00    -0.266 OA
ENDBRANCH   1   2
BRANCH   1  11
HETATM   11  N3  UNL     1      -1.021   0.919   1.388  1.00  0.00    -0.398 N 
ATOM     12  H3  UNL     1      -1.511   1.802   1.534  1.00  0.00     0.158 HD
BRANCH  11  13
HETATM   13  C6  UNL     1       0.415   0.897   1.333  1.00  0.00     0.123 C 
BRANCH  13  14
HETATM   14  C7  UNL     1       0.805   0.546  -0.093  1.00  0.00     0.058 C 
BRANCH  14  15
HETATM   15  C8  UNL     1       2.279   0.500  -0.232  1.00  0.00    -0.057 A 
HETATM   16  C9  UNL     1       2.974  -0.670  -0.017  1.00  0.00     0.007 A 
HETATM   17  C10 UNL     1       4.350  -0.712  -0.145  1.00  0.00     0.001 A 
HETATM   18  C11 UNL     1       5.043   0.433  -0.495  1.00  0.00     0.000 A 
HETATM   19  C12 UNL     1       4.357   1.594  -0.709  1.00  0.00     0.001 A 
HETATM   20  C13 UNL     1       2.970   1.641  -0.581  1.00  0.00     0.007 A 
ENDBRANCH  14  15
ENDBRANCH  13  14
ENDBRANCH  11  13
ENDBRANCH   1  11
TORSDOF 5
