REMARK  5 active torsions:
REMARK  status: ('A' for Active; 'I' for Inactive)
REMARK    1  A    between atoms: C1_4  and  N2_5 
REMARK    2  A    between atoms: C1_4  and  C9_15 
REMARK    3  A    between atoms: N2_5  and  C2_7 
REMARK    4  A    between atoms: C2_7  and  C3_8 
REMARK    5  A    between atoms: C3_8  and  N3_9 
ROOT
HETATM    1  N1  UNL     1      -2.763  -2.725   1.027  1.00  0.00    -0.384 N 
ATOM      2  H11 UNL     1      -3.752  -2.840   0.804  1.00  0.00     0.157 HD
ATOM      3  H12 UNL     1      -2.195  -3.466   1.438  1.00  0.00     0.157 HD
HETATM    4  C1  UNL     1      -2.217  -1.566   0.767  1.00  0.00     0.123 C 
ENDROOT
BRANCH   4   5
HETATM    5  N2  UNL     1      -0.846  -1.406   1.076  1.00  0.00    -0.373 N 
ATOM      6  H2  UNL     1      -0.489  -1.901   1.893  1.00  0.00     0.161 HD
BRANCH   5   7
HETATM    7  C2  UNL     1       0.089  -0.598   0.328  1.00  0.00     0.141 C 
BRANCH   7   8
HETATM    8  C3  UNL     1       1.475  -0.701   0.955  1.00  0.00     0.147 C 
BRANCH   8   9
HETATM    9  N3  UNL     1       2.443   0.083   0.252  1.00  0.00    -0.365 N 
HETATM   10  C4  UNL     1       3.140  -0.464  -0.765  1.00  0.00     0.090 A 
HETATM   11  C5  UNL     1       4.060   0.347  -1.403  1.00  0.00     0.017 A 
HETATM   12  C6  UNL     1       4.289   1.657  -1.052  1.00  0.00     0.003 A 
HETATM   13  C7  UNL     1       3.565   2.184  -0.014  1.00  0.00     0.017 A 
HETATM   14  C8  UNL     1       2.655   1.382   0.617  1.00  0.00     0.090 A 
ENDBRANCH   8   9
ENDBRANCH   7   8
ENDBRANCH   5   7
ENDBRANCH   4   5
BRANCH   4  15
HETATM   15  C9  UNL     1      -3.038  -0.495   0.173  1.00  0.00     0.092 A 
HETATM   16  C10 UNL     1      -4.377  -0.568  -0.159  1.00  0.00     0.122 A 
HETATM   17  N4  UNL     1      -4.787   0.606  -0.680  1.00  0.00    -0.360 N 
HETATM   18  C11 UNL     1      -3.717   1.415  -0.677  1.00  0.00     0.180 A 
ATOM     19  H4  UNL     1      -5.725   0.834  -1.011  1.00  0.00     0.166 HD
HETATM   20  N5  UNL     1      -2.667   0.749  -0.163  1.00  0.00    -0.348 N 
ATOM     21  H5  UNL     1      -1.729   1.133  -0.046  1.00  0.00     0.167 HD
ENDBRANCH   4  15
TORSDOF 5
