REMARK  2 active torsions:
REMARK  status: ('A' for Active; 'I' for Inactive)
REMARK    1  A    between atoms: N1_1  and  C1_4 
REMARK    2  A    between atoms: N3_9  and  C4_10 
ROOT
HETATM    1  C1  UNL     1      -2.078  -1.208   0.142  1.00  0.00     0.677 A 
HETATM    2  N2  UNL     1      -0.854  -1.749   0.367  1.00  0.00    -0.190 N 
ATOM      3  H2  UNL     1      -0.767  -2.748   0.554  1.00  0.00     0.184 HD
HETATM    4  C2  UNL     1       0.250  -0.970   0.344  1.00  0.00     0.084 A 
HETATM    5  C3  UNL     1       1.601  -1.187   0.524  1.00  0.00     0.134 A 
HETATM    6  N3  UNL     1       2.273  -0.024   0.387  1.00  0.00    -0.264 N 
HETATM    7  C5  UNL     1       1.391   0.968   0.117  1.00  0.00     0.269 A 
HETATM    8  O2  UNL     1       1.654   2.172  -0.070  1.00  0.00    -0.266 OA
HETATM    9  C6  UNL     1       0.109   0.457   0.074  1.00  0.00     0.103 A 
HETATM   10  C7  UNL     1      -1.149   0.945  -0.145  1.00  0.00     0.149 A 
HETATM   11  N4  UNL     1      -1.328   2.314  -0.408  1.00  0.00    -0.081 NA
HETATM   12  N5  UNL     1      -2.210   0.117  -0.108  1.00  0.00    -0.178 N 
ATOM     13  H5  UNL     1      -3.141   0.499  -0.273  1.00  0.00     0.185 HD
ENDROOT
BRANCH   1  14
HETATM   14  N1  UNL     1      -3.106  -1.979   0.172  1.00  0.00    -0.234 N 
ATOM     15  H12 UNL     1      -3.007  -2.977   0.360  1.00  0.00     0.174 HD
ATOM     16  H11 UNL     1      -4.026  -1.572   0.003  1.00  0.00     0.174 HD
ENDBRANCH   1  14
BRANCH   6  17
HETATM   17  C4  UNL     1       3.670   0.153   0.502  1.00  0.00     0.362 C 
HETATM   18  O1  UNL     1       4.412  -0.843   0.757  1.00  0.00    -0.283 OA
ENDBRANCH   6  17
TORSDOF 2
