REMARK  5 active torsions:
REMARK  status: ('A' for Active; 'I' for Inactive)
REMARK    1  A    between atoms: C3_3  and  C6_6 
REMARK    2  A    between atoms: C6_6  and  C7_8 
REMARK    3  A    between atoms: C7_8  and  N1_9 
REMARK       I    between atoms: N1_9  and  C8_11 
REMARK    4  A    between atoms: C8_11  and  C9_13 
REMARK    5  A    between atoms: C10_14  and  C11_15 
ROOT
HETATM    1  C1  UNL     1       6.190   1.398   2.131  1.00  0.00     0.013 C 
HETATM    2  C2  UNL     1       5.519   0.796   1.356  1.00  0.00    -0.100 C 
HETATM    3  C3  UNL     1       4.681   0.068   0.405  1.00  0.00     0.077 C 
HETATM    4  C4  UNL     1       4.862  -1.443   0.600  1.00  0.00     0.037 C 
HETATM    5  C5  UNL     1       5.007   0.431  -1.009  1.00  0.00     0.037 C 
ENDROOT
BRANCH   3   6
HETATM    6  C6  UNL     1       3.241   0.344   0.646  1.00  0.00     0.164 C 
HETATM    7  O1  UNL     1       2.877   1.086   1.531  1.00  0.00    -0.294 OA
BRANCH   6   8
HETATM    8  C7  UNL     1       2.240  -0.314  -0.229  1.00  0.00     0.203 C 
BRANCH   8   9
HETATM    9  N1  UNL     1       0.901   0.055   0.132  1.00  0.00    -0.351 N 
HETATM   10  C8  UNL     1      -0.196  -0.467  -0.583  1.00  0.00     0.241 C 
HETATM   11  O2  UNL     1      -0.009  -1.257  -1.539  1.00  0.00    -0.269 OA
ATOM     12  H1  UNL     1       0.743   0.697   0.909  1.00  0.00     0.163 HD
BRANCH  10  13
HETATM   13  C9  UNL     1      -1.560  -0.104  -0.230  1.00  0.00     0.075 C 
HETATM   14  C10 UNL     1      -2.579  -0.599  -0.907  1.00  0.00     0.024 C 
BRANCH  14  15
HETATM   15  C11 UNL     1      -3.971  -0.237  -0.557  1.00  0.00     0.005 A 
HETATM   16  C12 UNL     1      -4.409   0.597   0.435  1.00  0.00     0.020 A 
HETATM   17  C13 UNL     1      -5.738   0.766   0.552  1.00  0.00     0.015 A 
HETATM   18  C14 UNL     1      -6.537   0.094  -0.325  1.00  0.00    -0.021 A 
HETATM   19  C15 UNL     1      -8.033   0.105  -0.414  1.00  0.00     0.056 C 
HETATM   20  S1  UNL     1      -5.422  -0.756  -1.293  1.00  0.00    -0.095 SA
ENDBRANCH  14  15
ENDBRANCH  10  13
ENDBRANCH   8   9
ENDBRANCH   6   8
ENDBRANCH   3   6
TORSDOF 5
