REMARK  6 active torsions:
REMARK  status: ('A' for Active; 'I' for Inactive)
REMARK    1  A    between atoms: O1_2  and  C2_3 
REMARK    2  A    between atoms: C4_5  and  C5_6 
REMARK    3  A    between atoms: C9_14  and  O3_15 
REMARK    4  A    between atoms: O3_15  and  C10_16 
REMARK    5  A    between atoms: C16_23  and  O4_24 
REMARK    6  A    between atoms: C18_26  and  O5_27 
ROOT
HETATM    1  C2  UNL     1      -2.961  -1.726  -0.852  1.00  0.00     0.105 A 
HETATM    2  C3  UNL     1      -2.570  -0.470  -1.250  1.00  0.00     0.052 A 
HETATM    3  C4  UNL     1      -1.273  -0.013  -0.979  1.00  0.00     0.011 A 
HETATM    4  C9  UNL     1      -0.336  -0.771  -0.317  1.00  0.00     0.114 A 
HETATM    5  C16 UNL     1      -0.756  -2.040   0.078  1.00  0.00     0.138 A 
HETATM    6  C18 UNL     1      -2.054  -2.508  -0.188  1.00  0.00     0.138 A 
ENDROOT
BRANCH   3   7
HETATM    7  C5  UNL     1      -0.930   1.361  -1.414  1.00  0.00     0.183 C 
HETATM    8  C6  UNL     1      -1.985   1.956  -2.347  1.00  0.00     0.269 C 
HETATM    9  N1  UNL     1      -1.422   3.244  -2.761  1.00  0.00    -0.070 N 
HETATM   10  C7  UNL     1      -1.529   4.077  -1.559  1.00  0.00     0.258 C 
ATOM     11  H12 UNL     1      -0.481   3.186  -3.149  1.00  0.00     0.277 HD
ATOM     12  H11 UNL     1      -1.858   3.646  -3.591  1.00  0.00     0.277 HD
HETATM   13  C8  UNL     1      -0.661   3.473  -0.507  1.00  0.00     0.196 C 
HETATM   14  O2  UNL     1      -0.908   2.137  -0.229  1.00  0.00    -0.378 OA
ENDBRANCH   3   7
BRANCH   4  15
HETATM   15  O3  UNL     1       0.886  -0.315  -0.083  1.00  0.00    -0.342 OA
BRANCH  15  16
HETATM   16  C10 UNL     1       1.685   0.372   0.722  1.00  0.00     0.132 C 
HETATM   17  C11 UNL     1       2.554   1.345  -0.090  1.00  0.00     0.062 C 
HETATM   18  C12 UNL     1       4.004   0.865  -0.160  1.00  0.00     0.274 C 
HETATM   19  N2  UNL     1       4.594   1.012   1.160  1.00  0.00     0.084 N 
HETATM   20  C13 UNL     1       5.741   0.138   1.266  1.00  0.00     0.309 C 
HETATM   21  C14 UNL     1       3.596   0.706   2.190  1.00  0.00     0.274 C 
HETATM   22  C15 UNL     1       2.682  -0.377   1.590  1.00  0.00     0.062 C 
ENDBRANCH  15  16
ENDBRANCH   4  15
BRANCH   1  23
HETATM   23  O1  UNL     1      -4.242  -2.196  -1.112  1.00  0.00    -0.353 OA
HETATM   24  C1  UNL     1      -5.225  -1.466  -1.779  1.00  0.00     0.210 C 
ENDBRANCH   1  23
BRANCH   5  25
HETATM   25  O4  UNL     1       0.057  -2.904   0.745  1.00  0.00    -0.351 OA
HETATM   26  C17 UNL     1       0.135  -3.150   2.114  1.00  0.00     0.210 C 
ENDBRANCH   5  25
BRANCH   6  27
HETATM   27  O5  UNL     1      -2.490  -3.765   0.195  1.00  0.00    -0.351 OA
HETATM   28  C19 UNL     1      -3.129  -4.044   1.422  1.00  0.00     0.210 C 
ENDBRANCH   6  27
TORSDOF 6
