REMARK  10 active torsions:
REMARK  status: ('A' for Active; 'I' for Inactive)
REMARK    1  A    between atoms: C2_2  and  O1_3 
REMARK    2  A    between atoms: O1_3  and  C3_4 
REMARK    3  A    between atoms: C3_4  and  C4_6 
REMARK    4  A    between atoms: C4_6  and  C5_7 
REMARK    5  A    between atoms: C5_7  and  N1_8 
REMARK       I    between atoms: N1_8  and  C6_10 
REMARK    6  A    between atoms: C6_10  and  O4_12 
REMARK    7  A    between atoms: O4_12  and  C7_13 
REMARK    8  A    between atoms: C9_15  and  C10_16 
REMARK    9  A    between atoms: C10_16  and  O5_17 
REMARK   10  A    between atoms: C10_16  and  C11_19 
ROOT
HETATM    1  C7  UNL     1      -0.515   1.493  -0.477  1.00  0.00     0.074 C 
HETATM    2  C8  UNL     1      -1.677   1.714   0.211  1.00  0.00    -0.001 C 
HETATM    3  C9  UNL     1      -2.215   0.679   1.042  1.00  0.00     0.029 C 
HETATM    4  C15 UNL     1      -2.725   1.081   2.257  1.00  0.00     0.093 C 
HETATM    5 CL1  UNL     1      -3.380  -0.066   3.374  1.00  0.00    -0.079 Cl
HETATM    6  C16 UNL     1      -2.803   2.535   2.423  1.00  0.00     0.172 C 
HETATM    7  O6  UNL     1      -2.527   3.016   3.521  1.00  0.00    -0.291 OA
HETATM    8  C17 UNL     1      -3.226   3.324   1.204  1.00  0.00     0.102 C 
HETATM    9  C18 UNL     1      -2.223   3.100   0.181  1.00  0.00     0.107 C 
HETATM   10  C19 UNL     1      -2.404   3.504  -1.209  1.00  0.00     0.204 C 
HETATM   11  O7  UNL     1      -3.352   4.102  -1.655  1.00  0.00    -0.288 OA
HETATM   12  C20 UNL     1      -1.275   3.108  -2.103  1.00  0.00     0.201 C 
HETATM   13  O8  UNL     1      -1.326   3.182  -3.335  1.00  0.00    -0.289 OA
HETATM   14  C21 UNL     1      -0.073   2.611  -1.322  1.00  0.00     0.152 C 
ENDROOT
BRANCH   1  15
HETATM   15  O4  UNL     1       0.061   0.277  -0.291  1.00  0.00    -0.265 OA
BRANCH  15  16
HETATM   16  C6  UNL     1       0.988   0.063   0.716  1.00  0.00     0.365 C 
HETATM   17  N1  UNL     1       1.615  -1.180   0.952  1.00  0.00    -0.336 N 
ATOM     18  H1  UNL     1       1.382  -1.975   0.356  1.00  0.00     0.164 HD
HETATM   19  O3  UNL     1       1.253   1.059   1.435  1.00  0.00    -0.238 OA
BRANCH  17  20
HETATM   20  C5  UNL     1       2.578  -1.356   2.016  1.00  0.00     0.134 C 
BRANCH  20  21
HETATM   21  C4  UNL     1       3.777  -0.462   1.879  1.00  0.00     0.131 C 
BRANCH  21  22
HETATM   22  C3  UNL     1       4.508  -0.717   0.596  1.00  0.00     0.260 C 
HETATM   23  O2  UNL     1       5.536  -0.033   0.355  1.00  0.00    -0.265 OA
BRANCH  22  24
HETATM   24  O1  UNL     1       4.117  -1.654  -0.327  1.00  0.00    -0.322 OA
BRANCH  24  25
HETATM   25  C2  UNL     1       4.821  -1.880  -1.533  1.00  0.00     0.174 C 
HETATM   26  C1  UNL     1       6.223  -2.297  -1.178  1.00  0.00     0.034 C 
ENDBRANCH  24  25
ENDBRANCH  22  24
ENDBRANCH  21  22
ENDBRANCH  20  21
ENDBRANCH  17  20
ENDBRANCH  15  16
ENDBRANCH   1  15
BRANCH   3  27
HETATM   27  C10 UNL     1      -2.480  -0.649   0.596  1.00  0.00     0.063 C 
BRANCH  27  28
HETATM   28  O5  UNL     1      -2.772  -1.453   1.618  1.00  0.00    -0.363 OA
ATOM     29  H5  UNL     1      -2.949  -2.338   1.321  1.00  0.00     0.217 HD
ENDBRANCH  27  28
BRANCH  27  30
HETATM   30  C11 UNL     1      -2.547  -1.352  -0.643  1.00  0.00    -0.002 C 
HETATM   31  C12 UNL     1      -1.715  -2.636  -0.672  1.00  0.00     0.021 C 
HETATM   32  C13 UNL     1      -4.036  -2.035  -0.634  1.00  0.00     0.021 C 
HETATM   33  C14 UNL     1      -2.567  -0.716  -1.962  1.00  0.00     0.021 C 
ENDBRANCH  27  30
ENDBRANCH   3  27
TORSDOF 10
