REMARK  4 active torsions:
REMARK  status: ('A' for Active; 'I' for Inactive)
REMARK    1  A    between atoms: C2_2  and  N1_5 
REMARK       I    between atoms: N1_5  and  C5_7 
REMARK       I    between atoms: C5_7  and  N3_11 
REMARK    2  A    between atoms: N5_18  and  C11_19 
REMARK    3  A    between atoms: C11_19  and  C12_20 
REMARK    4  A    between atoms: C12_20  and  N6_21 
REMARK       I    between atoms: N6_21  and  C13_23 
ROOT
HETATM    1  N1  UNL     1      -2.887  -0.962  -0.811  1.00  0.00    -0.217 N 
ATOM      2  H1  UNL     1      -3.161  -0.527  -1.692  1.00  0.00     0.178 HD
HETATM    3  C5  UNL     1      -1.986  -0.257   0.000  1.00  0.00     0.696 C 
HETATM    4  N2  UNL     1      -2.018  -0.305   1.251  1.00  0.00    -0.233 N 
ATOM      5  H21 UNL     1      -1.363   0.208   1.841  1.00  0.00     0.174 HD
ATOM      6  H22 UNL     1      -2.730  -0.880   1.701  1.00  0.00     0.174 HD
HETATM    7  N3  UNL     1      -0.984   0.552  -0.633  1.00  0.00    -0.057 N 
HETATM    8  C6  UNL     1      -1.533   1.856  -0.936  1.00  0.00     0.205 C 
HETATM    9  C7  UNL     1      -1.215   2.813   0.152  1.00  0.00     0.260 C 
HETATM   10  N4  UNL     1       0.186   3.068   0.346  1.00  0.00    -0.066 N 
HETATM   11  C8  UNL     1       0.238   4.451   0.851  1.00  0.00     0.272 C 
HETATM   12  C9  UNL     1       0.947   3.081  -0.884  1.00  0.00     0.268 C 
HETATM   13  C10 UNL     1       1.596   1.807  -1.260  1.00  0.00     0.303 C 
HETATM   14  N5  UNL     1       1.279   0.656  -0.454  1.00  0.00     0.072 N 
HETATM   15  C14 UNL     1       1.378   0.985   0.926  1.00  0.00     0.303 C 
HETATM   16  C15 UNL     1       0.774   2.261   1.370  1.00  0.00     0.268 C 
HETATM   17  O1  UNL     1       0.192  -0.015  -0.820  1.00  0.00    -0.057 OA
ENDROOT
BRANCH   1  18
HETATM   18  C2  UNL     1      -3.451  -2.232  -0.508  1.00  0.00     0.036 C 
HETATM   19  C1  UNL     1      -4.372  -2.297   0.659  1.00  0.00     0.038 C 
HETATM   20  C3  UNL     1      -4.160  -2.818  -1.726  1.00  0.00     0.038 C 
HETATM   21  C4  UNL     1      -2.273  -3.163  -0.184  1.00  0.00     0.038 C 
ENDBRANCH   1  18
BRANCH  14  22
HETATM   22  C11 UNL     1       2.394  -0.292  -0.718  1.00  0.00     0.295 C 
BRANCH  22  23
HETATM   23  C12 UNL     1       2.248  -1.564   0.047  1.00  0.00     0.153 C 
BRANCH  23  24
HETATM   24  N6  UNL     1       3.369  -2.405  -0.284  1.00  0.00    -0.363 N 
HETATM   25  C13 UNL     1       4.681  -2.081   0.112  1.00  0.00     0.181 C 
HETATM   26  N7  UNL     1       4.916  -1.502   1.224  1.00  0.00    -0.374 N 
HETATM   27  N8  UNL     1       5.825  -2.385  -0.711  1.00  0.00    -0.064 NA
ATOM     28  H72 UNL     1       4.107  -1.287   1.806  1.00  0.00     0.158 HD
ATOM     29  H71 UNL     1       5.866  -1.267   1.511  1.00  0.00     0.158 HD
ATOM     30  H6  UNL     1       3.208  -3.258  -0.820  1.00  0.00     0.162 HD
ENDBRANCH  23  24
ENDBRANCH  22  23
ENDBRANCH  14  22
TORSDOF 4
