REMARK  12 active torsions:
REMARK  status: ('A' for Active; 'I' for Inactive)
REMARK    1  A    between atoms: N1_1  and  C1_4 
REMARK    2  A    between atoms: C2_8  and  N3_9 
REMARK    3  A    between atoms: N3_9  and  C3_11 
REMARK    4  A    between atoms: C3_11  and  C4_12 
REMARK    5  A    between atoms: C4_12  and  C5_13 
REMARK    6  A    between atoms: C5_13  and  N4_14 
REMARK    7  A    between atoms: N4_14  and  C6_16 
REMARK    8  A    between atoms: C6_16  and  C7_17 
REMARK    9  A    between atoms: C7_17  and  C8_18 
REMARK   10  A    between atoms: C8_18  and  N5_19 
REMARK   11  A    between atoms: C10_21  and  C11_22 
REMARK   12  A    between atoms: C11_22  and  N6_23 
ROOT
HETATM    1  N4  UNL     1       0.014   0.814  -0.014  1.00  0.00    -0.382 N 
ATOM      2  H4  UNL     1      -0.530   1.251   0.730  1.00  0.00     0.163 HD
ENDROOT
BRANCH   1   3
HETATM    3  C5  UNL     1       1.360   0.610   0.239  1.00  0.00     0.061 C 
BRANCH   3   4
HETATM    4  C4  UNL     1       1.747  -0.826   0.421  1.00  0.00     0.064 C 
BRANCH   4   5
HETATM    5  C3  UNL     1       3.248  -0.840   0.719  1.00  0.00     0.128 C 
BRANCH   5   6
HETATM    6  N3  UNL     1       4.012  -0.262  -0.356  1.00  0.00    -0.354 N 
ATOM      7  H3  UNL     1       3.626  -0.212  -1.299  1.00  0.00     0.163 HD
BRANCH   6   8
HETATM    8  C2  UNL     1       5.213   0.199  -0.100  1.00  0.00     0.258 A 
HETATM    9  O1  UNL     1       5.818   0.190   1.078  1.00  0.00    -0.186 OA
HETATM   10  N2  UNL     1       7.005   0.726   0.982  1.00  0.00    -0.088 N 
HETATM   11  C1  UNL     1       7.204   1.105  -0.291  1.00  0.00     0.699 A 
ATOM     12  H2  UNL     1       7.670   0.838   1.747  1.00  0.00     0.214 HD
HETATM   13  N8  UNL     1       6.080   0.769  -0.949  1.00  0.00    -0.152 N 
ATOM     14  H8  UNL     1       5.913   0.924  -1.943  1.00  0.00     0.188 HD
BRANCH  11  15
HETATM   15  N1  UNL     1       8.270   1.679  -0.784  1.00  0.00    -0.233 N 
ATOM     16  H12 UNL     1       9.122   1.934  -0.285  1.00  0.00     0.174 HD
ATOM     17  H11 UNL     1       8.421   1.967  -1.751  1.00  0.00     0.174 HD
ENDBRANCH  11  15
ENDBRANCH   6   8
ENDBRANCH   5   6
ENDBRANCH   4   5
ENDBRANCH   3   4
ENDBRANCH   1   3
BRANCH   1  18
HETATM   18  C6  UNL     1      -0.667   0.488  -1.165  1.00  0.00     0.061 C 
BRANCH  18  19
HETATM   19  C7  UNL     1      -0.927  -0.917  -1.556  1.00  0.00     0.064 C 
BRANCH  19  20
HETATM   20  C8  UNL     1      -1.691  -1.753  -0.581  1.00  0.00     0.132 C 
BRANCH  20  21
HETATM   21  N5  UNL     1      -3.023  -1.222  -0.291  1.00  0.00    -0.332 N 
HETATM   22  C9  UNL     1      -3.431  -0.319   0.734  1.00  0.00     0.154 C 
HETATM   23  C10 UNL     1      -4.909  -0.352   0.758  1.00  0.00     0.129 C 
HETATM   24  N7  UNL     1      -5.334  -1.233  -0.288  1.00  0.00    -0.335 N 
HETATM   25  C12 UNL     1      -4.179  -1.568  -1.045  1.00  0.00     0.318 C 
ATOM     26  H7  UNL     1      -6.286  -1.558  -0.458  1.00  0.00     0.164 HD
HETATM   27  O2  UNL     1      -4.202  -2.090  -2.205  1.00  0.00    -0.247 OA
BRANCH  23  28
HETATM   28  C11 UNL     1      -5.533   1.026   0.595  1.00  0.00     0.256 C 
BRANCH  28  29
HETATM   29  N6  UNL     1      -5.104   1.904   1.662  1.00  0.00    -0.077 N 
ATOM     30  H63 UNL     1      -5.296   1.506   2.581  1.00  0.00     0.274 HD
ATOM     31  H62 UNL     1      -4.087   1.953   1.728  1.00  0.00     0.274 HD
ATOM     32  H61 UNL     1      -5.522   2.828   1.553  1.00  0.00     0.274 HD
ENDBRANCH  28  29
ENDBRANCH  23  28
ENDBRANCH  20  21
ENDBRANCH  19  20
ENDBRANCH  18  19
ENDBRANCH   1  18
TORSDOF 12
