REMARK  2 active torsions:
REMARK  status: ('A' for Active; 'I' for Inactive)
REMARK    1  A    between atoms: C1_4  and  N2_5 
REMARK    2  A    between atoms: N2_5  and  C2_7 
ROOT
HETATM    1  C2  UNL     1       0.395  -0.380  -0.350  1.00  0.00     0.035 A 
HETATM    2  C3  UNL     1      -0.219   0.684   0.276  1.00  0.00     0.046 A 
HETATM    3  C4  UNL     1      -1.565   0.665   0.557  1.00  0.00     0.090 A 
HETATM    4  N3  UNL     1      -2.353  -0.373   0.245  1.00  0.00    -0.375 N 
ATOM      5  H3  UNL     1      -3.349  -0.362   0.463  1.00  0.00     0.164 HD
HETATM    6  C5  UNL     1      -1.787  -1.430  -0.366  1.00  0.00     0.090 A 
HETATM    7  C6  UNL     1      -0.445  -1.442  -0.661  1.00  0.00     0.046 A 
ENDROOT
BRANCH   1   8
HETATM    8  N2  UNL     1       1.657  -0.393  -0.628  1.00  0.00    -0.353 N 
ATOM      9  H2  UNL     1       2.088  -1.193  -1.092  1.00  0.00     0.166 HD
BRANCH   8  10
HETATM   10  C1  UNL     1       2.418   0.743  -0.265  1.00  0.00     0.173 C 
HETATM   11  N1  UNL     1       3.241   0.697   0.712  1.00  0.00    -0.395 N 
ATOM     12  H12 UNL     1       3.338  -0.178   1.227  1.00  0.00     0.156 HD
ATOM     13  H11 UNL     1       3.790   1.516   0.974  1.00  0.00     0.156 HD
ENDBRANCH   8  10
ENDBRANCH   1   8
TORSDOF 2
