REMARK  8 active torsions:
REMARK  status: ('A' for Active; 'I' for Inactive)
REMARK    1  A    between atoms: N1_2  and  C2_3 
REMARK    2  A    between atoms: N1_2  and  C7_20 
REMARK    3  A    between atoms: C2_3  and  C3_4 
REMARK    4  A    between atoms: C4_8  and  C5_9 
REMARK    5  A    between atoms: C5_9  and  O1_10 
REMARK    6  A    between atoms: C6_12  and  N3_13 
REMARK    7  A    between atoms: C6_12  and  O2_17 
REMARK    8  A    between atoms: C9_26  and  N6_27 
ROOT
HETATM    1  C7  UNL     1       1.460   0.412   0.613  1.00  0.00     0.686 A 
HETATM    2  N4  UNL     1       2.194   0.264  -0.515  1.00  0.00    -0.175 N 
ATOM      3  H4  UNL     1       1.729   0.420  -1.409  1.00  0.00     0.186 HD
HETATM    4  C8  UNL     1       3.488  -0.073  -0.535  1.00  0.00     0.158 A 
HETATM    5  N5  UNL     1       4.167  -0.199  -1.718  1.00  0.00    -0.175 N 
ATOM      6  H5  UNL     1       3.679  -0.038  -2.599  1.00  0.00     0.186 HD
HETATM    7  C9  UNL     1       5.467  -0.532  -1.732  1.00  0.00     0.680 A 
HETATM    8  N7  UNL     1       6.082  -0.738  -0.555  1.00  0.00    -0.155 N 
ATOM      9  H7  UNL     1       7.070  -0.992  -0.559  1.00  0.00     0.187 HD
HETATM   10  C10 UNL     1       5.447  -0.623   0.636  1.00  0.00     0.279 A 
HETATM   11  O4  UNL     1       6.018  -0.813   1.726  1.00  0.00    -0.266 OA
HETATM   12  C11 UNL     1       4.117  -0.284   0.673  1.00  0.00     0.146 A 
HETATM   13  C12 UNL     1       3.386  -0.137   1.830  1.00  0.00     0.281 A 
HETATM   14  O5  UNL     1       3.956  -0.330   2.938  1.00  0.00    -0.266 OA
HETATM   15  N8  UNL     1       2.070   0.208   1.791  1.00  0.00    -0.151 N 
HETATM   16  C13 UNL     1       1.337   0.347   3.037  1.00  0.00     0.179 C 
ENDROOT
BRANCH   1  17
HETATM   17  N1  UNL     1       0.061   0.772   0.514  1.00  0.00    -0.217 N 
HETATM   18  C1  UNL     1      -0.190   2.102  -0.006  1.00  0.00     0.169 C 
BRANCH  17  19
HETATM   19  C2  UNL     1      -1.000  -0.085   0.885  1.00  0.00     0.202 C 
BRANCH  19  20
HETATM   20  C3  UNL     1      -1.843  -0.683  -0.191  1.00  0.00     0.344 C 
HETATM   21  N2  UNL     1      -2.524   0.196  -1.041  1.00  0.00    -0.034 N 
HETATM   22  C4  UNL     1      -3.923  -0.180  -1.089  1.00  0.00     0.304 C 
ATOM     23  H22 UNL     1      -2.394   1.172  -0.775  1.00  0.00     0.281 HD
ATOM     24  H21 UNL     1      -2.103   0.243  -1.969  1.00  0.00     0.281 HD
HETATM   25  C6  UNL     1      -4.007  -1.316  -0.130  1.00  0.00     0.366 C 
HETATM   26  O3  UNL     1      -2.792  -1.484   0.463  1.00  0.00    -0.296 OA
BRANCH  22  27
HETATM   27  C5  UNL     1      -4.820   0.969  -0.662  1.00  0.00     0.205 C 
BRANCH  27  28
HETATM   28  O1  UNL     1      -4.630   2.070  -1.514  1.00  0.00    -0.399 OA
ATOM     29  H1  UNL     1      -5.191   2.789  -1.247  1.00  0.00     0.209 HD
ENDBRANCH  27  28
ENDBRANCH  22  27
BRANCH  25  30
HETATM   30  N3  UNL     1      -4.475  -2.523  -0.831  1.00  0.00    -0.019 N 
ATOM     31  H33 UNL     1      -5.357  -2.366  -1.319  1.00  0.00     0.281 HD
ATOM     32  H32 UNL     1      -3.896  -2.746  -1.641  1.00  0.00     0.281 HD
ATOM     33  H31 UNL     1      -4.533  -3.301  -0.174  1.00  0.00     0.281 HD
ENDBRANCH  25  30
BRANCH  25  34
HETATM   34  O2  UNL     1      -4.943  -1.035   0.865  1.00  0.00    -0.342 OA
ATOM     35  H2  UNL     1      -4.997  -1.760   1.477  1.00  0.00     0.215 HD
ENDBRANCH  25  34
ENDBRANCH  19  20
ENDBRANCH  17  19
ENDBRANCH   1  17
BRANCH   7  36
HETATM   36  N6  UNL     1       6.133  -0.647  -2.853  1.00  0.00    -0.234 N 
ATOM     37  H62 UNL     1       5.666  -0.491  -3.746  1.00  0.00     0.174 HD
ATOM     38  H61 UNL     1       7.121  -0.900  -2.864  1.00  0.00     0.174 HD
ENDBRANCH   7  36
TORSDOF 8
