REMARK  8 active torsions:
REMARK  status: ('A' for Active; 'I' for Inactive)
REMARK    1  A    between atoms: C2_2  and  N1_3 
REMARK    2  A    between atoms: C2_2  and  C3_7 
REMARK       I    between atoms: C3_7  and  N2_9 
REMARK    3  A    between atoms: N2_9  and  C4_11 
REMARK    4  A    between atoms: C4_11  and  C5_12 
REMARK    5  A    between atoms: C4_11  and  C21_36 
REMARK       I    between atoms: C5_12  and  N3_14 
REMARK    6  A    between atoms: N3_14  and  C6_16 
REMARK    7  A    between atoms: N4_21  and  O3_22 
REMARK    8  A    between atoms: C12_25  and  N5_27 
ROOT
HETATM    1  C6  UNL     1      -0.191  -1.437  -0.885  1.00  0.00     0.123 C 
HETATM    2  C7  UNL     1      -0.092  -2.946  -1.064  1.00  0.00     0.054 C 
HETATM    3  C8  UNL     1      -1.174  -3.553  -1.870  1.00  0.00     0.033 C 
HETATM    4  C9  UNL     1      -1.560  -4.879  -1.237  1.00  0.00     0.034 C 
HETATM    5  C10 UNL     1      -0.760  -3.890  -3.302  1.00  0.00     0.034 C 
HETATM    6  N4  UNL     1      -2.270  -2.635  -1.969  1.00  0.00    -0.188 NA
HETATM    7  C11 UNL     1      -2.491  -2.099  -0.612  1.00  0.00     0.162 C 
HETATM    8  C12 UNL     1      -1.505  -0.911  -0.515  1.00  0.00     0.160 C 
HETATM    9  C13 UNL     1      -2.023   0.028  -1.596  1.00  0.00     0.050 C 
ENDROOT
BRANCH   1  10
HETATM   10  N3  UNL     1       0.978  -1.055  -0.164  1.00  0.00    -0.352 N 
HETATM   11  C5  UNL     1       1.929  -0.070  -0.643  1.00  0.00     0.241 C 
HETATM   12  O2  UNL     1       1.662   0.452  -1.746  1.00  0.00    -0.271 OA
ATOM     13  H3  UNL     1       1.155  -1.498   0.737  1.00  0.00     0.163 HD
BRANCH  11  14
HETATM   14  C4  UNL     1       3.131   0.333   0.075  1.00  0.00     0.180 C 
BRANCH  14  15
HETATM   15  N2  UNL     1       3.536   1.659  -0.397  1.00  0.00    -0.346 N 
HETATM   16  C3  UNL     1       3.812   2.648   0.587  1.00  0.00     0.248 C 
HETATM   17  O1  UNL     1       3.716   2.372   1.814  1.00  0.00    -0.271 OA
ATOM     18  H2  UNL     1       3.617   1.865  -1.393  1.00  0.00     0.163 HD
BRANCH  16  19
HETATM   19  C2  UNL     1       4.218   4.035   0.263  1.00  0.00     0.270 C 
HETATM   20  C1  UNL     1       3.336   4.978   1.065  1.00  0.00     0.050 C 
BRANCH  19  21
HETATM   21  N1  UNL     1       4.140   4.245  -1.152  1.00  0.00    -0.067 N 
ATOM     22  H13 UNL     1       3.173   4.194  -1.472  1.00  0.00     0.275 HD
ATOM     23  H12 UNL     1       4.345   5.217  -1.385  1.00  0.00     0.275 HD
ATOM     24  H11 UNL     1       4.732   3.612  -1.690  1.00  0.00     0.275 HD
ENDBRANCH  19  21
ENDBRANCH  16  19
ENDBRANCH  14  15
BRANCH  14  25
HETATM   25  C21 UNL     1       4.318  -0.572  -0.239  1.00  0.00     0.009 C 
HETATM   26  C22 UNL     1       4.642  -0.616  -1.697  1.00  0.00     0.012 C 
HETATM   27  C23 UNL     1       4.156  -1.952   0.303  1.00  0.00     0.012 C 
ENDBRANCH  14  25
ENDBRANCH  11  14
ENDBRANCH   1  10
BRANCH   8  28
HETATM   28  N5  UNL     1      -1.716  -0.276   0.751  1.00  0.00    -0.056 N 
HETATM   29  C14 UNL     1      -1.213  -1.080   1.868  1.00  0.00     0.273 C 
HETATM   30  C15 UNL     1      -1.306   1.070   0.883  1.00  0.00     0.266 C 
HETATM   31  C16 UNL     1      -2.383   2.122   0.897  1.00  0.00     0.264 C 
HETATM   32  N6  UNL     1      -3.378   1.960   1.884  1.00  0.00    -0.071 N 
HETATM   33  C17 UNL     1      -3.097   2.691   3.118  1.00  0.00     0.272 C 
HETATM   34  C18 UNL     1      -4.628   2.499   1.378  1.00  0.00     0.272 C 
HETATM   35  C19 UNL     1      -3.553   0.567   2.185  1.00  0.00     0.264 C 
HETATM   36  C20 UNL     1      -3.170  -0.282   0.991  1.00  0.00     0.266 C 
ENDBRANCH   8  28
BRANCH   6  37
HETATM   37  O3  UNL     1      -3.378  -3.379  -2.253  1.00  0.00    -0.312 OA
ATOM     38  H3  UNL     1      -4.105  -2.770  -2.319  1.00  0.00     0.237 HD
ENDBRANCH   6  37
TORSDOF 8
