REMARK  3 active torsions:
REMARK  status: ('A' for Active; 'I' for Inactive)
REMARK    1  A    between atoms: C2_2  and  C3_3 
REMARK    2  A    between atoms: C4_4  and  C5_5 
REMARK    3  A    between atoms: C5_5  and  C6_6 
ROOT
HETATM    1  C6  UNL     1      -0.534   1.032   0.461  1.00  0.00     0.065 A 
HETATM    2  N1  UNL     1      -0.737   2.193  -0.182  1.00  0.00    -0.307 N 
ATOM      3  H1  UNL     1      -0.034   2.922  -0.306  1.00  0.00     0.170 HD
HETATM    4  C7  UNL     1      -1.985   2.256  -0.634  1.00  0.00     0.347 A 
HETATM    5  O1  UNL     1      -2.541   3.191  -1.285  1.00  0.00    -0.245 OA
HETATM    6  N2  UNL     1      -2.646   1.132  -0.301  1.00  0.00    -0.191 N 
HETATM    7  C8  UNL     1      -1.764   0.382   0.367  1.00  0.00     0.151 A 
HETATM    8  N3  UNL     1      -2.208  -0.872   0.851  1.00  0.00    -0.371 N 
ATOM      9  H3  UNL     1      -1.636  -1.351   1.546  1.00  0.00     0.161 HD
HETATM   10  C9  UNL     1      -3.434  -1.512   0.410  1.00  0.00     0.142 C 
HETATM   11  C10 UNL     1      -4.523  -0.451   0.188  1.00  0.00     0.159 C 
HETATM   12  N4  UNL     1      -3.942   0.680  -0.515  1.00  0.00    -0.323 N 
ATOM     13  H4  UNL     1      -4.516   1.168  -1.202  1.00  0.00     0.181 HD
ENDROOT
BRANCH   1  14
HETATM   14  C5  UNL     1       0.680   0.550   1.136  1.00  0.00     0.119 C 
BRANCH  14  15
HETATM   15  C4  UNL     1       1.460  -0.484   0.480  1.00  0.00     0.031 A 
HETATM   16  C3  UNL     1       2.352  -0.205  -0.520  1.00  0.00     0.033 A 
HETATM   17  C12 UNL     1       3.036  -1.300  -1.071  1.00  0.00     0.257 A 
HETATM   18  N6  UNL     1       2.847  -2.548  -0.664  1.00  0.00    -0.275 N 
HETATM   19  O3  UNL     1       3.869  -1.089  -1.997  1.00  0.00    -0.267 OA
HETATM   20  C11 UNL     1       1.976  -2.789   0.308  1.00  0.00     0.327 A 
ATOM     21  H6  UNL     1       3.365  -3.314  -1.093  1.00  0.00     0.173 HD
HETATM   22  N5  UNL     1       1.316  -1.765   0.847  1.00  0.00    -0.311 N 
HETATM   23  O2  UNL     1       1.819  -3.996   0.676  1.00  0.00    -0.247 OA
ATOM     24  H5  UNL     1       0.652  -1.971   1.594  1.00  0.00     0.170 HD
BRANCH  16  25
HETATM   25  C2  UNL     1       2.669   1.113  -1.038  1.00  0.00     0.042 C 
HETATM   26  C1  UNL     1       3.556   1.819   0.005  1.00  0.00     0.010 C 
ENDBRANCH  16  25
ENDBRANCH  14  15
ENDBRANCH   1  14
TORSDOF 3
