REMARK  16 active torsions:
REMARK  status: ('A' for Active; 'I' for Inactive)
REMARK    1  A    between atoms: N1_2  and  C2_3 
REMARK       I    between atoms: N1_2  and  C12_22 
REMARK    2  A    between atoms: C2_3  and  C3_4 
REMARK    3  A    between atoms: C3_4  and  C4_5 
REMARK    4  A    between atoms: C4_5  and  C5_6 
REMARK    5  A    between atoms: C5_6  and  N2_7 
REMARK    6  A    between atoms: N2_7  and  C6_8 
REMARK    7  A    between atoms: N2_7  and  C9_15 
REMARK    8  A    between atoms: C6_8  and  C7_9 
REMARK    9  A    between atoms: C7_9  and  C8_10 
REMARK   10  A    between atoms: C8_10  and  N3_11 
REMARK   11  A    between atoms: C9_15  and  C10_16 
REMARK   12  A    between atoms: C10_16  and  N4_17 
REMARK   13  A    between atoms: C12_22  and  C13_24 
REMARK   14  A    between atoms: C13_24  and  N7_25 
REMARK   15  A    between atoms: C13_24  and  C14_29 
REMARK   16  A    between atoms: C14_29  and  C15_30 
ROOT
HETATM    1  C3  UNL     1      -0.064   0.746   0.008  1.00  0.00     0.025 C 
ENDROOT
BRANCH   1   2
HETATM    2  C2  UNL     1       0.709   0.345   1.272  1.00  0.00     0.125 C 
BRANCH   2   3
HETATM    3  N1  UNL     1       2.098   0.759   1.023  1.00  0.00    -0.355 N 
HETATM    4  C1  UNL     1       2.483   2.078   1.423  1.00  0.00     0.152 C 
HETATM    5  C12 UNL     1       2.961  -0.161   0.414  1.00  0.00     0.250 C 
HETATM    6  O1  UNL     1       2.490  -1.321   0.096  1.00  0.00    -0.271 OA
BRANCH   5   7
HETATM    7  C13 UNL     1       4.385   0.015   0.070  1.00  0.00     0.279 C 
BRANCH   7   8
HETATM    8  N7  UNL     1       4.928   1.282   0.442  1.00  0.00    -0.066 N 
ATOM      9  H73 UNL     1       4.370   2.039   0.046  1.00  0.00     0.275 HD
ATOM     10  H72 UNL     1       4.778   1.456   1.436  1.00  0.00     0.275 HD
ATOM     11  H71 UNL     1       5.912   1.404   0.204  1.00  0.00     0.275 HD
ENDBRANCH   7   8
BRANCH   7  12
HETATM   12  C14 UNL     1       5.201  -1.164   0.596  1.00  0.00     0.081 C 
BRANCH  12  13
HETATM   13  C15 UNL     1       6.631  -1.011   0.268  1.00  0.00    -0.056 A 
HETATM   14  C16 UNL     1       7.474  -0.416   1.153  1.00  0.00     0.007 A 
HETATM   15  C17 UNL     1       8.817  -0.246   0.882  1.00  0.00     0.001 A 
HETATM   16  C18 UNL     1       9.324  -0.692  -0.322  1.00  0.00     0.000 A 
HETATM   17  C19 UNL     1       8.459  -1.292  -1.205  1.00  0.00     0.001 A 
HETATM   18  C20 UNL     1       7.124  -1.469  -0.954  1.00  0.00     0.007 A 
ENDBRANCH  12  13
ENDBRANCH   7  12
ENDBRANCH   5   7
ENDBRANCH   2   3
ENDBRANCH   1   2
BRANCH   1  19
HETATM   19  C4  UNL     1      -1.510   0.343   0.224  1.00  0.00     0.046 C 
BRANCH  19  20
HETATM   20  C5  UNL     1      -2.290   0.729  -1.015  1.00  0.00     0.068 C 
BRANCH  20  21
HETATM   21  N2  UNL     1      -3.642   0.371  -0.858  1.00  0.00    -0.353 N 
BRANCH  21  22
HETATM   22  C6  UNL     1      -4.541   0.650  -1.882  1.00  0.00     0.069 C 
BRANCH  22  23
HETATM   23  C7  UNL     1      -4.833   2.109  -2.136  1.00  0.00     0.072 C 
BRANCH  23  24
HETATM   24  C8  UNL     1      -5.413   2.731  -0.905  1.00  0.00     0.234 C 
BRANCH  24  25
HETATM   25  N3  UNL     1      -5.710   4.130  -1.097  1.00  0.00    -0.079 N 
ATOM     26  H33 UNL     1      -4.889   4.642  -1.420  1.00  0.00     0.274 HD
ATOM     27  H32 UNL     1      -6.316   4.273  -1.905  1.00  0.00     0.274 HD
ATOM     28  H31 UNL     1      -6.105   4.554  -0.258  1.00  0.00     0.274 HD
ENDBRANCH  24  25
ENDBRANCH  23  24
ENDBRANCH  22  23
ENDBRANCH  21  22
BRANCH  21  29
HETATM   29  C9  UNL     1      -3.929  -0.630   0.092  1.00  0.00     0.087 C 
BRANCH  29  30
HETATM   30  C10 UNL     1      -5.364  -1.008   0.244  1.00  0.00     0.166 C 
BRANCH  30  31
HETATM   31  N4  UNL     1      -5.401  -2.045   1.289  1.00  0.00    -0.362 N 
HETATM   32  C11 UNL     1      -5.555  -3.281   1.014  1.00  0.00     0.197 C 
HETATM   33  N5  UNL     1      -5.578  -4.212   2.086  1.00  0.00    -0.067 NA
HETATM   34  N6  UNL     1      -5.695  -3.655  -0.350  1.00  0.00    -0.067 NA
ATOM     35  H4  UNL     1      -5.300  -1.766   2.265  1.00  0.00     0.162 HD
ENDBRANCH  30  31
ENDBRANCH  29  30
ENDBRANCH  21  29
ENDBRANCH  20  21
ENDBRANCH  19  20
ENDBRANCH   1  19
TORSDOF 16
