REMARK  12 active torsions:
REMARK  status: ('A' for Active; 'I' for Inactive)
REMARK    1  A    between atoms: C2_2  and  C3_3 
REMARK    2  A    between atoms: C3_3  and  C4_4 
REMARK    3  A    between atoms: C4_4  and  C5_5 
REMARK    4  A    between atoms: C4_4  and  C6_8 
REMARK    5  A    between atoms: C5_5  and  O1_6 
REMARK    6  A    between atoms: C6_8  and  O2_9 
REMARK    7  A    between atoms: O2_9  and  C7_10 
REMARK    8  A    between atoms: C7_10  and  O3_11 
REMARK    9  A    between atoms: C7_10  and  O4_13 
REMARK   10  A    between atoms: O4_13  and  C8_14 
REMARK   11  A    between atoms: C15_21  and  O5_22 
REMARK   12  A    between atoms: C16_24  and  O6_26 
ROOT
HETATM    1  C8  UNL     1      -0.759  -1.141   0.240  1.00  0.00     0.265 C 
HETATM    2  C9  UNL     1      -0.888   0.327   0.012  1.00  0.00     0.061 C 
HETATM    3  C10 UNL     1      -1.880   0.701  -1.052  1.00  0.00     0.015 C 
HETATM    4  C11 UNL     1      -3.125  -0.143  -1.040  1.00  0.00     0.051 C 
HETATM    5  C12 UNL     1      -3.049  -1.296  -0.079  1.00  0.00     0.131 C 
HETATM    6  C13 UNL     1      -3.386  -0.971   1.328  1.00  0.00     0.035 C 
HETATM    7  C14 UNL     1      -4.403   0.138   1.466  1.00  0.00     0.037 C 
HETATM    8  C15 UNL     1      -5.265   0.260   0.228  1.00  0.00     0.152 C 
HETATM    9  C16 UNL     1      -4.348   0.698  -0.901  1.00  0.00     0.086 C 
HETATM   10  C17 UNL     1      -5.222   0.672  -2.163  1.00  0.00     0.049 C 
HETATM   11  O7  UNL     1      -1.808  -1.897  -0.202  1.00  0.00    -0.355 OA
ENDROOT
BRANCH   1  12
HETATM   12  O4  UNL     1       0.387  -1.569  -0.462  1.00  0.00    -0.308 OA
BRANCH  12  13
HETATM   13  C7  UNL     1       1.333  -2.138   0.348  1.00  0.00     0.412 C 
BRANCH  13  14
HETATM   14  O2  UNL     1       2.524  -1.437   0.171  1.00  0.00    -0.339 OA
BRANCH  14  15
HETATM   15  C6  UNL     1       3.030  -0.996   1.374  1.00  0.00     0.180 C 
BRANCH  15  16
HETATM   16  C4  UNL     1       4.357  -0.225   1.076  1.00  0.00     0.033 C 
BRANCH  16  17
HETATM   17  C3  UNL     1       3.995   0.876   0.204  1.00  0.00     0.008 C 
BRANCH  17  18
HETATM   18  C2  UNL     1       4.934   1.900  -0.279  1.00  0.00    -0.004 C 
HETATM   19  C1  UNL     1       6.018   1.428  -1.199  1.00  0.00     0.005 C 
ENDBRANCH  17  18
ENDBRANCH  16  17
BRANCH  16  20
HETATM   20  C5  UNL     1       5.345  -1.254   0.760  1.00  0.00     0.170 C 
BRANCH  20  21
HETATM   21  O1  UNL     1       6.647  -0.928   0.559  1.00  0.00    -0.400 OA
ATOM     22  H1  UNL     1       7.289  -1.597   0.354  1.00  0.00     0.209 HD
ENDBRANCH  20  21
ENDBRANCH  16  20
ENDBRANCH  15  16
ENDBRANCH  14  15
ENDBRANCH  13  14
BRANCH  13  23
HETATM   23  O3  UNL     1       1.573  -3.440  -0.135  1.00  0.00    -0.349 OA
ATOM     24  H3  UNL     1       0.761  -3.918  -0.014  1.00  0.00     0.215 HD
ENDBRANCH  13  23
ENDBRANCH  12  13
ENDBRANCH   1  12
BRANCH   9  25
HETATM   25  O6  UNL     1      -4.072   2.051  -0.674  1.00  0.00    -0.387 OA
ATOM     26  H6  UNL     1      -4.851   2.587  -0.585  1.00  0.00     0.210 HD
ENDBRANCH   9  25
BRANCH   8  27
HETATM   27  O5  UNL     1      -6.166   1.303   0.443  1.00  0.00    -0.393 OA
ATOM     28  H5  UNL     1      -6.707   1.380  -0.334  1.00  0.00     0.210 HD
ENDBRANCH   8  27
TORSDOF 12
