REMARK  9 active torsions:
REMARK  status: ('A' for Active; 'I' for Inactive)
REMARK    1  A    between atoms: O1_2  and  C2_3 
REMARK    2  A    between atoms: C2_3  and  O2_4 
REMARK    3  A    between atoms: C7_14  and  C8_15 
REMARK    4  A    between atoms: C8_15  and  O3_16 
REMARK    5  A    between atoms: C9_18  and  O4_19 
REMARK    6  A    between atoms: C9_18  and  C10_21 
REMARK       I    between atoms: C10_21  and  N4_23 
REMARK    7  A    between atoms: N4_23  and  C11_25 
REMARK    8  A    between atoms: C11_25  and  N5_26 
REMARK    9  A    between atoms: C11_25  and  O6_30 
ROOT
HETATM    1  C2  UNL     1      -0.380   1.236   0.433  1.00  0.00     0.294 C 
HETATM    2  N1  UNL     1      -1.589   1.268   1.287  1.00  0.00    -0.306 N 
ATOM      3  H1  UNL     1      -1.732   2.004   1.978  1.00  0.00     0.167 HD
HETATM    4  C4  UNL     1      -2.449   0.330   1.121  1.00  0.00     0.192 C 
HETATM    5  N2  UNL     1      -3.649   0.335   1.947  1.00  0.00    -0.063 NA
HETATM    6  N3  UNL     1      -2.359  -0.740   0.202  1.00  0.00    -0.331 N 
HETATM    7  C5  UNL     1      -3.402  -1.641  -0.291  1.00  0.00     0.200 C 
HETATM    8  S1  UNL     1      -2.789  -2.000  -1.968  1.00  0.00    -0.146 SA
HETATM    9  C6  UNL     1      -1.290  -0.916  -1.866  1.00  0.00     0.113 C 
HETATM   10  C7  UNL     1      -1.077  -1.060  -0.373  1.00  0.00     0.113 C 
HETATM   11  C9  UNL     1      -0.005  -0.250   0.215  1.00  0.00     0.244 C 
ENDROOT
BRANCH  11  12
HETATM   12  O4  UNL     1       0.238  -0.741   1.515  1.00  0.00    -0.372 OA
ATOM     13  H4  UNL     1       0.468  -1.653   1.381  1.00  0.00     0.211 HD
ENDBRANCH  11  12
BRANCH  11  14
HETATM   14  C10 UNL     1       1.270  -0.281  -0.509  1.00  0.00     0.266 C 
HETATM   15  O5  UNL     1       1.379   0.062  -1.717  1.00  0.00    -0.270 OA
HETATM   16  N4  UNL     1       2.500  -0.709   0.118  1.00  0.00    -0.310 N 
ATOM     17  H4  UNL     1       2.469  -0.998   1.096  1.00  0.00     0.166 HD
BRANCH  16  18
HETATM   18  C11 UNL     1       3.760  -0.748  -0.561  1.00  0.00     0.426 C 
BRANCH  18  19
HETATM   19  N5  UNL     1       4.757   0.108   0.052  1.00  0.00    -0.035 N 
ATOM     20  H53 UNL     1       4.416   1.066   0.133  1.00  0.00     0.279 HD
ATOM     21  H52 UNL     1       4.869  -0.113   1.042  1.00  0.00     0.279 HD
ATOM     22  H51 UNL     1       5.655   0.080  -0.432  1.00  0.00     0.279 HD
ENDBRANCH  18  19
BRANCH  18  23
HETATM   23  O6  UNL     1       4.309  -2.045  -0.580  1.00  0.00    -0.355 OA
ATOM     24  H6  UNL     1       5.145  -2.071  -1.031  1.00  0.00     0.213 HD
ENDBRANCH  18  23
ENDBRANCH  16  18
ENDBRANCH  11  14
BRANCH   1  25
HETATM   25  O1  UNL     1       0.672   1.757   1.093  1.00  0.00    -0.340 OA
HETATM   26  C1  UNL     1       0.851   3.014   1.454  1.00  0.00     0.207 C 
ENDBRANCH   1  25
BRANCH   1  27
HETATM   27  O2  UNL     1      -0.634   1.730  -0.786  1.00  0.00    -0.340 OA
HETATM   28  C3  UNL     1      -0.954   2.992  -1.073  1.00  0.00     0.207 C 
ENDBRANCH   1  27
BRANCH  10  29
HETATM   29  C8  UNL     1      -0.715  -2.520  -0.155  1.00  0.00     0.200 C 
BRANCH  29  30
HETATM   30  O3  UNL     1       0.521  -2.763  -0.742  1.00  0.00    -0.398 OA
ATOM     31  H3  UNL     1       0.747  -3.676  -0.606  1.00  0.00     0.209 HD
ENDBRANCH  29  30
ENDBRANCH  10  29
TORSDOF 9
