REMARK  4 active torsions:
REMARK  status: ('A' for Active; 'I' for Inactive)
REMARK    1  A    between atoms: C1_2  and  C2_4 
REMARK       I    between atoms: N2_8  and  C6_9 
REMARK    2  A    between atoms: C6_9  and  C7_11 
REMARK    3  A    between atoms: C7_11  and  C8_12 
REMARK       I    between atoms: C8_12  and  N3_14 
REMARK       I    between atoms: C9_16  and  N5_18 
REMARK       I    between atoms: C10_20  and  N6_21 
REMARK       I    between atoms: C10_20  and  N7_27 
REMARK    4  A    between atoms: C19_31  and  C20_32 
ROOT
HETATM    1  C8  UNL     1       1.744   0.115   1.037  1.00  0.00     0.232 C 
HETATM    2  O3  UNL     1       1.853   1.015   1.891  1.00  0.00    -0.273 OA
HETATM    3  N3  UNL     1       0.476  -0.516   0.892  1.00  0.00    -0.300 N 
ATOM      4  H3  UNL     1       0.187  -1.208   1.583  1.00  0.00     0.171 HD
HETATM    5  C9  UNL     1      -0.318  -0.240  -0.085  1.00  0.00     0.209 C 
HETATM    6  N4  UNL     1       0.113   0.728  -1.032  1.00  0.00    -0.063 NA
HETATM    7  N5  UNL     1      -1.570  -0.847  -0.255  1.00  0.00    -0.163 N 
ATOM      8  H5  UNL     1      -1.573  -1.745  -0.740  1.00  0.00     0.187 HD
HETATM    9  C10 UNL     1      -2.706  -0.409   0.125  1.00  0.00     0.681 C 
HETATM   10  N6  UNL     1      -3.858  -1.194  -0.153  1.00  0.00    -0.218 N 
HETATM   11  C11 UNL     1      -4.553  -0.965  -1.381  1.00  0.00     0.141 C 
HETATM   12  C12 UNL     1      -5.338  -2.147  -1.868  1.00  0.00     0.020 C 
HETATM   13  C13 UNL     1      -5.868  -3.015  -0.765  1.00  0.00     0.003 C 
HETATM   14  C14 UNL     1      -4.732  -3.438   0.121  1.00  0.00     0.020 C 
HETATM   15  C15 UNL     1      -4.243  -2.175   0.839  1.00  0.00     0.141 C 
HETATM   16  N7  UNL     1      -2.794   0.833   0.806  1.00  0.00    -0.203 N 
HETATM   17  C16 UNL     1      -2.689   1.005   2.241  1.00  0.00     0.142 C 
HETATM   18  C17 UNL     1      -1.857   2.249   2.375  1.00  0.00     0.023 C 
HETATM   19  C18 UNL     1      -2.072   3.005   1.083  1.00  0.00     0.038 C 
HETATM   20  C19 UNL     1      -3.004   2.156   0.253  1.00  0.00     0.203 C 
ENDROOT
BRANCH   1  21
HETATM   21  C7  UNL     1       2.825  -0.331   0.181  1.00  0.00     0.206 C 
BRANCH  21  22
HETATM   22  C6  UNL     1       4.139   0.398   0.407  1.00  0.00     0.229 C 
HETATM   23  N2  UNL     1       5.266   0.075  -0.345  1.00  0.00    -0.339 N 
HETATM   24  C2  UNL     1       6.592   0.499  -0.446  1.00  0.00     0.176 C 
HETATM   25  C5  UNL     1       5.228  -1.019  -1.360  1.00  0.00     0.127 C 
HETATM   26  C3  UNL     1       7.311  -0.825  -0.094  1.00  0.00     0.036 C 
HETATM   27  C4  UNL     1       6.474  -1.793  -0.916  1.00  0.00     0.022 C 
HETATM   28  O2  UNL     1       4.050   1.267   1.310  1.00  0.00    -0.273 OA
BRANCH  24  29
HETATM   29  C1  UNL     1       7.150   1.622   0.229  1.00  0.00     0.254 C 
HETATM   30  N1  UNL     1       6.502   2.563   1.011  1.00  0.00    -0.060 NA
HETATM   31  O1  UNL     1       8.418   1.795   0.100  1.00  0.00    -0.275 OA
ENDBRANCH  24  29
ENDBRANCH  21  22
ENDBRANCH   1  21
BRANCH  20  32
HETATM   32  C20 UNL     1      -4.402   2.597   0.354  1.00  0.00     0.197 C 
HETATM   33  O4  UNL     1      -4.719   3.712  -0.083  1.00  0.00    -0.646 OA
HETATM   34  O5  UNL     1      -5.343   1.769   0.933  1.00  0.00    -0.646 OA
ENDBRANCH  20  32
TORSDOF 4
