REMARK  8 active torsions:
REMARK  status: ('A' for Active; 'I' for Inactive)
REMARK    1  A    between atoms: N1_1  and  C1_4 
REMARK    2  A    between atoms: C3_9  and  N4_10 
REMARK    3  A    between atoms: C4_13  and  O3_14 
REMARK    4  A    between atoms: O3_14  and  C5_15 
REMARK    5  A    between atoms: C9_19  and  N5_20 
REMARK    6  A    between atoms: C10_24  and  C11_25 
REMARK    7  A    between atoms: C11_25  and  N6_26 
REMARK    8  A    between atoms: C11_25  and  N7_30 
ROOT
HETATM    1  C1  UNL     1       3.115   0.231  -0.062  1.00  0.00     0.113 A 
HETATM    2  N2  UNL     1       3.458  -1.042  -0.209  1.00  0.00    -0.329 N 
ATOM      3  H2  UNL     1       4.435  -1.316  -0.108  1.00  0.00     0.168 HD
HETATM    4  C2  UNL     1       2.535  -1.971  -0.488  1.00  0.00     0.154 A 
HETATM    5  N3  UNL     1       2.946  -3.329  -0.639  1.00  0.00    -0.080 NA
HETATM    6  C3  UNL     1       1.189  -1.610  -0.630  1.00  0.00     0.177 A 
HETATM    7  C4  UNL     1       0.783  -0.282  -0.484  1.00  0.00     0.119 A 
HETATM    8  C10 UNL     1       1.772   0.616  -0.201  1.00  0.00     0.078 A 
ENDROOT
BRANCH   7   9
HETATM    9  O3  UNL     1      -0.506   0.105  -0.610  1.00  0.00    -0.340 OA
BRANCH   9  10
HETATM   10  C5  UNL     1      -1.527   0.200   0.331  1.00  0.00     0.159 C 
HETATM   11  C6  UNL     1      -2.213   1.520   0.453  1.00  0.00     0.035 C 
HETATM   12  C7  UNL     1      -3.705   1.220   0.627  1.00  0.00     0.005 C 
HETATM   13  C8  UNL     1      -3.868   0.081  -0.345  1.00  0.00     0.035 C 
HETATM   14  C9  UNL     1      -2.637  -0.763  -0.087  1.00  0.00     0.212 C 
BRANCH  14  15
HETATM   15  N5  UNL     1      -2.920  -1.749   0.939  1.00  0.00    -0.073 N 
ATOM     16  H53 UNL     1      -2.076  -2.253   1.209  1.00  0.00     0.274 HD
ATOM     17  H52 UNL     1      -3.134  -1.303   1.831  1.00  0.00     0.274 HD
ATOM     18  H51 UNL     1      -3.661  -2.392   0.660  1.00  0.00     0.274 HD
ENDBRANCH  14  15
ENDBRANCH   9  10
ENDBRANCH   7   9
BRANCH   6  19
HETATM   19  N4  UNL     1       0.295  -2.642  -0.932  1.00  0.00    -0.109 N 
HETATM   20  O1  UNL     1      -0.014  -3.465  -0.057  1.00  0.00    -0.532 OA
HETATM   21  O2  UNL     1      -0.253  -2.783  -2.177  1.00  0.00    -0.532 OA
ENDBRANCH   6  19
BRANCH   8  22
HETATM   22  C11 UNL     1       1.517   2.052  -0.032  1.00  0.00     0.417 C 
BRANCH  22  23
HETATM   23  N6  UNL     1       2.512   2.866  -0.724  1.00  0.00    -0.046 N 
ATOM     24  H63 UNL     1       3.459   2.621  -0.434  1.00  0.00     0.277 HD
ATOM     25  H62 UNL     1       2.576   2.614  -1.710  1.00  0.00     0.277 HD
ATOM     26  H61 UNL     1       2.335   3.864  -0.607  1.00  0.00     0.277 HD
ENDBRANCH  22  23
BRANCH  22  27
HETATM   27  N7  UNL     1       1.485   2.480   1.349  1.00  0.00    -0.046 N 
ATOM     28  H73 UNL     1       0.810   1.930   1.880  1.00  0.00     0.277 HD
ATOM     29  H72 UNL     1       2.343   2.208   1.829  1.00  0.00     0.277 HD
ATOM     30  H71 UNL     1       1.308   3.478   1.466  1.00  0.00     0.277 HD
ENDBRANCH  22  27
ENDBRANCH   8  22
BRANCH   1  31
HETATM   31  N1  UNL     1       4.010   1.118   0.206  1.00  0.00    -0.385 N 
ATOM     32  H12 UNL     1       4.986   0.838   0.307  1.00  0.00     0.157 HD
ATOM     33  H11 UNL     1       3.746   2.097   0.319  1.00  0.00     0.157 HD
ENDBRANCH   1  31
TORSDOF 8
