REMARK  7 active torsions:
REMARK  status: ('A' for Active; 'I' for Inactive)
REMARK    1  A    between atoms: C2_2  and  N1_3 
REMARK    2  A    between atoms: N1_3  and  C3_4 
REMARK       I    between atoms: N1_3  and  C5_6 
REMARK    3  A    between atoms: C5_6  and  C6_8 
REMARK    4  A    between atoms: C6_8  and  C7_9 
REMARK    5  A    between atoms: C18_20  and  O2_21 
REMARK    6  A    between atoms: O2_21  and  S1_22 
REMARK    7  A    between atoms: S1_22  and  N2_23 
ROOT
HETATM    1  C7  UNL     1      -2.796  -1.739   1.313  1.00  0.00     0.003 C 
HETATM    2  C8  UNL     1      -1.706  -2.262   2.245  1.00  0.00     0.039 C 
HETATM    3  C9  UNL     1      -0.460  -2.146   1.400  1.00  0.00    -0.078 C 
HETATM    4  C10 UNL     1       0.831  -1.853   1.405  1.00  0.00    -0.013 C 
HETATM    5  C11 UNL     1       1.344  -2.003   0.044  1.00  0.00    -0.014 C 
HETATM    6  C12 UNL     1       1.828  -3.454  -0.089  1.00  0.00     0.021 C 
HETATM    7  C13 UNL     1       0.135  -1.877  -0.817  1.00  0.00     0.007 C 
HETATM    8  C14 UNL     1      -0.257  -0.505  -1.217  1.00  0.00     0.007 C 
HETATM    9  C15 UNL     1       0.960   0.193  -1.843  1.00  0.00     0.006 C 
HETATM   10  C16 UNL     1       1.977   0.274  -0.698  1.00  0.00    -0.003 C 
HETATM   11  C17 UNL     1       3.060   1.203  -1.124  1.00  0.00     0.039 C 
HETATM   12  C18 UNL     1       4.247   1.164  -0.185  1.00  0.00     0.144 C 
HETATM   13  C19 UNL     1       3.860   0.493   1.086  1.00  0.00     0.034 C 
HETATM   14  C20 UNL     1       3.511  -0.961   0.736  1.00  0.00     0.013 C 
HETATM   15  C21 UNL     1       2.473  -1.080  -0.315  1.00  0.00    -0.029 C 
HETATM   16  C22 UNL     1       3.135  -1.682  -1.560  1.00  0.00     0.016 C 
HETATM   17  C23 UNL     1      -0.922  -2.508   0.053  1.00  0.00     0.023 C 
HETATM   18  C24 UNL     1      -2.294  -1.994  -0.081  1.00  0.00    -0.005 C 
HETATM   19  C25 UNL     1      -3.223  -3.009  -0.747  1.00  0.00     0.011 C 
ENDROOT
BRANCH   1  20
HETATM   20  C6  UNL     1      -3.117  -0.312   1.615  1.00  0.00     0.108 C 
BRANCH  20  21
HETATM   21  C5  UNL     1      -4.171   0.255   0.748  1.00  0.00     0.220 C 
HETATM   22  N1  UNL     1      -4.620   1.605   0.901  1.00  0.00    -0.353 N 
HETATM   23  O1  UNL     1      -4.716  -0.422  -0.157  1.00  0.00    -0.273 OA
BRANCH  22  24
HETATM   24  C2  UNL     1      -5.644   2.131   0.027  1.00  0.00     0.121 C 
HETATM   25  C1  UNL     1      -5.036   2.771  -1.211  1.00  0.00     0.026 C 
ENDBRANCH  22  24
BRANCH  22  26
HETATM   26  C3  UNL     1      -4.074   2.463   1.912  1.00  0.00     0.121 C 
HETATM   27  C4  UNL     1      -2.881   3.256   1.490  1.00  0.00     0.026 C 
ENDBRANCH  22  26
ENDBRANCH  20  21
ENDBRANCH   1  20
BRANCH  12  28
HETATM   28  O2  UNL     1       4.741   2.426  -0.063  1.00  0.00    -0.254 OA
BRANCH  28  29
HETATM   29  S1  UNL     1       6.267   2.658  -0.680  1.00  0.00     0.355 S 
HETATM   30  O3  UNL     1       6.660   1.539  -1.634  1.00  0.00    -0.176 OA
HETATM   31  O4  UNL     1       7.314   2.875   0.368  1.00  0.00    -0.176 OA
BRANCH  29  32
HETATM   32  N2  UNL     1       6.218   4.100  -1.653  1.00  0.00    -0.306 N 
ATOM     33  H22 UNL     1       5.396   4.685  -1.807  1.00  0.00     0.171 HD
ATOM     34  H21 UNL     1       7.154   4.242  -2.032  1.00  0.00     0.171 HD
ENDBRANCH  29  32
ENDBRANCH  28  29
ENDBRANCH  12  28
TORSDOF 7
