REMARK  7 active torsions:
REMARK  status: ('A' for Active; 'I' for Inactive)
REMARK    1  A    between atoms: C2_2  and  N1_3 
REMARK       I    between atoms: N1_3  and  C3_4 
REMARK    2  A    between atoms: C3_4  and  C4_6 
REMARK    3  A    between atoms: C4_6  and  C5_7 
REMARK    4  A    between atoms: C10_13  and  O3_14 
REMARK    5  A    between atoms: C11_16  and  C12_17 
REMARK    6  A    between atoms: C11_16  and  C14_19 
REMARK    7  A    between atoms: C15_22  and  O5_23 
ROOT
HETATM    1  C5  UNL     1       1.345  -0.331   0.439  1.00  0.00     0.139 C 
HETATM    2  O2  UNL     1       0.533  -1.136  -0.348  1.00  0.00    -0.369 OA
HETATM    3  C6  UNL     1      -0.272  -1.863   0.509  1.00  0.00     0.108 C 
HETATM    4  C7  UNL     1       0.059  -3.333   0.420  1.00  0.00     0.051 C 
HETATM    5  C8  UNL     1       0.076  -1.413   1.941  1.00  0.00     0.052 C 
HETATM    6  C9  UNL     1       0.448   0.046   1.587  1.00  0.00     0.050 C 
HETATM    7  C10 UNL     1      -0.724   0.814   1.102  1.00  0.00     0.160 C 
HETATM    8  C11 UNL     1      -2.064   0.377   1.574  1.00  0.00     0.102 C 
HETATM    9  O4  UNL     1      -2.297  -1.007   1.474  1.00  0.00    -0.344 OA
HETATM   10  C15 UNL     1      -1.719  -1.542   0.316  1.00  0.00     0.294 C 
ENDROOT
BRANCH   1  11
HETATM   11  C4  UNL     1       2.079   0.728  -0.257  1.00  0.00     0.151 C 
BRANCH  11  12
HETATM   12  C3  UNL     1       2.977   0.051  -1.276  1.00  0.00     0.288 C 
HETATM   13  N1  UNL     1       3.849   0.852  -1.990  1.00  0.00    -0.416 NA
HETATM   14  O1  UNL     1       2.848  -1.174  -1.374  1.00  0.00    -0.258 OA
BRANCH  13  15
HETATM   15  C2  UNL     1       4.701   1.635  -2.687  1.00  0.00     0.217 C 
HETATM   16  C1  UNL     1       4.459   1.538  -4.197  1.00  0.00     0.041 C 
ENDBRANCH  13  15
ENDBRANCH  11  12
ENDBRANCH   1  11
BRANCH   7  17
HETATM   17  O3  UNL     1      -0.551   2.135   1.611  1.00  0.00    -0.392 OA
ATOM     18  H3  UNL     1      -1.302   2.627   1.300  1.00  0.00     0.210 HD
ENDBRANCH   7  17
BRANCH  10  19
HETATM   19  O5  UNL     1      -2.441  -2.695  -0.081  1.00  0.00    -0.363 OA
HETATM   20  C16 UNL     1      -3.138  -2.452  -1.265  1.00  0.00     0.204 C 
ENDBRANCH  10  19
BRANCH   8  21
HETATM   21  C12 UNL     1      -3.132   1.041   0.740  1.00  0.00     0.037 C 
HETATM   22  C13 UNL     1      -3.160   2.521   0.773  1.00  0.00     0.008 C 
ENDBRANCH   8  21
BRANCH   8  23
HETATM   23  C14 UNL     1      -2.354   0.777   3.006  1.00  0.00     0.155 C 
HETATM   24 CL1  UNL     1      -4.006   0.151   3.362  1.00  0.00    -0.127 Cl
ENDBRANCH   8  23
TORSDOF 7
