REMARK  8 active torsions:
REMARK  status: ('A' for Active; 'I' for Inactive)
REMARK    1  A    between atoms: C2_2  and  N1_4 
REMARK    2  A    between atoms: N1_4  and  C4_6 
REMARK    3  A    between atoms: C6_10  and  C7_11 
REMARK    4  A    between atoms: C7_11  and  C8_12 
REMARK    5  A    between atoms: C8_12  and  N3_13 
REMARK    6  A    between atoms: N3_13  and  C9_15 
REMARK    7  A    between atoms: C11_22  and  N6_23 
REMARK    8  A    between atoms: N6_23  and  C12_25 
ROOT
HETATM    1  N3  UNL     1       1.798  -0.683  -1.104  1.00  0.00    -0.225 N 
ATOM      2  H3  UNL     1       1.256   0.004  -1.629  1.00  0.00     0.177 HD
ENDROOT
BRANCH   1   3
HETATM    3  C8  UNL     1       1.425  -2.091  -1.106  1.00  0.00     0.143 C 
BRANCH   3   4
HETATM    4  C7  UNL     1       0.168  -2.357  -1.845  1.00  0.00     0.068 C 
BRANCH   4   5
HETATM    5  C6  UNL     1      -1.008  -1.636  -1.239  1.00  0.00     0.003 A 
HETATM    6  C5  UNL     1      -1.081  -0.854  -0.121  1.00  0.00     0.105 A 
HETATM    7  N2  UNL     1      -2.243  -0.329   0.191  1.00  0.00    -0.346 N 
HETATM    8  C4  UNL     1      -3.287  -0.585  -0.597  1.00  0.00     0.145 A 
ATOM      9  H2  UNL     1      -2.345   0.261   1.017  1.00  0.00     0.167 HD
HETATM   10  S1  UNL     1      -2.630  -1.587  -1.806  1.00  0.00    -0.057 SA
BRANCH   8  11
HETATM   11  N1  UNL     1      -4.521  -0.169  -0.474  1.00  0.00    -0.367 N 
ATOM     12  H1  UNL     1      -5.194  -0.469  -1.179  1.00  0.00     0.162 HD
BRANCH  11  13
HETATM   13  C2  UNL     1      -4.989   0.668   0.569  1.00  0.00     0.075 C 
HETATM   14  C1  UNL     1      -4.333   2.023   0.504  1.00  0.00     0.032 C 
HETATM   15  C3  UNL     1      -4.869   0.074   1.947  1.00  0.00     0.032 C 
ENDBRANCH  11  13
ENDBRANCH   8  11
ENDBRANCH   4   5
ENDBRANCH   3   4
ENDBRANCH   1   3
BRANCH   1  16
HETATM   16  C9  UNL     1       2.833  -0.329  -0.420  1.00  0.00     0.695 A 
HETATM   17  N4  UNL     1       3.579  -1.196   0.287  1.00  0.00    -0.165 N 
HETATM   18  C10 UNL     1       4.654  -0.806   0.992  1.00  0.00     0.208 A 
ATOM     19  H4  UNL     1       3.320  -2.183   0.288  1.00  0.00     0.186 HD
HETATM   20 CL1  UNL     1       5.629  -1.925   1.913  1.00  0.00    -0.044 Cl
HETATM   21  N5  UNL     1       4.971   0.511   0.970  1.00  0.00    -0.164 N 
HETATM   22  C11 UNL     1       4.248   1.398   0.276  1.00  0.00     0.701 A 
ATOM     23  H5  UNL     1       5.782   0.835   1.496  1.00  0.00     0.186 HD
HETATM   24  N7  UNL     1       3.180   0.979  -0.418  1.00  0.00    -0.022 N 
ATOM     25  H7  UNL     1       2.625   1.651  -0.948  1.00  0.00     0.203 HD
BRANCH  22  26
HETATM   26  N6  UNL     1       4.551   2.633   0.260  1.00  0.00    -0.167 N 
ATOM     27  H6  UNL     1       3.963   3.263  -0.286  1.00  0.00     0.186 HD
BRANCH  26  28
HETATM   28  C12 UNL     1       5.658   3.189   0.956  1.00  0.00     0.368 C 
HETATM   29  O1  UNL     1       6.629   3.749   0.397  1.00  0.00    -0.283 OA
ENDBRANCH  26  28
ENDBRANCH  22  26
ENDBRANCH   1  16
TORSDOF 8
