REMARK  8 active torsions:
REMARK  status: ('A' for Active; 'I' for Inactive)
REMARK    1  A    between atoms: C2_2  and  O1_3 
REMARK    2  A    between atoms: O1_3  and  C3_4 
REMARK       I    between atoms: C3_4  and  N1_6 
REMARK    3  A    between atoms: C6_9  and  S1_10 
REMARK    4  A    between atoms: S1_10  and  C7_11 
REMARK    5  A    between atoms: C7_11  and  C8_12 
REMARK       I    between atoms: C8_12  and  N2_14 
REMARK    6  A    between atoms: N2_14  and  C9_16 
REMARK    7  A    between atoms: C12_19  and  N3_20 
REMARK    8  A    between atoms: N3_20  and  C13_22 
ROOT
HETATM    1  C9  UNL     1      -2.197  -0.387  -0.052  1.00  0.00     0.084 C 
HETATM    2  C10 UNL     1      -2.768  -0.586  -1.410  1.00  0.00     0.027 C 
HETATM    3  C11 UNL     1      -4.029  -1.413  -1.345  1.00  0.00     0.027 C 
HETATM    4  C12 UNL     1      -4.933  -0.852  -0.248  1.00  0.00     0.083 C 
HETATM    5  C18 UNL     1      -4.249  -1.171   1.085  1.00  0.00     0.027 C 
HETATM    6  C19 UNL     1      -2.793  -1.424   0.907  1.00  0.00     0.027 C 
ENDROOT
BRANCH   1   7
HETATM    7  N2  UNL     1      -0.754  -0.546   0.039  1.00  0.00    -0.356 N 
HETATM    8  C8  UNL     1      -0.015   0.363   0.819  1.00  0.00     0.227 C 
HETATM    9  O3  UNL     1      -0.607   1.293   1.415  1.00  0.00    -0.273 OA
ATOM     10  H2  UNL     1      -0.285  -1.305  -0.455  1.00  0.00     0.162 HD
BRANCH   8  11
HETATM   11  C7  UNL     1       1.441   0.278   0.977  1.00  0.00     0.177 C 
BRANCH  11  12
HETATM   12  S1  UNL     1       2.233   1.515  -0.083  1.00  0.00    -0.155 SA
BRANCH  12  13
HETATM   13  C6  UNL     1       3.991   1.537   0.246  1.00  0.00     0.050 C 
HETATM   14  C5  UNL     1       4.723   2.574  -0.588  1.00  0.00     0.035 C 
HETATM   15  C4  UNL     1       6.147   2.674  -0.067  1.00  0.00     0.129 C 
HETATM   16  N1  UNL     1       6.734   1.368   0.162  1.00  0.00    -0.328 N 
HETATM   17  C3  UNL     1       8.111   1.212  -0.143  1.00  0.00     0.362 C 
HETATM   18  C21 UNL     1       5.997   0.249   0.674  1.00  0.00     0.129 C 
HETATM   19  O2  UNL     1       8.821   2.150  -0.601  1.00  0.00    -0.238 OA
HETATM   20  C20 UNL     1       4.650   0.214  -0.063  1.00  0.00     0.035 C 
BRANCH  17  21
HETATM   21  O1  UNL     1       8.728  -0.007   0.060  1.00  0.00    -0.304 OA
BRANCH  21  22
HETATM   22  C2  UNL     1      10.094  -0.245  -0.218  1.00  0.00     0.176 C 
HETATM   23  C1  UNL     1      10.376  -1.684   0.151  1.00  0.00     0.034 C 
ENDBRANCH  21  22
ENDBRANCH  17  21
ENDBRANCH  12  13
ENDBRANCH  11  12
ENDBRANCH   8  11
ENDBRANCH   1   7
BRANCH   4  24
HETATM   24  N3  UNL     1      -6.200  -1.412  -0.233  1.00  0.00    -0.370 N 
ATOM     25  H3  UNL     1      -6.093  -2.406  -0.433  1.00  0.00     0.161 HD
BRANCH  24  26
HETATM   26  C13 UNL     1      -7.383  -1.202  -0.079  1.00  0.00     0.126 A 
HETATM   27  N4  UNL     1      -8.256  -2.255  -0.197  1.00  0.00    -0.337 N 
HETATM   28  C14 UNL     1      -9.566  -2.141  -0.049  1.00  0.00     0.182 A 
ATOM     29  H4  UNL     1      -7.874  -3.176  -0.411  1.00  0.00     0.168 HD
HETATM   30  N5  UNL     1     -10.126  -0.955   0.232  1.00  0.00    -0.354 N 
HETATM   31  C15 UNL     1      -9.352   0.131   0.366  1.00  0.00     0.031 A 
ATOM     32  H5  UNL     1     -11.137  -0.880   0.343  1.00  0.00     0.166 HD
HETATM   33  C16 UNL     1      -9.965   1.450   0.670  1.00  0.00     0.070 C 
HETATM   34  C17 UNL     1      -7.966  -0.000   0.207  1.00  0.00     0.100 A 
HETATM   35 CL1  UNL     1      -7.033   1.462   0.403  1.00  0.00    -0.078 Cl
ENDBRANCH  24  26
ENDBRANCH   4  24
TORSDOF 8
