REMARK  4 active torsions:
REMARK  status: ('A' for Active; 'I' for Inactive)
REMARK    1  A    between atoms: C2_2  and  N1_5 
REMARK       I    between atoms: N1_5  and  C4_7 
REMARK    2  A    between atoms: C4_7  and  C5_9 
REMARK    3  A    between atoms: N4_13  and  C6_14 
REMARK    4  A    between atoms: C7_20  and  N7_21 
ROOT
HETATM    1  C5  UNL     1       0.216   0.412  -0.180  1.00  0.00     0.203 A 
HETATM    2  N2  UNL     1      -0.009   1.002  -1.378  1.00  0.00    -0.262 N 
ATOM      3  H2  UNL     1      -0.916   1.307  -1.732  1.00  0.00     0.186 HD
HETATM    4  N3  UNL     1       1.149   1.116  -2.012  1.00  0.00     0.004 NA
HETATM    5  N4  UNL     1       2.121   0.617  -1.260  1.00  0.00    -0.156 N 
HETATM    6  N8  UNL     1       1.542   0.194  -0.153  1.00  0.00    -0.258 N 
ATOM      7  H8  UNL     1       2.037  -0.243   0.624  1.00  0.00     0.190 HD
ENDROOT
BRANCH   5   8
HETATM    8  C6  UNL     1       3.500   0.577  -1.634  1.00  0.00     0.210 A 
HETATM    9  N5  UNL     1       4.150   1.421  -2.455  1.00  0.00    -0.219 N 
HETATM   10  O2  UNL     1       5.387   1.053  -2.543  1.00  0.00    -0.153 OA
ATOM     11  H5  UNL     1       3.735   2.222  -2.931  1.00  0.00     0.198 HD
HETATM   12  N6  UNL     1       5.605   0.004  -1.822  1.00  0.00    -0.222 N 
HETATM   13  C7  UNL     1       4.459  -0.330  -1.237  1.00  0.00     0.170 A 
ATOM     14  H6  UNL     1       6.496  -0.481  -1.720  1.00  0.00     0.198 HD
BRANCH  13  15
HETATM   15  N7  UNL     1       4.302  -1.330  -0.444  1.00  0.00    -0.381 N 
ATOM     16  H72 UNL     1       3.423  -1.586   0.005  1.00  0.00     0.157 HD
ATOM     17  H71 UNL     1       5.012  -2.001  -0.150  1.00  0.00     0.157 HD
ENDBRANCH  13  15
ENDBRANCH   5   8
BRANCH   1  18
HETATM   18  C4  UNL     1      -0.778   0.094   0.839  1.00  0.00     0.289 C 
HETATM   19  N1  UNL     1      -2.140   0.401   0.632  1.00  0.00    -0.332 N 
ATOM     20  H1  UNL     1      -2.446   0.849  -0.232  1.00  0.00     0.164 HD
HETATM   21  O1  UNL     1      -0.424  -0.455   1.907  1.00  0.00    -0.264 OA
BRANCH  19  22
HETATM   22  C2  UNL     1      -3.093   0.069   1.667  1.00  0.00     0.103 C 
HETATM   23  C1  UNL     1      -4.466   0.498   1.200  1.00  0.00     0.056 C 
HETATM   24  C3  UNL     1      -3.030  -1.439   1.872  1.00  0.00     0.056 C 
HETATM   25 CL1  UNL     1      -2.625   0.953   3.130  1.00  0.00    -0.096 Cl
ENDBRANCH  19  22
ENDBRANCH   1  18
TORSDOF 4
