REMARK  3 active torsions:
REMARK  status: ('A' for Active; 'I' for Inactive)
REMARK    1  A    between atoms: C4_8  and  N4_9 
REMARK    2  A    between atoms: N4_9  and  N5_11 
REMARK    3  A    between atoms: C8_23  and  N9_24 
ROOT
HETATM    1  N1  UNL     1      -0.974   3.827  -0.934  1.00  0.00    -0.193 NA
HETATM    2  C1  UNL     1      -0.558   2.951  -0.305  1.00  0.00     0.114 C 
HETATM    3  C2  UNL     1      -0.016   1.800   0.488  1.00  0.00     0.268 A 
HETATM    4  C3  UNL     1      -0.024   2.305   1.875  1.00  0.00     0.114 C 
HETATM    5  N2  UNL     1      -0.023   2.686   2.979  1.00  0.00    -0.193 NA
HETATM    6  N3  UNL     1       1.283   1.466   0.051  1.00  0.00    -0.183 N 
ATOM      7  H3  UNL     1       2.002   2.186   0.121  1.00  0.00     0.181 HD
HETATM    8  C4  UNL     1       1.625   0.345  -0.420  1.00  0.00     0.700 A 
HETATM    9  N6  UNL     1       0.711  -0.735  -0.565  1.00  0.00    -0.184 N 
ATOM     10  H6  UNL     1       1.012  -1.631  -0.949  1.00  0.00     0.184 HD
HETATM   11  C5  UNL     1      -0.639  -0.525  -0.157  1.00  0.00     0.122 A 
HETATM   12  C6  UNL     1      -0.980   0.700   0.349  1.00  0.00     0.100 A 
HETATM   13  N7  UNL     1      -2.277   0.915   0.745  1.00  0.00    -0.350 N 
ATOM     14  H7  UNL     1      -2.561   1.818   1.126  1.00  0.00     0.166 HD
HETATM   15  C7  UNL     1      -3.156  -0.075   0.623  1.00  0.00     0.182 A 
HETATM   16  N8  UNL     1      -2.859  -1.274   0.137  1.00  0.00    -0.335 N 
ATOM     17  H8  UNL     1      -3.584  -1.989   0.071  1.00  0.00     0.168 HD
HETATM   18  C8  UNL     1      -1.576  -1.557  -0.279  1.00  0.00     0.160 A 
ENDROOT
BRANCH   8  19
HETATM   19  N4  UNL     1       2.972   0.061  -0.852  1.00  0.00    -0.072 N 
ATOM     20  H4  UNL     1       3.404   0.603  -1.600  1.00  0.00     0.212 HD
BRANCH  19  21
HETATM   21  N5  UNL     1       3.668  -0.964  -0.229  1.00  0.00    -0.024 N 
HETATM   22  O1  UNL     1       3.964  -0.841   0.968  1.00  0.00    -0.516 OA
HETATM   23  O2  UNL     1       4.002  -2.073  -0.956  1.00  0.00    -0.516 OA
ENDBRANCH  19  21
ENDBRANCH   8  19
BRANCH  18  24
HETATM   24  N9  UNL     1      -1.313  -2.683  -0.732  1.00  0.00    -0.206 N 
HETATM   25  F1  UNL     1      -0.378  -3.387  -1.206  1.00  0.00    -0.100 F 
ATOM     26  H9  UNL     1      -2.164  -3.245  -0.715  1.00  0.00     0.201 HD
ENDBRANCH  18  24
TORSDOF 3
