REMARK  12 active torsions:
REMARK  status: ('A' for Active; 'I' for Inactive)
REMARK    1  A    between atoms: C2_2  and  O1_3 
REMARK    2  A    between atoms: C2_2  and  C3_5 
REMARK    3  A    between atoms: C3_5  and  O2_6 
REMARK    4  A    between atoms: C3_5  and  C4_8 
REMARK    5  A    between atoms: C4_8  and  O3_9 
REMARK    6  A    between atoms: C4_8  and  C5_11 
REMARK    7  A    between atoms: C5_11  and  O4_12 
REMARK    8  A    between atoms: C5_11  and  C6_14 
REMARK    9  A    between atoms: C6_14  and  O5_15 
REMARK   10  A    between atoms: C6_14  and  N1_17 
REMARK   11  A    between atoms: C8_19  and  O6_20 
REMARK   12  A    between atoms: C12_31  and  N5_32 
ROOT
HETATM    1  N1  UNL     1      -0.956  -0.025  -0.403  1.00  0.00     0.163 N 
HETATM    2  C7  UNL     1      -0.904   0.468  -1.758  1.00  0.00     0.319 C 
HETATM    3  C8  UNL     1      -2.283   0.162  -2.300  1.00  0.00     0.221 C 
HETATM    4  C9  UNL     1      -3.145   0.226  -1.113  1.00  0.00     0.220 C 
HETATM    5  O7  UNL     1      -4.357   0.318  -1.111  1.00  0.00    -0.290 OA
HETATM    6  C10 UNL     1      -2.258   0.158   0.075  1.00  0.00     0.346 C 
HETATM    7  N2  UNL     1      -2.793  -0.780   0.991  1.00  0.00    -0.320 N 
ATOM      8  H2  UNL     1      -3.155  -1.694   0.718  1.00  0.00     0.165 HD
HETATM    9  C11 UNL     1      -2.772  -0.354   2.205  1.00  0.00     0.188 C 
HETATM   10  N3  UNL     1      -3.233  -1.037   3.387  1.00  0.00    -0.064 NA
HETATM   11  N4  UNL     1      -2.200   0.943   2.216  1.00  0.00    -0.333 N 
ATOM     12  H4  UNL     1      -1.751   1.411   3.003  1.00  0.00     0.164 HD
HETATM   13  C12 UNL     1      -2.386   1.466   0.878  1.00  0.00     0.352 C 
ENDROOT
BRANCH   1  14
HETATM   14  C6  UNL     1      -0.256  -1.207  -0.242  1.00  0.00     0.392 C 
BRANCH  14  15
HETATM   15  C5  UNL     1       1.245  -1.093  -0.467  1.00  0.00     0.208 C 
BRANCH  15  16
HETATM   16  C4  UNL     1       1.810  -0.141   0.571  1.00  0.00     0.182 C 
BRANCH  16  17
HETATM   17  C3  UNL     1       3.295  -0.057   0.588  1.00  0.00     0.177 C 
BRANCH  17  18
HETATM   18  C2  UNL     1       3.907   0.758  -0.532  1.00  0.00     0.145 C 
HETATM   19  C1  UNL     1       3.891   0.077  -1.871  1.00  0.00     0.042 C 
BRANCH  18  20
HETATM   20  O1  UNL     1       5.287   0.859  -0.185  1.00  0.00    -0.393 OA
ATOM     21  H1  UNL     1       5.297   1.290   0.662  1.00  0.00     0.210 HD
ENDBRANCH  18  20
ENDBRANCH  17  18
BRANCH  17  22
HETATM   22  O2  UNL     1       3.594   0.722   1.759  1.00  0.00    -0.390 OA
ATOM     23  H2  UNL     1       3.210   0.211   2.462  1.00  0.00     0.210 HD
ENDBRANCH  17  22
ENDBRANCH  16  17
BRANCH  16  24
HETATM   24  O3  UNL     1       1.454  -0.727   1.825  1.00  0.00    -0.390 OA
ATOM     25  H3  UNL     1       0.506  -0.781   1.814  1.00  0.00     0.210 HD
ENDBRANCH  16  24
ENDBRANCH  15  16
BRANCH  15  26
HETATM   26  O4  UNL     1       1.842  -2.362  -0.263  1.00  0.00    -0.388 OA
ATOM     27  H4  UNL     1       1.488  -2.958  -0.913  1.00  0.00     0.210 HD
ENDBRANCH  15  26
ENDBRANCH  14  15
BRANCH  14  28
HETATM   28  O5  UNL     1      -0.412  -1.890   0.947  1.00  0.00    -0.366 OA
ATOM     29  H5  UNL     1      -1.349  -1.961   1.087  1.00  0.00     0.212 HD
ENDBRANCH  14  28
ENDBRANCH   1  14
BRANCH   3  30
HETATM   30  O6  UNL     1      -2.656   1.084  -3.282  1.00  0.00    -0.386 OA
ATOM     31  H6  UNL     1      -3.522   0.892  -3.622  1.00  0.00     0.210 HD
ENDBRANCH   3  30
BRANCH  13  32
HETATM   32  N5  UNL     1      -3.726   1.993   0.806  1.00  0.00    -0.053 N 
ATOM     33  H53 UNL     1      -4.030   2.115  -0.160  1.00  0.00     0.277 HD
ATOM     34  H52 UNL     1      -4.417   1.303   1.101  1.00  0.00     0.277 HD
ATOM     35  H51 UNL     1      -3.811   2.859   1.338  1.00  0.00     0.277 HD
ENDBRANCH  13  32
TORSDOF 12
