REMARK  13 active torsions:
REMARK  status: ('A' for Active; 'I' for Inactive)
REMARK    1  A    between atoms: C2_2  and  C3_3 
REMARK    2  A    between atoms: C4_4  and  C5_5 
REMARK    3  A    between atoms: C5_5  and  N1_6 
REMARK    4  A    between atoms: N1_6  and  C6_7 
REMARK    5  A    between atoms: N1_6  and  C8_11 
REMARK    6  A    between atoms: C6_7  and  C7_8 
REMARK    7  A    between atoms: C7_8  and  O1_9 
REMARK    8  A    between atoms: C8_11  and  C9_12 
REMARK    9  A    between atoms: C9_12  and  O2_13 
REMARK   10  A    between atoms: C9_12  and  C10_15 
REMARK   11  A    between atoms: C14_19  and  O3_20 
REMARK   12  A    between atoms: C18_25  and  C20_27 
REMARK   13  A    between atoms: C20_27  and  C22_31 
ROOT
HETATM    1  C10 UNL     1      -1.280  -0.396   0.265  1.00  0.00     0.037 C 
HETATM    2  C11 UNL     1      -1.497  -1.793  -0.183  1.00  0.00     0.024 C 
HETATM    3  C12 UNL     1      -1.984  -1.943  -1.606  1.00  0.00     0.012 C 
HETATM    4  C13 UNL     1      -2.483  -3.375  -1.638  1.00  0.00     0.037 C 
HETATM    5  C14 UNL     1      -2.684  -3.818  -0.201  1.00  0.00     0.147 C 
HETATM    6  C15 UNL     1      -2.477  -2.587   0.625  1.00  0.00    -0.051 C 
HETATM    7  C16 UNL     1      -2.951  -2.148   1.754  1.00  0.00    -0.020 C 
HETATM    8  C17 UNL     1      -2.575  -0.835   2.342  1.00  0.00     0.042 C 
HETATM    9  C18 UNL     1      -2.220   0.183   1.246  1.00  0.00    -0.001 C 
HETATM   10  C19 UNL     1      -1.423   1.238   2.079  1.00  0.00     0.021 C 
ENDROOT
BRANCH   1  11
HETATM   11  C9  UNL     1       0.204  -0.250   0.641  1.00  0.00     0.142 C 
BRANCH  11  12
HETATM   12  C8  UNL     1       1.032  -0.508  -0.581  1.00  0.00     0.160 C 
BRANCH  12  13
HETATM   13  N1  UNL     1       2.450  -0.485  -0.328  1.00  0.00    -0.358 N 
BRANCH  13  14
HETATM   14  C5  UNL     1       3.014   0.741   0.013  1.00  0.00     0.155 C 
BRANCH  14  15
HETATM   15  C4  UNL     1       4.348   0.957  -0.544  1.00  0.00    -0.061 C 
HETATM   16  C3  UNL     1       5.456   1.168  -1.017  1.00  0.00    -0.101 C 
BRANCH  16  17
HETATM   17  C2  UNL     1       6.763   1.423  -1.600  1.00  0.00     0.090 C 
HETATM   18  C1  UNL     1       7.234   2.795  -1.203  1.00  0.00     0.018 C 
ENDBRANCH  16  17
ENDBRANCH  14  15
ENDBRANCH  13  14
BRANCH  13  19
HETATM   19  C6  UNL     1       2.901  -1.706   0.158  1.00  0.00     0.089 C 
BRANCH  19  20
HETATM   20  C7  UNL     1       4.236  -2.222  -0.256  1.00  0.00     0.208 C 
BRANCH  20  21
HETATM   21  O1  UNL     1       4.372  -3.477   0.407  1.00  0.00    -0.396 OA
ATOM     22  H1  UNL     1       5.223  -3.806   0.143  1.00  0.00     0.209 HD
ENDBRANCH  20  21
ENDBRANCH  19  20
ENDBRANCH  13  19
ENDBRANCH  12  13
ENDBRANCH  11  12
BRANCH  11  23
HETATM   23  O2  UNL     1       0.456  -1.219   1.605  1.00  0.00    -0.393 OA
ATOM     24  H2  UNL     1      -0.069  -1.055   2.380  1.00  0.00     0.210 HD
ENDBRANCH  11  23
ENDBRANCH   1  11
BRANCH   9  25
HETATM   25  C20 UNL     1      -3.373   0.962   0.760  1.00  0.00     0.032 C 
HETATM   26  C21 UNL     1      -4.659   0.692   1.026  1.00  0.00     0.275 C 
HETATM   27  F1  UNL     1      -5.188  -0.275   1.744  1.00  0.00    -0.172 F 
HETATM   28  F2  UNL     1      -5.583   1.549   0.446  1.00  0.00    -0.172 F 
BRANCH  25  29
HETATM   29  C22 UNL     1      -3.251   2.212  -0.022  1.00  0.00     0.018 A 
HETATM   30  C23 UNL     1      -2.826   2.268  -1.299  1.00  0.00     0.018 A 
HETATM   31  C24 UNL     1      -2.695   3.484  -1.989  1.00  0.00     0.046 A 
HETATM   32  C25 UNL     1      -2.997   4.659  -1.384  1.00  0.00     0.158 A 
HETATM   33  F3  UNL     1      -2.887   5.872  -2.004  1.00  0.00    -0.203 F 
HETATM   34  C26 UNL     1      -3.432   4.644  -0.092  1.00  0.00     0.194 A 
HETATM   35  F4  UNL     1      -3.747   5.790   0.555  1.00  0.00    -0.200 F 
HETATM   36  C27 UNL     1      -3.560   3.436   0.585  1.00  0.00     0.169 A 
HETATM   37  F5  UNL     1      -4.015   3.536   1.855  1.00  0.00    -0.202 F 
ENDBRANCH  25  29
ENDBRANCH   9  25
BRANCH   5  38
HETATM   38  O3  UNL     1      -1.798  -4.810   0.172  1.00  0.00    -0.391 OA
ATOM     39  H3  UNL     1      -1.924  -5.087   1.072  1.00  0.00     0.210 HD
ENDBRANCH   5  38
TORSDOF 13
