REMARK  7 active torsions:
REMARK  status: ('A' for Active; 'I' for Inactive)
REMARK    1  A    between atoms: C2_2  and  O1_3 
REMARK    2  A    between atoms: O1_3  and  C3_4 
REMARK    3  A    between atoms: C3_4  and  C4_5 
REMARK    4  A    between atoms: C12_13  and  N1_14 
REMARK    5  A    between atoms: N1_14  and  C13_16 
REMARK    6  A    between atoms: C13_16  and  C14_17 
REMARK    7  A    between atoms: C14_17  and  O2_18 
ROOT
HETATM    1  C4  UNL     1       0.455  -0.518   0.020  1.00  0.00     0.021 C 
HETATM    2  C5  UNL     1       0.936  -1.597   1.041  1.00  0.00     0.022 C 
HETATM    3  C6  UNL     1       0.071  -2.786   0.963  1.00  0.00    -0.012 C 
HETATM    4  C7  UNL     1       0.177  -3.414  -0.414  1.00  0.00     0.009 C 
HETATM    5  C8  UNL     1      -0.303  -2.431  -1.431  1.00  0.00    -0.012 C 
HETATM    6  C9  UNL     1      -1.716  -1.961  -1.185  1.00  0.00     0.015 C 
HETATM    7  C10 UNL     1      -1.819  -1.391   0.192  1.00  0.00     0.033 C 
HETATM    8  C11 UNL     1      -1.389  -2.435   1.179  1.00  0.00     0.015 C 
HETATM    9  C12 UNL     1      -0.898  -0.166   0.398  1.00  0.00    -0.003 C 
HETATM   10  C15 UNL     1       0.555  -1.201  -1.357  1.00  0.00     0.022 C 
ENDROOT
BRANCH   9  11
HETATM   11  N1  UNL     1      -1.568   0.997   0.032  1.00  0.00    -0.393 N 
ATOM     12  H1  UNL     1      -2.377   0.918  -0.584  1.00  0.00     0.159 HD
BRANCH  11  13
HETATM   13  C13 UNL     1      -1.185   2.275   0.470  1.00  0.00     0.145 C 
BRANCH  13  14
HETATM   14  C14 UNL     1      -2.223   3.345   0.058  1.00  0.00     0.183 C 
BRANCH  14  15
HETATM   15  O2  UNL     1      -2.392   3.432  -1.296  1.00  0.00    -0.399 OA
ATOM     16  H2  UNL     1      -3.030   4.089  -1.549  1.00  0.00     0.209 HD
ENDBRANCH  14  15
ENDBRANCH  13  14
ENDBRANCH  11  13
ENDBRANCH   9  11
BRANCH   1  17
HETATM   17  C3  UNL     1       1.535   0.525  -0.043  1.00  0.00     0.183 C 
BRANCH  17  18
HETATM   18  O1  UNL     1       1.858   1.163   1.108  1.00  0.00    -0.390 OA
BRANCH  18  19
HETATM   19  C2  UNL     1       2.980   1.949   0.894  1.00  0.00     0.163 C 
HETATM   20  C1  UNL     1       2.880   2.975  -0.180  1.00  0.00     0.033 C 
ENDBRANCH  18  19
ENDBRANCH  17  18
ENDBRANCH   1  17
TORSDOF 7
