REMARK  9 active torsions:
REMARK  status: ('A' for Active; 'I' for Inactive)
REMARK    1  A    between atoms: C2_2  and  C3_3 
REMARK    2  A    between atoms: C3_3  and  N1_4 
REMARK    3  A    between atoms: N1_4  and  C4_6 
REMARK    4  A    between atoms: C5_9  and  N3_10 
REMARK    5  A    between atoms: N3_10  and  C6_12 
REMARK    6  A    between atoms: C6_12  and  C7_13 
REMARK    7  A    between atoms: C9_17  and  N5_18 
REMARK    8  A    between atoms: N5_18  and  C10_20 
REMARK    9  A    between atoms: C10_20  and  C11_21 
ROOT
HETATM    1  C4  UNL     1      -0.766  -0.684   0.472  1.00  0.00     0.707 A 
HETATM    2  N2  UNL     1       0.535  -1.040   0.553  1.00  0.00    -0.022 N 
ATOM      3  H2  UNL     1       0.806  -2.018   0.650  1.00  0.00     0.203 HD
HETATM    4  C5  UNL     1       1.457  -0.072   0.502  1.00  0.00     0.707 A 
HETATM    5  N4  UNL     1       1.099   1.229   0.373  1.00  0.00    -0.022 N 
ATOM      6  H4  UNL     1       1.820   1.950   0.336  1.00  0.00     0.203 HD
HETATM    7  C9  UNL     1      -0.192   1.577   0.294  1.00  0.00     0.707 A 
HETATM    8  N6  UNL     1      -1.125   0.600   0.345  1.00  0.00    -0.022 N 
ATOM      9  H6  UNL     1      -2.114   0.844   0.286  1.00  0.00     0.203 HD
ENDROOT
BRANCH   1  10
HETATM   10  N1  UNL     1      -1.660  -1.627   0.522  1.00  0.00    -0.225 N 
ATOM     11  H1  UNL     1      -1.380  -2.603   0.619  1.00  0.00     0.177 HD
BRANCH  10  12
HETATM   12  C3  UNL     1      -3.075  -1.263   0.437  1.00  0.00     0.137 C 
BRANCH  12  13
HETATM   13  C2  UNL     1      -3.910  -2.509   0.669  1.00  0.00     0.016 C 
HETATM   14  C1  UNL     1      -3.635  -3.576  -0.340  1.00  0.00     0.006 C 
ENDBRANCH  12  13
ENDBRANCH  10  12
ENDBRANCH   1  10
BRANCH   4  15
HETATM   15  N3  UNL     1       2.705  -0.311   0.570  1.00  0.00    -0.225 N 
ATOM     16  H3  UNL     1       3.361   0.469   0.526  1.00  0.00     0.177 HD
BRANCH  15  17
HETATM   17  C6  UNL     1       3.215  -1.634   0.706  1.00  0.00     0.137 C 
BRANCH  17  18
HETATM   18  C7  UNL     1       3.322  -2.370  -0.637  1.00  0.00     0.016 C 
HETATM   19  C8  UNL     1       3.869  -3.744  -0.331  1.00  0.00     0.006 C 
ENDBRANCH  17  18
ENDBRANCH  15  17
ENDBRANCH   4  15
BRANCH   7  20
HETATM   20  N5  UNL     1      -0.544   2.826   0.170  1.00  0.00    -0.225 N 
ATOM     21  H5  UNL     1      -1.528   3.087   0.109  1.00  0.00     0.177 HD
BRANCH  20  22
HETATM   22  C10 UNL     1       0.480   3.820   0.121  1.00  0.00     0.137 C 
BRANCH  22  23
HETATM   23  C11 UNL     1      -0.025   5.217   0.042  1.00  0.00     0.016 C 
HETATM   24  C12 UNL     1      -0.867   5.506  -1.154  1.00  0.00     0.006 C 
ENDBRANCH  22  23
ENDBRANCH  20  22
ENDBRANCH   7  20
TORSDOF 9
