REMARK  4 active torsions:
REMARK  status: ('A' for Active; 'I' for Inactive)
REMARK    1  A    between atoms: C2_2  and  O1_3 
REMARK    2  A    between atoms: O1_3  and  C3_4 
REMARK    3  A    between atoms: C9_10  and  O2_11 
REMARK    4  A    between atoms: C10_14  and  O4_15 
ROOT
HETATM    1  C3  UNL     1       0.857   0.431  -0.192  1.00  0.00     0.139 C 
HETATM    2  C4  UNL     1       0.021   1.022   0.920  1.00  0.00     0.071 C 
HETATM    3  C5  UNL     1      -0.669   0.016   1.758  1.00  0.00     0.016 C 
HETATM    4  C6  UNL     1      -1.268  -1.135   1.008  1.00  0.00    -0.013 C 
HETATM    5  C7  UNL     1      -2.639  -0.843   0.476  1.00  0.00     0.010 C 
HETATM    6  C8  UNL     1      -2.646  -0.405  -0.953  1.00  0.00     0.069 C 
HETATM    7  C9  UNL     1      -1.376   0.357  -1.337  1.00  0.00     0.170 C 
HETATM    8  O3  UNL     1      -1.476   1.617  -0.881  1.00  0.00    -0.325 OA
HETATM    9  C10 UNL     1      -0.947   1.966   0.301  1.00  0.00     0.267 C 
HETATM   10  C11 UNL     1      -0.136  -0.397  -1.007  1.00  0.00     0.078 C 
HETATM   11  C12 UNL     1      -0.417  -1.619  -0.130  1.00  0.00     0.017 C 
ENDROOT
BRANCH   1  12
HETATM   12  O1  UNL     1       1.829  -0.415   0.295  1.00  0.00    -0.385 OA
BRANCH  12  13
HETATM   13  C2  UNL     1       3.112  -0.039  -0.100  1.00  0.00     0.163 C 
HETATM   14  C1  UNL     1       4.113  -1.010   0.472  1.00  0.00     0.033 C 
ENDBRANCH  12  13
ENDBRANCH   1  12
BRANCH   9  15
HETATM   15  O4  UNL     1      -0.280   3.203   0.142  1.00  0.00    -0.371 OA
ATOM     16  H4  UNL     1      -0.898   3.806  -0.253  1.00  0.00     0.212 HD
ENDBRANCH   9  15
BRANCH   7  17
HETATM   17  O2  UNL     1      -1.431   0.423  -2.753  1.00  0.00    -0.365 OA
ATOM     18  H2  UNL     1      -0.642   0.896  -2.991  1.00  0.00     0.213 HD
ENDBRANCH   7  17
TORSDOF 4
