REMARK  2 active torsions:
REMARK  status: ('A' for Active; 'I' for Inactive)
REMARK    1  A    between atoms: C5_5  and  N2_8 
REMARK    2  A    between atoms: N2_8  and  C7_10 
ROOT
HETATM    1  C1  UNL     1      -3.073  -0.768  -0.097  1.00  0.00     0.026 C 
HETATM    2  C2  UNL     1      -1.973   0.298   0.009  1.00  0.00     0.004 C 
HETATM    3  C3  UNL     1      -2.705   1.633  -0.131  1.00  0.00     0.026 C 
HETATM    4  C4  UNL     1      -1.028   0.059  -1.121  1.00  0.00     0.067 C 
HETATM    5  C5  UNL     1       0.394  -0.252  -0.643  1.00  0.00     0.138 C 
HETATM    6  C6  UNL     1       1.147  -0.545  -1.863  1.00  0.00     0.091 C 
HETATM    7  N1  UNL     1       1.734  -0.781  -2.857  1.00  0.00    -0.195 NA
HETATM    8  C8  UNL     1       0.403  -1.497   0.211  1.00  0.00     0.057 C 
HETATM    9  C9  UNL     1      -0.058  -1.223   1.618  1.00  0.00     0.078 C 
HETATM   10  S1  UNL     1      -1.234   0.183   1.641  1.00  0.00    -0.160 SA
ENDROOT
BRANCH   5  11
HETATM   11  N2  UNL     1       0.978   0.881   0.000  1.00  0.00    -0.201 N 
ATOM     12  H2  UNL     1       0.341   1.640   0.242  1.00  0.00     0.179 HD
BRANCH  11  13
HETATM   13  C7  UNL     1       2.206   1.054   0.308  1.00  0.00     0.711 A 
HETATM   14  N3  UNL     1       2.661   2.179   0.924  1.00  0.00    -0.115 N 
HETATM   15  N4  UNL     1       3.955   2.071   1.112  1.00  0.00    -0.213 N 
ATOM     16  H3  UNL     1       2.088   2.978   1.196  1.00  0.00     0.207 HD
HETATM   17  N5  UNL     1       4.377   0.912   0.642  1.00  0.00    -0.213 N 
ATOM     18  H4  UNL     1       4.545   2.776   1.554  1.00  0.00     0.210 HD
HETATM   19  N6  UNL     1       3.298   0.292   0.150  1.00  0.00    -0.115 N 
ATOM     20  H5  UNL     1       5.334   0.559   0.652  1.00  0.00     0.210 HD
ATOM     21  H6  UNL     1       3.305  -0.631  -0.284  1.00  0.00     0.207 HD
ENDBRANCH  11  13
ENDBRANCH   5  11
TORSDOF 2
