REMARK  2 active torsions:
REMARK  status: ('A' for Active; 'I' for Inactive)
REMARK    1  A    between atoms: N1_1  and  N2_4 
REMARK       I    between atoms: N2_4  and  C1_6 
REMARK       I    between atoms: C1_6  and  N3_8 
REMARK    2  A    between atoms: C7_15  and  C8_16 
ROOT
HETATM    1  N2  UNL     1      -2.731  -1.396  -0.033  1.00  0.00    -0.258 N 
ATOM      2  H2  UNL     1      -2.169  -2.063   0.496  1.00  0.00     0.191 HD
HETATM    3  C1  UNL     1      -2.152  -0.170  -0.447  1.00  0.00     0.337 C 
HETATM    4  O1  UNL     1      -2.850   0.645  -1.097  1.00  0.00    -0.245 OA
HETATM    5  N3  UNL     1      -0.814   0.131  -0.136  1.00  0.00    -0.321 N 
HETATM    6  C2  UNL     1       0.071  -0.760   0.615  1.00  0.00     0.148 C 
HETATM    7  C3  UNL     1       1.404  -0.351   0.050  1.00  0.00     0.027 C 
HETATM    8  C4  UNL     1       2.612  -0.964   0.669  1.00  0.00     0.032 C 
HETATM    9  C5  UNL     1       3.341  -0.756  -0.657  1.00  0.00     0.076 C 
HETATM   10  S1  UNL     1       1.774  -0.964  -1.581  1.00  0.00    -0.157 SA
HETATM   11  C6  UNL     1       1.296   1.141   0.100  1.00  0.00     0.053 C 
HETATM   12  C7  UNL     1      -0.079   1.349  -0.492  1.00  0.00     0.155 C 
ENDROOT
BRANCH  12  13
HETATM   13  C8  UNL     1      -0.742   2.584   0.077  1.00  0.00     0.376 C 
HETATM   14  F1  UNL     1      -0.814   2.540   1.442  1.00  0.00    -0.212 F 
HETATM   15  F2  UNL     1       0.051   3.659  -0.321  1.00  0.00    -0.212 F 
ENDBRANCH  12  13
BRANCH   1  16
HETATM   16  N1  UNL     1      -4.065  -1.708  -0.338  1.00  0.00    -0.341 N 
ATOM     17  H12 UNL     1      -4.613  -1.030  -0.867  1.00  0.00     0.177 HD
ATOM     18  H11 UNL     1      -4.482  -2.590  -0.040  1.00  0.00     0.177 HD
ENDBRANCH   1  16
TORSDOF 2
