REMARK  5 active torsions:
REMARK  status: ('A' for Active; 'I' for Inactive)
REMARK    1  A    between atoms: C1_1  and  C24_28 
REMARK    2  A    between atoms: C2_2  and  C3_3 
REMARK    3  A    between atoms: C6_6  and  C7_7 
REMARK    4  A    between atoms: C8_10  and  C9_11 
REMARK    5  A    between atoms: C15_17  and  C16_18 
ROOT
HETATM    1  C7  UNL     1      -0.913   0.299  -0.339  1.00  0.00     0.116 A 
HETATM    2  N1  UNL     1      -1.702   1.233  -0.887  1.00  0.00    -0.339 N 
ATOM      3  H1  UNL     1      -1.361   2.048  -1.398  1.00  0.00     0.167 HD
HETATM    4  C8  UNL     1      -2.997   0.958  -0.677  1.00  0.00     0.072 A 
HETATM    5  C15 UNL     1      -3.006  -0.223   0.049  1.00  0.00     0.072 A 
HETATM    6  N2  UNL     1      -1.730  -0.597   0.237  1.00  0.00    -0.339 N 
ATOM      7  H2  UNL     1      -1.428  -1.432   0.739  1.00  0.00     0.167 HD
ENDROOT
BRANCH   1   8
HETATM    8  C6  UNL     1       0.539   0.245  -0.352  1.00  0.00     0.008 A 
HETATM    9  C5  UNL     1       1.193  -0.788   0.260  1.00  0.00     0.016 A 
HETATM   10  C4  UNL     1       2.570  -0.803   0.227  1.00  0.00     0.012 A 
HETATM   11  C3  UNL     1       3.277   0.188  -0.400  1.00  0.00    -0.036 A 
HETATM   12  C23 UNL     1       2.609   1.255  -1.033  1.00  0.00     0.012 A 
HETATM   13  C22 UNL     1       1.236   1.251  -0.988  1.00  0.00     0.016 A 
BRANCH  11  14
HETATM   14  C2  UNL     1       4.724   0.166  -0.429  1.00  0.00     0.012 C 
HETATM   15  C1  UNL     1       5.411  -0.789   0.134  1.00  0.00     0.012 C 
BRANCH  15  16
HETATM   16  C24 UNL     1       6.862  -0.820   0.111  1.00  0.00    -0.036 A 
HETATM   17  C25 UNL     1       7.518  -1.875   0.736  1.00  0.00     0.011 A 
HETATM   18  C26 UNL     1       8.897  -1.911   0.718  1.00  0.00     0.001 A 
HETATM   19  C27 UNL     1       9.595  -0.916   0.091  1.00  0.00     0.000 A 
HETATM   20  C28 UNL     1       8.974   0.132  -0.531  1.00  0.00     0.001 A 
HETATM   21  C29 UNL     1       7.573   0.168  -0.513  1.00  0.00     0.011 A 
ENDBRANCH  15  16
ENDBRANCH  11  14
ENDBRANCH   1   8
BRANCH   4  22
HETATM   22  C9  UNL     1      -4.176   1.708  -1.100  1.00  0.00    -0.007 A 
HETATM   23  C10 UNL     1      -5.080   2.279  -0.224  1.00  0.00     0.014 A 
HETATM   24  C11 UNL     1      -6.178   2.977  -0.665  1.00  0.00     0.001 A 
HETATM   25  C12 UNL     1      -6.429   3.140  -2.006  1.00  0.00     0.000 A 
HETATM   26  C13 UNL     1      -5.542   2.580  -2.900  1.00  0.00     0.001 A 
HETATM   27  C14 UNL     1      -4.440   1.879  -2.439  1.00  0.00     0.014 A 
ENDBRANCH   4  22
BRANCH   5  28
HETATM   28  C16 UNL     1      -4.181  -0.966   0.544  1.00  0.00    -0.007 A 
HETATM   29  C17 UNL     1      -4.339  -1.168   1.896  1.00  0.00     0.014 A 
HETATM   30  C18 UNL     1      -5.418  -1.854   2.406  1.00  0.00     0.001 A 
HETATM   31  C19 UNL     1      -6.378  -2.362   1.560  1.00  0.00     0.000 A 
HETATM   32  C20 UNL     1      -6.202  -2.150   0.213  1.00  0.00     0.001 A 
HETATM   33  C21 UNL     1      -5.132  -1.468  -0.306  1.00  0.00     0.014 A 
ENDBRANCH   5  28
TORSDOF 5
