REMARK  3 active torsions:
REMARK  status: ('A' for Active; 'I' for Inactive)
REMARK    1  A    between atoms: C8_8  and  O1_9 
REMARK    2  A    between atoms: C11_13  and  C12_14 
REMARK    3  A    between atoms: C13_18  and  N1_19 
ROOT
HETATM    1  C1  UNL     1      -1.666  -1.642  -0.835  1.00  0.00     0.016 C 
HETATM    2  C2  UNL     1      -2.039  -0.811   0.312  1.00  0.00    -0.033 C 
HETATM    3  C3  UNL     1      -3.319  -1.465   0.878  1.00  0.00     0.010 C 
HETATM    4  C4  UNL     1      -4.427  -1.397  -0.102  1.00  0.00     0.001 C 
HETATM    5  C5  UNL     1      -4.504  -0.332  -1.081  1.00  0.00     0.001 C 
HETATM    6  C6  UNL     1      -3.234   0.489  -1.321  1.00  0.00     0.008 C 
HETATM    7  C7  UNL     1      -2.575   0.577  -0.041  1.00  0.00     0.030 C 
HETATM    8  C8  UNL     1      -1.486   1.499   0.279  1.00  0.00     0.075 C 
HETATM    9  C9  UNL     1      -1.266   0.958   1.702  1.00  0.00     0.045 C 
HETATM   10  C10 UNL     1      -1.036  -0.506   1.354  1.00  0.00     0.007 C 
HETATM   11  C11 UNL     1       0.381  -0.864   1.103  1.00  0.00     0.078 C 
HETATM   12  C13 UNL     1       1.367   0.269   1.057  1.00  0.00     0.232 C 
HETATM   13  C19 UNL     1       0.930   1.561   0.491  1.00  0.00     0.055 C 
HETATM   14  C20 UNL     1      -0.252   1.517  -0.452  1.00  0.00     0.094 C 
HETATM   15 BR1  UNL     1      -0.187   3.181  -1.492  1.00  0.00    -0.088 Br
ENDROOT
BRANCH  12  16
HETATM   16  N1  UNL     1       2.618  -0.089   0.478  1.00  0.00     0.093 N 
HETATM   17  C14 UNL     1       2.679  -0.474  -0.869  1.00  0.00     0.273 C 
HETATM   18  C15 UNL     1       4.121  -0.914  -1.187  1.00  0.00     0.030 C 
HETATM   19  C16 UNL     1       4.980   0.305  -1.215  1.00  0.00     0.003 C 
HETATM   20  C17 UNL     1       4.469   1.368  -0.297  1.00  0.00     0.030 C 
HETATM   21  C18 UNL     1       3.616   0.877   0.820  1.00  0.00     0.273 C 
ENDBRANCH  12  16
BRANCH  11  22
HETATM   22  C12 UNL     1       0.848  -1.769   2.255  1.00  0.00     0.194 C 
HETATM   23 CL1  UNL     1       2.534  -2.284   2.087  1.00  0.00    -0.083 Cl
HETATM   24 CL2  UNL     1      -0.097  -3.256   2.391  1.00  0.00    -0.083 Cl
HETATM   25 CL3  UNL     1       0.636  -0.915   3.819  1.00  0.00    -0.083 Cl
ENDBRANCH  11  22
BRANCH   8  26
HETATM   26  O1  UNL     1      -2.024   2.801   0.390  1.00  0.00    -0.388 OA
ATOM     27  H1  UNL     1      -1.317   3.400   0.598  1.00  0.00     0.210 HD
ENDBRANCH   8  26
TORSDOF 3
