REMARK  8 active torsions:
REMARK  status: ('A' for Active; 'I' for Inactive)
REMARK    1  A    between atoms: C2_3  and  C3_4 
REMARK    2  A    between atoms: C5_6  and  C6_7 
REMARK    3  A    between atoms: C6_7  and  N2_8 
REMARK    4  A    between atoms: N2_8  and  C7_9 
REMARK    5  A    between atoms: N2_8  and  C12_17 
REMARK    6  A    between atoms: C7_9  and  C8_10 
REMARK    7  A    between atoms: C21_33  and  C22_34 
REMARK    8  A    between atoms: C22_34  and  O1_35 
ROOT
HETATM    1  C3  UNL     1       2.422  -0.762  -1.276  1.00  0.00     0.036 A 
HETATM    2  C4  UNL     1       1.204  -0.058  -1.254  1.00  0.00     0.028 A 
HETATM    3  C5  UNL     1       0.103  -0.376  -2.000  1.00  0.00    -0.014 A 
HETATM    4  C18 UNL     1       0.233  -1.472  -2.825  1.00  0.00     0.098 A 
HETATM    5  N4  UNL     1       1.368  -2.181  -2.891  1.00  0.00    -0.351 N 
ATOM      6  H4  UNL     1       1.426  -2.987  -3.513  1.00  0.00     0.166 HD
HETATM    7  C19 UNL     1       2.459  -1.829  -2.124  1.00  0.00     0.111 A 
HETATM    8  N5  UNL     1       3.542  -2.509  -2.312  1.00  0.00    -0.385 N 
ATOM      9  H51 UNL     1       3.570  -3.307  -2.946  1.00  0.00     0.157 HD
ATOM     10  H52 UNL     1       4.349  -2.249  -1.745  1.00  0.00     0.157 HD
ENDROOT
BRANCH   3  11
HETATM   11  C6  UNL     1      -1.160   0.365  -1.969  1.00  0.00     0.313 C 
BRANCH  11  12
HETATM   12  N2  UNL     1      -1.541   0.749  -0.588  1.00  0.00     0.097 N 
BRANCH  12  13
HETATM   13  C7  UNL     1      -2.745   1.542  -0.775  1.00  0.00     0.279 C 
BRANCH  13  14
HETATM   14  C8  UNL     1      -3.288   2.166   0.457  1.00  0.00     0.041 C 
HETATM   15  C9  UNL     1      -2.303   3.110   1.122  1.00  0.00     0.035 C 
HETATM   16  C10 UNL     1      -2.363   4.309   0.221  1.00  0.00     0.232 C 
HETATM   17  N3  UNL     1      -3.754   4.429  -0.093  1.00  0.00    -0.075 N 
HETATM   18  C11 UNL     1      -4.379   3.144   0.023  1.00  0.00     0.238 C 
ATOM     19  H32 UNL     1      -4.219   5.137   0.475  1.00  0.00     0.277 HD
ATOM     20  H31 UNL     1      -3.908   4.853  -1.008  1.00  0.00     0.277 HD
ENDBRANCH  13  14
ENDBRANCH  12  13
BRANCH  12  21
HETATM   21  C12 UNL     1      -1.765  -0.506   0.077  1.00  0.00     0.223 C 
HETATM   22  C13 UNL     1      -1.553  -0.516   1.558  1.00  0.00     0.036 C 
HETATM   23  C14 UNL     1      -1.247  -1.985   1.915  1.00  0.00     0.002 C 
HETATM   24  C15 UNL     1      -2.363  -2.888   1.489  1.00  0.00     0.000 C 
HETATM   25  C16 UNL     1      -2.889  -2.631   0.101  1.00  0.00     0.002 C 
HETATM   26  C17 UNL     1      -3.082  -1.160  -0.211  1.00  0.00     0.036 C 
ENDBRANCH  12  21
ENDBRANCH  11  12
ENDBRANCH   3  11
BRANCH   1  27
HETATM   27  C2  UNL     1       3.507  -0.238  -0.479  1.00  0.00     0.065 A 
HETATM   28  N1  UNL     1       4.485  -0.791   0.217  1.00  0.00    -0.337 N 
HETATM   29  C1  UNL     1       4.855  -2.180   0.431  1.00  0.00     0.158 C 
HETATM   30  C21 UNL     1       5.166   0.189   0.889  1.00  0.00     0.107 A 
HETATM   31  N6  UNL     1       4.601   1.359   0.609  1.00  0.00    -0.352 N 
HETATM   32  C20 UNL     1       3.589   1.144  -0.218  1.00  0.00     0.120 A 
ATOM     33  H6  UNL     1       4.896   2.267   0.969  1.00  0.00     0.166 HD
BRANCH  30  34
HETATM   34  C22 UNL     1       6.339   0.049   1.790  1.00  0.00     0.240 C 
BRANCH  34  35
HETATM   35  O1  UNL     1       5.847  -0.163   3.076  1.00  0.00    -0.393 OA
ATOM     36  H1  UNL     1       6.597  -0.253   3.652  1.00  0.00     0.209 HD
ENDBRANCH  34  35
ENDBRANCH  30  34
ENDBRANCH   1  27
TORSDOF 8
