REMARK  13 active torsions:
REMARK  status: ('A' for Active; 'I' for Inactive)
REMARK    1  A    between atoms: C2_2  and  C3_3 
REMARK    2  A    between atoms: C3_3  and  C4_4 
REMARK    3  A    between atoms: C4_4  and  N1_5 
REMARK    4  A    between atoms: N1_5  and  C5_6 
REMARK    5  A    between atoms: N1_5  and  C13_15 
REMARK    6  A    between atoms: C5_6  and  C6_7 
REMARK    7  A    between atoms: C9_10  and  S1_11 
REMARK    8  A    between atoms: C13_15  and  C14_16 
REMARK    9  A    between atoms: C21_24  and  N2_25 
REMARK       I    between atoms: N3_28  and  C24_29 
REMARK   10  A    between atoms: C24_29  and  C25_31 
REMARK   11  A    between atoms: C25_31  and  C26_32 
REMARK   12  A    between atoms: C26_32  and  C27_33 
REMARK   13  A    between atoms: C27_33  and  N4_34 
ROOT
HETATM    1  C14 UNL     1      -0.367  -1.813   1.483  1.00  0.00     0.002 A 
HETATM    2  C15 UNL     1      -0.796  -2.969   2.060  1.00  0.00     0.016 A 
HETATM    3  C16 UNL     1       0.137  -3.921   2.410  1.00  0.00     0.021 A 
HETATM    4  C17 UNL     1       1.498  -3.677   2.166  1.00  0.00     0.017 A 
HETATM    5  S2  UNL     1       2.922  -4.575   2.439  1.00  0.00    -0.101 SA
HETATM    6  C18 UNL     1       4.060  -3.481   1.820  1.00  0.00     0.051 A 
HETATM    7  C19 UNL     1       3.296  -2.424   1.408  1.00  0.00     0.022 A 
HETATM    8  C20 UNL     1       1.955  -2.519   1.586  1.00  0.00     0.009 A 
HETATM    9  C21 UNL     1       0.993  -1.560   1.234  1.00  0.00     0.053 A 
ENDROOT
BRANCH   1  10
HETATM   10  C13 UNL     1      -1.321  -0.745   1.154  1.00  0.00     0.073 C 
BRANCH  10  11
HETATM   11  N1  UNL     1      -2.667  -1.094   1.346  1.00  0.00    -0.288 NA
BRANCH  11  12
HETATM   12  C4  UNL     1      -3.232  -1.986   0.381  1.00  0.00     0.095 C 
BRANCH  12  13
HETATM   13  C3  UNL     1      -4.413  -2.702   0.957  1.00  0.00     0.014 C 
BRANCH  13  14
HETATM   14  C2  UNL     1      -5.050  -3.663  -0.019  1.00  0.00    -0.003 C 
HETATM   15  C1  UNL     1      -5.551  -3.005  -1.265  1.00  0.00     0.005 C 
ENDBRANCH  13  14
ENDBRANCH  12  13
ENDBRANCH  11  12
BRANCH  11  16
HETATM   16  C5  UNL     1      -3.524   0.014   1.687  1.00  0.00     0.133 C 
BRANCH  16  17
HETATM   17  C6  UNL     1      -3.862   0.909   0.556  1.00  0.00    -0.045 A 
HETATM   18  C7  UNL     1      -4.962   0.765  -0.259  1.00  0.00     0.010 A 
HETATM   19  C8  UNL     1      -5.221   1.646  -1.310  1.00  0.00     0.019 A 
HETATM   20  C9  UNL     1      -4.387   2.705  -1.587  1.00  0.00    -0.000 A 
HETATM   21  C11 UNL     1      -3.283   2.860  -0.778  1.00  0.00     0.019 A 
HETATM   22  C12 UNL     1      -3.028   1.991   0.259  1.00  0.00     0.010 A 
BRANCH  20  23
HETATM   23  S1  UNL     1      -4.719   3.837  -2.945  1.00  0.00    -0.134 SA
HETATM   24  C10 UNL     1      -3.944   3.300  -4.469  1.00  0.00     0.095 C 
ENDBRANCH  20  23
ENDBRANCH  16  17
ENDBRANCH  11  16
ENDBRANCH  10  11
ENDBRANCH   1  10
BRANCH   9  25
HETATM   25  N2  UNL     1       1.346  -0.350   0.620  1.00  0.00    -0.376 N 
HETATM   26  C22 UNL     1       1.511  -0.118  -0.771  1.00  0.00     0.143 C 
HETATM   27  C23 UNL     1       2.244   1.168  -1.070  1.00  0.00     0.145 C 
HETATM   28  N3  UNL     1       3.299   1.285  -0.096  1.00  0.00    -0.349 N 
HETATM   29  C24 UNL     1       4.657   1.256  -0.512  1.00  0.00     0.219 C 
HETATM   30  C28 UNL     1       2.919   1.422   1.290  1.00  0.00     0.145 C 
HETATM   31  O1  UNL     1       4.965   1.122  -1.734  1.00  0.00    -0.273 OA
HETATM   32  C29 UNL     1       1.541   0.784   1.526  1.00  0.00     0.143 C 
BRANCH  29  33
HETATM   33  C25 UNL     1       5.724   1.376   0.493  1.00  0.00     0.105 C 
BRANCH  33  34
HETATM   34  C26 UNL     1       7.025   1.896   0.022  1.00  0.00     0.036 C 
BRANCH  34  35
HETATM   35  C27 UNL     1       7.095   3.290  -0.475  1.00  0.00     0.230 C 
BRANCH  35  36
HETATM   36  N4  UNL     1       6.276   3.612  -1.603  1.00  0.00    -0.079 N 
ATOM     37  H43 UNL     1       6.476   2.966  -2.367  1.00  0.00     0.274 HD
ATOM     38  H42 UNL     1       5.306   3.369  -1.402  1.00  0.00     0.274 HD
ATOM     39  H41 UNL     1       6.324   4.572  -1.945  1.00  0.00     0.274 HD
ENDBRANCH  35  36
ENDBRANCH  34  35
ENDBRANCH  33  34
ENDBRANCH  29  33
ENDBRANCH   9  25
TORSDOF 13
