REMARK  3 active torsions:
REMARK  status: ('A' for Active; 'I' for Inactive)
REMARK    1  A    between atoms: C2_2  and  C3_3 
REMARK       I    between atoms: C3_3  and  N1_5 
REMARK       I    between atoms: C4_7  and  N2_8 
REMARK       I    between atoms: C4_7  and  N4_15 
REMARK    2  A    between atoms: N2_8  and  S1_10 
REMARK    3  A    between atoms: S1_10  and  N3_11 
REMARK       I    between atoms: N4_15  and  C5_17 
REMARK       I    between atoms: C5_17  and  N5_19 
REMARK       I    between atoms: N5_19  and  C6_21 
ROOT
HETATM    1  C3  UNL     1       2.276  -1.339  -0.439  1.00  0.00     0.258 C 
HETATM    2  O1  UNL     1       1.926  -2.433   0.083  1.00  0.00    -0.268 OA
HETATM    3  N1  UNL     1       1.502  -0.198  -0.573  1.00  0.00    -0.155 N 
ATOM      4  H1  UNL     1       2.003   0.564  -1.029  1.00  0.00     0.187 HD
HETATM    5  C4  UNL     1       0.226   0.141  -0.236  1.00  0.00     0.698 C 
HETATM    6  N2  UNL     1      -0.029   1.464  -0.623  1.00  0.00    -0.121 N 
ATOM      7  H2  UNL     1      -0.952   1.852  -0.430  1.00  0.00     0.196 HD
HETATM    8  N4  UNL     1      -0.929  -0.336   0.352  1.00  0.00    -0.140 N 
ATOM      9  H4  UNL     1      -1.649   0.386   0.349  1.00  0.00     0.189 HD
HETATM   10  C5  UNL     1      -1.414  -1.490   0.945  1.00  0.00     0.342 C 
HETATM   11  O3  UNL     1      -0.741  -2.536   1.081  1.00  0.00    -0.246 OA
HETATM   12  N5  UNL     1      -2.745  -1.589   1.460  1.00  0.00    -0.263 N 
ATOM     13  H5  UNL     1      -2.973  -2.495   1.870  1.00  0.00     0.174 HD
HETATM   14  C6  UNL     1      -3.779  -0.665   1.498  1.00  0.00     0.336 C 
HETATM   15  N6  UNL     1      -5.034  -1.095   2.106  1.00  0.00    -0.040 NA
HETATM   16  O4  UNL     1      -3.774   0.493   1.077  1.00  0.00    -0.251 OA
ENDROOT
BRANCH   6  17
HETATM   17  S1  UNL     1       1.108   2.452  -1.391  1.00  0.00     0.229 S 
HETATM   18  O2  UNL     1       1.064   2.467  -2.894  1.00  0.00    -0.212 OA
BRANCH  17  19
HETATM   19  N3  UNL     1       1.189   4.061  -0.708  1.00  0.00    -0.332 NA
ATOM     20  H32 UNL     1       1.219   4.051   0.312  1.00  0.00     0.168 HD
ATOM     21  H31 UNL     1       1.875   4.657  -1.171  1.00  0.00     0.168 HD
ENDBRANCH  17  19
ENDBRANCH   6  17
BRANCH   1  22
HETATM   22  C2  UNL     1       3.691  -1.377  -0.935  1.00  0.00     0.065 C 
HETATM   23  C1  UNL     1       4.237  -0.363  -1.498  1.00  0.00     0.017 C 
ENDBRANCH   1  22
TORSDOF 3
