REMARK  7 active torsions:
REMARK  status: ('A' for Active; 'I' for Inactive)
REMARK       I    between atoms: C1_4  and  N2_5 
REMARK       I    between atoms: C1_4  and  N7_27 
REMARK    1  A    between atoms: N2_5  and  C2_7 
REMARK    2  A    between atoms: C2_7  and  C3_8 
REMARK    3  A    between atoms: C3_8  and  C4_9 
REMARK    4  A    between atoms: C4_9  and  C5_10 
REMARK    5  A    between atoms: N5_20  and  C10_21 
REMARK    6  A    between atoms: C10_21  and  C11_22 
REMARK    7  A    between atoms: N7_27  and  N8_29 
ROOT
HETATM    1  C5  UNL     1      -0.098  -0.455   0.039  1.00  0.00     0.205 C 
HETATM    2  C6  UNL     1      -0.074  -1.593   0.985  1.00  0.00     0.242 C 
HETATM    3  O1  UNL     1       0.474  -1.517   2.089  1.00  0.00    -0.271 OA
HETATM    4  N3  UNL     1      -0.680  -2.846   0.690  1.00  0.00    -0.358 N 
ATOM      5  H3  UNL     1      -0.729  -3.507   1.465  1.00  0.00     0.162 HD
HETATM    6  C7  UNL     1      -1.237  -3.308  -0.567  1.00  0.00     0.144 C 
HETATM    7  C8  UNL     1      -2.220  -2.426  -1.207  1.00  0.00     0.174 C 
HETATM    8  N4  UNL     1      -2.299  -1.065  -0.832  1.00  0.00    -0.234 N 
HETATM    9  C9  UNL     1      -3.474  -0.385  -1.002  1.00  0.00     0.347 A 
HETATM   10  O2  UNL     1      -4.527  -0.873  -1.473  1.00  0.00    -0.245 OA
HETATM   11  N5  UNL     1      -3.340   0.864  -0.597  1.00  0.00    -0.248 N 
HETATM   12  C12 UNL     1      -2.068   1.024  -0.153  1.00  0.00     0.348 A 
HETATM   13  O3  UNL     1      -1.575   2.108   0.317  1.00  0.00    -0.245 OA
HETATM   14  N6  UNL     1      -1.474  -0.154  -0.309  1.00  0.00    -0.222 N 
ENDROOT
BRANCH   1  15
HETATM   15  C4  UNL     1       0.734   0.709   0.404  1.00  0.00     0.039 C 
BRANCH  15  16
HETATM   16  C3  UNL     1       2.209   0.401   0.523  1.00  0.00     0.023 C 
BRANCH  16  17
HETATM   17  C2  UNL     1       2.960   1.690   0.900  1.00  0.00     0.138 C 
BRANCH  17  18
HETATM   18  N2  UNL     1       4.363   1.409   1.015  1.00  0.00    -0.225 N 
HETATM   19  C1  UNL     1       5.130   1.073  -0.127  1.00  0.00     0.691 C 
HETATM   20  N1  UNL     1       4.866   1.636  -1.243  1.00  0.00    -0.233 N 
HETATM   21  N7  UNL     1       6.183   0.108   0.005  1.00  0.00    -0.072 N 
ATOM     22  H12 UNL     1       4.117   2.322  -1.337  1.00  0.00     0.174 HD
ATOM     23  H11 UNL     1       5.418   1.394  -2.066  1.00  0.00     0.174 HD
ATOM     24  H7  UNL     1       7.084   0.396   0.388  1.00  0.00     0.212 HD
ATOM     25  H2  UNL     1       4.813   1.452   1.930  1.00  0.00     0.177 HD
BRANCH  21  26
HETATM   26  N8  UNL     1       5.994  -1.209  -0.380  1.00  0.00    -0.024 N 
HETATM   27  O4  UNL     1       5.073  -1.868   0.126  1.00  0.00    -0.516 OA
HETATM   28  O5  UNL     1       6.842  -1.751  -1.320  1.00  0.00    -0.516 OA
ENDBRANCH  21  26
ENDBRANCH  17  18
ENDBRANCH  16  17
ENDBRANCH  15  16
ENDBRANCH   1  15
BRANCH  11  29
HETATM   29  C10 UNL     1      -4.287   1.963  -0.575  1.00  0.00     0.150 C 
BRANCH  29  30
HETATM   30  C11 UNL     1      -5.070   2.043   0.700  1.00  0.00     0.106 C 
HETATM   31  S1  UNL     1      -6.020   0.522   0.959  1.00  0.00    -0.096 SA
ENDBRANCH  29  30
ENDBRANCH  11  29
TORSDOF 7
