REMARK  1 active torsions:
REMARK  status: ('A' for Active; 'I' for Inactive)
REMARK    1  A    between atoms: N1_1  and  C1_4 
ROOT
HETATM    1  C1  UNL     1      -1.761  -0.554   0.106  1.00  0.00     0.694 A 
HETATM    2  N2  UNL     1      -1.543   0.765   0.283  1.00  0.00    -0.140 N 
ATOM      3  H2  UNL     1      -2.328   1.391   0.463  1.00  0.00     0.189 HD
HETATM    4  C2  UNL     1      -0.287   1.259   0.222  1.00  0.00     0.363 A 
HETATM    5  O1  UNL     1      -0.130   2.491   0.392  1.00  0.00    -0.245 OA
HETATM    6  N3  UNL     1       0.782   0.470  -0.013  1.00  0.00    -0.039 N 
HETATM    7  C3  UNL     1       2.111   0.704  -0.121  1.00  0.00     0.364 A 
HETATM    8  O2  UNL     1       2.631   1.850  -0.003  1.00  0.00    -0.244 OA
HETATM    9  N4  UNL     1       2.720  -0.449  -0.362  1.00  0.00    -0.236 N 
ATOM     10  H4  UNL     1       3.722  -0.590  -0.492  1.00  0.00     0.192 HD
HETATM   11  N5  UNL     1       1.790  -1.373  -0.402  1.00  0.00    -0.127 N 
ATOM     12  H5  UNL     1       1.969  -2.363  -0.572  1.00  0.00     0.205 HD
HETATM   13  C4  UNL     1       0.568  -0.846  -0.190  1.00  0.00     0.726 A 
HETATM   14  N6  UNL     1      -0.690  -1.319  -0.126  1.00  0.00    -0.020 N 
ATOM     15  H6  UNL     1      -0.835  -2.319  -0.262  1.00  0.00     0.203 HD
ENDROOT
BRANCH   1  16
HETATM   16  N1  UNL     1      -2.958  -1.057   0.159  1.00  0.00    -0.234 N 
ATOM     17  H12 UNL     1      -3.775  -0.473   0.336  1.00  0.00     0.174 HD
ATOM     18  H11 UNL     1      -3.123  -2.055   0.025  1.00  0.00     0.174 HD
ENDBRANCH   1  16
TORSDOF 1
