REMARK  5 active torsions:
REMARK  status: ('A' for Active; 'I' for Inactive)
REMARK    1  A    between atoms: N1_1  and  C1_5 
REMARK    2  A    between atoms: C1_5  and  C2_6 
REMARK    3  A    between atoms: C2_6  and  C3_7 
REMARK    4  A    between atoms: C3_7  and  N2_8 
REMARK    5  A    between atoms: C8_13  and  N3_14 
ROOT
HETATM    1  N2  UNL     1      -0.091  -0.114   0.249  1.00  0.00    -0.366 N 
HETATM    2  C4  UNL     1      -0.506   1.043   0.991  1.00  0.00     0.124 C 
HETATM    3  C5  UNL     1      -1.742   1.683   0.433  1.00  0.00     0.020 C 
HETATM    4  C6  UNL     1      -2.793   0.733  -0.047  1.00  0.00     0.005 C 
HETATM    5  C7  UNL     1      -2.278  -0.521  -0.699  1.00  0.00     0.054 C 
HETATM    6  C8  UNL     1      -1.166  -1.065   0.174  1.00  0.00     0.283 C 
ENDROOT
BRANCH   1   7
HETATM    7  C3  UNL     1       0.667   0.107  -0.914  1.00  0.00     0.062 C 
BRANCH   7   8
HETATM    8  C2  UNL     1       2.058   0.597  -0.519  1.00  0.00     0.071 C 
BRANCH   8   9
HETATM    9  C1  UNL     1       2.740  -0.465   0.330  1.00  0.00     0.234 C 
BRANCH   9  10
HETATM   10  N1  UNL     1       4.050  -0.057   0.733  1.00  0.00    -0.079 N 
ATOM     11  H13 UNL     1       4.623   0.202  -0.070  1.00  0.00     0.274 HD
ATOM     12  H12 UNL     1       4.029   0.844   1.210  1.00  0.00     0.274 HD
ATOM     13  H11 UNL     1       4.507  -0.769   1.302  1.00  0.00     0.274 HD
ENDBRANCH   9  10
ENDBRANCH   8   9
ENDBRANCH   7   8
ENDBRANCH   1   7
BRANCH   6  14
HETATM   14  N3  UNL     1      -0.797  -2.410  -0.076  1.00  0.00    -0.058 N 
ATOM     15  H33 UNL     1      -0.232  -2.460  -0.924  1.00  0.00     0.276 HD
ATOM     16  H32 UNL     1      -0.115  -2.715   0.618  1.00  0.00     0.276 HD
ATOM     17  H31 UNL     1      -1.560  -3.085  -0.129  1.00  0.00     0.276 HD
ENDBRANCH   6  14
TORSDOF 5
