REMARK  5 active torsions:
REMARK  status: ('A' for Active; 'I' for Inactive)
REMARK    1  A    between atoms: C2_2  and  C3_3 
REMARK    2  A    between atoms: C3_3  and  N1_4 
REMARK    3  A    between atoms: N1_4  and  C4_7 
REMARK    4  A    between atoms: C4_7  and  C5_8 
REMARK    5  A    between atoms: C5_8  and  N2_9 
ROOT
HETATM    1  N2  UNL     1      -0.180   1.135   1.194  1.00  0.00    -0.373 N 
ATOM      2  H2  UNL     1      -0.276   1.934   1.821  1.00  0.00     0.161 HD
HETATM    3  C6  UNL     1       0.952   0.914   0.635  1.00  0.00     0.117 C 
HETATM    4  C7  UNL     1       1.468  -0.108  -0.305  1.00  0.00     0.122 C 
HETATM    5  C8  UNL     1       2.778   0.430   0.232  1.00  0.00     0.076 C 
HETATM    6  C9  UNL     1       3.422  -0.466   1.279  1.00  0.00     0.039 C 
HETATM    7  C10 UNL     1       4.684  -1.006   0.649  1.00  0.00     0.003 C 
HETATM    8  C11 UNL     1       4.564  -0.670  -0.823  1.00  0.00     0.003 C 
HETATM    9  C12 UNL     1       3.855   0.666  -0.780  1.00  0.00     0.039 C 
HETATM   10  O1  UNL     1       2.161   1.586   0.713  1.00  0.00    -0.328 OA
ENDROOT
BRANCH   1  11
HETATM   11  C5  UNL     1      -1.338   0.273   0.958  1.00  0.00     0.149 C 
BRANCH  11  12
HETATM   12  C4  UNL     1      -1.994   0.736  -0.295  1.00  0.00     0.252 C 
BRANCH  12  13
HETATM   13  N1  UNL     1      -3.155  -0.012  -0.674  1.00  0.00    -0.071 N 
ATOM     14  H12 UNL     1      -2.922  -1.000  -0.777  1.00  0.00     0.277 HD
ATOM     15  H11 UNL     1      -3.420   0.207  -1.634  1.00  0.00     0.277 HD
BRANCH  13  16
HETATM   16  C3  UNL     1      -4.274   0.146   0.197  1.00  0.00     0.259 C 
BRANCH  16  17
HETATM   17  C2  UNL     1      -5.393  -0.704  -0.349  1.00  0.00    -0.010 C 
HETATM   18  C1  UNL     1      -6.547  -0.176  -0.711  1.00  0.00     0.008 C 
ENDBRANCH  16  17
ENDBRANCH  13  16
ENDBRANCH  12  13
ENDBRANCH  11  12
ENDBRANCH   1  11
TORSDOF 5
