REMARK  5 active torsions:
REMARK  status: ('A' for Active; 'I' for Inactive)
REMARK    1  A    between atoms: S1_3  and  C3_4 
REMARK    2  A    between atoms: C3_4  and  C4_5 
REMARK    3  A    between atoms: C4_5  and  C5_6 
REMARK    4  A    between atoms: C5_6  and  C7_8 
REMARK    5  A    between atoms: C7_8  and  N1_9 
ROOT
HETATM    1  C1  UNL     1       2.941   2.577  -1.342  1.00  0.00     0.025 C 
HETATM    2  C2  UNL     1       3.279   1.437  -1.573  1.00  0.00    -0.045 C 
HETATM    3  S1  UNL     1       3.792  -0.188  -1.939  1.00  0.00    -0.080 SA
ENDROOT
BRANCH   3   4
HETATM    4  C3  UNL     1       3.469  -1.389  -0.654  1.00  0.00     0.088 C 
BRANCH   4   5
HETATM    5  C4  UNL     1       2.026  -1.701  -0.445  1.00  0.00     0.017 C 
BRANCH   5   6
HETATM    6  C5  UNL     1       1.155  -0.556  -0.055  1.00  0.00     0.011 C 
HETATM    7  C6  UNL     1       1.613   0.077   1.259  1.00  0.00     0.011 C 
BRANCH   6   8
HETATM    8  C7  UNL     1      -0.223  -1.144   0.282  1.00  0.00     0.276 C 
BRANCH   8   9
HETATM    9  N1  UNL     1      -1.060  -0.009   0.654  1.00  0.00     0.092 N 
HETATM   10  C8  UNL     1      -2.330  -0.489   1.201  1.00  0.00     0.300 C 
HETATM   11  C9  UNL     1      -3.473  -0.304   0.243  1.00  0.00     0.262 C 
HETATM   12  N2  UNL     1      -3.675   1.125   0.070  1.00  0.00    -0.072 N 
HETATM   13  C10 UNL     1      -2.406   1.797  -0.174  1.00  0.00     0.262 C 
ATOM     14  H22 UNL     1      -4.356   1.325  -0.663  1.00  0.00     0.277 HD
ATOM     15  H21 UNL     1      -4.175   1.535   0.859  1.00  0.00     0.277 HD
HETATM   16  C11 UNL     1      -1.285   0.856  -0.489  1.00  0.00     0.300 C 
ENDBRANCH   8   9
ENDBRANCH   6   8
ENDBRANCH   5   6
ENDBRANCH   4   5
ENDBRANCH   3   4
TORSDOF 5
