REMARK  8 active torsions:
REMARK  status: ('A' for Active; 'I' for Inactive)
REMARK    1  A    between atoms: N1_2  and  C2_3 
REMARK    2  A    between atoms: N1_2  and  C9_13 
REMARK    3  A    between atoms: C2_3  and  C3_4 
REMARK    4  A    between atoms: N2_8  and  C7_9 
REMARK    5  A    between atoms: C7_9  and  C8_10 
REMARK    6  A    between atoms: C8_10  and  O1_11 
REMARK    7  A    between atoms: C9_13  and  S1_18 
REMARK    8  A    between atoms: N3_14  and  O2_16 
ROOT
HETATM    1  C2  UNL     1       0.256  -0.279  -1.842  1.00  0.00     0.101 C 
ENDROOT
BRANCH   1   2
HETATM    2  N1  UNL     1       1.594  -0.323  -1.415  1.00  0.00    -0.342 N 
HETATM    3  C1  UNL     1       2.637  -0.233  -2.460  1.00  0.00     0.157 C 
BRANCH   2   4
HETATM    4  C9  UNL     1       2.082  -0.382  -0.115  1.00  0.00     0.177 C 
HETATM    5  N3  UNL     1       2.060   0.721   0.576  1.00  0.00    -0.246 N 
ATOM      6  H3  UNL     1       1.691   1.564   0.136  1.00  0.00     0.196 HD
BRANCH   5   7
HETATM    7  O2  UNL     1       2.507   0.802   1.859  1.00  0.00    -0.288 OA
ATOM      8  H2  UNL     1       2.491   1.607   2.363  1.00  0.00     0.244 HD
ENDBRANCH   5   7
BRANCH   4   9
HETATM    9  S1  UNL     1       2.753  -1.848   0.614  1.00  0.00    -0.007 SA
HETATM   10  S2  UNL     1       3.315  -1.573   2.625  1.00  0.00    -0.005 SA
ENDBRANCH   4   9
ENDBRANCH   2   4
ENDBRANCH   1   2
BRANCH   1  11
HETATM   11  C3  UNL     1      -0.847  -0.583  -0.910  1.00  0.00     0.261 C 
HETATM   12  C4  UNL     1      -0.895  -1.952  -0.332  1.00  0.00     0.043 C 
HETATM   13  C5  UNL     1      -1.243  -1.813   1.113  1.00  0.00     0.033 C 
HETATM   14  C6  UNL     1      -1.437  -0.337   1.346  1.00  0.00     0.273 C 
HETATM   15  N2  UNL     1      -0.986   0.358   0.177  1.00  0.00     0.100 N 
BRANCH  15  16
HETATM   16  C7  UNL     1      -1.924   1.399  -0.130  1.00  0.00     0.299 C 
BRANCH  16  17
HETATM   17  C8  UNL     1      -2.057   2.411   0.975  1.00  0.00     0.194 C 
BRANCH  17  18
HETATM   18  O1  UNL     1      -3.003   3.362   0.530  1.00  0.00    -0.399 OA
ATOM     19  H1  UNL     1      -3.087   4.001   1.228  1.00  0.00     0.209 HD
ENDBRANCH  17  18
ENDBRANCH  16  17
ENDBRANCH  15  16
ENDBRANCH   1  11
TORSDOF 8
