REMARK  14 active torsions:
REMARK  status: ('A' for Active; 'I' for Inactive)
REMARK    1  A    between atoms: O1_2  and  C2_3 
REMARK    2  A    between atoms: C2_3  and  C3_5 
REMARK    3  A    between atoms: C3_5  and  C5_7 
REMARK    4  A    between atoms: C7_9  and  C8_10 
REMARK    5  A    between atoms: C9_11  and  C11_13 
REMARK    6  A    between atoms: C11_13  and  C12_14 
REMARK    7  A    between atoms: C11_13  and  C16_19 
REMARK    8  A    between atoms: C18_21  and  O4_22 
REMARK    9  A    between atoms: O4_22  and  C19_23 
REMARK   10  A    between atoms: C19_23  and  C20_24 
REMARK   11  A    between atoms: C22_26  and  C23_27 
REMARK   12  A    between atoms: C29_34  and  O5_35 
REMARK   13  A    between atoms: C31_38  and  O6_39 
REMARK   14  A    between atoms: C32_41  and  O7_43 
ROOT
HETATM    1  C23 UNL     1       5.021   1.379   2.575  1.00  0.00     0.055 A 
HETATM    2  C24 UNL     1       5.356   2.023   3.873  1.00  0.00    -0.013 A 
HETATM    3  C25 UNL     1       6.647   2.004   4.041  1.00  0.00     0.019 A 
HETATM    4  C26 UNL     1       7.256   1.360   2.892  1.00  0.00     0.041 A 
HETATM    5  C27 UNL     1       8.681   1.166   2.743  1.00  0.00     0.099 C 
HETATM    6  N1  UNL     1       9.814   1.005   2.614  1.00  0.00    -0.191 NA
HETATM    7  C28 UNL     1       6.345   0.991   2.034  1.00  0.00     0.008 A 
ENDROOT
BRANCH   1   8
HETATM    8  C22 UNL     1       4.194   0.169   2.776  1.00  0.00    -0.010 C 
HETATM    9  C20 UNL     1       3.051  -0.132   2.239  1.00  0.00    -0.063 C 
HETATM   10  C21 UNL     1       2.445  -1.457   2.648  1.00  0.00     0.045 C 
BRANCH   9  11
HETATM   11  C19 UNL     1       2.361   0.745   1.286  1.00  0.00     0.202 C 
BRANCH  11  12
HETATM   12  O4  UNL     1       2.163   0.123   0.048  1.00  0.00    -0.379 OA
BRANCH  12  13
HETATM   13  C18 UNL     1       1.532   0.937  -0.858  1.00  0.00     0.151 C 
HETATM   14  C17 UNL     1       0.215   0.468  -1.341  1.00  0.00     0.043 C 
HETATM   15  C16 UNL     1       0.053  -1.009  -1.577  1.00  0.00     0.037 C 
HETATM   16  C32 UNL     1       0.925  -1.593  -2.602  1.00  0.00     0.085 C 
HETATM   17  C31 UNL     1       1.782  -0.619  -3.393  1.00  0.00     0.155 C 
HETATM   18  C33 UNL     1       1.865  -2.673  -2.056  1.00  0.00     0.049 C 
HETATM   19  C30 UNL     1       2.880   0.020  -2.629  1.00  0.00     0.069 C 
HETATM   20  C29 UNL     1       2.461   1.336  -2.013  1.00  0.00     0.149 C 
BRANCH  15  21
HETATM   21  C11 UNL     1      -1.426  -1.194  -1.829  1.00  0.00     0.056 C 
BRANCH  21  22
HETATM   22  C9  UNL     1      -2.228  -0.701  -0.652  1.00  0.00    -0.075 C 
HETATM   23  C8  UNL     1      -3.064   0.309  -0.764  1.00  0.00     0.003 C 
HETATM   24  C10 UNL     1      -2.092  -1.377   0.652  1.00  0.00     0.044 C 
BRANCH  23  25
HETATM   25  C7  UNL     1      -3.836   0.738   0.397  1.00  0.00     0.004 C 
HETATM   26  C5  UNL     1      -4.674   1.751   0.289  1.00  0.00    -0.071 C 
HETATM   27  C6  UNL     1      -4.830   2.457  -1.015  1.00  0.00     0.044 C 
BRANCH  26  28
HETATM   28  C3  UNL     1      -5.483   2.231   1.426  1.00  0.00     0.110 C 
HETATM   29  C4  UNL     1      -5.119   3.689   1.727  1.00  0.00     0.025 C 
BRANCH  28  30
HETATM   30  C2  UNL     1      -5.388   1.398   2.638  1.00  0.00     0.266 C 
HETATM   31  O2  UNL     1      -4.937   1.870   3.708  1.00  0.00    -0.265 OA
BRANCH  30  32
HETATM   32  O1  UNL     1      -5.794   0.078   2.627  1.00  0.00    -0.326 OA
HETATM   33  C1  UNL     1      -5.731  -0.776   3.754  1.00  0.00     0.213 C 
ENDBRANCH  30  32
ENDBRANCH  28  30
ENDBRANCH  26  28
ENDBRANCH  23  25
ENDBRANCH  21  22
BRANCH  21  34
HETATM   34  C12 UNL     1      -1.840  -2.571  -2.137  1.00  0.00    -0.025 A 
HETATM   35  C13 UNL     1      -1.509  -3.753  -1.537  1.00  0.00     0.034 A 
HETATM   36  C14 UNL     1      -2.208  -4.729  -2.216  1.00  0.00     0.142 A 
HETATM   37  O3  UNL     1      -2.924  -4.191  -3.172  1.00  0.00    -0.334 OA
HETATM   38  C15 UNL     1      -2.726  -2.915  -3.150  1.00  0.00     0.149 A 
ENDBRANCH  21  34
ENDBRANCH  15  21
BRANCH  16  39
HETATM   39  O7  UNL     1       0.175  -2.212  -3.597  1.00  0.00    -0.387 OA
ATOM     40  H7  UNL     1       0.740  -2.590  -4.261  1.00  0.00     0.210 HD
ENDBRANCH  16  39
BRANCH  17  41
HETATM   41  O6  UNL     1       1.012   0.251  -4.128  1.00  0.00    -0.392 OA
ATOM     42  H6  UNL     1       0.308  -0.158  -4.618  1.00  0.00     0.210 HD
ENDBRANCH  17  41
BRANCH  20  43
HETATM   43  O5  UNL     1       1.745   2.134  -2.868  1.00  0.00    -0.393 OA
ATOM     44  H5  UNL     1       2.320   2.381  -3.583  1.00  0.00     0.210 HD
ENDBRANCH  20  43
ENDBRANCH  12  13
ENDBRANCH  11  12
ENDBRANCH   9  11
ENDBRANCH   1   8
TORSDOF 14
