REMARK  4 active torsions:
REMARK  status: ('A' for Active; 'I' for Inactive)
REMARK    1  A    between atoms: N1_1  and  S1_4 
REMARK    2  A    between atoms: S1_4  and  N2_5 
REMARK    3  A    between atoms: S1_4  and  C1_9 
REMARK    4  A    between atoms: N5_16  and  N6_17 
ROOT
HETATM    1  C1  UNL     1       0.081   0.371   0.110  1.00  0.00     0.241 A 
HETATM    2  N3  UNL     1       0.529   1.630   0.003  1.00  0.00    -0.270 N 
ATOM      3  H3  UNL     1      -0.050   2.466   0.087  1.00  0.00     0.189 HD
HETATM    4  N4  UNL     1       1.832   1.629  -0.227  1.00  0.00    -0.248 N 
ATOM      5  H4  UNL     1       2.435   2.442  -0.352  1.00  0.00     0.192 HD
HETATM    6  C2  UNL     1       2.195   0.342  -0.261  1.00  0.00     0.362 A 
HETATM    7  O2  UNL     1       3.374  -0.061  -0.460  1.00  0.00    -0.243 OA
HETATM    8  N5  UNL     1       1.144  -0.435  -0.059  1.00  0.00    -0.182 N 
ENDROOT
BRANCH   1   9
HETATM    9  S1  UNL     1      -1.568  -0.065   0.410  1.00  0.00     0.167 S 
HETATM   10  O1  UNL     1      -1.664  -1.341   1.225  1.00  0.00    -0.221 OA
BRANCH   9  11
HETATM   11  N1  UNL     1      -2.194   1.044   1.323  1.00  0.00    -0.339 N 
ATOM     12  H12 UNL     1      -3.025   1.577   1.066  1.00  0.00     0.167 HD
ATOM     13  H11 UNL     1      -1.671   1.160   2.191  1.00  0.00     0.167 HD
ENDBRANCH   9  11
BRANCH   9  14
HETATM   14  N2  UNL     1      -2.446  -0.260  -1.049  1.00  0.00    -0.339 N 
ATOM     15  H22 UNL     1      -3.275   0.288  -1.280  1.00  0.00     0.167 HD
ATOM     16  H21 UNL     1      -2.039  -0.982  -1.643  1.00  0.00     0.167 HD
ENDBRANCH   9  14
ENDBRANCH   1   9
BRANCH   8  17
HETATM   17  N6  UNL     1       1.141  -1.839  -0.027  1.00  0.00    -0.332 N 
ATOM     18  H62 UNL     1       0.330  -2.438   0.129  1.00  0.00     0.177 HD
ATOM     19  H61 UNL     1       1.947  -2.450  -0.155  1.00  0.00     0.177 HD
ENDBRANCH   8  17
TORSDOF 4
