REMARK  8 active torsions:
REMARK  status: ('A' for Active; 'I' for Inactive)
REMARK    1  A    between atoms: C2_3  and  O1_4 
REMARK    2  A    between atoms: O1_4  and  C3_5 
REMARK    3  A    between atoms: C3_5  and  C4_6 
REMARK    4  A    between atoms: C5_7  and  C6_8 
REMARK    5  A    between atoms: C11_16  and  N4_17 
REMARK    6  A    between atoms: N5_20  and  C12_21 
REMARK    7  A    between atoms: C12_21  and  C13_22 
REMARK    8  A    between atoms: C13_22  and  C14_23 
ROOT
HETATM    1  N1  UNL     1       6.651   3.436   0.003  1.00  0.00    -0.195 NA
HETATM    2  C1  UNL     1       6.541   2.430   0.550  1.00  0.00     0.085 C 
HETATM    3  C2  UNL     1       6.418   1.154   1.257  1.00  0.00     0.292 C 
ENDROOT
BRANCH   3   4
HETATM    4  O1  UNL     1       5.132   0.663   1.258  1.00  0.00    -0.366 OA
BRANCH   4   5
HETATM    5  C3  UNL     1       4.704   0.460  -0.051  1.00  0.00     0.263 C 
BRANCH   5   6
HETATM    6  C4  UNL     1       3.342  -0.060  -0.093  1.00  0.00    -0.075 C 
HETATM    7  C5  UNL     1       2.224  -0.508  -0.137  1.00  0.00    -0.065 C 
BRANCH   7   8
HETATM    8  C6  UNL     1       0.901  -1.061  -0.200  1.00  0.00     0.021 A 
HETATM    9  C7  UNL     1       0.784  -2.438  -0.082  1.00  0.00     0.045 A 
HETATM   10  C8  UNL     1      -0.474  -2.984  -0.140  1.00  0.00     0.075 A 
HETATM   11  C9  UNL     1      -0.646  -4.401  -0.024  1.00  0.00     0.102 C 
HETATM   12  C10 UNL     1      -1.616  -2.221  -0.310  1.00  0.00     0.097 A 
HETATM   13  N2  UNL     1      -0.776  -5.539   0.084  1.00  0.00    -0.191 NA
HETATM   14  N3  UNL     1      -2.917  -2.530  -0.393  1.00  0.00    -0.188 N 
HETATM   15  C15 UNL     1      -1.507  -0.836  -0.429  1.00  0.00     0.082 A 
HETATM   16  C11 UNL     1      -3.599  -1.384  -0.558  1.00  0.00     0.679 A 
ATOM     17  H3  UNL     1      -3.318  -3.467  -0.340  1.00  0.00     0.184 HD
HETATM   18  N5  UNL     1      -2.752  -0.340  -0.582  1.00  0.00    -0.181 N 
HETATM   19  C16 UNL     1      -0.233  -0.297  -0.369  1.00  0.00     0.053 A 
BRANCH  16  20
HETATM   20  N4  UNL     1      -4.899  -1.319  -0.677  1.00  0.00    -0.234 N 
ATOM     21  H42 UNL     1      -5.542  -2.111  -0.659  1.00  0.00     0.174 HD
ATOM     22  H41 UNL     1      -5.417  -0.449  -0.802  1.00  0.00     0.174 HD
ENDBRANCH  16  20
BRANCH  18  23
HETATM   23  C12 UNL     1      -3.058   1.048  -0.737  1.00  0.00     0.148 C 
BRANCH  23  24
HETATM   24  C13 UNL     1      -3.304   1.751   0.581  1.00  0.00     0.032 C 
BRANCH  24  25
HETATM   25  C14 UNL     1      -3.614   3.200   0.263  1.00  0.00     0.086 C 
HETATM   26 BR1  UNL     1      -3.947   4.203   1.879  1.00  0.00    -0.096 Br
ENDBRANCH  24  25
ENDBRANCH  23  24
ENDBRANCH  18  23
ENDBRANCH   7   8
ENDBRANCH   5   6
ENDBRANCH   4   5
ENDBRANCH   3   4
TORSDOF 8
