REMARK  13 active torsions:
REMARK  status: ('A' for Active; 'I' for Inactive)
REMARK    1  A    between atoms: N1_1  and  C1_4 
REMARK    2  A    between atoms: C2_7  and  N3_8 
REMARK    3  A    between atoms: N3_8  and  N4_10 
REMARK    4  A    between atoms: N5_12  and  N6_14 
REMARK    5  A    between atoms: N6_14  and  O1_15 
REMARK    6  A    between atoms: N6_14  and  N7_17 
REMARK    7  A    between atoms: N7_17  and  O2_21 
REMARK    8  A    between atoms: C3_23  and  O3_24 
REMARK    9  A    between atoms: O3_24  and  C4_25 
REMARK       I    between atoms: C4_25  and  N9_27 
REMARK   10  A    between atoms: C5_30  and  C6_31 
REMARK   11  A    between atoms: C6_31  and  O5_32 
REMARK   12  A    between atoms: C6_31  and  O6_34 
REMARK   13  A    between atoms: C8_39  and  N11_40 
ROOT
HETATM    1  C1  UNL     1      -2.682  -2.204  -1.497  1.00  0.00     0.679 A 
HETATM    2  N2  UNL     1      -2.691  -1.099  -0.718  1.00  0.00    -0.173 N 
ATOM      3  H2  UNL     1      -3.549  -0.559  -0.608  1.00  0.00     0.186 HD
HETATM    4  C2  UNL     1      -1.570  -0.713  -0.090  1.00  0.00     0.174 A 
HETATM    5  C3  UNL     1      -0.429  -1.459  -0.256  1.00  0.00     0.170 A 
HETATM    6  C8  UNL     1      -0.441  -2.579  -1.051  1.00  0.00     0.153 A 
HETATM    7  N12 UNL     1      -1.585  -2.954  -1.679  1.00  0.00    -0.174 N 
ATOM      8  H12 UNL     1      -1.609  -3.783  -2.273  1.00  0.00     0.186 HD
ENDROOT
BRANCH   4   9
HETATM    9  N3  UNL     1      -1.530   0.430   0.731  1.00  0.00    -0.267 N 
ATOM     10  H3  UNL     1      -0.649   0.674   1.183  1.00  0.00     0.190 HD
BRANCH   9  11
HETATM   11  N4  UNL     1      -2.640   1.243   0.954  1.00  0.00    -0.227 N 
HETATM   12  N5  UNL     1      -3.653   0.841   1.605  1.00  0.00    -0.202 N 
ATOM     13  H5  UNL     1      -3.638  -0.111   1.971  1.00  0.00     0.208 HD
ATOM     14  H4  UNL     1      -2.638   2.193   0.582  1.00  0.00     0.209 HD
BRANCH  12  15
HETATM   15  N6  UNL     1      -4.771   1.607   1.849  1.00  0.00     0.054 NA
BRANCH  15  16
HETATM   16  O1  UNL     1      -5.840   0.776   1.981  1.00  0.00    -0.272 OA
ATOM     17  H1  UNL     1      -6.611   1.304   2.149  1.00  0.00     0.241 HD
ENDBRANCH  15  16
BRANCH  15  18
HETATM   18  N7  UNL     1      -5.050   2.519   0.831  1.00  0.00    -0.077 N 
HETATM   19  N8  UNL     1      -5.419   2.107  -0.326  1.00  0.00    -0.304 N 
ATOM     20  H82 UNL     1      -5.494   1.098  -0.455  1.00  0.00     0.180 HD
ATOM     21  H81 UNL     1      -5.623   2.774  -1.070  1.00  0.00     0.180 HD
BRANCH  18  22
HETATM   22  O2  UNL     1      -4.949   3.869   1.004  1.00  0.00    -0.255 OA
ATOM     23  H2  UNL     1      -5.139   4.490   0.311  1.00  0.00     0.248 HD
ENDBRANCH  18  22
ENDBRANCH  15  18
ENDBRANCH  12  15
ENDBRANCH   9  11
ENDBRANCH   4   9
BRANCH   5  24
HETATM   24  O3  UNL     1       0.769  -1.125   0.361  1.00  0.00    -0.252 OA
BRANCH  24  25
HETATM   25  C4  UNL     1       1.712  -0.302  -0.206  1.00  0.00     0.393 C 
HETATM   26  O4  UNL     1       1.444   0.156  -1.345  1.00  0.00    -0.236 OA
HETATM   27  N9  UNL     1       2.953   0.019   0.481  1.00  0.00    -0.180 N 
HETATM   28  N10 UNL     1       3.822   0.784  -0.053  1.00  0.00    -0.281 N 
HETATM   29  C7  UNL     1       3.215  -0.481   1.695  1.00  0.00     0.171 A 
HETATM   30  C5  UNL     1       4.940   1.063   0.586  1.00  0.00     0.124 A 
ATOM     31  H10 UNL     1       3.651   1.181  -0.977  1.00  0.00     0.188 HD
HETATM   32  S1  UNL     1       4.747   0.186   2.037  1.00  0.00    -0.039 SA
HETATM   33  S2  UNL     1       2.261  -1.488   2.598  1.00  0.00    -0.050 SA
BRANCH  30  34
HETATM   34  C6  UNL     1       6.066   1.945   0.099  1.00  0.00     0.314 C 
BRANCH  34  35
HETATM   35  O5  UNL     1       6.294   1.586  -1.228  1.00  0.00    -0.365 OA
ATOM     36  H5  UNL     1       7.002   2.141  -1.534  1.00  0.00     0.213 HD
ENDBRANCH  34  35
BRANCH  34  37
HETATM   37  O6  UNL     1       7.218   1.619   0.807  1.00  0.00    -0.365 OA
ATOM     38  H6  UNL     1       7.926   2.174   0.501  1.00  0.00     0.213 HD
ENDBRANCH  34  37
ENDBRANCH  30  34
ENDBRANCH  24  25
ENDBRANCH   5  24
BRANCH   1  39
HETATM   39  N1  UNL     1      -3.801  -2.539  -2.088  1.00  0.00    -0.234 N 
ATOM     40  H12 UNL     1      -4.635  -1.969  -1.950  1.00  0.00     0.174 HD
ATOM     41  H11 UNL     1      -3.794  -3.373  -2.676  1.00  0.00     0.174 HD
ENDBRANCH   1  39
BRANCH   6  42
HETATM   42  N11 UNL     1       0.599  -3.308  -1.237  1.00  0.00    -0.383 N 
ATOM     43 2H11 UNL     1       1.458  -3.026  -0.765  1.00  0.00     0.157 HD
ATOM     44 1H11 UNL     1       0.590  -4.140  -1.827  1.00  0.00     0.157 HD
ENDBRANCH   6  42
TORSDOF 13
