REMARK  4 active torsions:
REMARK  status: ('A' for Active; 'I' for Inactive)
REMARK    1  A    between atoms: C7_7  and  N1_8 
REMARK       I    between atoms: N1_8  and  C8_10 
REMARK    2  A    between atoms: C8_10  and  C9_12 
REMARK    3  A    between atoms: C9_12  and  N2_13 
REMARK    4  A    between atoms: C15_19  and  N3_20 
ROOT
HETATM    1  N2  UNL     1      -0.019   0.917   1.417  1.00  0.00     0.097 N 
HETATM    2  C10 UNL     1       0.174   0.526   0.063  1.00  0.00     0.273 C 
HETATM    3  C11 UNL     1       1.536  -0.049  -0.131  1.00  0.00     0.040 C 
HETATM    4  C12 UNL     1       2.610   0.910   0.208  1.00  0.00    -0.035 C 
HETATM    5  C13 UNL     1       3.704   0.226   1.021  1.00  0.00     0.012 C 
HETATM    6  C14 UNL     1       4.846  -0.064   0.073  1.00  0.00     0.036 C 
HETATM    7  C15 UNL     1       4.242   0.188  -1.286  1.00  0.00     0.222 C 
HETATM    8  C18 UNL     1       3.395   1.401  -1.013  1.00  0.00     0.045 C 
HETATM    9  C19 UNL     1       2.061   2.098   0.929  1.00  0.00     0.040 C 
HETATM   10  C20 UNL     1       1.030   1.696   1.976  1.00  0.00     0.273 C 
ENDROOT
BRANCH   1  11
HETATM   11  C9  UNL     1      -0.512  -0.165   2.206  1.00  0.00     0.374 C 
BRANCH  11  12
HETATM   12  C8  UNL     1      -1.885  -0.584   1.949  1.00  0.00     0.246 C 
HETATM   13  N1  UNL     1      -2.802  -0.027   1.033  1.00  0.00    -0.355 N 
ATOM     14  H1  UNL     1      -2.506   0.769   0.467  1.00  0.00     0.162 HD
HETATM   15  O1  UNL     1      -2.306  -1.576   2.642  1.00  0.00    -0.272 OA
BRANCH  13  16
HETATM   16  C7  UNL     1      -4.149  -0.539   0.862  1.00  0.00     0.088 C 
HETATM   17  C2  UNL     1      -4.323  -1.059  -0.541  1.00  0.00     0.004 C 
HETATM   18  C1  UNL     1      -3.707  -2.429  -0.696  1.00  0.00     0.012 C 
HETATM   19  C3  UNL     1      -5.805  -1.074  -0.852  1.00  0.00     0.006 C 
HETATM   20  C4  UNL     1      -6.623  -1.427   0.386  1.00  0.00     0.001 C 
HETATM   21  C5  UNL     1      -6.491  -0.358   1.458  1.00  0.00     0.002 C 
HETATM   22  C6  UNL     1      -5.225   0.451   1.157  1.00  0.00     0.025 C 
ENDBRANCH  13  16
ENDBRANCH  11  12
ENDBRANCH   1  11
BRANCH   7  23
HETATM   23  N3  UNL     1       5.158   0.412  -2.340  1.00  0.00     0.084 N 
HETATM   24  C16 UNL     1       5.966  -0.791  -2.534  1.00  0.00     0.309 C 
HETATM   25  C17 UNL     1       5.961   1.583  -2.296  1.00  0.00     0.309 C 
ENDBRANCH   7  23
TORSDOF 4
