REMARK  14 active torsions:
REMARK  status: ('A' for Active; 'I' for Inactive)
REMARK    1  A    between atoms: C3_3  and  C4_4 
REMARK       I    between atoms: C4_4  and  N1_6 
REMARK    2  A    between atoms: N1_6  and  C5_8 
REMARK    3  A    between atoms: C5_8  and  C6_9 
REMARK    4  A    between atoms: C6_9  and  N2_10 
REMARK    5  A    between atoms: C10_14  and  O2_15 
REMARK    6  A    between atoms: C11_17  and  C12_18 
REMARK    7  A    between atoms: C12_18  and  C13_19 
REMARK    8  A    between atoms: C16_24  and  O3_25 
REMARK    9  A    between atoms: C17_27  and  C18_28 
REMARK   10  A    between atoms: C18_28  and  C19_29 
REMARK   11  A    between atoms: C19_29  and  N4_30 
REMARK   12  A    between atoms: C27_44  and  C28_45 
REMARK   13  A    between atoms: C28_45  and  C29_46 
REMARK   14  A    between atoms: C32_51  and  O6_52 
ROOT
HETATM    1  C1  UNL     1       2.607   2.742   0.545  1.00  0.00     0.054 C 
HETATM    2  C2  UNL     1       1.571   1.682   0.700  1.00  0.00     0.007 C 
HETATM    3  C3  UNL     1       2.023   0.408   0.570  1.00  0.00     0.077 C 
HETATM    4  C10 UNL     1       1.269  -0.793   0.683  1.00  0.00     0.104 C 
HETATM    5  C11 UNL     1       0.250  -1.533  -0.173  1.00  0.00     0.045 C 
HETATM    6  N3  UNL     1      -0.837  -1.933   0.624  1.00  0.00    -0.340 N 
ATOM      7  H3  UNL     1      -0.639  -2.845   1.036  1.00  0.00     0.167 HD
HETATM    8  C16 UNL     1      -2.077  -1.506   1.033  1.00  0.00     0.139 C 
HETATM    9  C17 UNL     1      -3.369  -1.324   0.347  1.00  0.00     0.161 C 
HETATM   10  N5  UNL     1      -4.138  -0.211   0.943  1.00  0.00    -0.347 N 
ATOM     11  H5  UNL     1      -4.066  -0.094   1.954  1.00  0.00     0.163 HD
HETATM   12  C22 UNL     1      -4.951   0.694   0.264  1.00  0.00     0.246 C 
HETATM   13  O4  UNL     1      -6.136   0.827   0.763  1.00  0.00    -0.271 OA
HETATM   14  C23 UNL     1      -4.711   1.530  -0.920  1.00  0.00     0.106 C 
HETATM   15  C24 UNL     1      -5.176   2.928  -0.565  1.00  0.00     0.048 C 
HETATM   16  C25 UNL     1      -5.785   1.082  -1.963  1.00  0.00     0.048 C 
HETATM   17  N6  UNL     1      -3.484   1.444  -1.594  1.00  0.00    -0.342 N 
ATOM     18  H6  UNL     1      -3.445   0.668  -2.255  1.00  0.00     0.163 HD
HETATM   19  C26 UNL     1      -2.298   2.193  -1.557  1.00  0.00     0.241 C 
HETATM   20  O5  UNL     1      -1.584   2.226  -2.599  1.00  0.00    -0.271 OA
HETATM   21  C27 UNL     1      -1.740   2.983  -0.428  1.00  0.00     0.176 C 
HETATM   22  N7  UNL     1      -1.030   2.217   0.522  1.00  0.00    -0.357 N 
ATOM     23  H7  UNL     1      -1.636   1.500   0.922  1.00  0.00     0.162 HD
HETATM   24  C32 UNL     1       0.252   2.139   1.084  1.00  0.00     0.143 C 
ENDROOT
BRANCH   3  25
HETATM   25  C4  UNL     1       3.494   0.190   0.297  1.00  0.00     0.255 C 
HETATM   26  O1  UNL     1       4.315   1.110   0.140  1.00  0.00    -0.268 OA
HETATM   27  N1  UNL     1       4.065  -1.105   0.204  1.00  0.00    -0.355 N 
ATOM     28  H1  UNL     1       3.431  -1.895   0.319  1.00  0.00     0.162 HD
BRANCH  27  29
HETATM   29  C5  UNL     1       5.427  -1.411  -0.033  1.00  0.00     0.151 C 
BRANCH  29  30
HETATM   30  C6  UNL     1       6.307  -0.880   1.067  1.00  0.00     0.255 C 
BRANCH  30  31
HETATM   31  N2  UNL     1       7.687  -1.247   0.761  1.00  0.00    -0.077 N 
HETATM   32  C7  UNL     1       8.145  -0.703  -0.487  1.00  0.00     0.271 C 
HETATM   33  C8  UNL     1       8.570  -0.792   1.810  1.00  0.00     0.271 C 
HETATM   34  C9  UNL     1       7.719  -2.701   0.743  1.00  0.00     0.271 C 
ENDBRANCH  30  31
ENDBRANCH  29  30
ENDBRANCH  27  29
ENDBRANCH   3  25
BRANCH   4  35
HETATM   35  O2  UNL     1       1.453  -1.492   1.772  1.00  0.00    -0.358 OA
ATOM     36  H2  UNL     1       0.949  -2.294   1.847  1.00  0.00     0.217 HD
ENDBRANCH   4  35
BRANCH  24  37
HETATM   37  O6  UNL     1       0.212   2.643   2.354  1.00  0.00    -0.346 OA
ATOM     38  H6  UNL     1      -0.653   2.943   2.606  1.00  0.00     0.219 HD
ENDBRANCH  24  37
BRANCH   5  39
HETATM   39  C12 UNL     1       0.167  -0.999  -1.529  1.00  0.00     0.064 C 
BRANCH  39  40
HETATM   40  C13 UNL     1      -0.728  -1.723  -2.491  1.00  0.00    -0.017 C 
HETATM   41  C14 UNL     1      -0.293  -3.179  -2.656  1.00  0.00     0.010 C 
HETATM   42  C15 UNL     1      -0.721  -1.038  -3.855  1.00  0.00     0.010 C 
ENDBRANCH  39  40
ENDBRANCH   5  39
BRANCH  21  43
HETATM   43  C28 UNL     1      -1.177   4.213  -1.042  1.00  0.00     0.038 C 
BRANCH  43  44
HETATM   44  C29 UNL     1      -0.616   5.163  -0.022  1.00  0.00    -0.020 C 
HETATM   45  C30 UNL     1      -1.727   5.584   0.961  1.00  0.00     0.009 C 
HETATM   46  C31 UNL     1      -0.097   6.436  -0.688  1.00  0.00     0.009 C 
ENDBRANCH  43  44
ENDBRANCH  21  43
BRANCH   8  47
HETATM   47  O3  UNL     1      -2.152  -1.186   2.305  1.00  0.00    -0.348 OA
ATOM     48  H3  UNL     1      -3.010  -0.891   2.588  1.00  0.00     0.219 HD
ENDBRANCH   8  47
BRANCH   9  49
HETATM   49  C18 UNL     1      -4.186  -2.558   0.235  1.00  0.00     0.064 C 
BRANCH  49  50
HETATM   50  C19 UNL     1      -4.613  -3.260   1.455  1.00  0.00     0.273 C 
BRANCH  50  51
HETATM   51  N4  UNL     1      -3.566  -3.797   2.296  1.00  0.00     0.080 N 
HETATM   52  C20 UNL     1      -2.945  -4.924   1.577  1.00  0.00     0.309 C 
HETATM   53  C21 UNL     1      -4.185  -4.401   3.481  1.00  0.00     0.309 C 
ENDBRANCH  50  51
ENDBRANCH  49  50
ENDBRANCH   9  49
TORSDOF 14
