REMARK  1 active torsions:
REMARK  status: ('A' for Active; 'I' for Inactive)
REMARK    1  A    between atoms: N1_2  and  C2_4 
ROOT
HETATM    1  C2  UNL     1       0.249   0.528   0.007  1.00  0.00     0.116 A 
HETATM    2  C3  UNL     1      -0.611   1.606   0.026  1.00  0.00     0.136 A 
HETATM    3  N2  UNL     1      -1.947   1.441   0.042  1.00  0.00    -0.371 N 
ATOM      4  H2  UNL     1      -2.548   2.265   0.056  1.00  0.00     0.164 HD
HETATM    5  C4  UNL     1      -2.510   0.220   0.040  1.00  0.00     0.104 A 
HETATM    6  C5  UNL     1      -1.652  -0.859   0.021  1.00  0.00     0.106 A 
HETATM    7  N3  UNL     1      -0.317  -0.693   0.005  1.00  0.00    -0.350 N 
ATOM      8  H3  UNL     1       0.284  -1.517  -0.009  1.00  0.00     0.166 HD
ENDROOT
BRANCH   1   9
HETATM    9  N1  UNL     1       1.529   0.709  -0.009  1.00  0.00    -0.380 N 
HETATM   10  C1  UNL     1       2.487  -0.349  -0.029  1.00  0.00     0.147 C 
ATOM     11  H1  UNL     1       1.876   1.668  -0.007  1.00  0.00     0.160 HD
ENDBRANCH   1   9
TORSDOF 1
