REMARK  12 active torsions:
REMARK  status: ('A' for Active; 'I' for Inactive)
REMARK    1  A    between atoms: N1_2  and  C3_4 
REMARK    2  A    between atoms: C4_5  and  O1_6 
REMARK    3  A    between atoms: C5_8  and  O2_9 
REMARK    4  A    between atoms: C6_11  and  N2_12 
REMARK    5  A    between atoms: C7_13  and  N3_14 
REMARK    6  A    between atoms: N3_14  and  N4_15 
REMARK       I    between atoms: N4_15  and  C8_17 
REMARK    7  A    between atoms: N6_20  and  N7_21 
REMARK    8  A    between atoms: N7_21  and  C9_23 
REMARK    9  A    between atoms: N8_24  and  N9_26 
REMARK   10  A    between atoms: C12_34  and  N11_35 
REMARK   11  A    between atoms: C14_42  and  O6_43 
REMARK   12  A    between atoms: C14_42  and  C15_45 
ROOT
HETATM    1  N2  UNL     1      -1.148  -0.576  -0.314  1.00  0.00    -0.257 N 
HETATM    2  C7  UNL     1      -0.908  -0.806   1.006  1.00  0.00     0.309 A 
HETATM    3  N6  UNL     1      -2.123  -0.864   1.674  1.00  0.00    -0.201 N 
HETATM    4  C10 UNL     1      -3.070  -0.691   0.761  1.00  0.00     0.174 A 
HETATM    5  C11 UNL     1      -4.457  -0.713   0.787  1.00  0.00     0.292 A 
HETATM    6  O4  UNL     1      -5.077  -0.869   1.848  1.00  0.00    -0.265 OA
HETATM    7  N10 UNL     1      -5.169  -0.568  -0.364  1.00  0.00    -0.154 N 
ATOM      8  H10 UNL     1      -6.188  -0.585  -0.334  1.00  0.00     0.187 HD
HETATM    9  C12 UNL     1      -4.569  -0.410  -1.486  1.00  0.00     0.680 A 
HETATM   10  N12 UNL     1      -3.194  -0.368  -1.618  1.00  0.00    -0.174 N 
ATOM     11  H12 UNL     1      -2.748  -0.237  -2.526  1.00  0.00     0.186 HD
HETATM   12  C13 UNL     1      -2.463  -0.511  -0.475  1.00  0.00     0.164 A 
ENDROOT
BRANCH   1  13
HETATM   13  C6  UNL     1      -0.157  -0.345  -1.379  1.00  0.00     0.269 C 
HETATM   14  C5  UNL     1      -0.260   1.031  -1.905  1.00  0.00     0.198 C 
HETATM   15  C4  UNL     1       0.996   1.779  -2.083  1.00  0.00     0.190 C 
HETATM   16  C3  UNL     1       2.264   0.963  -2.244  1.00  0.00     0.326 C 
HETATM   17  C14 UNL     1       1.977  -0.505  -2.142  1.00  0.00     0.290 C 
HETATM   18  O5  UNL     1       1.101  -0.719  -1.066  1.00  0.00    -0.316 OA
BRANCH  14  19
HETATM   19  O2  UNL     1      -1.171   1.786  -1.082  1.00  0.00    -0.389 OA
ATOM     20  H2  UNL     1      -1.981   1.303  -0.967  1.00  0.00     0.210 HD
ENDBRANCH  14  19
BRANCH  15  21
HETATM   21  O1  UNL     1       0.862   2.689  -3.109  1.00  0.00    -0.390 OA
ATOM     22  H1  UNL     1       0.068   3.200  -3.008  1.00  0.00     0.210 HD
ENDBRANCH  15  21
BRANCH  16  23
HETATM   23  N1  UNL     1       3.285   1.383  -1.351  1.00  0.00     0.093 N 
HETATM   24  C1  UNL     1       2.988   1.390   0.036  1.00  0.00     0.310 C 
HETATM   25  C2  UNL     1       3.958   2.615  -1.764  1.00  0.00     0.310 C 
ENDBRANCH  16  23
BRANCH  17  26
HETATM   26  O6  UNL     1       1.139  -0.870  -3.266  1.00  0.00    -0.355 OA
ATOM     27  H6  UNL     1       0.957  -1.800  -3.201  1.00  0.00     0.213 HD
ENDBRANCH  17  26
BRANCH  17  28
HETATM   28  C15 UNL     1       3.029  -1.430  -2.144  1.00  0.00     0.241 C 
HETATM   29  O7  UNL     1       3.326  -2.534  -2.573  1.00  0.00    -0.644 OA
HETATM   30  O8  UNL     1       4.227  -0.918  -1.373  1.00  0.00    -0.644 OA
ENDBRANCH  17  28
ENDBRANCH   1  13
BRANCH   2  31
HETATM   31  N3  UNL     1       0.180  -1.024   1.475  1.00  0.00    -0.281 NA
BRANCH  31  32
HETATM   32  N4  UNL     1       1.143  -1.277   2.285  1.00  0.00    -0.183 N 
HETATM   33  C8  UNL     1       1.560  -2.614   2.686  1.00  0.00     0.357 C 
HETATM   34  N5  UNL     1       2.660  -2.881   3.532  1.00  0.00    -0.038 NA
HETATM   35  O3  UNL     1       0.901  -3.601   2.248  1.00  0.00    -0.248 OA
ATOM     36  H4  UNL     1       1.653  -0.485   2.676  1.00  0.00     0.206 HD
ENDBRANCH  31  32
ENDBRANCH   2  31
BRANCH   3  37
HETATM   37  N7  UNL     1      -2.190  -1.007   3.057  1.00  0.00    -0.284 N 
ATOM     38  H7  UNL     1      -1.287  -1.181   3.497  1.00  0.00     0.188 HD
BRANCH  37  39
HETATM   39  C9  UNL     1      -3.238  -0.959   3.942  1.00  0.00     0.214 C 
HETATM   40  N8  UNL     1      -3.396   0.073   4.729  1.00  0.00    -0.301 N 
ATOM     41  H8  UNL     1      -4.173   0.122   5.387  1.00  0.00     0.187 HD
BRANCH  40  42
HETATM   42  N9  UNL     1      -2.458   1.108   4.634  1.00  0.00    -0.344 N 
ATOM     43  H92 UNL     1      -1.686   1.044   3.970  1.00  0.00     0.176 HD
ATOM     44  H91 UNL     1      -2.581   1.913   5.248  1.00  0.00     0.176 HD
ENDBRANCH  40  42
ENDBRANCH  37  39
ENDBRANCH   3  37
BRANCH   9  45
HETATM   45  N11 UNL     1      -5.319  -0.309  -2.577  1.00  0.00    -0.234 N 
ATOM     46 2H11 UNL     1      -6.334  -0.340  -2.480  1.00  0.00     0.174 HD
ATOM     47 1H11 UNL     1      -4.842  -0.183  -3.470  1.00  0.00     0.174 HD
ENDBRANCH   9  45
TORSDOF 12
