REMARK  19 active torsions:
REMARK  status: ('A' for Active; 'I' for Inactive)
REMARK    1  A    between atoms: C3_3  and  C4_4 
REMARK    2  A    between atoms: C4_4  and  C5_5 
REMARK       I    between atoms: C5_5  and  N1_7 
REMARK    3  A    between atoms: N1_7  and  C6_9 
REMARK    4  A    between atoms: C6_9  and  C7_10 
REMARK    5  A    between atoms: C6_9  and  C8_13 
REMARK    6  A    between atoms: C8_13  and  N3_15 
REMARK       I    between atoms: N3_15  and  C10_17 
REMARK    7  A    between atoms: C10_17  and  C11_19 
REMARK    8  A    between atoms: C11_19  and  N4_20 
REMARK    9  A    between atoms: C11_19  and  C24_43 
REMARK       I    between atoms: N4_20  and  C12_22 
REMARK   10  A    between atoms: C12_22  and  C13_24 
REMARK   11  A    between atoms: C13_24  and  C14_26 
REMARK   12  A    between atoms: C14_26  and  C15_27 
REMARK       I    between atoms: C15_27  and  N5_29 
REMARK   13  A    between atoms: N5_29  and  C16_31 
REMARK   14  A    between atoms: C16_31  and  C17_32 
REMARK   15  A    between atoms: C16_31  and  C21_40 
REMARK   16  A    between atoms: C17_32  and  O7_33 
REMARK   17  A    between atoms: C17_32  and  N6_35 
REMARK   18  A    between atoms: N6_35  and  C18_37 
REMARK   19  A    between atoms: C18_37  and  C19_38 
ROOT
HETATM    1  C1  UNL     1     -10.773   4.220  -2.484  1.00  0.00     0.012 C 
HETATM    2  C2  UNL     1     -10.249   3.156  -2.200  1.00  0.00    -0.117 C 
HETATM    3  C3  UNL     1      -9.625   1.894  -1.857  1.00  0.00     0.102 C 
ENDROOT
BRANCH   3   4
HETATM    4  C4  UNL     1      -8.566   2.081  -0.778  1.00  0.00     0.115 C 
BRANCH   4   5
HETATM    5  C5  UNL     1      -7.919   0.806  -0.410  1.00  0.00     0.219 C 
HETATM    6  O1  UNL     1      -8.307  -0.280  -0.925  1.00  0.00    -0.274 OA
HETATM    7  N1  UNL     1      -6.866   0.785   0.515  1.00  0.00    -0.346 N 
ATOM      8  H1  UNL     1      -6.573   1.678   0.911  1.00  0.00     0.163 HD
BRANCH   7   9
HETATM    9  C6  UNL     1      -6.160  -0.401   0.954  1.00  0.00     0.196 C 
BRANCH   9  10
HETATM   10  C7  UNL     1      -6.268  -0.620   2.402  1.00  0.00     0.256 C 
HETATM   11  N2  UNL     1      -5.709  -1.664   3.143  1.00  0.00    -0.060 NA
HETATM   12  O2  UNL     1      -6.957   0.250   3.043  1.00  0.00    -0.274 OA
ENDBRANCH   9  10
BRANCH   9  13
HETATM   13  C8  UNL     1      -4.733  -0.335   0.479  1.00  0.00     0.112 C 
HETATM   14  C9  UNL     1      -4.747  -0.260  -1.057  1.00  0.00     0.034 C 
BRANCH  13  15
HETATM   15  N3  UNL     1      -3.928  -1.481   0.923  1.00  0.00    -0.349 N 
HETATM   16  C10 UNL     1      -2.602  -1.295   1.325  1.00  0.00     0.264 C 
HETATM   17  O3  UNL     1      -2.175  -0.076   1.258  1.00  0.00    -0.266 OA
ATOM     18  H3  UNL     1      -4.338  -2.415   0.938  1.00  0.00     0.163 HD
BRANCH  16  19
HETATM   19  C11 UNL     1      -1.609  -2.253   1.810  1.00  0.00     0.084 C 
BRANCH  19  20
HETATM   20  N4  UNL     1      -0.280  -1.753   1.896  1.00  0.00    -0.319 N 
HETATM   21  C12 UNL     1       0.475  -1.161   0.862  1.00  0.00     0.292 C 
HETATM   22  O4  UNL     1      -0.030  -1.049  -0.281  1.00  0.00    -0.264 OA
ATOM     23  H4  UNL     1       0.177  -1.831   2.805  1.00  0.00     0.169 HD
BRANCH  21  24
HETATM   24  C13 UNL     1       1.828  -0.665   1.041  1.00  0.00     0.225 C 
HETATM   25  O5  UNL     1       2.333  -0.726   2.186  1.00  0.00    -0.287 OA
BRANCH  24  26
HETATM   26  C14 UNL     1       2.581  -0.110  -0.072  1.00  0.00     0.191 C 
BRANCH  26  27
HETATM   27  C15 UNL     1       3.871   0.498   0.280  1.00  0.00     0.225 C 
HETATM   28  O6  UNL     1       4.154   0.626   1.503  1.00  0.00    -0.273 OA
HETATM   29  N5  UNL     1       4.800   0.943  -0.690  1.00  0.00    -0.348 N 
ATOM     30  H5  UNL     1       4.570   0.824  -1.677  1.00  0.00     0.163 HD
BRANCH  29  31
HETATM   31  C16 UNL     1       6.083   1.570  -0.337  1.00  0.00     0.162 C 
BRANCH  31  32
HETATM   32  C17 UNL     1       7.161   0.557  -0.404  1.00  0.00     0.135 C 
BRANCH  32  33
HETATM   33  O7  UNL     1       6.819  -0.671  -0.139  1.00  0.00    -0.348 OA
ATOM     34  H7  UNL     1       7.511  -1.321  -0.182  1.00  0.00     0.219 HD
ENDBRANCH  32  33
BRANCH  32  35
HETATM   35  N6  UNL     1       8.511   0.732  -0.717  1.00  0.00    -0.369 N 
ATOM     36  H6  UNL     1       8.862   1.662  -0.946  1.00  0.00     0.161 HD
BRANCH  35  37
HETATM   37  C18 UNL     1       9.430  -0.420  -0.718  1.00  0.00     0.148 C 
BRANCH  37  38
HETATM   38  C19 UNL     1      10.799   0.032  -1.083  1.00  0.00    -0.018 C 
HETATM   39  C20 UNL     1      11.831  -0.118  -0.272  1.00  0.00     0.008 C 
ENDBRANCH  37  38
ENDBRANCH  35  37
ENDBRANCH  32  35
ENDBRANCH  31  32
BRANCH  31  40
HETATM   40  C21 UNL     1       6.294   2.845  -1.034  1.00  0.00     0.008 C 
HETATM   41  C22 UNL     1       6.370   2.812  -2.518  1.00  0.00     0.012 C 
HETATM   42  C23 UNL     1       7.431   3.627  -0.455  1.00  0.00     0.012 C 
ENDBRANCH  31  40
ENDBRANCH  29  31
ENDBRANCH  26  27
ENDBRANCH  24  26
ENDBRANCH  21  24
ENDBRANCH  19  20
BRANCH  19  43
HETATM   43  C24 UNL     1      -1.810  -3.619   1.292  1.00  0.00     0.033 C 
HETATM   44  C25 UNL     1      -1.806  -3.670  -0.210  1.00  0.00     0.016 C 
HETATM   45  C26 UNL     1      -2.989  -4.323   1.901  1.00  0.00     0.016 C 
ENDBRANCH  19  43
ENDBRANCH  16  19
ENDBRANCH  13  15
ENDBRANCH   9  13
ENDBRANCH   7   9
ENDBRANCH   4   5
ENDBRANCH   3   4
TORSDOF 19
