REMARK  10 active torsions:
REMARK  status: ('A' for Active; 'I' for Inactive)
REMARK    1  A    between atoms: C2_2  and  C4_4 
REMARK    2  A    between atoms: C4_4  and  C5_5 
REMARK    3  A    between atoms: C5_5  and  N1_6 
REMARK    4  A    between atoms: C5_5  and  C14_22 
REMARK       I    between atoms: N1_6  and  C6_8 
REMARK    5  A    between atoms: C6_8  and  C7_10 
REMARK    6  A    between atoms: C7_10  and  N2_11 
REMARK    7  A    between atoms: C7_10  and  C11_19 
REMARK       I    between atoms: N2_11  and  C8_13 
REMARK    8  A    between atoms: C8_13  and  C9_15 
REMARK    9  A    between atoms: C9_15  and  C10_16 
REMARK   10  A    between atoms: C10_16  and  O3_17 
REMARK       I    between atoms: C14_22  and  N3_24 
ROOT
HETATM    1  C5  UNL     1       1.738  -1.320   0.195  1.00  0.00     0.177 C 
ENDROOT
BRANCH   1   2
HETATM    2  C4  UNL     1       1.877  -0.893   1.606  1.00  0.00     0.038 C 
BRANCH   2   3
HETATM    3  C2  UNL     1       3.227  -0.644   2.150  1.00  0.00    -0.020 C 
HETATM    4  C1  UNL     1       3.009  -0.241   3.631  1.00  0.00     0.009 C 
HETATM    5  C3  UNL     1       4.139  -1.827   2.159  1.00  0.00     0.009 C 
ENDBRANCH   2   3
ENDBRANCH   1   2
BRANCH   1   6
HETATM    6  N1  UNL     1       0.348  -1.531  -0.173  1.00  0.00    -0.346 N 
HETATM    7  C6  UNL     1      -0.635  -0.520  -0.301  1.00  0.00     0.241 C 
HETATM    8  O1  UNL     1      -0.212   0.656  -0.060  1.00  0.00    -0.271 OA
ATOM      9  H1  UNL     1       0.055  -2.491  -0.355  1.00  0.00     0.163 HD
BRANCH   7  10
HETATM   10  C7  UNL     1      -2.023  -0.699  -0.667  1.00  0.00     0.180 C 
BRANCH  10  11
HETATM   11  N2  UNL     1      -2.689   0.614  -0.654  1.00  0.00    -0.347 N 
HETATM   12  C8  UNL     1      -3.732   0.953   0.187  1.00  0.00     0.220 C 
HETATM   13  O2  UNL     1      -4.179   0.129   1.009  1.00  0.00    -0.274 OA
ATOM     14  H2  UNL     1      -2.358   1.321  -1.310  1.00  0.00     0.163 HD
BRANCH  12  15
HETATM   15  C9  UNL     1      -4.338   2.294   0.129  1.00  0.00     0.128 C 
BRANCH  15  16
HETATM   16  C10 UNL     1      -5.468   2.421   1.130  1.00  0.00     0.173 C 
BRANCH  16  17
HETATM   17  O3  UNL     1      -5.994   3.723   1.015  1.00  0.00    -0.400 OA
ATOM     18  H3  UNL     1      -6.703   3.803   1.643  1.00  0.00     0.209 HD
ENDBRANCH  16  17
ENDBRANCH  15  16
ENDBRANCH  12  15
ENDBRANCH  10  11
BRANCH  10  19
HETATM   19  C11 UNL     1      -2.319  -1.298  -1.987  1.00  0.00     0.009 C 
HETATM   20  C12 UNL     1      -3.849  -1.370  -2.114  1.00  0.00     0.012 C 
HETATM   21  C13 UNL     1      -1.810  -2.661  -2.262  1.00  0.00     0.012 C 
ENDBRANCH  10  19
ENDBRANCH   7  10
ENDBRANCH   1   6
BRANCH   1  22
HETATM   22  C14 UNL     1       2.458  -0.548  -0.827  1.00  0.00     0.246 C 
HETATM   23  O4  UNL     1       1.831  -0.155  -1.883  1.00  0.00    -0.271 OA
HETATM   24  N3  UNL     1       3.802  -0.182  -0.775  1.00  0.00    -0.304 N 
HETATM   25  C15 UNL     1       4.316   0.934  -1.199  1.00  0.00     0.168 A 
ATOM     26  H3  UNL     1       4.446  -0.857  -0.363  1.00  0.00     0.171 HD
HETATM   27  N4  UNL     1       3.777   2.007  -1.774  1.00  0.00    -0.278 N 
HETATM   28  S1  UNL     1       5.989   1.402  -1.153  1.00  0.00    -0.021 SA
HETATM   29  N5  UNL     1       4.526   2.980  -2.102  1.00  0.00    -0.282 N 
ATOM     30  H4  UNL     1       2.773   2.048  -1.950  1.00  0.00     0.189 HD
HETATM   31  C16 UNL     1       5.826   2.936  -1.880  1.00  0.00     0.163 A 
ATOM     32  H5  UNL     1       4.117   3.805  -2.542  1.00  0.00     0.188 HD
HETATM   33 CL1  UNL     1       7.016   4.185  -2.267  1.00  0.00    -0.055 Cl
ENDBRANCH   1  22
TORSDOF 10
