REMARK  6 active torsions:
REMARK  status: ('A' for Active; 'I' for Inactive)
REMARK    1  A    between atoms: C2_2  and  O1_3 
REMARK    2  A    between atoms: O1_3  and  C3_4 
REMARK    3  A    between atoms: C3_4  and  C4_6 
REMARK    4  A    between atoms: C5_7  and  N1_8 
REMARK    5  A    between atoms: N1_8  and  S1_9 
REMARK    6  A    between atoms: S1_9  and  C6_12 
ROOT
HETATM    1  C4  UNL     1       0.535   0.510  -0.217  1.00  0.00     0.106 A 
HETATM    2  C5  UNL     1      -0.482   0.684   0.671  1.00  0.00     0.210 A 
HETATM    3  N2  UNL     1      -0.793   2.025   1.020  1.00  0.00    -0.332 N 
ATOM      4  H2  UNL     1      -1.547   2.191   1.686  1.00  0.00     0.168 HD
HETATM    5  C8  UNL     1      -0.157   3.060   0.527  1.00  0.00     0.030 A 
HETATM    6  C9  UNL     1      -0.496   4.478   0.902  1.00  0.00     0.070 C 
HETATM    7  C10 UNL     1       0.867   2.883  -0.381  1.00  0.00     0.063 A 
HETATM    8 CL1  UNL     1       1.720   4.252  -1.063  1.00  0.00    -0.082 Cl
HETATM    9  C11 UNL     1       1.225   1.633  -0.762  1.00  0.00    -0.017 A 
HETATM   10  C12 UNL     1       2.321   1.449  -1.737  1.00  0.00     0.051 C 
ENDROOT
BRANCH   2  11
HETATM   11  N1  UNL     1      -1.262  -0.224   1.298  1.00  0.00    -0.303 NA
BRANCH  11  12
HETATM   12  S1  UNL     1      -2.211  -1.330   2.061  1.00  0.00     0.293 S 
HETATM   13  O3  UNL     1      -2.973  -0.633   3.185  1.00  0.00    -0.192 OA
HETATM   14  O4  UNL     1      -1.391  -2.438   2.736  1.00  0.00    -0.192 OA
BRANCH  12  15
HETATM   15  C6  UNL     1      -3.376  -2.170   1.050  1.00  0.00     0.173 C 
HETATM   16  C7  UNL     1      -4.344  -1.244   0.382  1.00  0.00     0.024 C 
ENDBRANCH  12  15
ENDBRANCH  11  12
ENDBRANCH   2  11
BRANCH   1  17
HETATM   17  C3  UNL     1       1.085  -0.798  -0.470  1.00  0.00     0.298 C 
HETATM   18  O2  UNL     1       0.735  -1.829   0.120  1.00  0.00    -0.259 OA
BRANCH  17  19
HETATM   19  O1  UNL     1       2.066  -0.974  -1.420  1.00  0.00    -0.318 OA
BRANCH  19  20
HETATM   20  C2  UNL     1       2.674  -2.202  -1.728  1.00  0.00     0.174 C 
HETATM   21  C1  UNL     1       3.472  -2.745  -0.545  1.00  0.00     0.034 C 
ENDBRANCH  19  20
ENDBRANCH  17  19
ENDBRANCH   1  17
TORSDOF 6
