REMARK  6 active torsions:
REMARK  status: ('A' for Active; 'I' for Inactive)
REMARK    1  A    between atoms: C6_6  and  C7_7 
REMARK    2  A    between atoms: C7_7  and  C8_8 
REMARK    3  A    between atoms: C8_8  and  N1_9 
REMARK    4  A    between atoms: N1_9  and  C9_11 
REMARK    5  A    between atoms: N2_13  and  C11_15 
REMARK    6  A    between atoms: C11_15  and  C13_17 
ROOT
HETATM    1  C1  UNL     1       7.362   1.923  -0.368  1.00  0.00     0.020 C 
HETATM    2  C2  UNL     1       6.332   1.301  -0.317  1.00  0.00    -0.052 C 
HETATM    3  C3  UNL     1       5.104   0.528  -0.255  1.00  0.00     0.128 A 
HETATM    4  C4  UNL     1       5.024  -0.841  -0.005  1.00  0.00     0.049 A 
HETATM    5  C5  UNL     1       3.697  -1.208  -0.026  1.00  0.00     0.036 A 
HETATM    6  C6  UNL     1       3.003  -0.030  -0.294  1.00  0.00     0.056 A 
HETATM    7  O1  UNL     1       3.873   0.932  -0.415  1.00  0.00    -0.306 OA
ENDROOT
BRANCH   6   8
HETATM    8  C7  UNL     1       1.511   0.017  -0.404  1.00  0.00     0.084 C 
BRANCH   8   9
HETATM    9  C8  UNL     1       0.902   0.295   0.952  1.00  0.00     0.127 C 
BRANCH   9  10
HETATM   10  N1  UNL     1      -0.537   0.326   0.793  1.00  0.00    -0.380 N 
ATOM     11  H1  UNL     1      -1.024   1.215   0.908  1.00  0.00     0.160 HD
BRANCH  10  12
HETATM   12  C9  UNL     1      -1.290  -0.824   0.485  1.00  0.00     0.069 C 
HETATM   13  C10 UNL     1      -0.685  -2.191   0.527  1.00  0.00     0.088 C 
HETATM   14  N2  UNL     1      -2.527  -0.769   0.156  1.00  0.00    -0.369 N 
ATOM     15  H2  UNL     1      -2.980  -1.660  -0.048  1.00  0.00     0.161 HD
BRANCH  14  16
HETATM   16  C11 UNL     1      -3.342   0.392   0.042  1.00  0.00     0.143 C 
HETATM   17  C12 UNL     1      -3.253   1.082  -1.299  1.00  0.00     0.040 C 
BRANCH  16  18
HETATM   18  C13 UNL     1      -4.749   0.044   0.341  1.00  0.00     0.109 C 
HETATM   19  N3  UNL     1      -5.044  -1.166   0.648  1.00  0.00    -0.389 N 
ATOM     20  H32 UNL     1      -4.318  -1.882   0.684  1.00  0.00     0.157 HD
ATOM     21  H31 UNL     1      -6.014  -1.406   0.854  1.00  0.00     0.157 HD
HETATM   22  N4  UNL     1      -5.748   1.029   0.291  1.00  0.00    -0.086 NA
ENDBRANCH  16  18
ENDBRANCH  14  16
ENDBRANCH  10  12
ENDBRANCH   9  10
ENDBRANCH   8   9
ENDBRANCH   6   8
TORSDOF 6
