REMARK  7 active torsions:
REMARK  status: ('A' for Active; 'I' for Inactive)
REMARK    1  A    between atoms: C5_6  and  C6_7 
REMARK    2  A    between atoms: C7_8  and  C8_9 
REMARK    3  A    between atoms: C8_9  and  C9_10 
REMARK    4  A    between atoms: C9_10  and  C10_11 
REMARK    5  A    between atoms: N1_13  and  O2_15 
REMARK    6  A    between atoms: C13_20  and  C14_21 
REMARK    7  A    between atoms: C14_21  and  C15_22 
ROOT
HETATM    1  C1  UNL     1       4.008   1.094   0.567  1.00  0.00     0.049 C 
HETATM    2  C2  UNL     1       2.529   1.208   0.439  1.00  0.00    -0.042 C 
HETATM    3  C3  UNL     1       1.885   1.992   1.321  1.00  0.00     0.061 C 
HETATM    4  C4  UNL     1       0.438   2.282   1.414  1.00  0.00     0.182 C 
HETATM    5  O1  UNL     1       0.031   2.440   2.592  1.00  0.00    -0.290 OA
HETATM    6  C5  UNL     1      -0.551   2.408   0.343  1.00  0.00     0.228 C 
HETATM    7  O3  UNL     1      -0.074   2.155  -0.968  1.00  0.00    -0.300 OA
HETATM    8  C12 UNL     1       0.782   1.159  -1.457  1.00  0.00     0.294 C 
HETATM    9  O4  UNL     1       0.609   0.794  -2.609  1.00  0.00    -0.259 OA
HETATM   10  C13 UNL     1       1.898   0.504  -0.661  1.00  0.00     0.045 C 
ENDROOT
BRANCH   6  11
HETATM   11  C6  UNL     1      -1.680   1.430   0.567  1.00  0.00     0.009 C 
HETATM   12  C7  UNL     1      -2.863   1.807   0.982  1.00  0.00    -0.027 C 
BRANCH  12  13
HETATM   13  C8  UNL     1      -4.045   1.002   1.243  1.00  0.00     0.032 C 
BRANCH  13  14
HETATM   14  C9  UNL     1      -4.036  -0.448   1.011  1.00  0.00     0.058 C 
BRANCH  14  15
HETATM   15  C10 UNL     1      -3.826  -0.929  -0.350  1.00  0.00     0.006 C 
HETATM   16  C11 UNL     1      -4.692  -0.431  -1.475  1.00  0.00     0.065 C 
HETATM   17  N1  UNL     1      -2.950  -1.811  -0.694  1.00  0.00    -0.278 N 
ATOM     18  H1  UNL     1      -2.362  -2.199   0.043  1.00  0.00     0.193 HD
BRANCH  17  19
HETATM   19  O2  UNL     1      -2.748  -2.263  -1.952  1.00  0.00    -0.290 OA
ATOM     20  H2  UNL     1      -2.103  -2.913  -2.205  1.00  0.00     0.244 HD
ENDBRANCH  17  19
ENDBRANCH  14  15
ENDBRANCH  13  14
ENDBRANCH  12  13
ENDBRANCH   6  11
BRANCH  10  21
HETATM   21  C14 UNL     1       2.154  -0.698  -0.969  1.00  0.00     0.020 C 
BRANCH  21  22
HETATM   22  C15 UNL     1       2.944  -1.838  -0.593  1.00  0.00    -0.087 C 
HETATM   23  C16 UNL     1       3.475  -2.071   0.737  1.00  0.00     0.043 C 
HETATM   24  C17 UNL     1       3.979  -2.167  -1.674  1.00  0.00     0.043 C 
ENDBRANCH  21  22
ENDBRANCH  10  21
TORSDOF 7
