REMARK  18 active torsions:
REMARK  status: ('A' for Active; 'I' for Inactive)
REMARK    1  A    between atoms: C2_2  and  N2_6 
REMARK    2  A    between atoms: N2_6  and  C3_8 
REMARK    3  A    between atoms: C4_9  and  O1_10 
REMARK    4  A    between atoms: O1_10  and  C5_11 
REMARK    5  A    between atoms: C5_11  and  C6_12 
REMARK    6  A    between atoms: C6_12  and  O2_14 
REMARK    7  A    between atoms: C6_12  and  C8_16 
REMARK    8  A    between atoms: C8_16  and  O3_17 
REMARK    9  A    between atoms: C9_20  and  C10_21 
REMARK   10  A    between atoms: C10_21  and  S1_22 
REMARK   11  A    between atoms: S1_22  and  C11_23 
REMARK   12  A    between atoms: C11_23  and  N3_24 
REMARK   13  A    between atoms: C12_29  and  O6_30 
REMARK   14  A    between atoms: O6_30  and  C13_31 
REMARK   15  A    between atoms: C14_33  and  C15_34 
REMARK   16  A    between atoms: C15_34  and  N4_35 
REMARK   17  A    between atoms: C16_39  and  O8_40 
REMARK   18  A    between atoms: C17_42  and  O9_43 
ROOT
HETATM    1  C3  UNL     1      -0.411  -0.770   0.431  1.00  0.00     0.193 C 
HETATM    2  C4  UNL     1      -1.727  -0.085   0.017  1.00  0.00     0.290 C 
HETATM    3  O4  UNL     1      -1.640   0.090  -1.359  1.00  0.00    -0.328 OA
HETATM    4  C9  UNL     1      -0.779   1.109  -1.642  1.00  0.00     0.275 C 
HETATM    5  O5  UNL     1       0.216   1.189  -0.720  1.00  0.00    -0.328 OA
HETATM    6  C12 UNL     1       0.684  -0.035  -0.228  1.00  0.00     0.293 C 
ENDROOT
BRANCH   6   7
HETATM    7  O6  UNL     1       1.791   0.232   0.528  1.00  0.00    -0.326 OA
BRANCH   7   8
HETATM    8  C13 UNL     1       2.989  -0.213   0.089  1.00  0.00     0.294 C 
HETATM    9  O7  UNL     1       3.767   0.916  -0.208  1.00  0.00    -0.349 OA
HETATM   10  C14 UNL     1       5.065   0.638   0.118  1.00  0.00     0.181 C 
HETATM   11  C16 UNL     1       5.084  -0.356   1.235  1.00  0.00     0.182 C 
HETATM   12  C17 UNL     1       3.761  -1.056   1.054  1.00  0.00     0.204 C 
BRANCH  10  13
HETATM   13  C15 UNL     1       5.816   1.872   0.566  1.00  0.00     0.264 C 
BRANCH  13  14
HETATM   14  N4  UNL     1       7.177   1.587   0.909  1.00  0.00    -0.077 N 
ATOM     15  H43 UNL     1       7.233   0.848   1.610  1.00  0.00     0.274 HD
ATOM     16  H42 UNL     1       7.660   1.121   0.141  1.00  0.00     0.274 HD
ATOM     17  H41 UNL     1       7.683   2.419   1.211  1.00  0.00     0.274 HD
ENDBRANCH  13  14
ENDBRANCH  10  13
BRANCH  11  18
HETATM   18  O8  UNL     1       5.178   0.231   2.499  1.00  0.00    -0.390 OA
ATOM     19  H8  UNL     1       5.190  -0.400   3.209  1.00  0.00     0.210 HD
ENDBRANCH  11  18
BRANCH  12  20
HETATM   20  O9  UNL     1       3.168  -1.174   2.295  1.00  0.00    -0.388 OA
ATOM     21  H9  UNL     1       3.658  -1.709   2.908  1.00  0.00     0.210 HD
ENDBRANCH  12  20
ENDBRANCH   7   8
ENDBRANCH   6   7
BRANCH   1  22
HETATM   22  N2  UNL     1      -0.551  -2.154   0.163  1.00  0.00    -0.366 N 
ATOM     23  H2  UNL     1      -0.405  -2.769   0.963  1.00  0.00     0.161 HD
BRANCH  22  24
HETATM   24  C2  UNL     1      -0.859  -2.798  -1.035  1.00  0.00     0.067 C 
HETATM   25  C1  UNL     1      -2.094  -3.604  -1.133  1.00  0.00     0.088 C 
HETATM   26  N1  UNL     1      -0.087  -2.703  -2.042  1.00  0.00    -0.389 N 
ATOM     27  H12 UNL     1      -0.312  -3.174  -2.918  1.00  0.00     0.157 HD
ATOM     28  H11 UNL     1       0.765  -2.147  -1.974  1.00  0.00     0.157 HD
ENDBRANCH  22  24
ENDBRANCH   1  22
BRANCH   2  29
HETATM   29  O1  UNL     1      -2.810  -0.896   0.261  1.00  0.00    -0.356 OA
BRANCH  29  30
HETATM   30  C5  UNL     1      -3.708  -0.244   1.102  1.00  0.00     0.210 C 
BRANCH  30  31
HETATM   31  C6  UNL     1      -4.917  -1.118   1.385  1.00  0.00     0.097 C 
HETATM   32  C7  UNL     1      -4.531  -2.406   2.047  1.00  0.00     0.050 C 
BRANCH  31  33
HETATM   33  O2  UNL     1      -5.527  -1.392   0.175  1.00  0.00    -0.386 OA
ATOM     34  H2  UNL     1      -6.283  -1.939   0.352  1.00  0.00     0.210 HD
ENDBRANCH  31  33
BRANCH  31  35
HETATM   35  C8  UNL     1      -5.866  -0.298   2.231  1.00  0.00     0.203 C 
BRANCH  35  36
HETATM   36  O3  UNL     1      -5.229  -0.039   3.431  1.00  0.00    -0.398 OA
ATOM     37  H3  UNL     1      -5.825   0.476   3.962  1.00  0.00     0.209 HD
ENDBRANCH  35  36
ENDBRANCH  31  35
ENDBRANCH  30  31
ENDBRANCH  29  30
ENDBRANCH   2  29
BRANCH   4  38
HETATM   38  C10 UNL     1      -1.482   2.468  -1.697  1.00  0.00     0.136 C 
BRANCH  38  39
HETATM   39  S1  UNL     1      -0.286   3.780  -2.075  1.00  0.00    -0.137 SA
BRANCH  39  40
HETATM   40  C11 UNL     1       0.329   3.504  -3.758  1.00  0.00     0.303 C 
BRANCH  40  41
HETATM   41  N3  UNL     1       1.292   4.554  -4.056  1.00  0.00    -0.071 N 
ATOM     42  H33 UNL     1       0.911   5.491  -3.922  1.00  0.00     0.275 HD
ATOM     43  H32 UNL     1       2.040   4.613  -3.365  1.00  0.00     0.275 HD
ATOM     44  H31 UNL     1       1.638   4.399  -5.003  1.00  0.00     0.275 HD
ENDBRANCH  40  41
ENDBRANCH  39  40
ENDBRANCH  38  39
ENDBRANCH   4  38
TORSDOF 18
