REMARK  9 active torsions:
REMARK  status: ('A' for Active; 'I' for Inactive)
REMARK    1  A    between atoms: C1_4  and  N2_5 
REMARK    2  A    between atoms: C1_4  and  C8_15 
REMARK    3  A    between atoms: N2_5  and  C2_7 
REMARK    4  A    between atoms: C2_7  and  C3_8 
REMARK    5  A    between atoms: C8_15  and  O1_16 
REMARK    6  A    between atoms: C8_15  and  C9_18 
REMARK    7  A    between atoms: C9_18  and  C10_20 
REMARK    8  A    between atoms: C12_24  and  C13_25 
REMARK    9  A    between atoms: C13_25  and  O2_26 
ROOT
HETATM    1  C8  UNL     1       0.014  -0.425  -0.472  1.00  0.00     0.223 C 
ENDROOT
BRANCH   1   2
HETATM    2  C1  UNL     1       1.111   0.199  -1.227  1.00  0.00     0.103 C 
HETATM    3  N1  UNL     1       0.944   0.643  -2.412  1.00  0.00    -0.387 N 
ATOM      4  H12 UNL     1       1.705   1.076  -2.936  1.00  0.00     0.157 HD
ATOM      5  H11 UNL     1       0.025   0.563  -2.847  1.00  0.00     0.157 HD
BRANCH   2   6
HETATM    6  N2  UNL     1       2.386   0.310  -0.623  1.00  0.00    -0.372 N 
ATOM      7  H2  UNL     1       2.420   0.535   0.371  1.00  0.00     0.161 HD
BRANCH   6   8
HETATM    8  C2  UNL     1       3.628   0.130  -1.303  1.00  0.00     0.177 C 
BRANCH   8   9
HETATM    9  C3  UNL     1       4.749   0.321  -0.358  1.00  0.00     0.026 A 
HETATM   10  C4  UNL     1       5.309   1.577  -0.170  1.00  0.00     0.027 A 
HETATM   11  C5  UNL     1       6.350   1.794   0.697  1.00  0.00     0.003 A 
HETATM   12  C6  UNL     1       6.857   0.736   1.404  1.00  0.00     0.017 A 
HETATM   13  C7  UNL     1       6.294  -0.506   1.211  1.00  0.00     0.088 A 
HETATM   14  N3  UNL     1       5.269  -0.693   0.349  1.00  0.00    -0.368 N 
ATOM     15  H3  UNL     1       4.881  -1.629   0.234  1.00  0.00     0.165 HD
ENDBRANCH   8   9
ENDBRANCH   6   8
ENDBRANCH   2   6
ENDBRANCH   1   2
BRANCH   1  16
HETATM   16  O1  UNL     1       0.322  -1.760  -0.119  1.00  0.00    -0.385 OA
ATOM     17  H1  UNL     1      -0.387  -2.163   0.369  1.00  0.00     0.210 HD
ENDBRANCH   1  16
BRANCH   1  18
HETATM   18  C9  UNL     1      -1.268  -0.497  -1.272  1.00  0.00     0.254 C 
HETATM   19  F1  UNL     1      -1.739   0.714  -1.665  1.00  0.00    -0.242 F 
BRANCH  18  20
HETATM   20  C10 UNL     1      -2.302  -1.227  -0.423  1.00  0.00     0.253 C 
HETATM   21  N4  UNL     1      -2.503  -0.501   0.783  1.00  0.00    -0.394 N 
HETATM   22  C11 UNL     1      -3.521   0.495   0.759  1.00  0.00     0.125 C 
ATOM     23  H4  UNL     1      -1.949  -0.683   1.619  1.00  0.00     0.155 HD
HETATM   24  C12 UNL     1      -4.737   0.064   0.005  1.00  0.00     0.051 C 
HETATM   25  C14 UNL     1      -4.536  -1.404  -0.374  1.00  0.00     0.178 C 
HETATM   26  O3  UNL     1      -3.413  -1.435  -1.192  1.00  0.00    -0.364 OA
BRANCH  24  27
HETATM   27  C13 UNL     1      -5.956   0.105   0.905  1.00  0.00     0.172 C 
BRANCH  27  28
HETATM   28  O2  UNL     1      -6.193   1.376   1.397  1.00  0.00    -0.400 OA
ATOM     29  H2  UNL     1      -6.957   1.402   1.961  1.00  0.00     0.209 HD
ENDBRANCH  27  28
ENDBRANCH  24  27
ENDBRANCH  18  20
ENDBRANCH   1  18
TORSDOF 9
