REMARK  2 active torsions:
REMARK  status: ('A' for Active; 'I' for Inactive)
REMARK    1  A    between atoms: C4_4  and  O1_5 
REMARK    2  A    between atoms: C11_14  and  O3_15 
ROOT
HETATM    1  C1  UNL     1      -3.349   1.436   0.560  1.00  0.00     0.039 C 
HETATM    2  C2  UNL     1      -3.117   0.002   0.117  1.00  0.00     0.120 C 
HETATM    3  C3  UNL     1      -2.362  -0.130  -1.140  1.00  0.00     0.070 C 
HETATM    4  C4  UNL     1      -0.840  -0.316  -0.977  1.00  0.00     0.070 C 
HETATM    5  C5  UNL     1      -0.177   0.972  -1.018  1.00  0.00     0.071 C 
HETATM    6  C6  UNL     1       1.024   1.301  -0.270  1.00  0.00     0.131 C 
HETATM    7  O2  UNL     1       2.190   1.439  -1.075  1.00  0.00    -0.380 OA
HETATM    8  C7  UNL     1       2.904   1.219   0.122  1.00  0.00     0.124 C 
HETATM    9  C8  UNL     1       4.223   0.550  -0.038  1.00  0.00     0.040 C 
HETATM   10  C9  UNL     1       1.743   0.286   0.497  1.00  0.00     0.046 C 
HETATM   11  C10 UNL     1       1.810  -1.061  -0.131  1.00  0.00     0.042 C 
HETATM   12  C11 UNL     1       0.650  -1.817   0.421  1.00  0.00     0.127 C 
HETATM   13  C12 UNL     1      -0.679  -1.236   0.173  1.00  0.00     0.073 C 
HETATM   14  C13 UNL     1      -1.325  -0.584   1.374  1.00  0.00     0.178 C 
HETATM   15  O4  UNL     1      -2.700  -0.710   1.204  1.00  0.00    -0.386 OA
ENDROOT
BRANCH   4  16
HETATM   16  O1  UNL     1      -0.452  -1.075  -2.092  1.00  0.00    -0.389 OA
ATOM     17  H1  UNL     1       0.486  -1.190  -1.992  1.00  0.00     0.210 HD
ENDBRANCH   4  16
BRANCH  12  18
HETATM   18  O3  UNL     1       0.840  -1.885   1.824  1.00  0.00    -0.395 OA
ATOM     19  H3  UNL     1       0.101  -2.367   2.176  1.00  0.00     0.210 HD
ENDBRANCH  12  18
TORSDOF 2
