REMARK  11 active torsions:
REMARK  status: ('A' for Active; 'I' for Inactive)
REMARK    1  A    between atoms: O1_2  and  C2_3 
REMARK    2  A    between atoms: C3_4  and  N1_5 
REMARK    3  A    between atoms: C5_10  and  N2_11 
REMARK    4  A    between atoms: C7_16  and  O2_17 
REMARK    5  A    between atoms: O2_17  and  C8_18 
REMARK    6  A    between atoms: C10_20  and  O3_21 
REMARK    7  A    between atoms: C11_23  and  C12_24 
REMARK    8  A    between atoms: C13_27  and  N3_28 
REMARK    9  A    between atoms: N3_28  and  N4_30 
REMARK   10  A    between atoms: N4_30  and  N5_31 
REMARK   11  A    between atoms: C15_35  and  N6_36 
ROOT
HETATM    1  C8  UNL     1       0.670   0.520  -0.112  1.00  0.00     0.155 C 
HETATM    2  C9  UNL     1       1.185  -0.451  -1.165  1.00  0.00     0.067 C 
HETATM    3  C10 UNL     1       2.555  -0.057  -1.573  1.00  0.00     0.137 C 
HETATM    4  C11 UNL     1       3.673  -0.684  -0.830  1.00  0.00     0.140 C 
HETATM    5  C13 UNL     1       3.376  -1.243   0.494  1.00  0.00     0.133 C 
HETATM    6  C14 UNL     1       2.279  -0.663   1.288  1.00  0.00     0.064 C 
HETATM    7  C15 UNL     1       1.777   0.687   0.904  1.00  0.00     0.214 C 
ENDROOT
BRANCH   1   8
HETATM    8  O2  UNL     1      -0.425  -0.004   0.507  1.00  0.00    -0.376 OA
BRANCH   8   9
HETATM    9  C7  UNL     1      -1.584   0.720   0.414  1.00  0.00     0.155 C 
HETATM   10  C2  UNL     1      -2.537  -0.168  -0.411  1.00  0.00     0.180 C 
HETATM   11  C3  UNL     1      -3.702   0.579  -0.918  1.00  0.00     0.216 C 
HETATM   12  C4  UNL     1      -3.896   1.809  -0.048  1.00  0.00     0.068 C 
HETATM   13  C5  UNL     1      -3.678   1.508   1.419  1.00  0.00     0.188 C 
HETATM   14  C6  UNL     1      -2.248   1.069   1.704  1.00  0.00     0.067 C 
BRANCH  10  15
HETATM   15  O1  UNL     1      -2.789  -1.279   0.342  1.00  0.00    -0.386 OA
HETATM   16  C1  UNL     1      -2.243  -2.450  -0.126  1.00  0.00     0.202 C 
ENDBRANCH  10  15
BRANCH  11  17
HETATM   17  N1  UNL     1      -3.421   1.093  -2.265  1.00  0.00    -0.072 N 
ATOM     18  H13 UNL     1      -2.568   1.651  -2.291  1.00  0.00     0.274 HD
ATOM     19  H12 UNL     1      -3.134   0.352  -2.905  1.00  0.00     0.274 HD
ATOM     20  H11 UNL     1      -4.227   1.610  -2.616  1.00  0.00     0.274 HD
ENDBRANCH  11  17
BRANCH  13  21
HETATM   21  N2  UNL     1      -4.653   0.556   1.873  1.00  0.00    -0.075 N 
ATOM     22  H23 UNL     1      -5.607   0.864   1.683  1.00  0.00     0.274 HD
ATOM     23  H22 UNL     1      -4.655  -0.291   1.305  1.00  0.00     0.274 HD
ATOM     24  H21 UNL     1      -4.506   0.353   2.862  1.00  0.00     0.274 HD
ENDBRANCH  13  21
ENDBRANCH   8   9
ENDBRANCH   1   8
BRANCH   7  25
HETATM   25  N6  UNL     1       1.200   1.307   2.083  1.00  0.00    -0.072 N 
ATOM     26  H63 UNL     1       0.716   2.181   1.876  1.00  0.00     0.274 HD
ATOM     27  H62 UNL     1       0.398   0.794   2.450  1.00  0.00     0.274 HD
ATOM     28  H61 UNL     1       1.947   1.420   2.768  1.00  0.00     0.274 HD
ENDBRANCH   7  25
BRANCH   3  29
HETATM   29  O3  UNL     1       2.684  -0.299  -2.960  1.00  0.00    -0.395 OA
ATOM     30  H3  UNL     1       3.562  -0.047  -3.221  1.00  0.00     0.210 HD
ENDBRANCH   3  29
BRANCH   4  31
HETATM   31  C12 UNL     1       4.859   0.247  -0.735  1.00  0.00     0.181 C 
HETATM   32  O4  UNL     1       5.341   0.627   0.340  1.00  0.00    -0.648 OA
HETATM   33  O5  UNL     1       5.394   0.664  -1.942  1.00  0.00    -0.648 OA
ENDBRANCH   4  31
BRANCH   5  34
HETATM   34  N3  UNL     1       3.166  -2.696   0.366  1.00  0.00    -0.247 N 
ATOM     35  H3  UNL     1       2.253  -3.122   0.526  1.00  0.00     0.197 HD
BRANCH  34  36
HETATM   36  N4  UNL     1       4.152  -3.370   0.055  1.00  0.00    -0.248 NA
BRANCH  36  37
HETATM   37  N5  UNL     1       5.040  -4.086  -0.456  1.00  0.00    -0.261 N 
ATOM     38  H52 UNL     1       4.464  -4.173  -1.293  1.00  0.00     0.193 HD
ATOM     39  H51 UNL     1       5.855  -4.643  -0.713  1.00  0.00     0.193 HD
ENDBRANCH  36  37
ENDBRANCH  34  36
ENDBRANCH   5  34
TORSDOF 11
