REMARK  2 active torsions:
REMARK  status: ('A' for Active; 'I' for Inactive)
REMARK    1  A    between atoms: C8_8  and  O1_9 
REMARK    2  A    between atoms: C16_19  and  O2_20 
ROOT
HETATM    1  C1  UNL     1       2.977   0.859   1.809  1.00  0.00     0.011 C 
HETATM    2  C2  UNL     1       1.614   0.559   1.127  1.00  0.00    -0.009 C 
HETATM    3  C3  UNL     1       1.813  -0.855   0.585  1.00  0.00    -0.005 C 
HETATM    4  C4  UNL     1       2.409  -0.327  -0.738  1.00  0.00     0.016 C 
HETATM    5  C5  UNL     1       1.203   0.393  -1.158  1.00  0.00    -0.023 A 
HETATM    6  C6  UNL     1       1.413   1.395  -0.087  1.00  0.00     0.006 A 
HETATM    7  C7  UNL     1       0.426   1.542  -1.033  1.00  0.00     0.031 A 
HETATM    8  C8  UNL     1      -0.992   1.578  -0.513  1.00  0.00     0.160 C 
HETATM    9  C9  UNL     1      -1.857   0.428  -0.838  1.00  0.00     0.286 C 
HETATM   10  N1  UNL     1      -2.686  -0.114   0.206  1.00  0.00     0.095 N 
HETATM   11  C10 UNL     1      -3.264   0.764   1.104  1.00  0.00     0.310 C 
HETATM   12  C11 UNL     1      -2.016  -1.297   0.804  1.00  0.00     0.280 C 
HETATM   13  C12 UNL     1      -0.687  -1.027   0.354  1.00  0.00     0.055 C 
HETATM   14  C13 UNL     1       0.572  -1.677   0.385  1.00  0.00    -0.001 C 
HETATM   15  C14 UNL     1       0.672  -2.083  -1.106  1.00  0.00     0.014 C 
HETATM   16  C15 UNL     1       0.345  -0.659  -1.608  1.00  0.00     0.032 C 
HETATM   17  C16 UNL     1      -1.035  -0.725  -1.130  1.00  0.00     0.101 C 
ENDROOT
BRANCH   8  18
HETATM   18  O1  UNL     1      -1.659   2.708  -1.069  1.00  0.00    -0.393 OA
ATOM     19  H1  UNL     1      -2.551   2.731  -0.742  1.00  0.00     0.210 HD
ENDBRANCH   8  18
BRANCH  17  20
HETATM   20  O2  UNL     1      -1.726  -1.655  -1.780  1.00  0.00    -0.387 OA
ATOM     21  H2  UNL     1      -1.186  -2.413  -1.972  1.00  0.00     0.210 HD
ENDBRANCH  17  20
TORSDOF 2
