REMARK  13 active torsions:
REMARK  status: ('A' for Active; 'I' for Inactive)
REMARK    1  A    between atoms: C2_2  and  N1_3 
REMARK       I    between atoms: C3_5  and  N2_6 
REMARK       I    between atoms: C3_5  and  N11_52 
REMARK       I    between atoms: C4_8  and  N4_10 
REMARK    2  A    between atoms: N4_10  and  C5_12 
REMARK    3  A    between atoms: C9_18  and  C10_19 
REMARK       I    between atoms: C10_19  and  N6_21 
REMARK    4  A    between atoms: N6_21  and  C11_23 
REMARK    5  A    between atoms: C11_23  and  C12_24 
REMARK    6  A    between atoms: C12_24  and  C13_25 
REMARK    7  A    between atoms: C13_25  and  C14_26 
REMARK    8  A    between atoms: C14_26  and  N7_27 
REMARK    9  A    between atoms: C18_34  and  N9_35 
REMARK       I    between atoms: N9_35  and  C19_37 
REMARK   10  A    between atoms: C19_37  and  O3_39 
REMARK   11  A    between atoms: O3_39  and  C20_40 
REMARK   12  A    between atoms: C20_40  and  C21_41 
REMARK   13  A    between atoms: C21_41  and  C22_42 
ROOT
HETATM    1  C5  UNL     1      -5.669   1.461   1.326  1.00  0.00     0.132 A 
HETATM    2  N5  UNL     1      -5.914   0.226   0.847  1.00  0.00    -0.350 N 
ATOM      3  H5  UNL     1      -6.815  -0.206   1.054  1.00  0.00     0.166 HD
HETATM    4  C6  UNL     1      -5.034  -0.460   0.114  1.00  0.00     0.103 A 
HETATM    5  C7  UNL     1      -3.826   0.091  -0.178  1.00  0.00     0.010 A 
HETATM    6  C8  UNL     1      -2.704  -0.335  -0.887  1.00  0.00     0.050 A 
HETATM    7  C9  UNL     1      -1.732   0.638  -0.863  1.00  0.00     0.102 A 
HETATM    8  N10 UNL     1      -2.228   1.643  -0.160  1.00  0.00    -0.350 N 
ATOM      9  H10 UNL     1      -1.734   2.514   0.032  1.00  0.00     0.166 HD
HETATM   10  C26 UNL     1      -3.482   1.359   0.271  1.00  0.00     0.070 A 
HETATM   11  C27 UNL     1      -4.444   2.024   1.032  1.00  0.00     0.105 A 
HETATM   12 CL1  UNL     1      -4.088   3.614   1.631  1.00  0.00    -0.078 Cl
ENDROOT
BRANCH   7  13
HETATM   13  C10 UNL     1      -0.384   0.548  -1.490  1.00  0.00     0.272 C 
HETATM   14  O1  UNL     1       0.295   1.583  -1.396  1.00  0.00    -0.266 OA
HETATM   15  N6  UNL     1       0.019  -0.635  -2.113  1.00  0.00    -0.332 N 
ATOM     16  H6  UNL     1      -0.682  -1.376  -2.103  1.00  0.00     0.168 HD
BRANCH  15  17
HETATM   17  C11 UNL     1       1.196  -0.976  -2.738  1.00  0.00     0.087 C 
BRANCH  17  18
HETATM   18  C12 UNL     1       2.503  -1.083  -2.081  1.00  0.00    -0.008 C 
BRANCH  18  19
HETATM   19  C13 UNL     1       3.198   0.045  -1.467  1.00  0.00     0.048 C 
BRANCH  19  20
HETATM   20  C14 UNL     1       4.489  -0.388  -0.817  1.00  0.00     0.129 C 
BRANCH  20  21
HETATM   21  N7  UNL     1       5.479  -1.039  -1.602  1.00  0.00    -0.349 N 
HETATM   22  C15 UNL     1       5.505  -2.486  -1.623  1.00  0.00     0.127 C 
HETATM   23  C16 UNL     1       5.780  -3.032  -2.961  1.00  0.00     0.047 C 
HETATM   24  C17 UNL     1       6.824  -2.262  -3.697  1.00  0.00     0.237 C 
HETATM   25  N8  UNL     1       7.952  -1.917  -2.881  1.00  0.00    -0.045 N 
HETATM   26  C18 UNL     1       7.882  -0.450  -2.540  1.00  0.00     0.381 C 
ATOM     27  H82 UNL     1       8.025  -2.505  -2.051  1.00  0.00     0.280 HD
ATOM     28  H81 UNL     1       8.838  -2.173  -3.316  1.00  0.00     0.280 HD
HETATM   29  C25 UNL     1       6.452  -0.206  -2.274  1.00  0.00     0.270 C 
HETATM   30  O4  UNL     1       5.962   0.893  -2.680  1.00  0.00    -0.269 OA
BRANCH  26  31
HETATM   31  N9  UNL     1       8.711  -0.378  -1.356  1.00  0.00    -0.301 N 
HETATM   32  C19 UNL     1      10.118  -0.369  -1.371  1.00  0.00     0.362 C 
HETATM   33  O2  UNL     1      10.776  -0.429  -2.480  1.00  0.00    -0.238 OA
ATOM     34  H9  UNL     1       8.244  -0.331  -0.450  1.00  0.00     0.167 HD
BRANCH  32  35
HETATM   35  O3  UNL     1      10.920  -0.303  -0.244  1.00  0.00    -0.304 OA
BRANCH  35  36
HETATM   36  C20 UNL     1      12.331  -0.319  -0.309  1.00  0.00     0.181 C 
BRANCH  36  37
HETATM   37  C21 UNL     1      12.873  -0.238   1.094  1.00  0.00     0.031 C 
BRANCH  37  38
HETATM   38  C22 UNL     1      12.513   1.026   1.819  1.00  0.00    -0.021 C 
HETATM   39  C23 UNL     1      11.033   1.257   1.987  1.00  0.00     0.009 C 
HETATM   40  C24 UNL     1      13.141   1.010   3.204  1.00  0.00     0.009 C 
ENDBRANCH  37  38
ENDBRANCH  36  37
ENDBRANCH  35  36
ENDBRANCH  32  35
ENDBRANCH  26  31
ENDBRANCH  20  21
ENDBRANCH  19  20
ENDBRANCH  18  19
ENDBRANCH  17  18
ENDBRANCH  15  17
ENDBRANCH   7  13
BRANCH   1  41
HETATM   41  N4  UNL     1      -6.549   2.086   2.036  1.00  0.00    -0.315 N 
HETATM   42  C4  UNL     1      -7.802   1.423   2.303  1.00  0.00     0.208 C 
HETATM   43  N2  UNL     1      -8.855   1.700   1.629  1.00  0.00    -0.164 N 
HETATM   44  N3  UNL     1      -7.901   0.432   3.328  1.00  0.00    -0.063 NA
HETATM   45  C3  UNL     1     -10.074   1.045   1.892  1.00  0.00     0.678 C 
ATOM     46  H2  UNL     1      -8.810   2.404   0.892  1.00  0.00     0.187 HD
HETATM   47  N1  UNL     1     -10.773   1.296   2.928  1.00  0.00    -0.226 N 
HETATM   48  N11 UNL     1     -10.520   0.075   0.950  1.00  0.00    -0.218 N 
ATOM     49  H1  UNL     1     -11.639   0.764   3.018  1.00  0.00     0.177 HD
HETATM   50  C28 UNL     1     -11.513  -0.924   1.273  1.00  0.00     0.141 C 
HETATM   51  C32 UNL     1      -9.989   0.039  -0.407  1.00  0.00     0.141 C 
HETATM   52  C29 UNL     1     -12.763  -0.625   0.478  1.00  0.00     0.020 C 
HETATM   53  C30 UNL     1     -12.417  -0.227  -0.925  1.00  0.00     0.003 C 
HETATM   54  C31 UNL     1     -11.012  -0.604  -1.305  1.00  0.00     0.020 C 
ATOM     55  H4  UNL     1      -6.363   3.022   2.397  1.00  0.00     0.170 HD
BRANCH  47  56
HETATM   56  C2  UNL     1     -10.503   2.221   3.975  1.00  0.00     0.133 C 
HETATM   57  C1  UNL     1     -11.707   3.057   4.357  1.00  0.00     0.027 C 
ENDBRANCH  47  56
ENDBRANCH   1  41
TORSDOF 13
