REMARK  5 active torsions:
REMARK  status: ('A' for Active; 'I' for Inactive)
REMARK    1  A    between atoms: O1_2  and  C2_3 
REMARK    2  A    between atoms: C2_3  and  C3_5 
REMARK    3  A    between atoms: C6_11  and  N3_12 
REMARK    4  A    between atoms: N3_12  and  N4_14 
REMARK    5  A    between atoms: C7_19  and  N6_20 
ROOT
HETATM    1  C3  UNL     1      -0.424   0.157  -0.130  1.00  0.00     0.121 A 
HETATM    2  C4  UNL     1      -0.234  -1.206  -0.088  1.00  0.00     0.149 A 
HETATM    3  C5  UNL     1      -1.374  -2.105  -0.010  1.00  0.00     0.119 C 
HETATM    4  N1  UNL     1      -2.271  -2.841   0.051  1.00  0.00    -0.190 NA
HETATM    5  N2  UNL     1       1.028  -1.698  -0.119  1.00  0.00    -0.179 N 
ATOM      6  H2  UNL     1       1.186  -2.705  -0.089  1.00  0.00     0.185 HD
HETATM    7  C6  UNL     1       2.059  -0.861  -0.189  1.00  0.00     0.699 A 
HETATM    8  N5  UNL     1       1.898   0.466  -0.232  1.00  0.00    -0.175 N 
ATOM      9  H5  UNL     1       2.717   1.072  -0.287  1.00  0.00     0.186 HD
HETATM   10  C7  UNL     1       0.671   1.009  -0.204  1.00  0.00     0.134 A 
ENDROOT
BRANCH   1  11
HETATM   11  C2  UNL     1      -1.750   0.755  -0.101  1.00  0.00     0.299 C 
HETATM   12  O2  UNL     1      -1.860   2.015  -0.143  1.00  0.00    -0.259 OA
BRANCH  11  13
HETATM   13  O1  UNL     1      -2.939   0.068  -0.029  1.00  0.00    -0.322 OA
HETATM   14  C1  UNL     1      -4.208   0.697  -0.003  1.00  0.00     0.213 C 
ENDBRANCH  11  13
ENDBRANCH   1  11
BRANCH  10  15
HETATM   15  N6  UNL     1       0.496   2.288  -0.244  1.00  0.00    -0.384 N 
ATOM     16  H62 UNL     1      -0.437   2.701  -0.223  1.00  0.00     0.157 HD
ATOM     17  H61 UNL     1       1.300   2.913  -0.298  1.00  0.00     0.157 HD
ENDBRANCH  10  15
BRANCH   7  18
HETATM   18  N3  UNL     1       3.251  -1.356  -0.218  1.00  0.00    -0.138 N 
ATOM     19  H3  UNL     1       3.356  -2.370  -0.186  1.00  0.00     0.205 HD
BRANCH  18  20
HETATM   20  N4  UNL     1       4.402  -0.573  -0.291  1.00  0.00    -0.331 N 
ATOM     21  H42 UNL     1       4.279   0.439  -0.322  1.00  0.00     0.177 HD
ATOM     22  H41 UNL     1       5.344  -0.964  -0.314  1.00  0.00     0.177 HD
ENDBRANCH  18  20
ENDBRANCH   7  18
TORSDOF 5
