REMARK  6 active torsions:
REMARK  status: ('A' for Active; 'I' for Inactive)
REMARK    1  A    between atoms: C3_3  and  O1_4 
REMARK    2  A    between atoms: C5_10  and  C6_11 
REMARK    3  A    between atoms: C5_10  and  C8_13 
REMARK    4  A    between atoms: C8_13  and  O3_15 
REMARK    5  A    between atoms: O3_15  and  C9_16 
REMARK    6  A    between atoms: C11_18  and  C12_19 
ROOT
HETATM    1  C1  UNL     1       6.190  -2.035  -1.172  1.00  0.00     0.017 C 
HETATM    2  C2  UNL     1       5.140  -1.569  -0.935  1.00  0.00    -0.048 C 
HETATM    3  C3  UNL     1       3.861  -1.013  -0.582  1.00  0.00     0.256 C 
HETATM    4  C4  UNL     1       3.962  -0.366   0.821  1.00  0.00     0.319 C 
HETATM    5  N1  UNL     1       2.706   0.310   0.839  1.00  0.00    -0.027 N 
ATOM      6  H11 UNL     1       2.687   1.097   1.487  1.00  0.00     0.281 HD
ATOM      7  H12 UNL     1       1.965  -0.239   1.275  1.00  0.00     0.281 HD
HETATM    8  C5  UNL     1       2.399   0.693  -0.524  1.00  0.00     0.318 C 
HETATM    9  O4  UNL     1       3.434   0.079  -1.293  1.00  0.00    -0.297 OA
ENDROOT
BRANCH   3  10
HETATM   10  O1  UNL     1       2.885  -1.989  -0.475  1.00  0.00    -0.354 OA
ATOM     11  H1  UNL     1       2.040  -1.622  -0.242  1.00  0.00     0.214 HD
ENDBRANCH   3  10
BRANCH   8  12
HETATM   12  C6  UNL     1       2.446   2.137  -0.711  1.00  0.00     0.076 C 
HETATM   13  C7  UNL     1       1.528   2.965   0.110  1.00  0.00     0.010 C 
ENDBRANCH   8  12
BRANCH   8  14
HETATM   14  C8  UNL     1       1.092   0.010  -0.889  1.00  0.00     0.328 C 
HETATM   15  O2  UNL     1       0.940  -0.754  -1.842  1.00  0.00    -0.259 OA
BRANCH  14  16
HETATM   16  O3  UNL     1       0.074   0.283  -0.042  1.00  0.00    -0.280 OA
BRANCH  16  17
HETATM   17  C9  UNL     1      -1.199  -0.103   0.117  1.00  0.00     0.054 C 
HETATM   18  C10 UNL     1      -2.266   0.645   0.293  1.00  0.00     0.018 C 
HETATM   19  C11 UNL     1      -3.665   0.220   0.496  1.00  0.00     0.075 C 
HETATM   20  C13 UNL     1      -3.849  -1.282   0.508  1.00  0.00     0.016 C 
HETATM   21  C14 UNL     1      -2.592  -1.996   0.975  1.00  0.00     0.007 C 
HETATM   22  C15 UNL     1      -1.442  -1.616   0.083  1.00  0.00     0.065 C 
BRANCH  19  23
HETATM   23  C12 UNL     1      -4.653   0.893  -0.337  1.00  0.00     0.094 C 
HETATM   24  N2  UNL     1      -5.574   1.662   0.249  1.00  0.00    -0.391 N 
ATOM     25  H22 UNL     1      -5.497   1.685   1.266  1.00  0.00     0.157 HD
ATOM     26  H21 UNL     1      -6.266   2.133  -0.334  1.00  0.00     0.157 HD
HETATM   27  N3  UNL     1      -4.760   0.861  -1.747  1.00  0.00    -0.087 NA
ENDBRANCH  19  23
ENDBRANCH  16  17
ENDBRANCH  14  16
ENDBRANCH   8  14
TORSDOF 6
