REMARK  8 active torsions:
REMARK  status: ('A' for Active; 'I' for Inactive)
REMARK    1  A    between atoms: C5_7  and  C6_8 
REMARK    2  A    between atoms: C6_8  and  C7_9 
REMARK    3  A    between atoms: C7_9  and  C8_10 
REMARK    4  A    between atoms: C9_11  and  C10_12 
REMARK    5  A    between atoms: C10_12  and  N2_13 
REMARK    6  A    between atoms: N2_13  and  C11_16 
REMARK    7  A    between atoms: C11_16  and  C12_17 
REMARK    8  A    between atoms: C12_17  and  C13_18 
ROOT
HETATM    1  C11 UNL     1      -0.206  -1.034   1.423  1.00  0.00     0.234 C 
ENDROOT
BRANCH   1   2
HETATM    2  N2  UNL     1       1.175  -1.543   1.445  1.00  0.00    -0.065 N 
ATOM      3  H22 UNL     1       1.308  -2.250   0.721  1.00  0.00     0.278 HD
ATOM      4  H21 UNL     1       1.333  -2.115   2.275  1.00  0.00     0.278 HD
BRANCH   2   5
HETATM    5  C10 UNL     1       2.165  -0.530   1.341  1.00  0.00     0.325 C 
BRANCH   5   6
HETATM    6  C9  UNL     1       3.493  -1.119   1.002  1.00  0.00    -0.079 C 
HETATM    7  C8  UNL     1       4.536  -1.605   0.687  1.00  0.00    -0.101 C 
BRANCH   7   8
HETATM    8  C7  UNL     1       5.768  -2.210   0.265  1.00  0.00     0.122 C 
BRANCH   8   9
HETATM    9  C6  UNL     1       6.938  -1.442   0.666  1.00  0.00    -0.001 C 
BRANCH   9  10
HETATM   10  C5  UNL     1       7.216  -0.195   0.313  1.00  0.00    -0.012 A 
HETATM   11  C2  UNL     1       8.329   0.503   0.705  1.00  0.00     0.032 A 
HETATM   12  C1  UNL     1       9.310   0.077   1.465  1.00  0.00     0.044 C 
HETATM   13  N1  UNL     1       8.248   1.737   0.145  1.00  0.00    -0.366 N 
HETATM   14  C3  UNL     1       7.131   1.836  -0.579  1.00  0.00     0.089 A 
ATOM     15  H1  UNL     1       8.939   2.479   0.260  1.00  0.00     0.165 HD
HETATM   16  C4  UNL     1       6.455   0.637  -0.497  1.00  0.00     0.030 A 
ENDBRANCH   9  10
ENDBRANCH   8   9
ENDBRANCH   7   8
ENDBRANCH   5   6
ENDBRANCH   2   5
ENDBRANCH   1   2
BRANCH   1  17
HETATM   17  C12 UNL     1      -0.441  -0.594   0.024  1.00  0.00     0.039 C 
BRANCH  17  18
HETATM   18  C13 UNL     1      -1.772  -0.032  -0.334  1.00  0.00    -0.012 C 
HETATM   19  C14 UNL     1      -1.663   0.326  -1.811  1.00  0.00     0.018 C 
HETATM   20  C15 UNL     1      -2.124   1.260   0.387  1.00  0.00     0.140 C 
HETATM   21  N3  UNL     1      -3.299   1.722  -0.382  1.00  0.00    -0.306 N 
HETATM   22  C16 UNL     1      -4.011   2.542  -1.259  1.00  0.00     0.324 A 
HETATM   23  C18 UNL     1      -4.487   0.906  -0.217  1.00  0.00     0.120 A 
HETATM   24  O1  UNL     1      -3.683   3.628  -1.832  1.00  0.00    -0.247 OA
HETATM   25  N4  UNL     1      -5.144   1.689  -1.212  1.00  0.00    -0.311 N 
HETATM   26  C17 UNL     1      -6.389   1.746  -1.941  1.00  0.00     0.157 C 
HETATM   27  C19 UNL     1      -5.116   1.255   1.145  1.00  0.00     0.064 C 
HETATM   28  C20 UNL     1      -4.241  -0.539  -0.429  1.00  0.00     0.011 C 
HETATM   29  C21 UNL     1      -4.678  -1.003  -1.798  1.00  0.00     0.020 C 
HETATM   30  C22 UNL     1      -5.188  -1.277   0.543  1.00  0.00     0.020 C 
HETATM   31  C23 UNL     1      -2.853  -1.005  -0.056  1.00  0.00     0.079 C 
HETATM   32 BR1  UNL     1      -2.387  -2.685  -0.889  1.00  0.00    -0.089 Br
ENDBRANCH  17  18
ENDBRANCH   1  17
TORSDOF 8
