REMARK  7 active torsions:
REMARK  status: ('A' for Active; 'I' for Inactive)
REMARK    1  A    between atoms: N1_2  and  C4_5 
REMARK    2  A    between atoms: C4_5  and  C5_6 
REMARK    3  A    between atoms: C5_6  and  C6_7 
REMARK    4  A    between atoms: C6_7  and  N2_8 
REMARK    5  A    between atoms: N2_8  and  C7_10 
REMARK    6  A    between atoms: C7_10  and  C8_11 
REMARK    7  A    between atoms: C8_11  and  C9_12 
REMARK       I    between atoms: N4_27  and  C21_29 
ROOT
HETATM    1  C7  UNL     1      -0.730   1.381   1.453  1.00  0.00     0.080 C 
HETATM    2  N4  UNL     1       0.036   2.287   0.967  1.00  0.00    -0.321 N 
ATOM      3  H4  UNL     1       0.997   2.056   0.714  1.00  0.00     0.169 HD
HETATM    4  C21 UNL     1      -0.441   3.597   0.780  1.00  0.00     0.187 C 
HETATM    5  N5  UNL     1      -0.836   4.314   1.778  1.00  0.00    -0.373 N 
ATOM      6  H51 UNL     1      -1.182   5.264   1.642  1.00  0.00     0.158 HD
ATOM      7  H52 UNL     1      -0.812   3.947   2.729  1.00  0.00     0.158 HD
HETATM    8  N6  UNL     1      -0.474   4.106  -0.540  1.00  0.00    -0.064 NA
ENDROOT
BRANCH   1   9
HETATM    9  N2  UNL     1      -2.058   1.722   1.796  1.00  0.00    -0.380 N 
ATOM     10  H2  UNL     1      -2.225   2.008   2.761  1.00  0.00     0.160 HD
BRANCH   9  11
HETATM   11  C6  UNL     1      -3.189   1.705   0.923  1.00  0.00     0.122 C 
BRANCH  11  12
HETATM   12  C5  UNL     1      -3.605   0.319   0.495  1.00  0.00     0.047 C 
BRANCH  12  13
HETATM   13  C4  UNL     1      -4.817   0.455  -0.417  1.00  0.00     0.237 C 
BRANCH  13  14
HETATM   14  N1  UNL     1      -5.242  -0.869  -0.840  1.00  0.00    -0.079 N 
HETATM   15  C1  UNL     1      -6.528  -0.715  -1.503  1.00  0.00     0.271 C 
HETATM   16  C2  UNL     1      -4.330  -1.496  -1.751  1.00  0.00     0.271 C 
HETATM   17  C3  UNL     1      -5.463  -1.697   0.333  1.00  0.00     0.271 C 
ENDBRANCH  13  14
ENDBRANCH  12  13
ENDBRANCH  11  12
ENDBRANCH   9  11
ENDBRANCH   1   9
BRANCH   1  18
HETATM   18  C8  UNL     1      -0.263   0.003   1.656  1.00  0.00     0.093 C 
BRANCH  18  19
HETATM   19  C9  UNL     1       1.212  -0.154   1.341  1.00  0.00     0.073 C 
HETATM   20  C10 UNL     1       1.576   0.172   0.031  1.00  0.00    -0.101 C 
HETATM   21  C11 UNL     1       1.875   0.455  -1.012  1.00  0.00    -0.106 C 
HETATM   22  C12 UNL     1       2.256   0.836  -2.306  1.00  0.00     0.094 C 
HETATM   23  C13 UNL     1       3.206  -0.154  -2.989  1.00  0.00     0.012 C 
HETATM   24  C14 UNL     1       4.184  -0.735  -1.991  1.00  0.00     0.001 C 
HETATM   25  C15 UNL     1       5.170   0.262  -1.473  1.00  0.00     0.000 C 
HETATM   26  C16 UNL     1       6.060  -0.440  -0.475  1.00  0.00     0.009 C 
HETATM   27  C17 UNL     1       5.378  -0.719   0.838  1.00  0.00     0.103 C 
HETATM   28  C18 UNL     1       4.997  -2.164   0.956  1.00  0.00     0.217 C 
HETATM   29  O1  UNL     1       5.832  -2.985   0.476  1.00  0.00    -0.274 OA
HETATM   30  N3  UNL     1       3.808  -2.610   1.551  1.00  0.00    -0.361 N 
HETATM   31  C19 UNL     1       2.878  -1.787   2.291  1.00  0.00     0.123 C 
ATOM     32  H3  UNL     1       3.580  -3.599   1.453  1.00  0.00     0.162 HD
HETATM   33  C20 UNL     1       1.544  -1.634   1.582  1.00  0.00     0.037 C 
ENDBRANCH  18  19
ENDBRANCH   1  18
TORSDOF 7
