REMARK  8 active torsions:
REMARK  status: ('A' for Active; 'I' for Inactive)
REMARK    1  A    between atoms: N1_2  and  C2_4 
REMARK    2  A    between atoms: C3_5  and  C4_6 
REMARK    3  A    between atoms: C4_6  and  S1_7 
REMARK    4  A    between atoms: C6_10  and  N2_11 
REMARK    5  A    between atoms: N2_11  and  C7_13 
REMARK    6  A    between atoms: C7_13  and  C9_15 
REMARK    7  A    between atoms: C9_15  and  O1_16 
REMARK    8  A    between atoms: C11_21  and  O2_22 
ROOT
HETATM    1  C2  UNL     1      -1.802  -0.512  -0.321  1.00  0.00     0.125 C 
HETATM    2  C3  UNL     1      -1.309   0.640   0.498  1.00  0.00     0.084 C 
HETATM    3  S2  UNL     1       0.088  -0.056   1.508  1.00  0.00    -0.130 SA
HETATM    4  C6  UNL     1       1.308  -0.444   0.191  1.00  0.00     0.216 C 
HETATM    5  C10 UNL     1       0.579  -1.255  -0.843  1.00  0.00     0.299 C 
HETATM    6  F1  UNL     1       1.264  -2.473  -0.981  1.00  0.00    -0.200 F 
HETATM    7  F2  UNL     1       0.505  -0.699  -2.091  1.00  0.00    -0.200 F 
HETATM    8  C11 UNL     1      -0.813  -1.645  -0.408  1.00  0.00     0.216 C 
ENDROOT
BRANCH   4   9
HETATM    9  N2  UNL     1       2.529  -0.893   0.659  1.00  0.00    -0.398 N 
ATOM     10  H2  UNL     1       2.544  -1.770   1.180  1.00  0.00     0.155 HD
BRANCH   9  11
HETATM   11  C7  UNL     1       3.739  -0.233   0.469  1.00  0.00     0.097 C 
HETATM   12  C8  UNL     1       3.665   1.098   1.257  1.00  0.00     0.034 C 
BRANCH  11  13
HETATM   13  C9  UNL     1       4.226   0.083  -0.894  1.00  0.00     0.188 C 
BRANCH  13  14
HETATM   14  O1  UNL     1       3.410   0.923  -1.637  1.00  0.00    -0.399 OA
ATOM     15  H1  UNL     1       3.722   1.126  -2.511  1.00  0.00     0.209 HD
ENDBRANCH  13  14
ENDBRANCH  11  13
ENDBRANCH   9  11
ENDBRANCH   4   9
BRANCH   2  16
HETATM   16  C4  UNL     1      -2.236   1.239   1.482  1.00  0.00     0.090 C 
BRANCH  16  17
HETATM   17  S1  UNL     1      -3.737   1.939   0.832  1.00  0.00    -0.172 SA
HETATM   18  C5  UNL     1      -3.492   3.405  -0.170  1.00  0.00     0.089 C 
ENDBRANCH  16  17
ENDBRANCH   2  16
BRANCH   8  19
HETATM   19  O2  UNL     1      -1.267  -2.526  -1.384  1.00  0.00    -0.387 OA
ATOM     20  H2  UNL     1      -0.643  -3.240  -1.439  1.00  0.00     0.210 HD
ENDBRANCH   8  19
BRANCH   1  21
HETATM   21  N1  UNL     1      -3.050  -0.952   0.185  1.00  0.00    -0.418 N 
HETATM   22  C1  UNL     1      -3.338  -2.341   0.111  1.00  0.00     0.140 C 
ATOM     23  H1  UNL     1      -3.718  -0.295   0.588  1.00  0.00     0.153 HD
ENDBRANCH   1  21
TORSDOF 8
