REMARK  5 active torsions:
REMARK  status: ('A' for Active; 'I' for Inactive)
REMARK    1  A    between atoms: C3_7  and  C4_8 
REMARK    2  A    between atoms: C4_8  and  N3_9 
REMARK       I    between atoms: N3_9  and  C5_11 
REMARK    3  A    between atoms: C5_11  and  C6_13 
REMARK    4  A    between atoms: C6_13  and  C7_15 
REMARK    5  A    between atoms: C7_15  and  S1_16 
ROOT
HETATM    1  C4  UNL     1      -1.078   1.445   0.163  1.00  0.00     0.182 C 
ENDROOT
BRANCH   1   2
HETATM    2  C3  UNL     1      -2.213   0.473   0.261  1.00  0.00     0.063 A 
HETATM    3  N2  UNL     1      -2.207  -0.815   0.601  1.00  0.00    -0.336 N 
HETATM    4  C2  UNL     1      -3.481  -1.304   0.572  1.00  0.00     0.156 A 
ATOM      5  H2  UNL     1      -1.376  -1.354   0.846  1.00  0.00     0.168 HD
HETATM    6  N1  UNL     1      -4.271  -0.281   0.206  1.00  0.00    -0.324 N 
HETATM    7 BR1  UNL     1      -4.011  -3.088   0.976  1.00  0.00    -0.010 Br
HETATM    8  C1  UNL     1      -5.709  -0.436   0.069  1.00  0.00     0.159 C 
HETATM    9  C9  UNL     1      -3.544   0.812   0.007  1.00  0.00     0.108 A 
HETATM   10 BR3  UNL     1      -4.193   2.520  -0.522  1.00  0.00    -0.029 Br
ENDBRANCH   1   2
BRANCH   1  11
HETATM   11  N3  UNL     1       0.203   0.864   0.439  1.00  0.00    -0.354 N 
HETATM   12  C5  UNL     1       0.763  -0.151  -0.387  1.00  0.00     0.233 C 
HETATM   13  O1  UNL     1       0.095  -0.524  -1.385  1.00  0.00    -0.272 OA
ATOM     14  H3  UNL     1       0.729   1.187   1.251  1.00  0.00     0.162 HD
BRANCH  12  15
HETATM   15  C6  UNL     1       2.070  -0.775  -0.129  1.00  0.00     0.161 C 
HETATM   16 BR2  UNL     1       2.133  -1.646   1.600  1.00  0.00    -0.080 Br
BRANCH  15  17
HETATM   17  C7  UNL     1       3.200   0.250  -0.143  1.00  0.00     0.133 C 
BRANCH  17  18
HETATM   18  S1  UNL     1       4.702  -0.643   0.180  1.00  0.00     0.012 S 
HETATM   19  C8  UNL     1       6.095   0.457   0.188  1.00  0.00     0.127 C 
HETATM   20  O2  UNL     1       4.928  -1.816  -0.981  1.00  0.00    -0.258 OA
ENDBRANCH  17  18
ENDBRANCH  15  17
ENDBRANCH  12  15
ENDBRANCH   1  11
TORSDOF 5
