REMARK  5 active torsions:
REMARK  status: ('A' for Active; 'I' for Inactive)
REMARK    1  A    between atoms: C2_2  and  C4_4 
REMARK    2  A    between atoms: C4_4  and  N1_5 
REMARK    3  A    between atoms: C4_4  and  C5_9 
REMARK    4  A    between atoms: C5_9  and  N2_10 
REMARK    5  A    between atoms: C5_9  and  N3_14 
ROOT
HETATM    1  C5  UNL     1       0.042   0.417  -0.021  1.00  0.00     0.447 C 
ENDROOT
BRANCH   1   2
HETATM    2  C4  UNL     1      -1.040  -0.526   0.237  1.00  0.00     0.247 C 
BRANCH   2   3
HETATM    3  C2  UNL     1      -2.275  -0.184  -0.545  1.00  0.00     0.012 C 
HETATM    4  C1  UNL     1      -3.429  -1.125  -0.171  1.00  0.00     0.012 C 
HETATM    5  C3  UNL     1      -2.819   1.191  -0.354  1.00  0.00     0.012 C 
ENDBRANCH   2   3
BRANCH   2   6
HETATM    6  N1  UNL     1      -0.713  -1.909  -0.081  1.00  0.00    -0.071 N 
ATOM      7  H13 UNL     1      -1.486  -2.554   0.085  1.00  0.00     0.274 HD
ATOM      8  H12 UNL     1      -0.616  -2.080  -1.082  1.00  0.00     0.274 HD
ATOM      9  H11 UNL     1       0.126  -2.141   0.450  1.00  0.00     0.274 HD
ENDBRANCH   2   6
ENDBRANCH   1   2
BRANCH   1  10
HETATM   10  N2  UNL     1      -0.339   1.750   0.366  1.00  0.00    -0.045 N 
ATOM     11  H23 UNL     1      -1.208   2.040  -0.083  1.00  0.00     0.277 HD
ATOM     12  H22 UNL     1      -0.649   1.787   1.337  1.00  0.00     0.277 HD
ATOM     13  H21 UNL     1       0.418   2.410   0.186  1.00  0.00     0.277 HD
ENDBRANCH   1  10
BRANCH   1  14
HETATM   14  N3  UNL     1       1.313   0.151   0.585  1.00  0.00     0.121 N 
HETATM   15  C6  UNL     1       2.196   1.216   0.137  1.00  0.00     0.275 C 
HETATM   16  C7  UNL     1       3.597   0.735   0.267  1.00  0.00     0.032 C 
HETATM   17  C8  UNL     1       3.453  -0.752   0.355  1.00  0.00     0.032 C 
HETATM   18  C9  UNL     1       1.961  -1.039   0.164  1.00  0.00     0.275 C 
ENDBRANCH   1  14
TORSDOF 5
