REMARK  19 active torsions:
REMARK  status: ('A' for Active; 'I' for Inactive)
REMARK    1  A    between atoms: C2_2  and  C3_3 
REMARK    2  A    between atoms: C3_3  and  C4_4 
REMARK    3  A    between atoms: C4_4  and  C5_5 
REMARK    4  A    between atoms: C4_4  and  N6_31 
REMARK    5  A    between atoms: C5_5  and  N1_6 
REMARK       I    between atoms: N1_6  and  C6_8 
REMARK    6  A    between atoms: N3_10  and  C7_12 
REMARK    7  A    between atoms: C7_12  and  C8_13 
REMARK    8  A    between atoms: C8_13  and  C9_14 
REMARK    9  A    between atoms: C9_14  and  C10_15 
REMARK   10  A    between atoms: C10_15  and  C11_16 
REMARK   11  A    between atoms: C11_16  and  N4_17 
REMARK   12  A    between atoms: N4_17  and  C12_18 
REMARK   13  A    between atoms: C12_18  and  C13_19 
REMARK   14  A    between atoms: C13_19  and  C14_20 
REMARK   15  A    between atoms: C19_25  and  N5_26 
REMARK       I    between atoms: N6_31  and  C21_33 
REMARK   16  A    between atoms: C21_33  and  C22_35 
REMARK   17  A    between atoms: C22_35  and  N7_36 
REMARK   18  A    between atoms: N7_36  and  C23_38 
REMARK   19  A    between atoms: N8_39  and  N9_41 
ROOT
HETATM    1  N1  UNL     1       2.404  -0.091  -0.980  1.00  0.00    -0.363 N 
ATOM      2  H1  UNL     1       1.909   0.780  -1.171  1.00  0.00     0.162 HD
HETATM    3  C6  UNL     1       1.699  -1.200  -0.403  1.00  0.00     0.184 C 
HETATM    4  N2  UNL     1       1.243  -2.274  -1.235  1.00  0.00    -0.064 NA
HETATM    5  N3  UNL     1       1.494  -1.215   0.846  1.00  0.00    -0.365 N 
ATOM      6  H3  UNL     1       1.857  -0.414   1.363  1.00  0.00     0.162 HD
ENDROOT
BRANCH   1   7
HETATM    7  C5  UNL     1       3.802  -0.199  -1.291  1.00  0.00     0.147 C 
BRANCH   7   8
HETATM    8  C4  UNL     1       4.784  -0.295  -0.227  1.00  0.00     0.102 C 
BRANCH   8   9
HETATM    9  C3  UNL     1       5.085   0.703   0.774  1.00  0.00     0.026 C 
BRANCH   9  10
HETATM   10  C2  UNL     1       4.174   1.293   1.743  1.00  0.00    -0.002 C 
HETATM   11  C1  UNL     1       3.058   2.168   1.248  1.00  0.00     0.005 C 
ENDBRANCH   9  10
ENDBRANCH   8   9
BRANCH   8  12
HETATM   12  N6  UNL     1       6.096  -0.550  -0.928  1.00  0.00    -0.353 N 
HETATM   13  C21 UNL     1       6.763  -1.776  -0.850  1.00  0.00     0.235 C 
HETATM   14  O1  UNL     1       6.262  -2.710  -0.180  1.00  0.00    -0.272 OA
ATOM     15  H6  UNL     1       6.512   0.201  -1.480  1.00  0.00     0.163 HD
BRANCH  13  16
HETATM   16  C22 UNL     1       8.042  -2.006  -1.534  1.00  0.00     0.223 C 
BRANCH  16  17
HETATM   17  N7  UNL     1       8.568  -0.878  -2.260  1.00  0.00    -0.376 N 
ATOM     18  H7  UNL     1       8.597  -0.893  -3.279  1.00  0.00     0.160 HD
BRANCH  17  19
HETATM   19  C23 UNL     1       9.046   0.255  -1.548  1.00  0.00     0.194 C 
HETATM   20  N8  UNL     1       9.460   0.171  -0.323  1.00  0.00    -0.283 N 
ATOM     21  H8  UNL     1       9.437  -0.741   0.133  1.00  0.00     0.189 HD
BRANCH  20  22
HETATM   22  N9  UNL     1       9.929   1.248   0.395  1.00  0.00    -0.248 N 
HETATM   23  N10 UNL     1       9.208   2.049   1.044  1.00  0.00    -0.331 N 
ATOM     24 2H10 UNL     1       8.203   1.873   1.026  1.00  0.00     0.178 HD
ATOM     25 1H10 UNL     1       9.555   2.847   1.576  1.00  0.00     0.178 HD
ATOM     26  H9  UNL     1      10.936   1.408   0.401  1.00  0.00     0.207 HD
ENDBRANCH  20  22
ENDBRANCH  17  19
ENDBRANCH  16  17
ENDBRANCH  13  16
ENDBRANCH   8  12
ENDBRANCH   7   8
ENDBRANCH   1   7
BRANCH   5  27
HETATM   27  C7  UNL     1       0.820  -2.207   1.631  1.00  0.00     0.122 C 
BRANCH  27  28
HETATM   28  C8  UNL     1      -0.623  -2.362   1.295  1.00  0.00     0.020 C 
BRANCH  28  29
HETATM   29  C9  UNL     1      -1.400  -1.075   1.488  1.00  0.00     0.003 C 
BRANCH  29  30
HETATM   30  C10 UNL     1      -2.870  -1.310   1.119  1.00  0.00     0.028 C 
BRANCH  30  31
HETATM   31  C11 UNL     1      -3.567   0.007   1.328  1.00  0.00     0.237 C 
BRANCH  31  32
HETATM   32  N4  UNL     1      -4.966   0.004   1.016  1.00  0.00    -0.065 N 
HETATM   33  C17 UNL     1      -5.701   0.182   2.275  1.00  0.00     0.239 C 
HETATM   34  C18 UNL     1      -7.090  -0.246   1.939  1.00  0.00     0.062 C 
HETATM   35  C19 UNL     1      -6.911  -1.324   0.918  1.00  0.00     0.211 C 
HETATM   36  C20 UNL     1      -5.452  -1.223   0.454  1.00  0.00     0.270 C 
BRANCH  32  37
HETATM   37  C12 UNL     1      -5.375   1.100   0.171  1.00  0.00     0.238 C 
BRANCH  37  38
HETATM   38  C13 UNL     1      -4.687   1.197  -1.146  1.00  0.00     0.032 C 
BRANCH  38  39
HETATM   39  C14 UNL     1      -5.189   2.384  -1.960  1.00  0.00    -0.021 C 
HETATM   40  C15 UNL     1      -4.968   3.690  -1.263  1.00  0.00     0.009 C 
HETATM   41  C16 UNL     1      -4.440   2.358  -3.277  1.00  0.00     0.009 C 
ENDBRANCH  38  39
ENDBRANCH  37  38
ENDBRANCH  32  37
BRANCH  35  42
HETATM   42  N5  UNL     1      -7.829  -1.182  -0.181  1.00  0.00    -0.073 N 
ATOM     43  H53 UNL     1      -8.794  -1.138   0.146  1.00  0.00     0.274 HD
ATOM     44  H52 UNL     1      -7.760  -0.256  -0.604  1.00  0.00     0.274 HD
ATOM     45  H51 UNL     1      -7.707  -1.917  -0.877  1.00  0.00     0.274 HD
ENDBRANCH  35  42
ENDBRANCH  31  32
ENDBRANCH  30  31
ENDBRANCH  29  30
ENDBRANCH  28  29
ENDBRANCH  27  28
ENDBRANCH   5  27
TORSDOF 19
