REMARK  5 active torsions:
REMARK  status: ('A' for Active; 'I' for Inactive)
REMARK       I    between atoms: C1_2  and  N1_3 
REMARK    1  A    between atoms: C1_2  and  C13_20 
REMARK    2  A    between atoms: N1_3  and  C2_5 
REMARK    3  A    between atoms: C13_20  and  N4_21 
REMARK    4  A    between atoms: C13_20  and  C19_28 
REMARK    5  A    between atoms: N4_21  and  C14_23 
ROOT
HETATM    1  C2  UNL     1       1.102  -0.177   0.210  1.00  0.00     0.059 A 
HETATM    2  C3  UNL     1       1.660   1.071   0.139  1.00  0.00     0.034 A 
HETATM    3  C4  UNL     1       3.013   1.258   0.039  1.00  0.00     0.034 A 
HETATM    4  C5  UNL     1       3.843   0.160   0.007  1.00  0.00     0.064 A 
HETATM    5  C6  UNL     1       3.346  -1.114   0.073  1.00  0.00     0.085 A 
HETATM    6  N2  UNL     1       4.373  -2.018   0.027  1.00  0.00    -0.343 N 
ATOM      7  H2  UNL     1       4.295  -3.035   0.058  1.00  0.00     0.167 HD
HETATM    8  C7  UNL     1       5.523  -1.287  -0.068  1.00  0.00     0.084 A 
HETATM    9  N3  UNL     1       5.198   0.009  -0.079  1.00  0.00    -0.335 N 
HETATM   10  C8  UNL     1       6.204   1.047  -0.172  1.00  0.00     0.130 C 
HETATM   11  C9  UNL     1       7.345   0.577  -1.023  1.00  0.00     0.021 C 
HETATM   12  C10 UNL     1       7.912  -0.731  -0.571  1.00  0.00     0.009 C 
HETATM   13  C11 UNL     1       6.930  -1.752  -0.140  1.00  0.00     0.076 C 
HETATM   14  C12 UNL     1       1.988  -1.275   0.173  1.00  0.00     0.089 A 
HETATM   15 CL1  UNL     1       1.303  -2.903   0.256  1.00  0.00    -0.079 Cl
ENDROOT
BRANCH   1  16
HETATM   16  N1  UNL     1      -0.284  -0.429   0.338  1.00  0.00    -0.324 N 
HETATM   17  C1  UNL     1      -1.338   0.477   0.370  1.00  0.00     0.245 C 
HETATM   18  O1  UNL     1      -1.190   1.701   0.269  1.00  0.00    -0.271 OA
ATOM     19  H1  UNL     1      -0.546  -1.411   0.418  1.00  0.00     0.169 HD
BRANCH  17  20
HETATM   20  C13 UNL     1      -2.777  -0.010   0.536  1.00  0.00     0.174 C 
BRANCH  20  21
HETATM   21  N4  UNL     1      -3.603   0.941  -0.117  1.00  0.00    -0.405 N 
ATOM     22  H4  UNL     1      -3.199   1.644  -0.736  1.00  0.00     0.154 HD
BRANCH  21  23
HETATM   23  C14 UNL     1      -5.000   0.893   0.110  1.00  0.00     0.077 C 
HETATM   24  C15 UNL     1      -5.651   1.959  -0.744  1.00  0.00     0.024 C 
HETATM   25  C16 UNL     1      -6.654   1.257  -1.620  1.00  0.00     0.002 C 
HETATM   26  C17 UNL     1      -6.151  -0.167  -1.675  1.00  0.00     0.002 C 
HETATM   27  C18 UNL     1      -5.656  -0.407  -0.273  1.00  0.00     0.024 C 
ENDBRANCH  21  23
ENDBRANCH  20  21
BRANCH  20  28
HETATM   28  C19 UNL     1      -3.036  -0.107   2.014  1.00  0.00     0.017 A 
HETATM   29  C20 UNL     1      -2.256  -0.967   2.935  1.00  0.00     0.007 A 
HETATM   30  C21 UNL     1      -3.602  -1.407   2.564  1.00  0.00     0.007 A 
ENDBRANCH  20  28
ENDBRANCH  17  20
ENDBRANCH   1  16
TORSDOF 5
