REMARK  17 active torsions:
REMARK  status: ('A' for Active; 'I' for Inactive)
REMARK    1  A    between atoms: C3_4  and  O2_5 
REMARK    2  A    between atoms: O2_5  and  C4_6 
REMARK    3  A    between atoms: C11_14  and  C12_15 
REMARK    4  A    between atoms: C12_15  and  N1_16 
REMARK    5  A    between atoms: C12_15  and  O4_20 
REMARK    6  A    between atoms: N1_16  and  N2_17 
REMARK    7  A    between atoms: O4_20  and  C13_21 
REMARK    8  A    between atoms: C13_21  and  C14_22 
REMARK    9  A    between atoms: C14_22  and  C15_23 
REMARK   10  A    between atoms: C15_23  and  C16_24 
REMARK   11  A    between atoms: C16_24  and  C17_25 
REMARK   12  A    between atoms: C17_25  and  C18_26 
REMARK   13  A    between atoms: C18_26  and  C19_27 
REMARK   14  A    between atoms: C19_27  and  N3_28 
REMARK   15  A    between atoms: C20_32  and  O5_33 
REMARK   16  A    between atoms: C21_35  and  O6_36 
REMARK   17  A    between atoms: C22_38  and  O7_39 
ROOT
HETATM    1  C4  UNL     1      -1.498   0.022   1.570  1.00  0.00     0.166 C 
HETATM    2  C5  UNL     1      -2.027  -0.583   2.861  1.00  0.00     0.073 C 
HETATM    3  C6  UNL     1      -2.063  -2.037   2.512  1.00  0.00     0.064 C 
HETATM    4  C7  UNL     1      -2.066  -2.927   3.738  1.00  0.00     0.038 C 
HETATM    5  C8  UNL     1      -3.350  -3.736   3.673  1.00  0.00     0.003 C 
HETATM    6  C9  UNL     1      -3.561  -3.846   2.161  1.00  0.00     0.003 C 
HETATM    7  C10 UNL     1      -3.292  -2.416   1.722  1.00  0.00     0.038 C 
HETATM    8  O3  UNL     1      -0.938  -2.230   1.762  1.00  0.00    -0.363 OA
HETATM    9  C11 UNL     1      -0.557  -1.085   1.128  1.00  0.00     0.243 C 
ENDROOT
BRANCH   9  10
HETATM   10  C12 UNL     1       0.869  -0.792   1.524  1.00  0.00     0.247 C 
BRANCH  10  11
HETATM   11  N1  UNL     1       1.490  -1.524   2.197  1.00  0.00    -0.309 NA
BRANCH  11  12
HETATM   12  N2  UNL     1       2.235  -2.296   2.942  1.00  0.00    -0.278 N 
ATOM     13  H22 UNL     1       2.774  -1.474   2.670  1.00  0.00     0.191 HD
ATOM     14  H21 UNL     1       2.775  -2.933   3.528  1.00  0.00     0.191 HD
ENDBRANCH  11  12
ENDBRANCH  10  11
BRANCH  10  15
HETATM   15  O4  UNL     1       1.364   0.409   1.023  1.00  0.00    -0.325 OA
BRANCH  15  16
HETATM   16  C13 UNL     1       2.721   0.682   0.959  1.00  0.00     0.178 C 
BRANCH  16  17
HETATM   17  C14 UNL     1       3.541  -0.233   0.099  1.00  0.00     0.027 C 
BRANCH  17  18
HETATM   18  C15 UNL     1       4.999   0.181   0.146  1.00  0.00     0.002 C 
BRANCH  18  19
HETATM   19  C16 UNL     1       5.239   1.575  -0.343  1.00  0.00     0.000 C 
BRANCH  19  20
HETATM   20  C17 UNL     1       4.822   1.778  -1.787  1.00  0.00     0.002 C 
BRANCH  20  21
HETATM   21  C18 UNL     1       5.630   0.834  -2.665  1.00  0.00     0.027 C 
BRANCH  21  22
HETATM   22  C19 UNL     1       5.197   1.064  -4.091  1.00  0.00     0.229 C 
BRANCH  22  23
HETATM   23  N3  UNL     1       5.949   0.177  -4.979  1.00  0.00    -0.079 N 
ATOM     24  H33 UNL     1       6.957   0.278  -4.861  1.00  0.00     0.274 HD
ATOM     25  H32 UNL     1       5.868  -0.802  -4.705  1.00  0.00     0.274 HD
ATOM     26  H31 UNL     1       5.656   0.333  -5.944  1.00  0.00     0.274 HD
ENDBRANCH  22  23
ENDBRANCH  21  22
ENDBRANCH  20  21
ENDBRANCH  19  20
ENDBRANCH  18  19
ENDBRANCH  17  18
ENDBRANCH  16  17
ENDBRANCH  15  16
ENDBRANCH  10  15
ENDBRANCH   9  10
BRANCH   1  27
HETATM   27  O2  UNL     1      -2.460   0.121   0.594  1.00  0.00    -0.350 OA
BRANCH  27  28
HETATM   28  C3  UNL     1      -2.537   1.345  -0.031  1.00  0.00     0.292 C 
HETATM   29  O1  UNL     1      -2.123   1.270  -1.353  1.00  0.00    -0.351 OA
HETATM   30  C2  UNL     1      -3.088   0.794  -2.226  1.00  0.00     0.152 C 
HETATM   31  C1  UNL     1      -2.457   0.805  -3.611  1.00  0.00     0.042 C 
HETATM   32  C22 UNL     1      -4.323   1.646  -2.243  1.00  0.00     0.178 C 
HETATM   33  C21 UNL     1      -4.183   2.718  -1.175  1.00  0.00     0.183 C 
HETATM   34  C20 UNL     1      -3.831   2.058   0.164  1.00  0.00     0.204 C 
BRANCH  32  35
HETATM   35  O7  UNL     1      -4.624   2.167  -3.476  1.00  0.00    -0.390 OA
ATOM     36  H7  UNL     1      -5.406   2.706  -3.487  1.00  0.00     0.210 HD
ENDBRANCH  32  35
BRANCH  33  37
HETATM   37  O6  UNL     1      -3.188   3.582  -1.608  1.00  0.00    -0.390 OA
ATOM     38  H6  UNL     1      -3.406   3.991  -2.437  1.00  0.00     0.210 HD
ENDBRANCH  33  37
BRANCH  34  39
HETATM   39  O5  UNL     1      -4.898   1.192   0.417  1.00  0.00    -0.388 OA
ATOM     40  H5  UNL     1      -5.723   1.647   0.541  1.00  0.00     0.210 HD
ENDBRANCH  34  39
ENDBRANCH  27  28
ENDBRANCH   1  27
TORSDOF 17
