REMARK  14 active torsions:
REMARK  status: ('A' for Active; 'I' for Inactive)
REMARK    1  A    between atoms: C1_4  and  C2_5 
REMARK    2  A    between atoms: C2_5  and  O2_7 
REMARK    3  A    between atoms: O2_7  and  C3_8 
REMARK    4  A    between atoms: C3_8  and  C4_9 
REMARK    5  A    between atoms: C5_10  and  O3_11 
REMARK    6  A    between atoms: C6_13  and  S1_14 
REMARK    7  A    between atoms: S1_14  and  C7_15 
REMARK    8  A    between atoms: C7_15  and  C8_16 
REMARK    9  A    between atoms: C8_16  and  C9_17 
REMARK   10  A    between atoms: C9_17  and  C10_18 
REMARK   11  A    between atoms: C10_18  and  C11_19 
REMARK   12  A    between atoms: C11_19  and  O4_20 
REMARK   13  A    between atoms: C15_27  and  O7_28 
REMARK   14  A    between atoms: C15_27  and  C16_30 
ROOT
HETATM    1  C4  UNL     1      -0.741   0.816  -0.050  1.00  0.00     0.284 C 
HETATM    2  C5  UNL     1       0.619   1.206   0.481  1.00  0.00     0.172 C 
HETATM    3  C6  UNL     1       1.570   0.158  -0.031  1.00  0.00     0.137 C 
HETATM    4  C12 UNL     1       0.668  -1.037  -0.132  1.00  0.00     0.380 C 
HETATM    5  O5  UNL     1       1.042  -1.977  -1.070  1.00  0.00    -0.348 OA
HETATM    6  C13 UNL     1      -0.025  -2.918  -1.120  1.00  0.00     0.254 C 
HETATM    7  C14 UNL     1      -0.795  -2.778   0.136  1.00  0.00     0.216 C 
HETATM    8  O6  UNL     1      -0.775  -3.659   0.950  1.00  0.00    -0.290 OA
HETATM    9  C15 UNL     1      -1.572  -1.477   0.291  1.00  0.00     0.329 C 
HETATM   10  N2  UNL     1      -0.673  -0.539  -0.346  1.00  0.00     0.171 N 
ENDROOT
BRANCH   1  11
HETATM   11  C3  UNL     1      -0.964   1.706  -1.282  1.00  0.00     0.217 C 
BRANCH  11  12
HETATM   12  O2  UNL     1      -0.989   3.064  -0.957  1.00  0.00    -0.315 OA
BRANCH  12  13
HETATM   13  C2  UNL     1      -1.850   3.729  -0.135  1.00  0.00     0.298 C 
HETATM   14  O1  UNL     1      -2.768   3.098   0.436  1.00  0.00    -0.259 OA
BRANCH  13  15
HETATM   15  C1  UNL     1      -1.741   5.178   0.109  1.00  0.00     0.163 C 
HETATM   16  N1  UNL     1      -2.554   5.794   0.882  1.00  0.00    -0.403 N 
ATOM     17  H12 UNL     1      -3.291   5.253   1.333  1.00  0.00     0.155 HD
ATOM     18  H11 UNL     1      -2.479   6.797   1.051  1.00  0.00     0.155 HD
ENDBRANCH  13  15
ENDBRANCH  12  13
ENDBRANCH  11  12
ENDBRANCH   1  11
BRANCH   2  19
HETATM   19  O3  UNL     1       0.618   1.266   1.879  1.00  0.00    -0.392 OA
ATOM     20  H3  UNL     1       1.473   1.511   2.213  1.00  0.00     0.210 HD
ENDBRANCH   2  19
BRANCH   3  21
HETATM   21  S1  UNL     1       2.308   0.504  -1.614  1.00  0.00    -0.157 SA
BRANCH  21  22
HETATM   22  C7  UNL     1       3.415   1.929  -1.576  1.00  0.00     0.074 C 
BRANCH  22  23
HETATM   23  C8  UNL     1       4.615   1.580  -0.697  1.00  0.00     0.010 C 
BRANCH  23  24
HETATM   24  C9  UNL     1       5.292   0.396  -1.305  1.00  0.00     0.003 C 
BRANCH  24  25
HETATM   25  C10 UNL     1       6.513  -0.080  -0.602  1.00  0.00     0.026 C 
BRANCH  25  26
HETATM   26  C11 UNL     1       6.343  -0.521   0.815  1.00  0.00     0.164 C 
BRANCH  26  27
HETATM   27  O4  UNL     1       5.892   0.452   1.689  1.00  0.00    -0.401 OA
ATOM     28  H4  UNL     1       5.784   0.172   2.590  1.00  0.00     0.209 HD
ENDBRANCH  26  27
ENDBRANCH  25  26
ENDBRANCH  24  25
ENDBRANCH  23  24
ENDBRANCH  22  23
ENDBRANCH  21  22
ENDBRANCH   3  21
BRANCH   9  29
HETATM   29  O7  UNL     1      -1.750  -1.284   1.632  1.00  0.00    -0.357 OA
ATOM     30  H7  UNL     1      -2.235  -0.473   1.729  1.00  0.00     0.213 HD
ENDBRANCH   9  29
BRANCH   9  31
HETATM   31  C16 UNL     1      -2.880  -1.669  -0.457  1.00  0.00     0.060 C 
HETATM   32  C17 UNL     1      -3.518  -2.964   0.087  1.00  0.00     0.010 C 
HETATM   33  C18 UNL     1      -4.831  -3.193  -0.613  1.00  0.00     0.001 C 
HETATM   34  C19 UNL     1      -5.818  -2.089  -0.470  1.00  0.00     0.000 C 
HETATM   35  C20 UNL     1      -5.210  -0.724  -0.695  1.00  0.00     0.001 C 
HETATM   36  C21 UNL     1      -3.860  -0.589  -0.038  1.00  0.00     0.010 C 
ENDBRANCH   9  31
TORSDOF 14
