REMARK  6 active torsions:
REMARK  status: ('A' for Active; 'I' for Inactive)
REMARK    1  A    between atoms: N3_4  and  C2_6 
REMARK    2  A    between atoms: C2_6  and  C3_7 
REMARK    3  A    between atoms: C3_7  and  C4_8 
REMARK    4  A    between atoms: C4_8  and  C5_9 
REMARK    5  A    between atoms: C5_9  and  C6_10 
REMARK    6  A    between atoms: C6_10  and  C7_11 
ROOT
HETATM    1  C7  UNL     1      -0.804  -0.021  -0.767  1.00  0.00     0.156 C 
HETATM    2  O1  UNL     1      -1.064   1.316  -0.436  1.00  0.00    -0.382 OA
HETATM    3  C8  UNL     1      -2.158   1.771  -1.176  1.00  0.00     0.173 C 
HETATM    4  C9  UNL     1      -3.294   0.794  -1.194  1.00  0.00     0.016 C 
HETATM    5  C10 UNL     1      -4.644   1.447  -1.063  1.00  0.00     0.007 C 
HETATM    6  C11 UNL     1      -4.658   2.337   0.125  1.00  0.00     0.000 C 
HETATM    7  C12 UNL     1      -3.838   1.960   1.287  1.00  0.00     0.001 C 
HETATM    8  C13 UNL     1      -3.203   0.628   1.304  1.00  0.00     0.008 C 
HETATM    9  C14 UNL     1      -3.157  -0.109   0.012  1.00  0.00     0.029 C 
HETATM   10  C15 UNL     1      -1.880  -0.905  -0.218  1.00  0.00     0.091 C 
HETATM   11  C16 UNL     1      -1.495  -1.711   0.980  1.00  0.00     0.043 C 
HETATM   12  C17 UNL     1      -2.315  -2.989   0.734  1.00  0.00     0.029 C 
HETATM   13  C18 UNL     1      -2.133  -3.082  -0.768  1.00  0.00     0.169 C 
HETATM   14  O2  UNL     1      -2.206  -1.808  -1.246  1.00  0.00    -0.377 OA
ENDROOT
BRANCH   1  15
HETATM   15  C6  UNL     1       0.589  -0.423  -0.335  1.00  0.00     0.035 C 
BRANCH  15  16
HETATM   16  C5  UNL     1       1.640   0.430  -1.002  1.00  0.00     0.003 C 
BRANCH  16  17
HETATM   17  C4  UNL     1       3.043   0.057  -0.611  1.00  0.00     0.002 C 
BRANCH  17  18
HETATM   18  C3  UNL     1       3.261   0.205   0.869  1.00  0.00     0.020 C 
BRANCH  18  19
HETATM   19  C2  UNL     1       4.688  -0.161   1.251  1.00  0.00     0.122 C 
BRANCH  19  20
HETATM   20  N3  UNL     1       5.630   0.704   0.564  1.00  0.00    -0.367 N 
HETATM   21  C1  UNL     1       6.493   0.214  -0.260  1.00  0.00     0.196 C 
HETATM   22  N1  UNL     1       6.531  -1.186  -0.505  1.00  0.00    -0.067 NA
HETATM   23  N2  UNL     1       7.386   1.104  -0.901  1.00  0.00    -0.067 NA
ATOM     24  H3  UNL     1       5.609   1.709   0.735  1.00  0.00     0.161 HD
ENDBRANCH  19  20
ENDBRANCH  18  19
ENDBRANCH  17  18
ENDBRANCH  16  17
ENDBRANCH  15  16
ENDBRANCH   1  15
TORSDOF 6
