REMARK  5 active torsions:
REMARK  status: ('A' for Active; 'I' for Inactive)
REMARK    1  A    between atoms: C4_5  and  C5_6 
REMARK    2  A    between atoms: N2_7  and  N3_9 
REMARK    3  A    between atoms: N3_9  and  S1_11 
REMARK    4  A    between atoms: S1_11  and  C6_14 
REMARK    5  A    between atoms: C9_17  and  N4_18 
ROOT
HETATM    1  S1  UNL     1      -0.747  -0.705   0.700  1.00  0.00     0.276 S 
HETATM    2  O1  UNL     1      -0.276   0.177   1.841  1.00  0.00    -0.199 OA
HETATM    3  O2  UNL     1      -0.479  -2.120   1.131  1.00  0.00    -0.199 OA
ENDROOT
BRANCH   1   4
HETATM    4  N3  UNL     1       0.186  -0.394  -0.721  1.00  0.00    -0.223 N 
ATOM      5  H3  UNL     1       0.349  -1.168  -1.366  1.00  0.00     0.200 HD
BRANCH   4   6
HETATM    6  N2  UNL     1       0.719   0.824  -1.034  1.00  0.00    -0.302 N 
HETATM    7  C5  UNL     1       1.859   1.311  -1.040  1.00  0.00     0.119 C 
ATOM      8  H2  UNL     1       0.010   1.493  -1.335  1.00  0.00     0.186 HD
BRANCH   7   9
HETATM    9  C4  UNL     1       3.145   0.732  -0.692  1.00  0.00    -0.019 A 
HETATM   10  C3  UNL     1       3.302  -0.562  -0.263  1.00  0.00     0.014 A 
HETATM   11  C2  UNL     1       4.567  -1.032   0.047  1.00  0.00     0.027 A 
HETATM   12  C1  UNL     1       5.712  -0.274  -0.047  1.00  0.00     0.046 A 
HETATM   13  N1  UNL     1       6.976  -0.839   0.292  1.00  0.00    -0.102 NA
HETATM   14  C14 UNL     1       5.558   1.017  -0.475  1.00  0.00     0.027 A 
HETATM   15  C13 UNL     1       4.314   1.499  -0.786  1.00  0.00     0.014 A 
ENDBRANCH   7   9
ENDBRANCH   4   6
ENDBRANCH   1   4
BRANCH   1  16
HETATM   16  C6  UNL     1      -2.431  -0.439   0.455  1.00  0.00     0.081 C 
HETATM   17  C7  UNL     1      -2.938   0.816   0.708  1.00  0.00     0.028 C 
HETATM   18  C8  UNL     1      -4.236   1.299   0.634  1.00  0.00     0.042 C 
HETATM   19  C9  UNL     1      -5.387   0.545   0.498  1.00  0.00     0.152 C 
HETATM   20  C10 UNL     1      -5.514  -0.792   0.184  1.00  0.00     0.204 C 
HETATM   21  O5  UNL     1      -6.703  -1.210   0.152  1.00  0.00    -0.286 OA
HETATM   22  C11 UNL     1      -4.534  -1.700  -0.091  1.00  0.00     0.059 C 
HETATM   23  C12 UNL     1      -3.159  -1.522   0.015  1.00  0.00     0.029 C 
BRANCH  19  24
HETATM   24  N4  UNL     1      -6.574   1.273   0.718  1.00  0.00    -0.112 N 
HETATM   25  O3  UNL     1      -7.560   0.707   1.199  1.00  0.00    -0.532 OA
HETATM   26  O4  UNL     1      -6.642   2.597   0.403  1.00  0.00    -0.532 OA
ENDBRANCH  19  24
ENDBRANCH   1  16
TORSDOF 5
