REMARK  7 active torsions:
REMARK  status: ('A' for Active; 'I' for Inactive)
REMARK    1  A    between atoms: C2_2  and  C3_3 
REMARK    2  A    between atoms: C3_3  and  C4_4 
REMARK    3  A    between atoms: C3_3  and  N7_26 
REMARK    4  A    between atoms: C4_4  and  N1_5 
REMARK    5  A    between atoms: N2_8  and  C7_9 
REMARK    6  A    between atoms: N7_26  and  N8_28 
REMARK    7  A    between atoms: N8_28  and  N9_29 
ROOT
HETATM    1  N1  UNL     1       2.176  -0.036  -0.269  1.00  0.00     0.093 N 
HETATM    2  C5  UNL     1       1.411  -0.983   0.463  1.00  0.00     0.293 C 
HETATM    3  C6  UNL     1       0.029  -0.612   0.832  1.00  0.00     0.171 C 
HETATM    4  N2  UNL     1      -0.553   0.465   0.109  1.00  0.00    -0.214 N 
HETATM    5  C13 UNL     1       0.290   1.432  -0.550  1.00  0.00     0.171 C 
HETATM    6  C14 UNL     1       1.354   0.631  -1.272  1.00  0.00     0.293 C 
ENDROOT
BRANCH   4   7
HETATM    7  C7  UNL     1      -1.968   0.570   0.045  1.00  0.00     0.682 A 
HETATM    8  N3  UNL     1      -2.900  -0.240   0.582  1.00  0.00    -0.174 N 
HETATM    9  C8  UNL     1      -4.145   0.174   0.315  1.00  0.00     0.160 A 
ATOM     10  H3  UNL     1      -2.683  -1.073   1.129  1.00  0.00     0.186 HD
HETATM   11  C9  UNL     1      -4.012   1.317  -0.437  1.00  0.00     0.162 A 
HETATM   12  N6  UNL     1      -5.383  -0.279   0.619  1.00  0.00    -0.287 N 
HETATM   13  N4  UNL     1      -2.694   1.536  -0.588  1.00  0.00    -0.182 N 
HETATM   14  C10 UNL     1      -5.175   1.937  -0.840  1.00  0.00     0.280 A 
ATOM     15  H4  UNL     1      -2.292   2.318  -1.105  1.00  0.00     0.184 HD
HETATM   16  O1  UNL     1      -5.114   2.984  -1.529  1.00  0.00    -0.265 OA
HETATM   17  N5  UNL     1      -6.395   1.464  -0.523  1.00  0.00    -0.273 N 
HETATM   18  C11 UNL     1      -6.500   0.338   0.218  1.00  0.00     0.330 A 
ATOM     19  H5  UNL     1      -7.233   1.951  -0.839  1.00  0.00     0.173 HD
HETATM   20  O2  UNL     1      -7.660  -0.110   0.518  1.00  0.00    -0.246 OA
HETATM   21  C12 UNL     1      -5.493  -1.484   1.411  1.00  0.00     0.163 C 
ENDBRANCH   4   7
BRANCH   1  22
HETATM   22  C4  UNL     1       3.289  -0.579  -0.986  1.00  0.00     0.300 C 
BRANCH  22  23
HETATM   23  C3  UNL     1       4.418  -1.107  -0.199  1.00  0.00     0.142 C 
BRANCH  23  24
HETATM   24  C2  UNL     1       5.091  -0.116   0.701  1.00  0.00     0.025 C 
HETATM   25  C1  UNL     1       5.658   1.045  -0.090  1.00  0.00     0.007 C 
ENDBRANCH  23  24
BRANCH  23  26
HETATM   26  N7  UNL     1       4.129  -2.328   0.527  1.00  0.00    -0.246 N 
ATOM     27  H7  UNL     1       3.290  -2.859   0.294  1.00  0.00     0.197 HD
BRANCH  26  28
HETATM   28  N8  UNL     1       4.865  -2.734   1.409  1.00  0.00    -0.248 NA
BRANCH  28  29
HETATM   29  N9  UNL     1       5.763  -3.233   2.087  1.00  0.00    -0.261 N 
ATOM     30  H92 UNL     1       6.269  -3.525   1.251  1.00  0.00     0.193 HD
ATOM     31  H91 UNL     1       6.379  -3.573   2.825  1.00  0.00     0.193 HD
ENDBRANCH  28  29
ENDBRANCH  26  28
ENDBRANCH  23  26
ENDBRANCH  22  23
ENDBRANCH   1  22
TORSDOF 7
