REMARK  16 active torsions:
REMARK  status: ('A' for Active; 'I' for Inactive)
REMARK    1  A    between atoms: C2_2  and  C4_4 
REMARK    2  A    between atoms: C4_4  and  O1_5 
REMARK    3  A    between atoms: C4_4  and  O2_7 
REMARK    4  A    between atoms: O2_7  and  C5_8 
REMARK    5  A    between atoms: C6_9  and  O3_10 
REMARK    6  A    between atoms: C7_12  and  O4_13 
REMARK    7  A    between atoms: C8_15  and  C9_16 
REMARK    8  A    between atoms: C9_16  and  O5_17 
REMARK    9  A    between atoms: C9_16  and  C10_19 
REMARK   10  A    between atoms: C15_24  and  N1_25 
REMARK       I    between atoms: N1_25  and  C16_27 
REMARK   11  A    between atoms: C16_27  and  O7_29 
REMARK   12  A    between atoms: O7_29  and  C17_30 
REMARK   13  A    between atoms: C17_30  and  C18_31 
REMARK   14  A    between atoms: C18_31  and  C19_32 
REMARK   15  A    between atoms: C21_34  and  O8_35 
REMARK   16  A    between atoms: C22_37  and  O9_38 
ROOT
HETATM    1  C5  UNL     1      -2.840   1.449  -0.898  1.00  0.00     0.187 C 
HETATM    2  C6  UNL     1      -2.797   0.100  -1.507  1.00  0.00     0.179 C 
HETATM    3  C7  UNL     1      -1.755  -0.834  -0.882  1.00  0.00     0.158 C 
HETATM    4  C8  UNL     1      -0.426  -0.242  -1.147  1.00  0.00     0.077 C 
HETATM    5  C21 UNL     1      -0.411   1.265  -0.931  1.00  0.00     0.158 C 
HETATM    6  C22 UNL     1      -1.579   1.716  -0.075  1.00  0.00     0.179 C 
ENDROOT
BRANCH   4   7
HETATM    7  C9  UNL     1       0.772  -0.892  -0.543  1.00  0.00     0.133 C 
BRANCH   7   8
HETATM    8  O5  UNL     1       0.619  -0.917   0.846  1.00  0.00    -0.395 OA
ATOM      9  H5  UNL     1       1.382  -1.331   1.231  1.00  0.00     0.210 HD
ENDBRANCH   7   8
BRANCH   7  10
HETATM   10  C10 UNL     1       1.267  -2.172  -1.141  1.00  0.00     0.038 C 
HETATM   11  C11 UNL     1       0.315  -3.279  -1.097  1.00  0.00     0.009 C 
HETATM   12  C12 UNL     1       0.907  -4.673  -0.947  1.00  0.00     0.001 C 
HETATM   13  C13 UNL     1       2.169  -4.660  -1.784  1.00  0.00     0.002 C 
HETATM   14  C14 UNL     1       3.132  -3.857  -0.924  1.00  0.00     0.026 C 
HETATM   15  C15 UNL     1       2.701  -2.452  -0.752  1.00  0.00     0.093 C 
BRANCH  15  16
HETATM   16  N1  UNL     1       3.014  -2.044   0.604  1.00  0.00    -0.332 N 
HETATM   17  C16 UNL     1       4.062  -1.124   0.903  1.00  0.00     0.360 C 
HETATM   18  O6  UNL     1       4.745  -0.651  -0.069  1.00  0.00    -0.239 OA
ATOM     19  H1  UNL     1       2.464  -2.429   1.372  1.00  0.00     0.165 HD
BRANCH  17  20
HETATM   20  O7  UNL     1       4.393  -0.705   2.174  1.00  0.00    -0.304 OA
BRANCH  20  21
HETATM   21  C17 UNL     1       5.412   0.193   2.498  1.00  0.00     0.180 C 
BRANCH  21  22
HETATM   22  C18 UNL     1       5.256   1.560   1.883  1.00  0.00     0.026 C 
BRANCH  22  23
HETATM   23  C19 UNL     1       4.005   2.274   2.279  1.00  0.00    -0.002 C 
HETATM   24  C20 UNL     1       3.984   2.474   3.771  1.00  0.00     0.005 C 
ENDBRANCH  22  23
ENDBRANCH  21  22
ENDBRANCH  20  21
ENDBRANCH  17  20
ENDBRANCH  15  16
ENDBRANCH   7  10
ENDBRANCH   4   7
BRANCH   3  25
HETATM   25  O4  UNL     1      -2.063  -1.054   0.461  1.00  0.00    -0.392 OA
ATOM     26  H4  UNL     1      -1.417  -1.633   0.848  1.00  0.00     0.210 HD
ENDBRANCH   3  25
BRANCH   5  27
HETATM   27  O8  UNL     1       0.786   1.694  -0.386  1.00  0.00    -0.392 OA
ATOM     28  H8  UNL     1       0.795   2.634  -0.251  1.00  0.00     0.210 HD
ENDBRANCH   5  27
BRANCH   2  29
HETATM   29  O3  UNL     1      -4.041  -0.523  -1.420  1.00  0.00    -0.390 OA
ATOM     30  H3  UNL     1      -4.013  -1.388  -1.811  1.00  0.00     0.210 HD
ENDBRANCH   2  29
BRANCH   6  31
HETATM   31  O9  UNL     1      -1.429   3.100   0.057  1.00  0.00    -0.390 OA
ATOM     32  H9  UNL     1      -0.646   3.266   0.568  1.00  0.00     0.210 HD
ENDBRANCH   6  31
BRANCH   1  33
HETATM   33  O2  UNL     1      -3.953   1.653  -0.088  1.00  0.00    -0.347 OA
BRANCH  33  34
HETATM   34  C4  UNL     1      -4.627   2.840  -0.376  1.00  0.00     0.286 C 
BRANCH  34  35
HETATM   35  C2  UNL     1      -6.068   2.653  -0.648  1.00  0.00    -0.039 C 
HETATM   36  C1  UNL     1      -7.006   3.008   0.221  1.00  0.00     0.019 C 
HETATM   37  C3  UNL     1      -6.512   2.047  -1.934  1.00  0.00     0.048 C 
ENDBRANCH  34  35
BRANCH  34  38
HETATM   38  O1  UNL     1      -4.552   3.605   0.813  1.00  0.00    -0.367 OA
ATOM     39  H1  UNL     1      -3.626   3.725   0.988  1.00  0.00     0.213 HD
ENDBRANCH  34  38
ENDBRANCH  33  34
ENDBRANCH   1  33
TORSDOF 16
