REMARK  7 active torsions:
REMARK  status: ('A' for Active; 'I' for Inactive)
REMARK    1  A    between atoms: N1_1  and  N2_4 
REMARK    2  A    between atoms: N2_4  and  N3_5 
REMARK    3  A    between atoms: N3_5  and  C1_7 
REMARK    4  A    between atoms: C4_16  and  N7_17 
REMARK    5  A    between atoms: N7_17  and  N8_18 
REMARK    6  A    between atoms: N8_18  and  C5_20 
REMARK    7  A    between atoms: C7_27  and  N11_28 
ROOT
HETATM    1  C1  UNL     1      -2.524   0.079   1.341  1.00  0.00     0.207 C 
HETATM    2  C2  UNL     1      -3.252  -1.131   1.799  1.00  0.00     0.122 C 
HETATM    3  N4  UNL     1      -4.368  -1.159   2.714  1.00  0.00    -0.085 NA
HETATM    4  N5  UNL     1      -2.734  -2.182   1.248  1.00  0.00    -0.335 N 
ATOM      5  H5  UNL     1      -3.049  -3.141   1.393  1.00  0.00     0.168 HD
HETATM    6  C3  UNL     1      -1.643  -1.783   0.398  1.00  0.00     0.100 C 
HETATM    7  N6  UNL     1      -1.194  -2.363  -0.634  1.00  0.00    -0.387 N 
ATOM      8  H61 UNL     1      -0.421  -2.080  -1.236  1.00  0.00     0.157 HD
ATOM      9  H62 UNL     1      -1.522  -3.231  -1.058  1.00  0.00     0.157 HD
HETATM   10  C4  UNL     1      -1.168  -0.527   1.012  1.00  0.00     0.199 C 
ENDROOT
BRANCH  10  11
HETATM   11  N7  UNL     1      -0.363   0.304   0.192  1.00  0.00    -0.111 NA
BRANCH  11  12
HETATM   12  N8  UNL     1       0.887  -0.271   0.006  1.00  0.00    -0.135 N 
ATOM     13  H8  UNL     1       1.073  -1.182   0.426  1.00  0.00     0.201 HD
BRANCH  12  14
HETATM   14  C5  UNL     1       1.923   0.358  -0.748  1.00  0.00     0.712 A 
HETATM   15  N9  UNL     1       1.759   1.556  -1.330  1.00  0.00    -0.139 N 
HETATM   16  C6  UNL     1       2.767   2.108  -2.031  1.00  0.00     0.352 A 
ATOM     17  H9  UNL     1       0.870   2.049  -1.241  1.00  0.00     0.189 HD
HETATM   18  O1  UNL     1       2.662   3.234  -2.598  1.00  0.00    -0.246 OA
HETATM   19  N10 UNL     1       3.970   1.485  -2.174  1.00  0.00    -0.141 N 
HETATM   20  C7  UNL     1       4.133   0.287  -1.592  1.00  0.00     0.694 A 
ATOM     21  H10 UNL     1       4.725   1.916  -2.708  1.00  0.00     0.189 HD
HETATM   22  N12 UNL     1       3.112  -0.239  -0.899  1.00  0.00    -0.021 N 
ATOM     23  H12 UNL     1       3.250  -1.149  -0.460  1.00  0.00     0.203 HD
BRANCH  20  24
HETATM   24  N11 UNL     1       5.273  -0.316  -1.720  1.00  0.00    -0.234 N 
ATOM     25 2H11 UNL     1       6.049   0.084  -2.247  1.00  0.00     0.174 HD
ATOM     26 1H11 UNL     1       5.397  -1.227  -1.278  1.00  0.00     0.174 HD
ENDBRANCH  20  24
ENDBRANCH  12  14
ENDBRANCH  11  12
ENDBRANCH  10  11
BRANCH   1  27
HETATM   27  N3  UNL     1      -3.198   0.561   0.159  1.00  0.00    -0.239 N 
ATOM     28  H3  UNL     1      -3.394  -0.053  -0.631  1.00  0.00     0.198 HD
BRANCH  27  29
HETATM   29  N2  UNL     1      -3.525   1.749   0.149  1.00  0.00    -0.248 NA
BRANCH  29  30
HETATM   30  N1  UNL     1      -3.682   2.920  -0.191  1.00  0.00    -0.261 N 
ATOM     31  H12 UNL     1      -3.205   2.817  -1.087  1.00  0.00     0.193 HD
ATOM     32  H11 UNL     1      -3.953   3.903  -0.199  1.00  0.00     0.193 HD
ENDBRANCH  29  30
ENDBRANCH  27  29
ENDBRANCH   1  27
TORSDOF 7
