REMARK  4 active torsions:
REMARK  status: ('A' for Active; 'I' for Inactive)
REMARK    1  A    between atoms: C2_7  and  N3_8 
REMARK       I    between atoms: N3_8  and  C3_10 
REMARK       I    between atoms: C3_10  and  N4_11 
REMARK       I    between atoms: C3_10  and  N5_15 
REMARK    2  A    between atoms: C4_21  and  N7_22 
REMARK    3  A    between atoms: N7_22  and  C5_24 
REMARK    4  A    between atoms: C6_27  and  C7_28 
ROOT
HETATM    1  N1  UNL     1       0.856   2.755  -1.556  1.00  0.00    -0.386 N 
ATOM      2  H11 UNL     1      -0.073   3.137  -1.731  1.00  0.00     0.157 HD
ATOM      3  H12 UNL     1       1.518   3.301  -2.108  1.00  0.00     0.157 HD
HETATM    4  C1  UNL     1       1.182   1.778  -0.795  1.00  0.00     0.121 C 
HETATM    5  N2  UNL     1       2.464   1.251  -0.553  1.00  0.00    -0.315 N 
ATOM      6  H2  UNL     1       3.341   1.713  -0.794  1.00  0.00     0.170 HD
HETATM    7  C2  UNL     1       2.368   0.105   0.015  1.00  0.00     0.181 C 
HETATM    8  N6  UNL     1       1.001  -0.235   0.203  1.00  0.00    -0.334 N 
ATOM      9  H6  UNL     1       0.632  -1.158   0.433  1.00  0.00     0.165 HD
HETATM   10  C4  UNL     1       0.222   0.987   0.005  1.00  0.00     0.254 C 
ENDROOT
BRANCH   7  11
HETATM   11  N3  UNL     1       3.505  -0.706   0.400  1.00  0.00    -0.313 N 
HETATM   12  C3  UNL     1       4.703  -0.604  -0.381  1.00  0.00     0.482 C 
HETATM   13  N4  UNL     1       5.251   0.735  -0.396  1.00  0.00    -0.033 N 
HETATM   14  N5  UNL     1       5.694  -1.543   0.100  1.00  0.00    -0.033 N 
ATOM     15  H43 UNL     1       4.554   1.411  -0.707  1.00  0.00     0.278 HD
ATOM     16  H42 UNL     1       5.403   1.078   0.553  1.00  0.00     0.278 HD
ATOM     17  H41 UNL     1       6.103   0.808  -0.952  1.00  0.00     0.278 HD
ATOM     18  H53 UNL     1       5.878  -1.426   1.097  1.00  0.00     0.278 HD
ATOM     19  H52 UNL     1       5.335  -2.497   0.124  1.00  0.00     0.278 HD
ATOM     20  H51 UNL     1       6.546  -1.470  -0.456  1.00  0.00     0.278 HD
ATOM     21  H3  UNL     1       3.455  -1.332   1.204  1.00  0.00     0.166 HD
ENDBRANCH   7  11
BRANCH  10  22
HETATM   22  N7  UNL     1      -0.953   0.750  -0.784  1.00  0.00    -0.352 N 
ATOM     23  H7  UNL     1      -1.007   1.117  -1.734  1.00  0.00     0.163 HD
BRANCH  22  24
HETATM   24  C5  UNL     1      -2.060  -0.004  -0.243  1.00  0.00     0.075 C 
HETATM   25  N8  UNL     1      -2.440   0.093   0.962  1.00  0.00    -0.367 N 
HETATM   26  C6  UNL     1      -3.549  -0.729   1.313  1.00  0.00     0.172 C 
ATOM     27  H8  UNL     1      -1.985   0.714   1.631  1.00  0.00     0.161 HD
HETATM   28  C8  UNL     1      -3.676  -1.704   0.156  1.00  0.00     0.042 C 
HETATM   29  C9  UNL     1      -2.918  -0.973  -0.930  1.00  0.00     0.078 C 
BRANCH  26  30
HETATM   30  C7  UNL     1      -4.745   0.103   1.478  1.00  0.00     0.253 C 
HETATM   31  N9  UNL     1      -4.691   1.501   1.293  1.00  0.00    -0.060 NA
HETATM   32  O1  UNL     1      -5.831  -0.428   1.788  1.00  0.00    -0.275 OA
ENDBRANCH  26  30
ENDBRANCH  22  24
ENDBRANCH  10  22
TORSDOF 4
