REMARK  8 active torsions:
REMARK  status: ('A' for Active; 'I' for Inactive)
REMARK    1  A    between atoms: C2_2  and  C3_3 
REMARK       I    between atoms: C3_3  and  N1_5 
REMARK    2  A    between atoms: N1_5  and  C4_7 
REMARK    3  A    between atoms: C6_14  and  N5_15 
REMARK    4  A    between atoms: N5_15  and  C7_17 
REMARK    5  A    between atoms: C9_19  and  N6_20 
REMARK    6  A    between atoms: C11_27  and  O2_28 
REMARK    7  A    between atoms: C12_30  and  N8_31 
REMARK    8  A    between atoms: N8_31  and  O3_33 
ROOT
HETATM    1  C4  UNL     1       1.511   2.238  -0.216  1.00  0.00     0.110 A 
HETATM    2  C5  UNL     1       2.409   1.672  -1.034  1.00  0.00     0.160 A 
HETATM    3  N2  UNL     1       3.554   2.401  -1.528  1.00  0.00    -0.079 NA
HETATM    4  N3  UNL     1       2.276   0.395  -1.448  1.00  0.00    -0.284 N 
ATOM      5  H3  UNL     1       2.975  -0.009  -2.072  1.00  0.00     0.188 HD
HETATM    6  N4  UNL     1       1.231  -0.351  -1.046  1.00  0.00    -0.282 N 
ATOM      7  H4  UNL     1       1.155  -1.313  -1.377  1.00  0.00     0.188 HD
HETATM    8  C6  UNL     1       0.289   0.127  -0.227  1.00  0.00     0.147 A 
HETATM    9  C12 UNL     1       0.426   1.434   0.195  1.00  0.00     0.129 A 
ENDROOT
BRANCH   8  10
HETATM   10  N5  UNL     1      -0.732  -0.531   0.106  1.00  0.00    -0.364 N 
ATOM     11  H5  UNL     1      -1.372  -0.047   0.736  1.00  0.00     0.161 HD
BRANCH  10  12
HETATM   12  C7  UNL     1      -1.128  -1.845  -0.262  1.00  0.00     0.133 C 
HETATM   13  C8  UNL     1      -0.742  -2.972   0.616  1.00  0.00     0.064 C 
HETATM   14  C9  UNL     1      -1.191  -4.282  -0.016  1.00  0.00     0.203 C 
HETATM   15  C10 UNL     1      -1.963  -4.116  -1.296  1.00  0.00     0.149 C 
HETATM   16  N7  UNL     1      -2.932  -3.064  -1.265  1.00  0.00    -0.393 N 
HETATM   17  C11 UNL     1      -2.657  -1.926  -0.457  1.00  0.00     0.236 C 
ATOM     18  H7  UNL     1      -3.794  -3.128  -1.806  1.00  0.00     0.155 HD
BRANCH  14  19
HETATM   19  N6  UNL     1      -1.914  -5.110   0.923  1.00  0.00    -0.073 N 
ATOM     20  H63 UNL     1      -1.370  -5.273   1.770  1.00  0.00     0.274 HD
ATOM     21  H62 UNL     1      -2.701  -4.607   1.333  1.00  0.00     0.274 HD
ATOM     22  H61 UNL     1      -2.215  -5.988   0.500  1.00  0.00     0.274 HD
ENDBRANCH  14  19
BRANCH  17  23
HETATM   23  O2  UNL     1      -3.278  -1.979   0.780  1.00  0.00    -0.375 OA
ATOM     24  H2  UNL     1      -4.219  -2.029   0.660  1.00  0.00     0.212 HD
ENDBRANCH  17  23
ENDBRANCH  10  12
ENDBRANCH   8  10
BRANCH   9  25
HETATM   25  N8  UNL     1      -0.534   2.010   1.056  1.00  0.00    -0.263 N 
ATOM     26  H8  UNL     1      -1.106   2.802   0.762  1.00  0.00     0.194 HD
BRANCH  25  27
HETATM   27  O3  UNL     1      -0.655   1.496   2.221  1.00  0.00    -0.289 OA
ATOM     28  H3  UNL     1      -1.301   1.883   2.800  1.00  0.00     0.244 HD
ENDBRANCH  25  27
ENDBRANCH   9  25
BRANCH   1  29
HETATM   29  N1  UNL     1       1.530   3.594   0.152  1.00  0.00    -0.319 N 
HETATM   30  C3  UNL     1       2.569   4.352   0.725  1.00  0.00     0.245 C 
HETATM   31  O1  UNL     1       3.697   3.807   0.975  1.00  0.00    -0.268 OA
ATOM     32  H1  UNL     1       0.664   4.104  -0.021  1.00  0.00     0.169 HD
BRANCH  30  33
HETATM   33  C2  UNL     1       2.439   5.735   1.040  1.00  0.00     0.064 C 
HETATM   34  C1  UNL     1       1.292   6.377   0.890  1.00  0.00     0.017 C 
ENDBRANCH  30  33
ENDBRANCH   1  29
TORSDOF 8
