REMARK  6 active torsions:
REMARK  status: ('A' for Active; 'I' for Inactive)
REMARK    1  A    between atoms: N1_1  and  C1_4 
REMARK    2  A    between atoms: C3_10  and  S1_11 
REMARK    3  A    between atoms: S1_11  and  C4_12 
REMARK    4  A    between atoms: C6_14  and  C7_15 
REMARK       I    between atoms: C7_15  and  N3_17 
REMARK    5  A    between atoms: N3_17  and  N4_19 
REMARK    6  A    between atoms: C9_26  and  N7_27 
ROOT
HETATM    1  S1  UNL     1      -0.751   1.244   1.572  1.00  0.00    -0.044 SA
ENDROOT
BRANCH   1   2
HETATM    2  C3  UNL     1      -2.342   0.468   1.263  1.00  0.00     0.160 A 
HETATM    3  O2  UNL     1      -2.773  -0.549   1.961  1.00  0.00    -0.251 OA
HETATM    4  C2  UNL     1      -3.911  -1.153   1.787  1.00  0.00     0.372 A 
HETATM    5  N2  UNL     1      -4.735  -0.705   0.802  1.00  0.00    -0.286 N 
HETATM    6  O1  UNL     1      -4.288  -2.140   2.493  1.00  0.00    -0.238 OA
HETATM    7  C1  UNL     1      -4.380   0.334   0.032  1.00  0.00     0.140 A 
ATOM      8  H2  UNL     1      -5.633  -1.164   0.647  1.00  0.00     0.172 HD
HETATM    9  C9  UNL     1      -3.165   0.938   0.257  1.00  0.00     0.187 A 
BRANCH   7  10
HETATM   10  N1  UNL     1      -5.196   0.719  -0.888  1.00  0.00    -0.383 N 
ATOM     11  H12 UNL     1      -6.097   0.271  -1.055  1.00  0.00     0.157 HD
ATOM     12  H11 UNL     1      -4.926   1.509  -1.474  1.00  0.00     0.157 HD
ENDBRANCH   7  10
BRANCH   9  13
HETATM   13  N7  UNL     1      -2.754   2.039  -0.535  1.00  0.00    -0.108 N 
HETATM   14  O4  UNL     1      -3.313   3.135  -0.325  1.00  0.00    -0.532 OA
HETATM   15  O5  UNL     1      -1.794   1.953  -1.495  1.00  0.00    -0.532 OA
ENDBRANCH   9  13
ENDBRANCH   1   2
BRANCH   1  16
HETATM   16  C4  UNL     1       0.510   0.444   0.602  1.00  0.00     0.078 A 
HETATM   17  C5  UNL     1       1.841   0.805   0.609  1.00  0.00     0.057 A 
HETATM   18  C6  UNL     1       2.510  -0.036  -0.261  1.00  0.00     0.077 A 
HETATM   19  C8  UNL     1       1.553  -0.886  -0.770  1.00  0.00     0.133 A 
HETATM   20  N5  UNL     1       1.817  -1.923  -1.716  1.00  0.00    -0.082 NA
HETATM   21  N6  UNL     1       0.341  -0.581  -0.236  1.00  0.00    -0.338 N 
ATOM     22  H6  UNL     1      -0.541  -1.052  -0.439  1.00  0.00     0.167 HD
BRANCH  18  23
HETATM   23  C7  UNL     1       3.932  -0.031  -0.578  1.00  0.00     0.273 C 
HETATM   24  O3  UNL     1       4.376  -0.873  -1.397  1.00  0.00    -0.266 OA
HETATM   25  N3  UNL     1       4.830   0.890   0.005  1.00  0.00    -0.272 N 
ATOM     26  H3  UNL     1       4.489   1.582   0.672  1.00  0.00     0.189 HD
BRANCH  25  27
HETATM   27  N4  UNL     1       6.180   0.855  -0.330  1.00  0.00    -0.342 N 
ATOM     28  H42 UNL     1       6.505   0.157  -0.999  1.00  0.00     0.176 HD
ATOM     29  H41 UNL     1       6.829   1.520   0.091  1.00  0.00     0.176 HD
ENDBRANCH  25  27
ENDBRANCH  18  23
ENDBRANCH   1  16
TORSDOF 6
