REMARK  2 active torsions:
REMARK  status: ('A' for Active; 'I' for Inactive)
REMARK    1  A    between atoms: C3_4  and  C4_5 
REMARK    2  A    between atoms: N2_7  and  N3_8 
ROOT
HETATM    1  C4  UNL     1      -0.551  -0.486   0.043  1.00  0.00     0.060 A 
HETATM    2  C5  UNL     1      -1.318   0.511  -0.544  1.00  0.00     0.138 A 
HETATM    3  N2  UNL     1      -2.663   0.499  -0.531  1.00  0.00    -0.222 N 
HETATM    4  C6  UNL     1      -3.272  -0.533   0.082  1.00  0.00     0.347 A 
HETATM    5  O1  UNL     1      -4.533  -0.543   0.094  1.00  0.00    -0.245 OA
HETATM    6  N4  UNL     1      -2.584  -1.529   0.669  1.00  0.00    -0.273 N 
ATOM      7  H4  UNL     1      -3.082  -2.294   1.124  1.00  0.00     0.173 HD
HETATM    8  C7  UNL     1      -1.233  -1.516   0.656  1.00  0.00     0.261 A 
HETATM    9  O2  UNL     1      -0.564  -2.434   1.196  1.00  0.00    -0.267 OA
ENDROOT
BRANCH   1  10
HETATM   10  C3  UNL     1       0.915  -0.435   0.007  1.00  0.00    -0.015 A 
HETATM   11  C2  UNL     1       1.599   0.732   0.283  1.00  0.00     0.057 A 
HETATM   12  C1  UNL     1       2.965   0.836   0.263  1.00  0.00     0.116 A 
HETATM   13  N1  UNL     1       3.665   2.036   0.547  1.00  0.00    -0.083 NA
HETATM   14  N5  UNL     1       3.674  -0.275  -0.045  1.00  0.00    -0.355 N 
HETATM   15  C9  UNL     1       3.068  -1.444  -0.324  1.00  0.00     0.090 A 
ATOM     16  H5  UNL     1       4.693  -0.225  -0.066  1.00  0.00     0.166 HD
HETATM   17  C8  UNL     1       1.676  -1.543  -0.302  1.00  0.00     0.029 A 
ENDBRANCH   1  10
BRANCH   3  18
HETATM   18  N3  UNL     1      -3.390   1.523  -1.134  1.00  0.00    -0.335 N 
ATOM     19  H32 UNL     1      -2.928   2.305  -1.599  1.00  0.00     0.177 HD
ATOM     20  H31 UNL     1      -4.410   1.514  -1.124  1.00  0.00     0.177 HD
ENDBRANCH   3  18
TORSDOF 2
