REMARK  7 active torsions:
REMARK  status: ('A' for Active; 'I' for Inactive)
REMARK    1  A    between atoms: C2_2  and  C3_3 
REMARK    2  A    between atoms: C3_3  and  N1_4 
REMARK    3  A    between atoms: C4_6  and  C5_7 
REMARK    4  A    between atoms: C6_8  and  N2_9 
REMARK    5  A    between atoms: N2_9  and  C7_10 
REMARK    6  A    between atoms: N2_9  and  C9_12 
REMARK    7  A    between atoms: C11_14  and  C12_15 
ROOT
HETATM    1  C5  UNL     1       0.116   0.099  -0.046  1.00  0.00     0.087 C 
HETATM    2  C6  UNL     1       0.984  -1.038   0.282  1.00  0.00     0.047 C 
HETATM    3  C11 UNL     1       0.476  -2.050   0.911  1.00  0.00     0.090 C 
HETATM    4  N3  UNL     1      -0.846  -2.071   1.290  1.00  0.00    -0.374 N 
ATOM      5  H3  UNL     1      -1.131  -2.527   2.157  1.00  0.00     0.160 HD
HETATM    6  C13 UNL     1      -1.824  -1.435   0.438  1.00  0.00     0.061 C 
HETATM    7  C14 UNL     1      -2.847  -0.849   1.439  1.00  0.00     0.034 C 
HETATM    8  C15 UNL     1      -4.045  -0.272   0.757  1.00  0.00     0.002 C 
HETATM    9  C16 UNL     1      -3.616   0.648  -0.347  1.00  0.00     0.001 C 
HETATM   10  C17 UNL     1      -2.138   0.919  -0.157  1.00  0.00     0.013 C 
HETATM   11  C18 UNL     1      -1.307  -0.330  -0.399  1.00  0.00     0.009 C 
HETATM   12  C19 UNL     1      -1.314  -0.533  -1.888  1.00  0.00     0.124 C 
HETATM   13  C20 UNL     1      -1.625  -1.899  -2.339  1.00  0.00     0.259 C 
HETATM   14  O2  UNL     1      -0.974  -2.396  -3.288  1.00  0.00    -0.265 OA
HETATM   15  O3  UNL     1      -2.640  -2.490  -1.634  1.00  0.00    -0.319 OA
HETATM   16  C21 UNL     1      -2.548  -2.538  -0.253  1.00  0.00     0.210 C 
ENDROOT
BRANCH   1  17
HETATM   17  C4  UNL     1       0.156   1.016   1.115  1.00  0.00     0.072 C 
HETATM   18  N1  UNL     1       0.402   2.243   1.135  1.00  0.00    -0.378 N 
ATOM     19  H1  UNL     1       0.374   2.676   2.058  1.00  0.00     0.164 HD
BRANCH  18  20
HETATM   20  C3  UNL     1       0.711   3.113   0.074  1.00  0.00     0.086 C 
BRANCH  20  21
HETATM   21  C2  UNL     1      -0.034   4.390   0.168  1.00  0.00     0.007 C 
HETATM   22  C1  UNL     1       0.636   5.525   0.267  1.00  0.00     0.012 C 
ENDBRANCH  20  21
ENDBRANCH  18  20
ENDBRANCH   1  17
BRANCH   2  23
HETATM   23  N2  UNL     1       2.374  -0.970  -0.101  1.00  0.00    -0.382 N 
BRANCH  23  24
HETATM   24  C7  UNL     1       3.404  -0.688   0.849  1.00  0.00     0.118 C 
HETATM   25  C8  UNL     1       4.092   0.629   0.684  1.00  0.00     0.026 C 
ENDBRANCH  23  24
BRANCH  23  26
HETATM   26  C9  UNL     1       2.688  -1.206  -1.480  1.00  0.00     0.118 C 
HETATM   27  C10 UNL     1       3.207  -0.004  -2.222  1.00  0.00     0.026 C 
ENDBRANCH  23  26
ENDBRANCH   2  23
BRANCH   3  28
HETATM   28  C12 UNL     1       1.341  -3.182   1.236  1.00  0.00     0.289 C 
HETATM   29  O1  UNL     1       0.874  -4.177   1.844  1.00  0.00    -0.300 OA
ENDBRANCH   3  28
TORSDOF 7
