REMARK  14 active torsions:
REMARK  status: ('A' for Active; 'I' for Inactive)
REMARK    1  A    between atoms: N1_1  and  C1_4 
REMARK    2  A    between atoms: C2_7  and  C3_8 
REMARK    3  A    between atoms: C4_13  and  S1_14 
REMARK    4  A    between atoms: S1_14  and  C5_15 
REMARK    5  A    between atoms: C5_15  and  C6_16 
REMARK    6  A    between atoms: C6_16  and  O1_17 
REMARK    7  A    between atoms: C6_16  and  C7_19 
REMARK    8  A    between atoms: C7_19  and  O2_20 
REMARK    9  A    between atoms: C7_19  and  C8_22 
REMARK   10  A    between atoms: C8_22  and  O3_23 
REMARK   11  A    between atoms: N5_25  and  N6_26 
REMARK   12  A    between atoms: C11_35  and  O4_36 
REMARK   13  A    between atoms: C11_35  and  C12_38 
REMARK   14  A    between atoms: C13_44  and  N13_45 
ROOT
HETATM    1  C3  UNL     1      -0.499   2.500   0.254  1.00  0.00     0.190 A 
HETATM    2  N3  UNL     1       0.764   2.845   0.652  1.00  0.00    -0.279 N 
ATOM      3  H3  UNL     1       1.130   3.797   0.659  1.00  0.00     0.189 HD
HETATM    4  N4  UNL     1       1.424   1.810   1.015  1.00  0.00    -0.277 N 
ATOM      5  H4  UNL     1       2.386   1.798   1.354  1.00  0.00     0.189 HD
HETATM    6  C4  UNL     1       0.604   0.720   0.865  1.00  0.00     0.183 A 
HETATM    7  N5  UNL     1      -0.571   1.162   0.394  1.00  0.00    -0.202 N 
ENDROOT
BRANCH   7   8
HETATM    8  N6  UNL     1      -1.691   0.369   0.047  1.00  0.00    -0.192 N 
HETATM    9  C9  UNL     1      -2.702   0.346   1.081  1.00  0.00     0.216 C 
HETATM   10  N7  UNL     1      -2.442   0.828   2.394  1.00  0.00    -0.061 NA
HETATM   11  N8  UNL     1      -3.899  -0.114   0.873  1.00  0.00    -0.303 N 
HETATM   12  C10 UNL     1      -4.231  -0.643  -0.408  1.00  0.00     0.194 C 
ATOM     13  H8  UNL     1      -4.594  -0.097   1.619  1.00  0.00     0.171 HD
HETATM   14  N9  UNL     1      -5.542  -1.118  -0.680  1.00  0.00    -0.063 NA
HETATM   15  N10 UNL     1      -3.367  -0.695  -1.314  1.00  0.00    -0.308 N 
HETATM   16  C11 UNL     1      -1.951  -0.261  -1.180  1.00  0.00     0.290 C 
ATOM     17  H10 UNL     1      -3.659  -1.066  -2.218  1.00  0.00     0.167 HD
BRANCH  16  18
HETATM   18  O4  UNL     1      -1.643   0.568  -2.252  1.00  0.00    -0.347 OA
ATOM     19  H4  UNL     1      -1.819   0.142  -3.082  1.00  0.00     0.215 HD
ENDBRANCH  16  18
BRANCH  16  20
HETATM   20  C12 UNL     1      -1.257  -1.556  -1.469  1.00  0.00     0.158 A 
HETATM   21  N11 UNL     1      -0.398  -1.703  -2.499  1.00  0.00    -0.235 N 
HETATM   22  O5  UNL     1       0.068  -2.917  -2.529  1.00  0.00    -0.155 OA
ATOM     23  H11 UNL     1      -0.149  -0.967  -3.160  1.00  0.00     0.197 HD
HETATM   24  N12 UNL     1      -0.470  -3.580  -1.532  1.00  0.00    -0.224 N 
HETATM   25  C13 UNL     1      -1.292  -2.774  -0.855  1.00  0.00     0.153 A 
ATOM     26  H12 UNL     1      -0.288  -4.559  -1.309  1.00  0.00     0.198 HD
BRANCH  25  27
HETATM   27  N13 UNL     1      -1.973  -3.079   0.162  1.00  0.00    -0.382 N 
ATOM     28 2H13 UNL     1      -2.601  -2.463   0.679  1.00  0.00     0.157 HD
ATOM     29 1H13 UNL     1      -1.999  -3.990   0.621  1.00  0.00     0.157 HD
ENDBRANCH  25  27
ENDBRANCH  16  20
ENDBRANCH   7   8
BRANCH   1  30
HETATM   30  C2  UNL     1      -1.547   3.460  -0.189  1.00  0.00     0.162 A 
HETATM   31  N2  UNL     1      -1.290   4.764  -0.237  1.00  0.00    -0.318 N 
HETATM   32  C1  UNL     1      -2.283   5.575  -0.598  1.00  0.00     0.160 A 
ATOM     33  H2  UNL     1      -0.366   5.130  -0.006  1.00  0.00     0.169 HD
HETATM   34  S2  UNL     1      -3.575   4.509  -0.870  1.00  0.00     0.024 SA
HETATM   35  N14 UNL     1      -2.783   3.088  -0.509  1.00  0.00    -0.306 N 
ATOM     36  H14 UNL     1      -3.163   2.141  -0.529  1.00  0.00     0.176 HD
BRANCH  32  37
HETATM   37  N1  UNL     1      -2.215   6.885  -0.702  1.00  0.00    -0.379 N 
ATOM     38  H12 UNL     1      -1.438   7.526  -0.539  1.00  0.00     0.158 HD
ATOM     39  H11 UNL     1      -2.975   7.506  -0.978  1.00  0.00     0.158 HD
ENDBRANCH  32  37
ENDBRANCH   1  30
BRANCH   6  40
HETATM   40  S1  UNL     1       1.066  -0.941   1.290  1.00  0.00    -0.088 SA
BRANCH  40  41
HETATM   41  C5  UNL     1       2.702  -1.137   1.914  1.00  0.00     0.116 C 
BRANCH  41  42
HETATM   42  C6  UNL     1       3.840  -0.937   0.989  1.00  0.00     0.158 C 
BRANCH  42  43
HETATM   43  O1  UNL     1       3.892   0.319   0.442  1.00  0.00    -0.392 OA
ATOM     44  H1  UNL     1       4.622   0.447  -0.152  1.00  0.00     0.210 HD
ENDBRANCH  42  43
BRANCH  42  45
HETATM   45  C7  UNL     1       3.992  -2.028  -0.045  1.00  0.00     0.171 C 
BRANCH  45  46
HETATM   46  O2  UNL     1       3.028  -2.017  -1.016  1.00  0.00    -0.391 OA
ATOM     47  H2  UNL     1       3.124  -2.703  -1.666  1.00  0.00     0.210 HD
ENDBRANCH  45  46
BRANCH  45  48
HETATM   48  C8  UNL     1       5.339  -1.827  -0.705  1.00  0.00     0.198 C 
BRANCH  48  49
HETATM   49  O3  UNL     1       5.653  -2.796  -1.623  1.00  0.00    -0.398 OA
ATOM     50  H3  UNL     1       6.499  -2.670  -2.037  1.00  0.00     0.209 HD
ENDBRANCH  48  49
ENDBRANCH  45  48
ENDBRANCH  42  45
ENDBRANCH  41  42
ENDBRANCH  40  41
ENDBRANCH   6  40
TORSDOF 14
