REMARK  13 active torsions:
REMARK  status: ('A' for Active; 'I' for Inactive)
REMARK    1  A    between atoms: O1_2  and  C2_3 
REMARK    2  A    between atoms: C2_3  and  C3_5 
REMARK    3  A    between atoms: C4_6  and  C5_7 
REMARK    4  A    between atoms: C4_6  and  C11_13 
REMARK    5  A    between atoms: C5_7  and  C6_8 
REMARK    6  A    between atoms: C6_8  and  C7_9 
REMARK    7  A    between atoms: C11_13  and  C12_14 
REMARK    8  A    between atoms: C13_15  and  O3_16 
REMARK    9  A    between atoms: C14_18  and  C15_19 
REMARK   10  A    between atoms: C16_22  and  O6_23 
REMARK   11  A    between atoms: C17_25  and  C18_26 
REMARK   12  A    between atoms: C18_26  and  C19_27 
REMARK   13  A    between atoms: C23_31  and  O7_32 
ROOT
HETATM    1  C12 UNL     1      -0.304   0.460   0.764  1.00  0.00     0.014 A 
HETATM    2  C13 UNL     1      -0.536   1.434  -0.231  1.00  0.00     0.095 A 
HETATM    3  C14 UNL     1      -1.653   1.358  -1.075  1.00  0.00     0.108 A 
HETATM    4  C16 UNL     1      -2.550   0.290  -0.920  1.00  0.00     0.094 A 
HETATM    5  C17 UNL     1      -2.292  -0.668   0.083  1.00  0.00     0.014 A 
HETATM    6  C23 UNL     1      -1.193  -0.562   0.888  1.00  0.00     0.086 A 
ENDROOT
BRANCH   1   7
HETATM    7  C11 UNL     1       0.871   0.569   1.622  1.00  0.00     0.082 C 
BRANCH   7   8
HETATM    8  C4  UNL     1       2.162   0.170   0.960  1.00  0.00    -0.051 C 
HETATM    9  C3  UNL     1       3.202   0.926   0.915  1.00  0.00     0.089 C 
BRANCH   9  10
HETATM   10  C2  UNL     1       3.471   2.237   1.430  1.00  0.00     0.282 C 
HETATM   11  O2  UNL     1       4.652   2.726   1.202  1.00  0.00    -0.260 OA
BRANCH  10  12
HETATM   12  O1  UNL     1       2.670   3.082   2.142  1.00  0.00    -0.323 OA
HETATM   13  C1  UNL     1       3.035   4.346   2.598  1.00  0.00     0.213 C 
ENDBRANCH  10  12
ENDBRANCH   9  10
BRANCH   8  14
HETATM   14  C5  UNL     1       2.112  -1.161   0.348  1.00  0.00    -0.015 C 
BRANCH  14  15
HETATM   15  C6  UNL     1       3.188  -1.750  -0.428  1.00  0.00     0.055 C 
BRANCH  15  16
HETATM   16  C7  UNL     1       3.574  -1.096  -1.693  1.00  0.00    -0.021 C 
HETATM   17  C8  UNL     1       4.838  -0.952  -2.032  1.00  0.00    -0.091 C 
HETATM   18  C9  UNL     1       5.926  -1.447  -1.149  1.00  0.00     0.042 C 
HETATM   19  C10 UNL     1       5.197  -0.285  -3.316  1.00  0.00     0.042 C 
ENDBRANCH  15  16
ENDBRANCH  14  15
ENDBRANCH   8  14
ENDBRANCH   7   8
ENDBRANCH   1   7
BRANCH   2  20
HETATM   20  O3  UNL     1       0.369   2.419  -0.310  1.00  0.00    -0.359 OA
ATOM     21  H3  UNL     1       0.213   3.075  -0.980  1.00  0.00     0.217 HD
ENDBRANCH   2  20
BRANCH   6  22
HETATM   22  O7  UNL     1      -0.982  -1.523   1.857  1.00  0.00    -0.355 OA
HETATM   23  C24 UNL     1      -1.477  -1.474   3.178  1.00  0.00     0.210 C 
ENDBRANCH   6  22
BRANCH   3  24
HETATM   24  C15 UNL     1      -1.897   2.355  -2.100  1.00  0.00     0.215 C 
HETATM   25  O4  UNL     1      -2.903   2.262  -2.840  1.00  0.00    -0.644 OA
HETATM   26  O5  UNL     1      -1.083   3.436  -2.333  1.00  0.00    -0.644 OA
ENDBRANCH   3  24
BRANCH   5  27
HETATM   27  C18 UNL     1      -3.272  -1.778   0.223  1.00  0.00     0.072 C 
BRANCH  27  28
HETATM   28  C19 UNL     1      -4.510  -1.375   0.926  1.00  0.00    -0.020 C 
HETATM   29  C20 UNL     1      -5.740  -1.529   0.518  1.00  0.00    -0.091 C 
HETATM   30  C21 UNL     1      -6.184  -2.151  -0.753  1.00  0.00     0.042 C 
HETATM   31  C22 UNL     1      -6.857  -1.032   1.410  1.00  0.00     0.042 C 
ENDBRANCH  27  28
ENDBRANCH   5  27
BRANCH   4  32
HETATM   32  O6  UNL     1      -3.633   0.142  -1.681  1.00  0.00    -0.359 OA
ATOM     33  H6  UNL     1      -4.240  -0.581  -1.576  1.00  0.00     0.217 HD
ENDBRANCH   4  32
TORSDOF 13
