REMARK  7 active torsions:
REMARK  status: ('A' for Active; 'I' for Inactive)
REMARK    1  A    between atoms: C3_5  and  C4_6 
REMARK    2  A    between atoms: C5_9  and  N3_10 
REMARK    3  A    between atoms: C8_15  and  N5_16 
REMARK    4  A    between atoms: C9_22  and  N8_23 
REMARK    5  A    between atoms: C11_25  and  C12_26 
REMARK    6  A    between atoms: C12_26  and  N9_27 
REMARK    7  A    between atoms: C18_40  and  N13_41 
ROOT
HETATM    1  C1  UNL     1      -3.031  -5.479  -1.824  1.00  0.00     0.072 C 
HETATM    2  C2  UNL     1      -2.605  -4.153  -1.280  1.00  0.00     0.052 A 
HETATM    3  N1  UNL     1      -2.956  -2.975  -1.712  1.00  0.00    -0.339 N 
ATOM      4  H1  UNL     1      -3.581  -2.808  -2.500  1.00  0.00     0.167 HD
HETATM    5  C3  UNL     1      -2.347  -1.955  -0.933  1.00  0.00     0.161 A 
HETATM    6  N7  UNL     1      -1.614  -2.567  -0.028  1.00  0.00    -0.262 N 
HETATM    7  C9  UNL     1      -0.792  -2.165   0.930  1.00  0.00     0.141 A 
HETATM    8  C17 UNL     1      -0.117  -3.122   1.729  1.00  0.00     0.099 A 
HETATM    9  C18 UNL     1      -0.293  -4.432   1.522  1.00  0.00     0.103 A 
HETATM   10  N14 UNL     1      -1.110  -4.827   0.553  1.00  0.00    -0.327 N 
ATOM     11  H14 UNL     1      -1.246  -5.825   0.390  1.00  0.00     0.169 HD
HETATM   12  C19 UNL     1      -1.757  -3.946  -0.213  1.00  0.00     0.139 A 
ENDROOT
BRANCH   7  13
HETATM   13  N8  UNL     1      -0.358  -0.848   1.143  1.00  0.00    -0.234 N 
HETATM   14  C10 UNL     1       0.603  -0.260   0.391  1.00  0.00     0.148 A 
HETATM   15  C11 UNL     1       0.935   0.949   0.957  1.00  0.00     0.073 A 
HETATM   16  N11 UNL     1       0.151   1.044   2.039  1.00  0.00    -0.287 N 
HETATM   17  N12 UNL     1      -0.610  -0.032   2.132  1.00  0.00    -0.235 N 
ATOM     18  H11 UNL     1       0.143   1.828   2.692  1.00  0.00     0.188 HD
ATOM     19  H12 UNL     1      -1.295  -0.201   2.869  1.00  0.00     0.209 HD
BRANCH  15  20
HETATM   20  C12 UNL     1       1.943   1.882   0.437  1.00  0.00     0.332 C 
BRANCH  20  21
HETATM   21  N9  UNL     1       3.207   1.790   1.127  1.00  0.00     0.097 N 
HETATM   22  C13 UNL     1       3.753   0.451   1.009  1.00  0.00     0.300 C 
HETATM   23  C14 UNL     1       5.187   0.408   1.501  1.00  0.00     0.262 C 
HETATM   24  N10 UNL     1       6.009   1.355   0.770  1.00  0.00    -0.072 N 
HETATM   25  C15 UNL     1       5.490   2.681   1.046  1.00  0.00     0.262 C 
ATOM     26 2H10 UNL     1       7.003   1.265   0.979  1.00  0.00     0.277 HD
ATOM     27 1H10 UNL     1       6.064   1.148  -0.227  1.00  0.00     0.277 HD
HETATM   28  C16 UNL     1       4.100   2.761   0.470  1.00  0.00     0.300 C 
ENDBRANCH  20  21
ENDBRANCH  15  20
ENDBRANCH   7  13
BRANCH   5  29
HETATM   29  C4  UNL     1      -2.624  -0.587  -1.274  1.00  0.00     0.181 A 
HETATM   30  N2  UNL     1      -2.558   0.506  -0.579  1.00  0.00    -0.172 N 
HETATM   31  C5  UNL     1      -2.754   1.771  -0.951  1.00  0.00     0.695 A 
ATOM     32  H2  UNL     1      -2.319   0.378   0.404  1.00  0.00     0.186 HD
HETATM   33  N4  UNL     1      -3.069   1.922  -2.282  1.00  0.00    -0.022 N 
HETATM   34  C8  UNL     1      -3.162   0.864  -3.084  1.00  0.00     0.692 A 
ATOM     35  H4  UNL     1      -3.233   2.856  -2.658  1.00  0.00     0.203 HD
HETATM   36  N6  UNL     1      -2.952  -0.352  -2.616  1.00  0.00    -0.172 N 
ATOM     37  H6  UNL     1      -3.031  -1.146  -3.251  1.00  0.00     0.186 HD
BRANCH  31  38
HETATM   38  N3  UNL     1      -2.767   2.915  -0.123  1.00  0.00    -0.226 N 
HETATM   39  C6  UNL     1      -2.709   4.229  -0.732  1.00  0.00     0.168 C 
HETATM   40  C7  UNL     1      -2.899   2.840   1.295  1.00  0.00     0.168 C 
ENDBRANCH  31  38
BRANCH  34  41
HETATM   41  N5  UNL     1      -3.462   1.083  -4.333  1.00  0.00    -0.234 N 
ATOM     42  H52 UNL     1      -3.624   2.023  -4.695  1.00  0.00     0.174 HD
ATOM     43  H51 UNL     1      -3.533   0.272  -4.948  1.00  0.00     0.174 HD
ENDBRANCH  34  41
ENDBRANCH   5  29
BRANCH   9  44
HETATM   44  N13 UNL     1       0.294  -5.332   2.223  1.00  0.00    -0.385 N 
ATOM     45 2H13 UNL     1       0.922  -5.029   2.967  1.00  0.00     0.157 HD
ATOM     46 1H13 UNL     1       0.160  -6.331   2.065  1.00  0.00     0.157 HD
ENDBRANCH   9  44
TORSDOF 7
