REMARK  8 active torsions:
REMARK  status: ('A' for Active; 'I' for Inactive)
REMARK    1  A    between atoms: C2_2  and  N1_3 
REMARK    2  A    between atoms: C2_2  and  C7_20 
REMARK       I    between atoms: N1_3  and  C3_5 
REMARK    3  A    between atoms: C3_5  and  C4_7 
REMARK    4  A    between atoms: C5_12  and  N5_13 
REMARK       I    between atoms: C7_20  and  N7_22 
REMARK    5  A    between atoms: N7_22  and  C8_24 
REMARK    6  A    between atoms: C11_27  and  C12_28 
REMARK    7  A    between atoms: C12_28  and  C13_29 
REMARK    8  A    between atoms: C14_34  and  C15_35 
ROOT
HETATM    1  C7  UNL     1       1.370  -0.772  -1.504  1.00  0.00     0.245 C 
HETATM    2  O3  UNL     1       1.371   0.465  -1.199  1.00  0.00    -0.271 OA
HETATM    3  N7  UNL     1       0.166  -1.282  -2.017  1.00  0.00    -0.310 N 
ATOM      4  H7  UNL     1       0.129  -1.553  -3.000  1.00  0.00     0.170 HD
ENDROOT
BRANCH   3   5
HETATM    5  C8  UNL     1      -0.881  -1.420  -1.305  1.00  0.00     0.122 A 
HETATM    6  C9  UNL     1      -0.872  -1.069   0.017  1.00  0.00     0.052 A 
HETATM    7  C10 UNL     1      -2.016  -1.215   0.812  1.00  0.00     0.030 A 
HETATM    8  C11 UNL     1      -3.132  -1.719   0.216  1.00  0.00     0.032 A 
HETATM    9  N12 UNL     1      -3.074  -2.045  -1.089  1.00  0.00    -0.303 N 
HETATM   10  N13 UNL     1      -1.999  -1.910  -1.846  1.00  0.00    -0.285 N 
ATOM     11  H12 UNL     1      -3.917  -2.422  -1.523  1.00  0.00     0.186 HD
ATOM     12  H13 UNL     1      -2.023  -2.177  -2.830  1.00  0.00     0.188 HD
BRANCH   8  13
HETATM   13  C12 UNL     1      -4.417  -1.930   0.934  1.00  0.00     0.124 C 
BRANCH  13  14
HETATM   14  C13 UNL     1      -5.225  -0.673   0.807  1.00  0.00     0.074 A 
HETATM   15  N8  UNL     1      -5.255   0.393   1.600  1.00  0.00    -0.297 N 
HETATM   16  N9  UNL     1      -6.010   1.367   1.323  1.00  0.00    -0.290 N 
ATOM     17  H8  UNL     1      -4.668   0.425   2.433  1.00  0.00     0.187 HD
HETATM   18  C14 UNL     1      -6.775   1.325   0.240  1.00  0.00     0.131 A 
ATOM     19  H9  UNL     1      -6.031   2.185   1.932  1.00  0.00     0.187 HD
HETATM   20  S1  UNL     1      -6.364  -0.207  -0.392  1.00  0.00    -0.053 SA
BRANCH  18  21
HETATM   21  C15 UNL     1      -7.709   2.357  -0.236  1.00  0.00     0.145 C 
HETATM   22  N10 UNL     1      -8.387   2.168  -1.315  1.00  0.00    -0.385 N 
ATOM     23 2H10 UNL     1      -8.271   1.298  -1.835  1.00  0.00     0.157 HD
ATOM     24 1H10 UNL     1      -9.035   2.884  -1.645  1.00  0.00     0.157 HD
HETATM   25  N11 UNL     1      -7.869   3.555   0.481  1.00  0.00    -0.080 NA
ENDBRANCH  18  21
ENDBRANCH  13  14
ENDBRANCH   8  13
ENDBRANCH   3   5
BRANCH   1  26
HETATM   26  C2  UNL     1       2.593  -1.592  -1.312  1.00  0.00     0.173 C 
HETATM   27  C1  UNL     1       2.310  -2.670  -0.257  1.00  0.00     0.042 C 
BRANCH  26  28
HETATM   28  N1  UNL     1       3.630  -0.737  -0.766  1.00  0.00    -0.343 N 
HETATM   29  C3  UNL     1       4.867  -0.569  -1.434  1.00  0.00     0.274 C 
HETATM   30  O1  UNL     1       5.049  -1.182  -2.521  1.00  0.00    -0.266 OA
ATOM     31  H1  UNL     1       3.465  -0.249   0.114  1.00  0.00     0.163 HD
BRANCH  29  32
HETATM   32  C4  UNL     1       5.894   0.296  -0.866  1.00  0.00     0.170 A 
HETATM   33  N2  UNL     1       7.110   0.555  -1.376  1.00  0.00    -0.274 N 
HETATM   34  N3  UNL     1       7.756   1.397  -0.556  1.00  0.00     0.003 NA
ATOM     35  H2  UNL     1       7.481   0.173  -2.246  1.00  0.00     0.184 HD
HETATM   36  N4  UNL     1       6.974   1.690   0.484  1.00  0.00    -0.042 N 
HETATM   37  C5  UNL     1       6.910   2.397   1.627  1.00  0.00     0.718 A 
HETATM   38  C6  UNL     1       5.815   1.014   0.307  1.00  0.00     0.241 A 
HETATM   39  N6  UNL     1       5.693   2.137   2.137  1.00  0.00    -0.088 N 
HETATM   40  O2  UNL     1       5.063   1.311   1.331  1.00  0.00    -0.200 OA
ATOM     41  H6  UNL     1       5.320   2.518   3.006  1.00  0.00     0.214 HD
BRANCH  37  42
HETATM   42  N5  UNL     1       7.794   3.170   2.161  1.00  0.00    -0.231 N 
ATOM     43  H52 UNL     1       8.717   3.367   1.774  1.00  0.00     0.174 HD
ATOM     44  H51 UNL     1       7.745   3.706   3.027  1.00  0.00     0.174 HD
ENDBRANCH  37  42
ENDBRANCH  29  32
ENDBRANCH  26  28
ENDBRANCH   1  26
TORSDOF 8
