REMARK  15 active torsions:
REMARK  status: ('A' for Active; 'I' for Inactive)
REMARK    1  A    between atoms: C2_2  and  C3_3 
REMARK    2  A    between atoms: C3_3  and  C4_4 
REMARK    3  A    between atoms: C4_4  and  C5_5 
REMARK    4  A    between atoms: C5_5  and  N1_6 
REMARK    5  A    between atoms: C5_5  and  C28_43 
REMARK    6  A    between atoms: N1_6  and  C6_7 
REMARK    7  A    between atoms: N4_15  and  C10_16 
REMARK    8  A    between atoms: C10_16  and  C11_17 
REMARK       I    between atoms: C11_17  and  N5_19 
REMARK    9  A    between atoms: C16_24  and  N6_25 
REMARK   10  A    between atoms: C18_29  and  C19_30 
REMARK   11  A    between atoms: C19_30  and  C20_31 
REMARK   12  A    between atoms: C20_31  and  C21_32 
REMARK   13  A    between atoms: C21_32  and  N7_33 
REMARK   14  A    between atoms: N7_33  and  C22_35 
REMARK   15  A    between atoms: C28_43  and  O3_45 
ROOT
HETATM    1  C6  UNL     1      -0.705  -1.849  -0.876  1.00  0.00     0.187 A 
HETATM    2  N2  UNL     1       0.418  -2.599  -1.173  1.00  0.00    -0.328 N 
ATOM      3  H2  UNL     1       0.416  -3.594  -1.398  1.00  0.00     0.168 HD
HETATM    4  C7  UNL     1       1.494  -1.833  -1.122  1.00  0.00     0.073 A 
HETATM    5  C8  UNL     1       2.824  -2.198  -1.363  1.00  0.00     0.050 A 
HETATM    6  C9  UNL     1       3.144  -3.596  -1.714  1.00  0.00     0.072 C 
HETATM    7  N3  UNL     1       3.718  -1.222  -1.251  1.00  0.00    -0.299 N 
ATOM      8  H3  UNL     1       4.697  -1.454  -1.420  1.00  0.00     0.187 HD
HETATM    9  N4  UNL     1       3.433   0.005  -0.942  1.00  0.00    -0.267 N 
HETATM   10  C16 UNL     1       2.149   0.395  -0.701  1.00  0.00     0.129 A 
HETATM   11  C17 UNL     1       1.143  -0.543  -0.790  1.00  0.00     0.049 A 
HETATM   12  C18 UNL     1      -0.245  -0.546  -0.633  1.00  0.00     0.017 A 
ENDROOT
BRANCH  12  13
HETATM   13  C19 UNL     1      -0.968   0.663  -0.269  1.00  0.00     0.046 C 
BRANCH  13  14
HETATM   14  C20 UNL     1      -2.437   0.575  -0.074  1.00  0.00     0.024 C 
BRANCH  14  15
HETATM   15  C21 UNL     1      -2.905   2.011   0.296  1.00  0.00     0.121 C 
BRANCH  15  16
HETATM   16  N7  UNL     1      -2.611   2.947  -0.736  1.00  0.00    -0.376 N 
ATOM     17  H7  UNL     1      -2.438   2.623  -1.687  1.00  0.00     0.161 HD
BRANCH  16  18
HETATM   18  C22 UNL     1      -2.565   4.203  -0.463  1.00  0.00     0.106 A 
HETATM   19  N8  UNL     1      -2.781   4.713   0.764  1.00  0.00    -0.352 N 
HETATM   20  C23 UNL     1      -2.721   6.040   1.044  1.00  0.00     0.089 A 
ATOM     21  H8  UNL     1      -3.001   4.068   1.523  1.00  0.00     0.166 HD
HETATM   22  C24 UNL     1      -2.430   6.964   0.071  1.00  0.00     0.018 A 
HETATM   23  C25 UNL     1      -2.202   6.489  -1.199  1.00  0.00     0.012 A 
HETATM   24  C26 UNL     1      -2.268   5.132  -1.467  1.00  0.00    -0.018 A 
HETATM   25  C27 UNL     1      -2.026   4.621  -2.816  1.00  0.00     0.052 C 
ENDBRANCH  16  18
ENDBRANCH  15  16
ENDBRANCH  14  15
ENDBRANCH  13  14
ENDBRANCH  12  13
BRANCH   1  26
HETATM   26  N1  UNL     1      -1.965  -2.254  -0.838  1.00  0.00    -0.385 NA
BRANCH  26  27
HETATM   27  C5  UNL     1      -3.044  -2.714  -0.574  1.00  0.00     0.162 C 
BRANCH  27  28
HETATM   28  C4  UNL     1      -3.360  -3.449   0.720  1.00  0.00     0.079 C 
BRANCH  28  29
HETATM   29  C3  UNL     1      -4.335  -2.732   1.579  1.00  0.00     0.007 C 
BRANCH  29  30
HETATM   30  C2  UNL     1      -4.594  -3.550   2.836  1.00  0.00    -0.004 C 
HETATM   31  C1  UNL     1      -3.331  -3.779   3.630  1.00  0.00     0.005 C 
ENDBRANCH  29  30
ENDBRANCH  28  29
ENDBRANCH  27  28
BRANCH  27  32
HETATM   32  C28 UNL     1      -4.169  -2.584  -1.490  1.00  0.00     0.319 C 
HETATM   33  O2  UNL     1      -3.994  -1.970  -2.570  1.00  0.00    -0.257 OA
BRANCH  32  34
HETATM   34  O3  UNL     1      -5.428  -3.087  -1.262  1.00  0.00    -0.321 OA
HETATM   35  C29 UNL     1      -6.476  -2.908  -2.221  1.00  0.00     0.213 C 
ENDBRANCH  32  34
ENDBRANCH  27  32
ENDBRANCH  26  27
ENDBRANCH   1  26
BRANCH  10  36
HETATM   36  N6  UNL     1       1.936   1.582  -0.412  1.00  0.00    -0.384 N 
ATOM     37  H62 UNL     1       2.680   2.276  -0.346  1.00  0.00     0.157 HD
ATOM     38  H61 UNL     1       0.975   1.874  -0.232  1.00  0.00     0.157 HD
ENDBRANCH  10  36
BRANCH   9  39
HETATM   39  C10 UNL     1       4.458   1.010  -0.846  1.00  0.00     0.253 C 
BRANCH  39  40
HETATM   40  C11 UNL     1       4.965   1.035   0.547  1.00  0.00     0.239 C 
HETATM   41  O1  UNL     1       4.361   1.751   1.382  1.00  0.00    -0.271 OA
HETATM   42  N5  UNL     1       6.095   0.286   0.954  1.00  0.00    -0.351 N 
HETATM   43  C12 UNL     1       6.884  -0.587   0.093  1.00  0.00     0.126 C 
HETATM   44  C15 UNL     1       6.694   0.233   2.267  1.00  0.00     0.126 C 
HETATM   45  C13 UNL     1       8.269  -0.616   0.728  1.00  0.00     0.021 C 
HETATM   46  C14 UNL     1       8.173   0.332   1.902  1.00  0.00     0.021 C 
ENDBRANCH  39  40
ENDBRANCH   9  39
TORSDOF 15
