REMARK  12 active torsions:
REMARK  status: ('A' for Active; 'I' for Inactive)
REMARK    1  A    between atoms: C2_3  and  C3_4 
REMARK    2  A    between atoms: C3_4  and  N2_5 
REMARK       I    between atoms: N2_5  and  C4_7 
REMARK    3  A    between atoms: C4_7  and  C5_9 
REMARK    4  A    between atoms: C5_9  and  C6_10 
REMARK    5  A    between atoms: C5_9  and  O5_34 
REMARK    6  A    between atoms: C6_10  and  C7_11 
REMARK    7  A    between atoms: C7_11  and  C8_12 
REMARK    8  A    between atoms: C8_12  and  O3_14 
REMARK    9  A    between atoms: O3_14  and  C9_15 
REMARK       I    between atoms: N5_24  and  C15_25 
REMARK   10  A    between atoms: C15_25  and  C16_27 
REMARK   11  A    between atoms: O5_34  and  C20_35 
REMARK   12  A    between atoms: C20_35  and  C21_36 
ROOT
HETATM    1  N1  UNL     1      -6.885  -5.528   4.010  1.00  0.00    -0.197 NA
HETATM    2  C1  UNL     1      -6.456  -4.688   3.339  1.00  0.00     0.060 C 
HETATM    3  C2  UNL     1      -5.915  -3.639   2.484  1.00  0.00     0.143 C 
ENDROOT
BRANCH   3   4
HETATM    4  C3  UNL     1      -4.632  -3.106   3.078  1.00  0.00     0.137 C 
BRANCH   4   5
HETATM    5  N2  UNL     1      -4.125  -2.070   2.205  1.00  0.00    -0.358 N 
HETATM    6  C4  UNL     1      -2.898  -1.365   2.510  1.00  0.00     0.246 C 
HETATM    7  O1  UNL     1      -2.321  -1.721   3.564  1.00  0.00    -0.271 OA
ATOM      8  H2  UNL     1      -4.642  -1.832   1.359  1.00  0.00     0.162 HD
BRANCH   6   9
HETATM    9  C5  UNL     1      -2.373  -0.306   1.632  1.00  0.00     0.213 C 
BRANCH   9  10
HETATM   10  C6  UNL     1      -1.044  -0.643   0.983  1.00  0.00     0.051 C 
BRANCH  10  11
HETATM   11  C7  UNL     1       0.022  -0.886   1.986  1.00  0.00     0.114 C 
BRANCH  11  12
HETATM   12  C8  UNL     1       1.345  -1.188   1.314  1.00  0.00     0.259 C 
HETATM   13  O2  UNL     1       1.582  -2.339   0.897  1.00  0.00    -0.265 OA
BRANCH  12  14
HETATM   14  O3  UNL     1       2.306  -0.217   1.146  1.00  0.00    -0.316 OA
BRANCH  14  15
HETATM   15  C9  UNL     1       3.565  -0.506   0.507  1.00  0.00     0.138 C 
HETATM   16  C10 UNL     1       3.707   0.296  -0.730  1.00  0.00     0.079 C 
HETATM   17  C11 UNL     1       4.741   1.382  -0.700  1.00  0.00     0.191 C 
HETATM   18  N3  UNL     1       4.194   2.416   0.200  1.00  0.00    -0.359 N 
HETATM   19  N5  UNL     1       5.916   0.992   0.038  1.00  0.00    -0.318 N 
HETATM   20  C12 UNL     1       4.573   2.158   1.420  1.00  0.00     0.114 C 
ATOM     21  H3  UNL     1       3.614   3.204  -0.086  1.00  0.00     0.162 HD
HETATM   22  N4  UNL     1       4.244   2.929   2.569  1.00  0.00    -0.086 NA
HETATM   23  C13 UNL     1       5.423   0.914   1.411  1.00  0.00     0.156 C 
HETATM   24  C14 UNL     1       4.614  -0.325   1.544  1.00  0.00     0.065 C 
HETATM   25  C15 UNL     1       7.234   0.746  -0.364  1.00  0.00     0.253 C 
HETATM   26  O4  UNL     1       8.068   0.411   0.553  1.00  0.00    -0.271 OA
BRANCH  25  27
HETATM   27  C16 UNL     1       7.765   0.833  -1.728  1.00  0.00     0.277 C 
HETATM   28  C17 UNL     1       7.187  -0.246  -2.625  1.00  0.00     0.044 C 
HETATM   29  C18 UNL     1       8.183  -1.384  -2.532  1.00  0.00     0.030 C 
HETATM   30  C19 UNL     1       9.396  -0.827  -1.831  1.00  0.00     0.233 C 
HETATM   31  N6  UNL     1       9.196   0.583  -1.706  1.00  0.00    -0.062 N 
ATOM     32  H62 UNL     1       9.702   1.118  -2.411  1.00  0.00     0.278 HD
ATOM     33  H61 UNL     1       9.654   0.976  -0.884  1.00  0.00     0.278 HD
ENDBRANCH  25  27
ENDBRANCH  14  15
ENDBRANCH  12  14
ENDBRANCH  11  12
ENDBRANCH  10  11
ENDBRANCH   9  10
BRANCH   9  34
HETATM   34  O5  UNL     1      -3.306   0.020   0.604  1.00  0.00    -0.376 OA
BRANCH  34  35
HETATM   35  C20 UNL     1      -3.582   1.352   0.739  1.00  0.00     0.173 C 
BRANCH  35  36
HETATM   36  C21 UNL     1      -4.507   1.975  -0.237  1.00  0.00     0.009 C 
HETATM   37  C22 UNL     1      -3.960   1.824  -1.627  1.00  0.00     0.007 C 
HETATM   38  C23 UNL     1      -4.848   2.311  -2.719  1.00  0.00     0.000 C 
HETATM   39  C24 UNL     1      -5.459   1.115  -3.420  1.00  0.00     0.000 C 
HETATM   40  C25 UNL     1      -6.724   0.646  -2.741  1.00  0.00     0.000 C 
HETATM   41  C26 UNL     1      -6.366  -0.236  -1.596  1.00  0.00     0.000 C 
HETATM   42  C27 UNL     1      -6.504   0.395  -0.256  1.00  0.00     0.000 C 
HETATM   43  C28 UNL     1      -5.955   1.746  -0.059  1.00  0.00     0.007 C 
ENDBRANCH  35  36
ENDBRANCH  34  35
ENDBRANCH   9  34
ENDBRANCH   6   9
ENDBRANCH   4   5
ENDBRANCH   3   4
TORSDOF 12
