REMARK  6 active torsions:
REMARK  status: ('A' for Active; 'I' for Inactive)
REMARK    1  A    between atoms: C5_5  and  C6_6 
REMARK    2  A    between atoms: C6_6  and  N1_7 
REMARK    3  A    between atoms: N1_7  and  C7_9 
REMARK    4  A    between atoms: C9_13  and  C10_14 
REMARK    5  A    between atoms: C11_17  and  N4_18 
REMARK    6  A    between atoms: C13_24  and  C14_25 
ROOT
HETATM    1  C7  UNL     1       0.827  -1.720  -0.249  1.00  0.00     0.678 A 
HETATM    2  N2  UNL     1       0.549  -0.939  -1.284  1.00  0.00    -0.200 N 
ATOM      3  H2  UNL     1       1.208  -0.613  -1.991  1.00  0.00     0.183 HD
HETATM    4  C8  UNL     1      -0.794  -0.650  -1.226  1.00  0.00     0.138 A 
HETATM    5  C9  UNL     1      -1.356  -1.250  -0.155  1.00  0.00     0.093 A 
HETATM    6  N6  UNL     1      -0.307  -1.909   0.429  1.00  0.00    -0.188 N 
ATOM      7  H6  UNL     1      -0.383  -2.473   1.275  1.00  0.00     0.184 HD
ENDROOT
BRANCH   5   8
HETATM    8  C10 UNL     1      -2.701  -1.324   0.406  1.00  0.00     0.086 A 
HETATM    9  N3  UNL     1      -2.870  -2.087   1.540  1.00  0.00    -0.189 N 
HETATM   10  C11 UNL     1      -4.012  -2.276   2.171  1.00  0.00     0.676 A 
ATOM     11  H3  UNL     1      -2.043  -2.544   1.924  1.00  0.00     0.184 HD
HETATM   12  N5  UNL     1      -5.125  -1.695   1.704  1.00  0.00    -0.202 N 
HETATM   13  C12 UNL     1      -5.042  -0.929   0.595  1.00  0.00     0.116 A 
ATOM     14  H5  UNL     1      -6.019  -1.829   2.177  1.00  0.00     0.183 HD
HETATM   15  C13 UNL     1      -3.827  -0.731  -0.073  1.00  0.00    -0.008 A 
BRANCH  10  16
HETATM   16  N4  UNL     1      -4.137  -2.997   3.231  1.00  0.00    -0.234 N 
ATOM     17  H42 UNL     1      -3.290  -3.439   3.587  1.00  0.00     0.174 HD
ATOM     18  H41 UNL     1      -5.021  -3.143   3.719  1.00  0.00     0.174 HD
ENDBRANCH  10  16
BRANCH  15  19
HETATM   19  C14 UNL     1      -3.846   0.149  -1.234  1.00  0.00     0.022 C 
HETATM   20  C15 UNL     1      -5.251   0.381  -1.790  1.00  0.00     0.009 C 
HETATM   21  C16 UNL     1      -5.750   1.676  -1.240  1.00  0.00     0.001 C 
HETATM   22  C17 UNL     1      -4.696   2.160  -0.291  1.00  0.00     0.001 C 
HETATM   23  C18 UNL     1      -3.414   1.573  -0.856  1.00  0.00     0.009 C 
ENDBRANCH  15  19
ENDBRANCH   5   8
BRANCH   1  24
HETATM   24  N1  UNL     1       2.003  -2.225   0.063  1.00  0.00    -0.226 N 
ATOM     25  H1  UNL     1       2.092  -2.815   0.890  1.00  0.00     0.177 HD
BRANCH  24  26
HETATM   26  C6  UNL     1       3.167  -1.956  -0.747  1.00  0.00     0.142 C 
BRANCH  26  27
HETATM   27  C5  UNL     1       4.080  -1.063   0.097  1.00  0.00     0.004 C 
HETATM   28  C4  UNL     1       3.350   0.204   0.438  1.00  0.00     0.006 C 
HETATM   29  C3  UNL     1       4.203   1.129   1.243  1.00  0.00     0.005 C 
HETATM   30  C2  UNL     1       5.490   1.480   0.560  1.00  0.00    -0.019 C 
HETATM   31  C1  UNL     1       5.519   2.968   0.199  1.00  0.00     0.010 C 
HETATM   32  C20 UNL     1       5.652   0.723  -0.726  1.00  0.00     0.005 C 
HETATM   33  C19 UNL     1       5.365  -0.744  -0.601  1.00  0.00     0.006 C 
ENDBRANCH  26  27
ENDBRANCH  24  26
ENDBRANCH   1  24
TORSDOF 6
