REMARK  7 active torsions:
REMARK  status: ('A' for Active; 'I' for Inactive)
REMARK    1  A    between atoms: C2_2  and  N1_3 
REMARK    2  A    between atoms: N1_3  and  C3_5 
REMARK    3  A    between atoms: C4_10  and  N4_11 
REMARK    4  A    between atoms: N4_11  and  C5_13 
REMARK    5  A    between atoms: C5_13  and  C6_14 
REMARK    6  A    between atoms: C6_14  and  C7_15 
REMARK    7  A    between atoms: C7_15  and  N5_16 
ROOT
HETATM    1  C3  UNL     1       2.245  -1.585  -0.437  1.00  0.00     0.707 A 
HETATM    2  N2  UNL     1       1.837  -2.833  -0.744  1.00  0.00    -0.117 N 
ATOM      3  H2  UNL     1       2.418  -3.607  -1.067  1.00  0.00     0.206 HD
HETATM    4  N3  UNL     1       0.533  -2.849  -0.541  1.00  0.00    -0.117 N 
ATOM      5  H3  UNL     1      -0.067  -3.661  -0.687  1.00  0.00     0.206 HD
HETATM    6  C4  UNL     1       0.106  -1.649  -0.116  1.00  0.00     0.707 A 
HETATM    7  N6  UNL     1       1.183  -0.872  -0.056  1.00  0.00    -0.020 N 
ATOM      8  H6  UNL     1       1.196   0.106   0.233  1.00  0.00     0.203 HD
ENDROOT
BRANCH   6   9
HETATM    9  N4  UNL     1      -1.127  -1.327   0.176  1.00  0.00    -0.224 N 
ATOM     10  H4  UNL     1      -1.860  -2.031   0.083  1.00  0.00     0.177 HD
BRANCH   9  11
HETATM   11  C5  UNL     1      -1.475  -0.015   0.622  1.00  0.00     0.140 C 
BRANCH  11  12
HETATM   12  C6  UNL     1      -2.913   0.347   0.301  1.00  0.00     0.047 C 
BRANCH  12  13
HETATM   13  C7  UNL     1      -3.178   1.745   0.812  1.00  0.00     0.231 C 
BRANCH  13  14
HETATM   14  N5  UNL     1      -4.514   2.187   0.559  1.00  0.00    -0.079 N 
ATOM     15  H53 UNL     1      -4.741   2.112  -0.433  1.00  0.00     0.274 HD
ATOM     16  H52 UNL     1      -5.194   1.526   0.935  1.00  0.00     0.274 HD
ATOM     17  H51 UNL     1      -4.693   3.130   0.904  1.00  0.00     0.274 HD
ENDBRANCH  13  14
ENDBRANCH  12  13
ENDBRANCH  11  12
ENDBRANCH   9  11
ENDBRANCH   6   9
BRANCH   1  18
HETATM   18  N1  UNL     1       3.467  -1.171  -0.508  1.00  0.00    -0.225 N 
ATOM     19  H1  UNL     1       4.210  -1.800  -0.813  1.00  0.00     0.177 HD
BRANCH  18  20
HETATM   20  C2  UNL     1       3.764   0.191  -0.150  1.00  0.00     0.134 C 
HETATM   21  C1  UNL     1       3.243   1.149  -1.190  1.00  0.00     0.027 C 
ENDBRANCH  18  20
ENDBRANCH   1  18
TORSDOF 7
