REMARK  8 active torsions:
REMARK  status: ('A' for Active; 'I' for Inactive)
REMARK    1  A    between atoms: O1_2  and  C2_3 
REMARK    2  A    between atoms: C4_5  and  O2_6 
REMARK    3  A    between atoms: C5_8  and  O3_9 
REMARK    4  A    between atoms: C7_12  and  C8_13 
REMARK    5  A    between atoms: C8_13  and  O4_14 
REMARK    6  A    between atoms: C8_13  and  O5_16 
REMARK    7  A    between atoms: O5_16  and  C9_17 
REMARK    8  A    between atoms: C10_20  and  C11_21 
ROOT
HETATM    1  C8  UNL     1      -1.047  -0.595   0.347  1.00  0.00     0.267 C 
ENDROOT
BRANCH   1   2
HETATM    2  C7  UNL     1      -2.108   0.117  -0.454  1.00  0.00     0.080 C 
HETATM    3  C2  UNL     1      -3.424   0.190   0.331  1.00  0.00     0.093 C 
HETATM    4  C3  UNL     1      -3.307   1.155   1.484  1.00  0.00     0.049 C 
HETATM    5  C4  UNL     1      -4.357   0.667  -0.756  1.00  0.00     0.181 C 
HETATM    6  C5  UNL     1      -3.808   0.096  -2.057  1.00  0.00     0.150 C 
HETATM    7  C6  UNL     1      -2.567  -0.675  -1.659  1.00  0.00     0.047 C 
BRANCH   3   8
HETATM    8  O1  UNL     1      -3.769  -1.081   0.700  1.00  0.00    -0.382 OA
HETATM    9  C1  UNL     1      -4.960  -1.230   1.354  1.00  0.00     0.202 C 
ENDBRANCH   3   8
BRANCH   5  10
HETATM   10  O2  UNL     1      -4.408   2.062  -0.813  1.00  0.00    -0.390 OA
ATOM     11  H2  UNL     1      -4.995   2.362  -1.497  1.00  0.00     0.210 HD
ENDBRANCH   5  10
BRANCH   6  12
HETATM   12  O3  UNL     1      -3.364   1.156  -2.881  1.00  0.00    -0.393 OA
ATOM     13  H3  UNL     1      -3.022   0.800  -3.692  1.00  0.00     0.210 HD
ENDBRANCH   6  12
ENDBRANCH   1   2
BRANCH   1  14
HETATM   14  O4  UNL     1      -1.399  -1.889   0.670  1.00  0.00    -0.371 OA
ATOM     15  H4  UNL     1      -0.731  -2.338   1.175  1.00  0.00     0.212 HD
ENDBRANCH   1  14
BRANCH   1  16
HETATM   16  O5  UNL     1       0.187  -0.542  -0.294  1.00  0.00    -0.327 OA
BRANCH  16  17
HETATM   17  C9  UNL     1       1.146   0.178   0.414  1.00  0.00     0.315 C 
HETATM   18  O6  UNL     1       1.665   1.228  -0.315  1.00  0.00    -0.248 OA
HETATM   19  N1  UNL     1       2.937   0.970  -0.651  1.00  0.00    -0.061 NA
HETATM   20  C10 UNL     1       3.732   0.936   0.561  1.00  0.00     0.290 C 
HETATM   21  O8  UNL     1       3.377  -0.181   1.281  1.00  0.00    -0.353 OA
HETATM   22  C12 UNL     1       2.213  -0.792   0.841  1.00  0.00     0.177 C 
HETATM   23  C13 UNL     1       2.467  -1.859  -0.206  1.00  0.00     0.044 C 
BRANCH  20  24
HETATM   24  C11 UNL     1       5.192   0.941   0.169  1.00  0.00     0.305 C 
HETATM   25  N2  UNL     1       6.078   0.820   1.293  1.00  0.00    -0.089 NA
HETATM   26  N3  UNL     1       7.210   0.205   0.718  1.00  0.00    -0.008 NA
HETATM   27  N4  UNL     1       6.702  -0.598  -0.304  1.00  0.00     0.032 NA
HETATM   28  O7  UNL     1       5.481  -0.161  -0.608  1.00  0.00    -0.241 OA
ENDBRANCH  20  24
ENDBRANCH  16  17
ENDBRANCH   1  16
TORSDOF 8
