REMARK  10 active torsions:
REMARK  status: ('A' for Active; 'I' for Inactive)
REMARK    1  A    between atoms: N1_1  and  C1_4 
REMARK    2  A    between atoms: C2_7  and  N3_8 
REMARK    3  A    between atoms: C3_13  and  N5_14 
REMARK    4  A    between atoms: N5_14  and  N6_16 
REMARK    5  A    between atoms: N6_16  and  C4_18 
REMARK    6  A    between atoms: C4_18  and  C5_19 
REMARK    7  A    between atoms: C6_22  and  C7_23 
REMARK    8  A    between atoms: C7_23  and  N8_24 
REMARK    9  A    between atoms: N8_24  and  C8_27 
REMARK   10  A    between atoms: C8_27  and  C9_28 
ROOT
HETATM    1  C4  UNL     1       2.848  -0.748  -1.394  1.00  0.00     0.224 C 
ENDROOT
BRANCH   1   2
HETATM    2  N6  UNL     1       4.041  -1.231  -0.748  1.00  0.00    -0.315 N 
ATOM      3  H6  UNL     1       4.332  -2.202  -0.865  1.00  0.00     0.181 HD
BRANCH   2   4
HETATM    4  N5  UNL     1       4.791  -0.364   0.035  1.00  0.00    -0.135 N 
ATOM      5  H5  UNL     1       4.370   0.120   0.828  1.00  0.00     0.205 HD
BRANCH   4   6
HETATM    6  C3  UNL     1       6.040  -0.184  -0.266  1.00  0.00     0.725 A 
HETATM    7  N4  UNL     1       6.823   0.650   0.461  1.00  0.00    -0.020 N 
HETATM    8  C2  UNL     1       8.105   0.829   0.146  1.00  0.00     0.705 A 
ATOM      9  H4  UNL     1       6.426   1.146   1.259  1.00  0.00     0.203 HD
HETATM   10  N2  UNL     1       8.638   0.171  -0.915  1.00  0.00    -0.022 N 
HETATM   11  C1  UNL     1       7.895  -0.664  -1.660  1.00  0.00     0.705 A 
ATOM     12  H2  UNL     1       9.620   0.313  -1.151  1.00  0.00     0.203 HD
HETATM   13  N10 UNL     1       6.609  -0.815  -1.307  1.00  0.00    -0.020 N 
ATOM     14  H10 UNL     1       6.030  -1.446  -1.861  1.00  0.00     0.203 HD
BRANCH   8  15
HETATM   15  N3  UNL     1       8.852   1.620   0.833  1.00  0.00    -0.234 N 
ATOM     16  H32 UNL     1       9.834   1.757   0.592  1.00  0.00     0.174 HD
ATOM     17  H31 UNL     1       8.452   2.114   1.630  1.00  0.00     0.174 HD
ENDBRANCH   8  15
BRANCH  11  18
HETATM   18  N1  UNL     1       8.425  -1.278  -2.664  1.00  0.00    -0.234 N 
ATOM     19  H12 UNL     1       9.402  -1.163  -2.932  1.00  0.00     0.174 HD
ATOM     20  H11 UNL     1       7.861  -1.912  -3.230  1.00  0.00     0.174 HD
ENDBRANCH  11  18
ENDBRANCH   4   6
ENDBRANCH   2   4
ENDBRANCH   1   2
BRANCH   1  21
HETATM   21  C5  UNL     1       1.849  -0.245  -0.422  1.00  0.00     0.142 A 
HETATM   22  N7  UNL     1       0.887  -0.939   0.167  1.00  0.00    -0.339 N 
HETATM   23  C6  UNL     1       0.174  -0.121   0.997  1.00  0.00     0.059 A 
ATOM     24  H7  UNL     1       0.706  -1.932   0.023  1.00  0.00     0.167 HD
HETATM   25  C15 UNL     1       0.784   1.114   0.858  1.00  0.00     0.170 A 
HETATM   26  O1  UNL     1       1.772   0.980   0.003  1.00  0.00    -0.306 OA
BRANCH  23  27
HETATM   27  C7  UNL     1      -0.989  -0.466   1.854  1.00  0.00     0.291 C 
BRANCH  27  28
HETATM   28  N8  UNL     1      -2.187  -0.258   1.066  1.00  0.00    -0.068 N 
ATOM     29  H82 UNL     1      -2.221   0.688   0.687  1.00  0.00     0.277 HD
ATOM     30  H81 UNL     1      -2.150  -0.781   0.191  1.00  0.00     0.277 HD
BRANCH  28  31
HETATM   31  C8  UNL     1      -3.388  -0.569   1.815  1.00  0.00     0.257 C 
BRANCH  31  32
HETATM   32  C9  UNL     1      -4.563  -0.328   0.925  1.00  0.00     0.102 C 
HETATM   33  C10 UNL     1      -5.883  -0.628   1.607  1.00  0.00     0.026 C 
HETATM   34  C11 UNL     1      -6.853  -1.012   0.481  1.00  0.00     0.002 C 
HETATM   35  C12 UNL     1      -7.107   0.204  -0.361  1.00  0.00     0.002 C 
HETATM   36  C13 UNL     1      -6.119   0.363  -1.496  1.00  0.00     0.019 C 
HETATM   37  C14 UNL     1      -4.849   1.045  -1.040  1.00  0.00     0.114 C 
HETATM   38  N9  UNL     1      -4.657   0.983   0.373  1.00  0.00    -0.415 N 
ATOM     39  H9  UNL     1      -4.591   1.822   0.950  1.00  0.00     0.153 HD
ENDBRANCH  31  32
ENDBRANCH  28  31
ENDBRANCH  27  28
ENDBRANCH  23  27
ENDBRANCH   1  21
TORSDOF 10
