REMARK  11 active torsions:
REMARK  status: ('A' for Active; 'I' for Inactive)
REMARK    1  A    between atoms: C3_3  and  C4_4 
REMARK    2  A    between atoms: C4_4  and  C5_5 
REMARK    3  A    between atoms: C5_5  and  C6_6 
REMARK    4  A    between atoms: C7_7  and  C8_8 
REMARK    5  A    between atoms: C9_10  and  C10_11 
REMARK    6  A    between atoms: C10_11  and  S1_12 
REMARK    7  A    between atoms: S1_12  and  C11_13 
REMARK    8  A    between atoms: C11_13  and  C12_14 
REMARK    9  A    between atoms: C12_14  and  O2_15 
REMARK   10  A    between atoms: C12_14  and  C13_17 
REMARK   11  A    between atoms: C14_21  and  O6_23 
ROOT
HETATM    1  C8  UNL     1      -0.310  -0.692  -1.435  1.00  0.00     0.293 C 
HETATM    2  O1  UNL     1       0.477  -0.164  -0.421  1.00  0.00    -0.327 OA
HETATM    3  C9  UNL     1       1.308  -1.168   0.056  1.00  0.00     0.278 C 
HETATM    4  O5  UNL     1       1.193  -2.269  -0.779  1.00  0.00    -0.301 OA
HETATM    5  C14 UNL     1      -0.073  -2.815  -0.600  1.00  0.00     0.280 C 
HETATM    6  C15 UNL     1      -0.237  -3.171   0.850  1.00  0.00     0.115 C 
HETATM    7  O7  UNL     1      -0.995  -1.840  -0.986  1.00  0.00    -0.299 OA
ENDROOT
BRANCH   3   8
HETATM    8  C10 UNL     1       2.750  -0.707   0.146  1.00  0.00     0.135 C 
BRANCH   8   9
HETATM    9  S1  UNL     1       2.857   0.703   1.269  1.00  0.00    -0.161 SA
BRANCH   9  10
HETATM   10  C11 UNL     1       4.598   1.254   1.368  1.00  0.00     0.116 C 
BRANCH  10  11
HETATM   11  C12 UNL     1       4.980   1.799   0.001  1.00  0.00     0.228 C 
BRANCH  11  12
HETATM   12  O2  UNL     1       4.176   2.858  -0.345  1.00  0.00    -0.384 OA
ATOM     13  H2  UNL     1       4.415   3.199  -1.199  1.00  0.00     0.210 HD
ENDBRANCH  11  12
BRANCH  11  14
HETATM   14  C13 UNL     1       6.428   2.127   0.045  1.00  0.00     0.203 C 
HETATM   15  O3  UNL     1       6.882   3.257  -0.201  1.00  0.00    -0.646 OA
HETATM   16  O4  UNL     1       7.279   1.071   0.386  1.00  0.00    -0.646 OA
ENDBRANCH  11  14
ENDBRANCH  10  11
ENDBRANCH   9  10
ENDBRANCH   8   9
ENDBRANCH   3   8
BRANCH   1  17
HETATM   17  C7  UNL     1      -1.311   0.269  -1.916  1.00  0.00     0.029 C 
HETATM   18  C6  UNL     1      -2.241   0.741  -1.106  1.00  0.00    -0.025 C 
BRANCH  18  19
HETATM   19  C5  UNL     1      -2.407   0.399   0.312  1.00  0.00     0.031 C 
BRANCH  19  20
HETATM   20  C4  UNL     1      -3.770  -0.229   0.510  1.00  0.00     0.030 C 
BRANCH  20  21
HETATM   21  C3  UNL     1      -4.796   0.762   0.106  1.00  0.00    -0.031 C 
HETATM   22  C2  UNL     1      -5.676   1.168   1.000  1.00  0.00    -0.035 C 
HETATM   23  C1  UNL     1      -6.701   2.154   0.605  1.00  0.00     0.036 C 
ENDBRANCH  20  21
ENDBRANCH  19  20
ENDBRANCH  18  19
ENDBRANCH   1  17
BRANCH   5  24
HETATM   24  O6  UNL     1      -0.286  -3.913  -1.435  1.00  0.00    -0.343 OA
ATOM     25  H6  UNL     1      -1.151  -4.286  -1.313  1.00  0.00     0.215 HD
ENDBRANCH   5  24
TORSDOF 11
