REMARK  15 active torsions:
REMARK  status: ('A' for Active; 'I' for Inactive)
REMARK    1  A    between atoms: N1_1  and  C1_4 
REMARK    2  A    between atoms: C2_7  and  O1_8 
REMARK    3  A    between atoms: O1_8  and  C3_9 
REMARK    4  A    between atoms: C3_9  and  C4_10 
REMARK       I    between atoms: C4_10  and  N3_12 
REMARK    5  A    between atoms: N3_12  and  N4_14 
REMARK    6  A    between atoms: N7_22  and  C6_23 
REMARK    7  A    between atoms: C7_25  and  C8_26 
REMARK       I    between atoms: C8_26  and  N8_28 
REMARK    8  A    between atoms: N8_28  and  C9_30 
REMARK    9  A    between atoms: C9_30  and  C10_31 
REMARK   10  A    between atoms: C10_31  and  O5_32 
REMARK   11  A    between atoms: C12_35  and  O6_36 
REMARK   12  A    between atoms: C13_38  and  O7_39 
REMARK   13  A    between atoms: C14_41  and  O8_42 
REMARK   14  A    between atoms: C15_44  and  O9_45 
REMARK   15  A    between atoms: C16_47  and  O10_48 
ROOT
HETATM    1  C6  UNL     1       0.211  -0.822  -0.589  1.00  0.00     0.279 C 
HETATM    2  O3  UNL     1      -0.178  -1.477   0.558  1.00  0.00    -0.345 OA
HETATM    3  C7  UNL     1      -1.055  -2.484   0.169  1.00  0.00     0.247 C 
HETATM    4  C15 UNL     1      -0.606  -2.950  -1.178  1.00  0.00     0.189 C 
HETATM    5  C16 UNL     1      -0.000  -1.711  -1.776  1.00  0.00     0.200 C 
ENDROOT
BRANCH   1   6
HETATM    6  N7  UNL     1       1.499  -0.212  -0.547  1.00  0.00    -0.227 N 
HETATM    7  N6  UNL     1       1.827   1.031  -0.936  1.00  0.00    -0.236 N 
HETATM    8  N5  UNL     1       3.111   1.212  -0.738  1.00  0.00    -0.279 N 
ATOM      9  H6  UNL     1       1.183   1.721  -1.322  1.00  0.00     0.208 HD
HETATM   10  C5  UNL     1       3.670   0.098  -0.213  1.00  0.00     0.147 A 
ATOM     11  H5  UNL     1       3.617   2.072  -0.950  1.00  0.00     0.189 HD
HETATM   12  C2  UNL     1       4.905  -0.296   0.188  1.00  0.00     0.190 A 
HETATM   13  C17 UNL     1       2.619  -0.804  -0.098  1.00  0.00     0.174 A 
HETATM   14  N2  UNL     1       5.088  -1.535   0.681  1.00  0.00    -0.168 N 
HETATM   15  C1  UNL     1       4.088  -2.420   0.800  1.00  0.00     0.679 A 
ATOM     16  H2  UNL     1       6.025  -1.812   0.976  1.00  0.00     0.186 HD
HETATM   17  N9  UNL     1       2.864  -2.026   0.402  1.00  0.00    -0.173 N 
ATOM     18  H9  UNL     1       2.089  -2.684   0.484  1.00  0.00     0.186 HD
BRANCH  12  19
HETATM   19  O1  UNL     1       5.963   0.580   0.085  1.00  0.00    -0.324 OA
BRANCH  19  20
HETATM   20  C3  UNL     1       7.271   0.259   0.474  1.00  0.00     0.282 C 
BRANCH  20  21
HETATM   21  C4  UNL     1       8.143   1.418   0.226  1.00  0.00     0.259 C 
HETATM   22  O2  UNL     1       9.359   1.346   0.507  1.00  0.00    -0.269 OA
HETATM   23  N3  UNL     1       7.622   2.601  -0.322  1.00  0.00    -0.275 N 
ATOM     24  H3  UNL     1       6.629   2.651  -0.549  1.00  0.00     0.189 HD
BRANCH  23  25
HETATM   25  N4  UNL     1       8.432   3.705  -0.562  1.00  0.00    -0.343 N 
ATOM     26  H42 UNL     1       9.423   3.638  -0.330  1.00  0.00     0.176 HD
ATOM     27  H41 UNL     1       8.053   4.564  -0.960  1.00  0.00     0.176 HD
ENDBRANCH  23  25
ENDBRANCH  20  21
ENDBRANCH  19  20
ENDBRANCH  12  19
BRANCH  15  28
HETATM   28  N1  UNL     1       4.245  -3.612   1.271  1.00  0.00    -0.234 N 
ATOM     29  H12 UNL     1       5.173  -3.911   1.573  1.00  0.00     0.174 HD
ATOM     30  H11 UNL     1       3.484  -4.285   1.362  1.00  0.00     0.174 HD
ENDBRANCH  15  28
ENDBRANCH   1   6
BRANCH   5  31
HETATM   31  O10 UNL     1       1.251  -1.964  -2.345  1.00  0.00    -0.388 OA
ATOM     32  H10 UNL     1       1.117  -2.528  -3.098  1.00  0.00     0.210 HD
ENDBRANCH   5  31
BRANCH   3  33
HETATM   33  C8  UNL     1      -2.470  -2.096   0.258  1.00  0.00     0.249 C 
HETATM   34  O4  UNL     1      -3.347  -2.960  -0.091  1.00  0.00    -0.271 OA
HETATM   35  N8  UNL     1      -2.907  -0.829   0.706  1.00  0.00    -0.356 N 
ATOM     36  H8  UNL     1      -2.219  -0.131   0.987  1.00  0.00     0.162 HD
BRANCH  35  37
HETATM   37  C9  UNL     1      -4.310  -0.509   0.771  1.00  0.00     0.163 C 
BRANCH  37  38
HETATM   38  C10 UNL     1      -4.579   0.872   1.267  1.00  0.00     0.104 C 
HETATM   39  C11 UNL     1      -6.085   1.081   1.272  1.00  0.00     0.076 C 
HETATM   40  C12 UNL     1      -6.433   1.296  -0.185  1.00  0.00     0.152 C 
HETATM   41  C13 UNL     1      -5.174   1.818  -0.853  1.00  0.00     0.178 C 
HETATM   42  C14 UNL     1      -4.127   1.876   0.255  1.00  0.00     0.185 C 
BRANCH  38  43
HETATM   43  O5  UNL     1      -4.096   1.106   2.535  1.00  0.00    -0.385 OA
ATOM     44  H5  UNL     1      -4.267   1.985   2.851  1.00  0.00     0.210 HD
ENDBRANCH  38  43
BRANCH  40  45
HETATM   45  O6  UNL     1      -7.448   2.237  -0.343  1.00  0.00    -0.393 OA
ATOM     46  H6  UNL     1      -7.666   2.372  -1.258  1.00  0.00     0.210 HD
ENDBRANCH  40  45
BRANCH  41  47
HETATM   47  O7  UNL     1      -5.374   3.090  -1.398  1.00  0.00    -0.390 OA
ATOM     48  H7  UNL     1      -4.586   3.417  -1.816  1.00  0.00     0.210 HD
ENDBRANCH  41  47
BRANCH  42  49
HETATM   49  O8  UNL     1      -4.164   3.176   0.779  1.00  0.00    -0.390 OA
ATOM     50  H8  UNL     1      -3.877   3.814   0.136  1.00  0.00     0.210 HD
ENDBRANCH  42  49
ENDBRANCH  37  38
ENDBRANCH  35  37
ENDBRANCH   3  33
BRANCH   4  51
HETATM   51  O9  UNL     1      -1.709  -3.289  -1.962  1.00  0.00    -0.390 OA
ATOM     52  H9  UNL     1      -1.424  -3.585  -2.818  1.00  0.00     0.210 HD
ENDBRANCH   4  51
TORSDOF 15
