REMARK  15 active torsions:
REMARK  status: ('A' for Active; 'I' for Inactive)
REMARK       I    between atoms: C2_2  and  N1_4 
REMARK    1  A    between atoms: N1_4  and  C3_5 
REMARK    2  A    between atoms: C4_6  and  O2_7 
REMARK    3  A    between atoms: O2_7  and  C5_8 
REMARK    4  A    between atoms: C5_8  and  C6_9 
REMARK    5  A    between atoms: C7_11  and  N2_12 
REMARK    6  A    between atoms: C10_21  and  N6_22 
REMARK    7  A    between atoms: C12_28  and  O4_29 
REMARK    8  A    between atoms: C13_31  and  O5_32 
REMARK    9  A    between atoms: C14_34  and  C15_35 
REMARK   10  A    between atoms: C15_35  and  O6_36 
REMARK   11  A    between atoms: C16_38  and  N8_39 
REMARK   12  A    between atoms: C16_38  and  O7_43 
REMARK   13  A    between atoms: C17_45  and  O8_46 
REMARK   14  A    between atoms: C17_45  and  O9_48 
REMARK   15  A    between atoms: C18_50  and  O10_51 
ROOT
HETATM    1  C6  UNL     1       0.793  -0.596   0.265  1.00  0.00     0.157 C 
HETATM    2  O3  UNL     1       2.004   0.174   0.231  1.00  0.00    -0.353 OA
HETATM    3  C7  UNL     1       3.000  -0.707   0.689  1.00  0.00     0.294 C 
HETATM    4  C12 UNL     1       3.188  -1.855  -0.254  1.00  0.00     0.199 C 
HETATM    5  C13 UNL     1       1.921  -2.576  -0.559  1.00  0.00     0.160 C 
HETATM    6  C14 UNL     1       0.873  -1.490  -0.917  1.00  0.00     0.072 C 
ENDROOT
BRANCH   1   7
HETATM    7  C5  UNL     1      -0.380   0.313   0.343  1.00  0.00     0.201 C 
BRANCH   7   8
HETATM    8  O2  UNL     1      -1.597  -0.346   0.431  1.00  0.00    -0.375 OA
BRANCH   8   9
HETATM    9  C4  UNL     1      -2.662   0.561   0.492  1.00  0.00     0.228 C 
HETATM   10  C3  UNL     1      -3.510   0.386  -0.802  1.00  0.00     0.234 C 
HETATM   11  C18 UNL     1      -4.507  -0.603  -0.325  1.00  0.00     0.224 C 
HETATM   12  C17 UNL     1      -4.887  -0.220   1.081  1.00  0.00     0.251 C 
HETATM   13  C16 UNL     1      -3.553   0.309   1.639  1.00  0.00     0.310 C 
BRANCH  10  14
HETATM   14  N1  UNL     1      -3.987   1.568  -1.333  1.00  0.00    -0.404 NA
HETATM   15  C2  UNL     1      -4.462   2.745  -1.862  1.00  0.00     0.283 C 
HETATM   16  C1  UNL     1      -5.771   2.720  -2.696  1.00  0.00     0.134 C 
HETATM   17  O1  UNL     1      -3.967   3.844  -1.754  1.00  0.00    -0.258 OA
ENDBRANCH  10  14
BRANCH  11  18
HETATM   18  O10 UNL     1      -3.906  -1.859  -0.232  1.00  0.00    -0.387 OA
ATOM     19  H10 UNL     1      -4.545  -2.492   0.074  1.00  0.00     0.210 HD
ENDBRANCH  11  18
BRANCH  12  20
HETATM   20  O8  UNL     1      -5.857   0.750   1.134  1.00  0.00    -0.360 OA
ATOM     21  H8  UNL     1      -6.680   0.424   0.790  1.00  0.00     0.213 HD
ENDBRANCH  12  20
BRANCH  12  22
HETATM   22  O9  UNL     1      -5.267  -1.384   1.757  1.00  0.00    -0.360 OA
ATOM     23  H9  UNL     1      -6.090  -1.710   1.413  1.00  0.00     0.213 HD
ENDBRANCH  12  22
BRANCH  13  24
HETATM   24  N8  UNL     1      -3.825   1.556   2.381  1.00  0.00    -0.039 N 
ATOM     25  H83 UNL     1      -2.963   2.018   2.669  1.00  0.00     0.278 HD
ATOM     26  H82 UNL     1      -4.195   2.284   1.770  1.00  0.00     0.278 HD
ATOM     27  H81 UNL     1      -4.442   1.382   3.175  1.00  0.00     0.278 HD
ENDBRANCH  13  24
BRANCH  13  28
HETATM   28  O7  UNL     1      -3.110  -0.608   2.563  1.00  0.00    -0.359 OA
ATOM     29  H7  UNL     1      -3.684  -0.770   3.302  1.00  0.00     0.212 HD
ENDBRANCH  13  28
ENDBRANCH   8   9
ENDBRANCH   7   8
ENDBRANCH   1   7
BRANCH   6  30
HETATM   30  C15 UNL     1      -0.349  -2.194  -1.340  1.00  0.00     0.174 C 
BRANCH  30  31
HETATM   31  O6  UNL     1      -0.799  -3.052  -0.322  1.00  0.00    -0.400 OA
ATOM     32  H6  UNL     1      -1.587  -3.506  -0.595  1.00  0.00     0.209 HD
ENDBRANCH  30  31
ENDBRANCH   6  30
BRANCH   3  33
HETATM   33  N2  UNL     1       4.255   0.017   0.781  1.00  0.00    -0.199 N 
HETATM   34  N3  UNL     1       4.728   0.638   1.827  1.00  0.00    -0.264 N 
HETATM   35  C8  UNL     1       5.930   1.181   1.503  1.00  0.00     0.154 A 
ATOM     36  H3  UNL     1       4.271   0.704   2.736  1.00  0.00     0.190 HD
HETATM   37  N4  UNL     1       6.842   1.897   2.138  1.00  0.00    -0.335 N 
HETATM   38  C11 UNL     1       6.150   0.841   0.190  1.00  0.00     0.139 A 
HETATM   39  C9  UNL     1       7.998   2.339   1.612  1.00  0.00     0.183 A 
ATOM     40  H4  UNL     1       6.652   2.135   3.112  1.00  0.00     0.168 HD
HETATM   41  N5  UNL     1       8.213   2.003   0.325  1.00  0.00    -0.337 N 
HETATM   42  C10 UNL     1       7.343   1.282  -0.388  1.00  0.00     0.132 A 
ATOM     43  H5  UNL     1       9.076   2.312  -0.123  1.00  0.00     0.168 HD
HETATM   44  N7  UNL     1       5.105   0.133  -0.215  1.00  0.00    -0.275 N 
ATOM     45  H7  UNL     1       4.981  -0.259  -1.149  1.00  0.00     0.189 HD
BRANCH  42  46
HETATM   46  N6  UNL     1       7.551   0.959  -1.617  1.00  0.00    -0.383 N 
ATOM     47  H62 UNL     1       8.422   1.281  -2.039  1.00  0.00     0.157 HD
ATOM     48  H61 UNL     1       6.887   0.409  -2.161  1.00  0.00     0.157 HD
ENDBRANCH  42  46
ENDBRANCH   3  33
BRANCH   5  49
HETATM   49  O5  UNL     1       1.456  -3.232   0.581  1.00  0.00    -0.392 OA
ATOM     50  H5  UNL     1       0.648  -3.692   0.386  1.00  0.00     0.210 HD
ENDBRANCH   5  49
BRANCH   4  51
HETATM   51  O4  UNL     1       3.760  -1.485  -1.471  1.00  0.00    -0.388 OA
ATOM     52  H4  UNL     1       3.879  -2.213  -2.069  1.00  0.00     0.210 HD
ENDBRANCH   4  51
TORSDOF 15
