REMARK  9 active torsions:
REMARK  status: ('A' for Active; 'I' for Inactive)
REMARK    1  A    between atoms: C2_2  and  C3_3 
REMARK    2  A    between atoms: C3_3  and  C4_4 
REMARK    3  A    between atoms: C4_4  and  C5_5 
REMARK    4  A    between atoms: C5_5  and  C6_6 
REMARK    5  A    between atoms: C7_7  and  C9_9 
REMARK    6  A    between atoms: C10_10  and  N1_11 
REMARK    7  A    between atoms: C19_20  and  C20_21 
REMARK    8  A    between atoms: C21_22  and  C22_23 
REMARK    9  A    between atoms: C22_23  and  C24_25 
ROOT
HETATM    1  C4  UNL     1       0.795   0.141   0.051  1.00  0.00     0.011 C 
ENDROOT
BRANCH   1   2
HETATM    2  C3  UNL     1       1.512  -1.108   1.066  1.00  0.00    -0.037 C 
HETATM    3  C19 UNL     1       2.623  -0.668   0.743  1.00  0.00     0.011 C 
BRANCH   2   4
HETATM    4  C2  UNL     1       0.277  -1.595   1.425  1.00  0.00     0.001 C 
HETATM    5  C1  UNL     1       0.161  -2.968   1.507  1.00  0.00     0.012 C 
ENDBRANCH   2   4
BRANCH   3   6
HETATM    6  C20 UNL     1       3.244   0.590   0.504  1.00  0.00    -0.002 C 
HETATM    7  C21 UNL     1       4.496   0.773   0.136  1.00  0.00    -0.018 C 
BRANCH   7   8
HETATM    8  C22 UNL     1       5.511  -0.253  -0.104  1.00  0.00     0.037 C 
HETATM    9  C23 UNL     1       6.070   0.031  -1.524  1.00  0.00     0.019 C 
BRANCH   8  10
HETATM   10  C24 UNL     1       6.625  -0.077   0.889  1.00  0.00    -0.051 A 
HETATM   11  C25 UNL     1       7.714  -0.971   0.839  1.00  0.00     0.008 A 
HETATM   12  C26 UNL     1       8.742  -0.821   1.751  1.00  0.00     0.001 A 
HETATM   13  C27 UNL     1       8.746   0.177   2.715  1.00  0.00     0.000 A 
HETATM   14  C28 UNL     1       7.680   1.035   2.748  1.00  0.00     0.001 A 
HETATM   15  C29 UNL     1       6.650   0.895   1.846  1.00  0.00     0.008 A 
ENDBRANCH   8  10
ENDBRANCH   7   8
ENDBRANCH   3   6
ENDBRANCH   1   2
BRANCH   1  16
HETATM   16  C5  UNL     1      -0.427   0.171  -0.069  1.00  0.00     0.001 C 
BRANCH  16  17
HETATM   17  C6  UNL     1      -0.991   1.254  -0.935  1.00  0.00     0.007 C 
HETATM   18  C7  UNL     1      -2.215   1.401  -1.176  1.00  0.00    -0.061 C 
HETATM   19  C8  UNL     1      -2.607   2.556  -2.078  1.00  0.00     0.048 C 
BRANCH  18  20
HETATM   20  C9  UNL     1      -3.292   0.573  -0.694  1.00  0.00     0.024 C 
HETATM   21  C10 UNL     1      -4.557   0.772  -0.986  1.00  0.00     0.097 C 
BRANCH  21  22
HETATM   22  N1  UNL     1      -5.558  -0.085  -0.475  1.00  0.00    -0.332 N 
HETATM   23  C11 UNL     1      -5.417  -1.145   0.369  1.00  0.00     0.097 A 
HETATM   24  C12 UNL     1      -6.640  -1.725   0.611  1.00  0.00     0.031 A 
HETATM   25  C13 UNL     1      -7.562  -1.000  -0.106  1.00  0.00    -0.008 A 
HETATM   26  C14 UNL     1      -8.926  -1.135  -0.238  1.00  0.00     0.014 A 
HETATM   27  C18 UNL     1      -6.893   0.002  -0.768  1.00  0.00     0.048 A 
HETATM   28  C15 UNL     1      -9.675  -0.279  -1.032  1.00  0.00     0.001 A 
HETATM   29  C16 UNL     1      -9.015   0.726  -1.697  1.00  0.00     0.002 A 
HETATM   30  C17 UNL     1      -7.625   0.869  -1.565  1.00  0.00     0.031 A 
ENDBRANCH  21  22
ENDBRANCH  18  20
ENDBRANCH  16  17
ENDBRANCH   1  16
TORSDOF 9
