REMARK  14 active torsions:
REMARK  status: ('A' for Active; 'I' for Inactive)
REMARK       I    between atoms: C2_4  and  N3_6 
REMARK    1  A    between atoms: N3_6  and  C3_8 
REMARK    2  A    between atoms: C3_8  and  C4_9 
REMARK    3  A    between atoms: C4_9  and  O1_10 
REMARK    4  A    between atoms: O1_10  and  C5_11 
REMARK    5  A    between atoms: C5_11  and  C6_12 
REMARK    6  A    between atoms: C6_12  and  O2_13 
REMARK    7  A    between atoms: O2_13  and  C7_14 
REMARK    8  A    between atoms: C7_14  and  C8_15 
REMARK    9  A    between atoms: C8_15  and  N4_16 
REMARK   10  A    between atoms: N4_16  and  C9_18 
REMARK   11  A    between atoms: C10_21  and  N6_22 
REMARK   12  A    between atoms: N6_22  and  N7_24 
REMARK   13  A    between atoms: C12_28  and  N8_29 
REMARK   14  A    between atoms: N8_29  and  O3_31 
ROOT
HETATM    1  C9  UNL     1      -3.512   0.227   0.217  1.00  0.00     0.681 A 
HETATM    2  N5  UNL     1      -3.740   1.445  -0.290  1.00  0.00    -0.175 N 
ATOM      3  H5  UNL     1      -3.093   1.816  -0.986  1.00  0.00     0.186 HD
HETATM    4  C10 UNL     1      -4.805   2.208   0.090  1.00  0.00     0.138 A 
HETATM    5  C11 UNL     1      -5.673   1.722   1.020  1.00  0.00     0.101 A 
HETATM    6  C12 UNL     1      -5.446   0.478   1.541  1.00  0.00     0.144 A 
HETATM    7  N9  UNL     1      -4.379  -0.263   1.147  1.00  0.00    -0.175 N 
ATOM      8  H9  UNL     1      -4.226  -1.188   1.548  1.00  0.00     0.186 HD
ENDROOT
BRANCH   1   9
HETATM    9  N4  UNL     1      -2.518  -0.494  -0.136  1.00  0.00    -0.224 N 
ATOM     10  H4  UNL     1      -2.421  -1.411   0.301  1.00  0.00     0.177 HD
BRANCH   9  11
HETATM   11  C8  UNL     1      -1.518  -0.107  -1.110  1.00  0.00     0.164 C 
BRANCH  11  12
HETATM   12  C7  UNL     1      -0.445   0.739  -0.491  1.00  0.00     0.188 C 
BRANCH  12  13
HETATM   13  O2  UNL     1       0.545   1.154  -1.341  1.00  0.00    -0.387 OA
BRANCH  13  14
HETATM   14  C6  UNL     1       1.268   0.154  -1.961  1.00  0.00     0.193 C 
BRANCH  14  15
HETATM   15  C5  UNL     1       1.973  -0.782  -1.019  1.00  0.00     0.193 C 
BRANCH  15  16
HETATM   16  O1  UNL     1       2.881  -0.207  -0.188  1.00  0.00    -0.387 OA
BRANCH  16  17
HETATM   17  C4  UNL     1       3.928   0.437  -0.814  1.00  0.00     0.187 C 
BRANCH  17  18
HETATM   18  C3  UNL     1       4.747  -0.484  -1.688  1.00  0.00     0.148 C 
BRANCH  18  19
HETATM   19  N3  UNL     1       5.332  -1.572  -0.946  1.00  0.00    -0.363 N 
HETATM   20  C2  UNL     1       6.360  -1.400   0.021  1.00  0.00     0.183 C 
HETATM   21  N1  UNL     1       7.590  -1.297  -0.373  1.00  0.00    -0.369 N 
HETATM   22  N2  UNL     1       5.985  -1.348   1.382  1.00  0.00    -0.064 NA
HETATM   23  C1  UNL     1       8.616  -1.122   0.651  1.00  0.00     0.148 C 
ATOM     24  H1  UNL     1       7.833  -1.337  -1.363  1.00  0.00     0.161 HD
ATOM     25  H3  UNL     1       4.990  -2.516  -1.124  1.00  0.00     0.162 HD
ENDBRANCH  18  19
ENDBRANCH  17  18
ENDBRANCH  16  17
ENDBRANCH  15  16
ENDBRANCH  14  15
ENDBRANCH  13  14
ENDBRANCH  12  13
ENDBRANCH  11  12
ENDBRANCH   9  11
ENDBRANCH   1   9
BRANCH   4  26
HETATM   26  N6  UNL     1      -4.999   3.490  -0.480  1.00  0.00    -0.292 N 
ATOM     27  H6  UNL     1      -4.583   4.317  -0.051  1.00  0.00     0.188 HD
BRANCH  26  28
HETATM   28  N7  UNL     1      -5.764   3.602  -1.631  1.00  0.00    -0.344 N 
ATOM     29  H72 UNL     1      -6.173   2.766  -2.048  1.00  0.00     0.176 HD
ATOM     30  H71 UNL     1      -5.904   4.525  -2.041  1.00  0.00     0.176 HD
ENDBRANCH  26  28
ENDBRANCH   4  26
BRANCH   6  31
HETATM   31  N8  UNL     1      -6.248  -0.029   2.431  1.00  0.00    -0.250 N 
ATOM     32  H8  UNL     1      -7.055   0.514   2.739  1.00  0.00     0.196 HD
BRANCH  31  33
HETATM   33  O3  UNL     1      -6.039  -1.264   2.962  1.00  0.00    -0.284 OA
HETATM   34  C13 UNL     1      -6.637  -2.398   2.372  1.00  0.00     0.237 C 
ENDBRANCH  31  33
ENDBRANCH   6  31
TORSDOF 14
