REMARK  8 active torsions:
REMARK  status: ('A' for Active; 'I' for Inactive)
REMARK    1  A    between atoms: C3_3  and  N1_4 
REMARK    2  A    between atoms: N1_4  and  C4_5 
REMARK    3  A    between atoms: N1_4  and  C5_7 
REMARK    4  A    between atoms: N1_4  and  C7_9 
REMARK    5  A    between atoms: C7_9  and  C8_10 
REMARK    6  A    between atoms: C16_20  and  N3_21 
REMARK    7  A    between atoms: N3_21  and  C17_22 
REMARK    8  A    between atoms: N3_21  and  C19_24 
ROOT
HETATM    1  C1  UNL     1      -5.344   3.296  -2.465  1.00  0.00     0.098 C 
HETATM    2  C2  UNL     1      -4.545   2.863  -1.645  1.00  0.00    -0.160 C 
HETATM    3  C3  UNL     1      -3.594   2.372  -0.651  1.00  0.00     0.326 C 
ENDROOT
BRANCH   3   4
HETATM    4  N1  UNL     1      -3.364   0.946  -0.957  1.00  0.00    -0.004 N 
BRANCH   4   5
HETATM    5  C4  UNL     1      -3.212   0.891  -2.360  1.00  0.00     0.460 C 
HETATM    6  O1  UNL     1      -4.101   0.552  -3.142  1.00  0.00    -0.276 OA
ENDBRANCH   4   5
BRANCH   4   7
HETATM    7  C5  UNL     1      -4.605   0.283  -0.618  1.00  0.00     0.243 C 
HETATM    8  C6  UNL     1      -4.861   0.180   0.857  1.00  0.00     0.035 C 
ENDBRANCH   4   7
BRANCH   4   9
HETATM    9  C7  UNL     1      -2.235   0.536  -0.208  1.00  0.00     0.258 C 
BRANCH   9  10
HETATM   10  C8  UNL     1      -1.342  -0.500  -0.844  1.00  0.00     0.063 C 
HETATM   11  C9  UNL     1      -2.131  -1.736  -1.091  1.00  0.00     0.012 C 
HETATM   12  C10 UNL     1      -1.135  -2.885  -1.267  1.00  0.00     0.001 C 
HETATM   13  C11 UNL     1      -1.166  -3.616   0.058  1.00  0.00     0.005 C 
HETATM   14  C12 UNL     1      -0.452  -2.906   1.140  1.00  0.00     0.041 C 
HETATM   15  C13 UNL     1       0.264  -1.696   0.748  1.00  0.00    -0.022 A 
HETATM   16  C14 UNL     1      -0.111  -0.702  -0.077  1.00  0.00     0.022 A 
HETATM   17  C24 UNL     1       1.529  -1.421   1.231  1.00  0.00     0.004 A 
HETATM   18  N2  UNL     1       0.898   0.200  -0.124  1.00  0.00    -0.355 N 
HETATM   19  C15 UNL     1       1.934  -0.201   0.668  1.00  0.00     0.088 A 
ATOM     20  H2  UNL     1       0.885   1.059  -0.674  1.00  0.00     0.166 HD
HETATM   21  C16 UNL     1       3.164   0.343   0.956  1.00  0.00     0.131 A 
HETATM   22  N4  UNL     1       3.968  -0.362   1.812  1.00  0.00    -0.345 N 
HETATM   23  C21 UNL     1       3.627  -1.524   2.371  1.00  0.00     0.007 A 
ATOM     24  H4  UNL     1       4.884   0.026   2.036  1.00  0.00     0.167 HD
HETATM   25  C22 UNL     1       4.558  -2.249   3.305  1.00  0.00     0.068 C 
HETATM   26  C23 UNL     1       2.395  -2.070   2.084  1.00  0.00     0.039 A 
BRANCH  21  27
HETATM   27  N3  UNL     1       3.601   1.568   0.431  1.00  0.00    -0.366 N 
BRANCH  27  28
HETATM   28  C17 UNL     1       3.105   2.887   0.709  1.00  0.00     0.120 C 
HETATM   29  C18 UNL     1       2.484   3.606  -0.446  1.00  0.00     0.026 C 
ENDBRANCH  27  28
BRANCH  27  30
HETATM   30  C19 UNL     1       4.744   1.524  -0.500  1.00  0.00     0.120 C 
HETATM   31  C20 UNL     1       5.211   0.117  -0.742  1.00  0.00     0.026 C 
ENDBRANCH  27  30
ENDBRANCH  21  27
ENDBRANCH   9  10
ENDBRANCH   4   9
ENDBRANCH   3   4
TORSDOF 8
