REMARK  4 active torsions:
REMARK  status: ('A' for Active; 'I' for Inactive)
REMARK    1  A    between atoms: N1_1  and  C1_4 
REMARK    2  A    between atoms: C3_10  and  N4_11 
REMARK    3  A    between atoms: N4_11  and  N5_13 
REMARK    4  A    between atoms: N5_13  and  N6_14 
ROOT
HETATM    1  C1  UNL     1      -3.272   0.599  -0.412  1.00  0.00     0.225 A 
HETATM    2  N2  UNL     1      -2.089   1.237  -0.377  1.00  0.00    -0.305 N 
ATOM      3  H2  UNL     1      -1.960   2.234  -0.550  1.00  0.00     0.171 HD
HETATM    4  C2  UNL     1      -1.098   0.374  -0.082  1.00  0.00     0.162 A 
HETATM    5  N3  UNL     1       0.222   0.474   0.072  1.00  0.00    -0.320 N 
ATOM      6  H3  UNL     1       0.647   1.394  -0.045  1.00  0.00     0.169 HD
HETATM    7  C3  UNL     1       1.025  -0.549   0.369  1.00  0.00     0.189 A 
HETATM    8  C4  UNL     1       0.374  -1.783   0.511  1.00  0.00     0.292 A 
HETATM    9  O1  UNL     1       1.115  -2.763   0.790  1.00  0.00    -0.264 OA
HETATM   10  N7  UNL     1      -0.953  -1.904   0.359  1.00  0.00    -0.297 N 
ATOM     11  H7  UNL     1      -1.372  -2.827   0.475  1.00  0.00     0.171 HD
HETATM   12  C5  UNL     1      -1.756  -0.874   0.062  1.00  0.00     0.199 A 
HETATM   13  O2  UNL     1      -3.019  -0.641  -0.146  1.00  0.00    -0.258 OA
ENDROOT
BRANCH   7  14
HETATM   14  N4  UNL     1       2.426  -0.415   0.543  1.00  0.00    -0.265 N 
ATOM     15  H4  UNL     1       2.814  -0.538   1.478  1.00  0.00     0.186 HD
BRANCH  14  16
HETATM   16  N5  UNL     1       3.299  -0.123  -0.506  1.00  0.00    -0.028 NA
BRANCH  16  17
HETATM   17  N6  UNL     1       3.601   1.249  -0.555  1.00  0.00    -0.329 N 
ATOM     18  H62 UNL     1       3.222   1.932   0.101  1.00  0.00     0.174 HD
ATOM     19  H61 UNL     1       4.239   1.462  -1.322  1.00  0.00     0.174 HD
ENDBRANCH  16  17
ENDBRANCH  14  16
ENDBRANCH   7  14
BRANCH   1  20
HETATM   20  N1  UNL     1      -4.442   1.141  -0.668  1.00  0.00    -0.365 N 
ATOM     21  H12 UNL     1      -4.642   2.119  -0.878  1.00  0.00     0.159 HD
ATOM     22  H11 UNL     1      -5.339   0.657  -0.695  1.00  0.00     0.159 HD
ENDBRANCH   1  20
TORSDOF 4
