REMARK  4 active torsions:
REMARK  status: ('A' for Active; 'I' for Inactive)
REMARK    1  A    between atoms: C2_2  and  S1_4 
REMARK    2  A    between atoms: S1_4  and  C4_5 
REMARK    3  A    between atoms: N2_9  and  C6_11 
REMARK    4  A    between atoms: C6_11  and  C7_12 
ROOT
HETATM    1  C4  UNL     1       2.570  -0.392   0.468  1.00  0.00     0.145 A 
HETATM    2  N1  UNL     1       1.375  -0.938   0.789  1.00  0.00    -0.323 N 
ATOM      3  H1  UNL     1       1.295  -1.447   1.669  1.00  0.00     0.169 HD
HETATM    4  C5  UNL     1       0.294  -0.843   0.009  1.00  0.00     0.104 A 
HETATM    5  N2  UNL     1      -0.809  -1.395   0.393  1.00  0.00    -0.376 N 
ATOM      6  H2  UNL     1      -0.817  -1.889   1.285  1.00  0.00     0.161 HD
HETATM    7  C12 UNL     1       0.418  -0.156  -1.172  1.00  0.00     0.065 A 
HETATM    8  C13 UNL     1       1.637   0.412  -1.518  1.00  0.00     0.094 A 
HETATM    9  N4  UNL     1       2.654   0.264  -0.678  1.00  0.00    -0.347 N 
ATOM     10  H4  UNL     1       3.551   0.679  -0.930  1.00  0.00     0.167 HD
ENDROOT
BRANCH   5  11
HETATM   11  C6  UNL     1      -2.029  -1.350  -0.373  1.00  0.00     0.128 C 
BRANCH  11  12
HETATM   12  C7  UNL     1      -2.794  -0.062  -0.141  1.00  0.00     0.041 C 
HETATM   13  C8  UNL     1      -4.059  -0.025  -0.940  1.00  0.00     0.036 C 
HETATM   14  C9  UNL     1      -5.135   0.813  -0.249  1.00  0.00     0.233 C 
HETATM   15  N3  UNL     1      -5.499   0.212   1.019  1.00  0.00    -0.072 N 
HETATM   16  C10 UNL     1      -4.476  -0.681   1.512  1.00  0.00     0.269 C 
ATOM     17  H32 UNL     1      -5.733   0.924   1.711  1.00  0.00     0.277 HD
ATOM     18  H31 UNL     1      -6.402  -0.258   0.959  1.00  0.00     0.277 HD
HETATM   19  C11 UNL     1      -3.139   0.013   1.340  1.00  0.00     0.201 C 
HETATM   20  F1  UNL     1      -3.215   1.340   1.694  1.00  0.00    -0.247 F 
ENDBRANCH  11  12
ENDBRANCH   5  11
BRANCH   1  21
HETATM   21  S1  UNL     1       3.884  -0.620   1.632  1.00  0.00    -0.090 SA
BRANCH  21  22
HETATM   22  C2  UNL     1       5.422   0.158   1.143  1.00  0.00     0.047 C 
HETATM   23  C1  UNL     1       5.322   1.672   1.129  1.00  0.00     0.021 C 
HETATM   24  C3  UNL     1       5.963  -0.372  -0.172  1.00  0.00     0.021 C 
ENDBRANCH  21  22
ENDBRANCH   1  21
TORSDOF 4
