REMARK  4 active torsions:
REMARK  status: ('A' for Active; 'I' for Inactive)
REMARK    1  A    between atoms: C5_6  and  C6_7 
REMARK    2  A    between atoms: C6_7  and  N1_8 
REMARK    3  A    between atoms: C6_7  and  C12_15 
REMARK    4  A    between atoms: N1_8  and  N2_9 
ROOT
HETATM    1  C6  UNL     1      -0.743   0.801  -0.310  1.00  0.00     0.150 C 
ENDROOT
BRANCH   1   2
HETATM    2  C5  UNL     1      -1.259  -0.349   0.478  1.00  0.00    -0.033 A 
HETATM    3  C4  UNL     1      -1.413  -1.602  -0.056  1.00  0.00     0.009 A 
HETATM    4  C3  UNL     1      -1.897  -2.685   0.682  1.00  0.00     0.004 A 
HETATM    5  C2  UNL     1      -2.225  -2.464   1.987  1.00  0.00     0.042 A 
HETATM    6  C1  UNL     1      -2.082  -1.219   2.551  1.00  0.00     0.117 A 
HETATM    7  F1  UNL     1      -2.404  -0.970   3.857  1.00  0.00    -0.206 F 
HETATM    8  C15 UNL     1      -1.607  -0.181   1.805  1.00  0.00     0.051 A 
ENDBRANCH   1   2
BRANCH   1   9
HETATM    9  N1  UNL     1       0.429   0.370  -1.066  1.00  0.00    -0.153 NA
BRANCH   9  10
HETATM   10  N2  UNL     1       1.436  -0.089  -0.228  1.00  0.00    -0.234 NA
HETATM   11  C7  UNL     1       2.499   0.902  -0.241  1.00  0.00     0.109 C 
HETATM   12  C8  UNL     1       3.452   0.519   0.881  1.00  0.00     0.016 C 
HETATM   13  C9  UNL     1       4.168  -0.736   0.420  1.00  0.00     0.002 C 
HETATM   14  C10 UNL     1       3.457  -1.401  -0.731  1.00  0.00     0.016 C 
HETATM   15  C11 UNL     1       1.957  -1.371  -0.587  1.00  0.00     0.109 C 
ENDBRANCH   9  10
ENDBRANCH   1   9
BRANCH   1  16
HETATM   16  C12 UNL     1      -1.852   1.252  -1.210  1.00  0.00     0.125 C 
HETATM   17  C13 UNL     1      -3.016   1.659  -0.330  1.00  0.00     0.147 C 
HETATM   18  N3  UNL     1      -3.637   2.677  -1.120  1.00  0.00    -0.384 N 
HETATM   19  C14 UNL     1      -2.586   3.259  -1.880  1.00  0.00     0.171 C 
ATOM     20  H3  UNL     1      -4.625   2.931  -1.135  1.00  0.00     0.160 HD
HETATM   21  N4  UNL     1      -1.574   2.450  -1.930  1.00  0.00    -0.378 N 
ATOM     22  H4  UNL     1      -0.699   2.644  -2.418  1.00  0.00     0.160 HD
ENDBRANCH   1  16
TORSDOF 4
