REMARK  13 active torsions:
REMARK  status: ('A' for Active; 'I' for Inactive)
REMARK    1  A    between atoms: C5_5  and  C6_6 
REMARK    2  A    between atoms: C17_22  and  C18_23 
REMARK    3  A    between atoms: C18_23  and  N3_24 
REMARK    4  A    between atoms: C23_29  and  N4_30 
REMARK    5  A    between atoms: N5_36  and  C26_37 
REMARK    6  A    between atoms: C26_37  and  C27_38 
REMARK    7  A    between atoms: C27_38  and  O2_39 
REMARK    8  A    between atoms: O2_39  and  C28_40 
REMARK    9  A    between atoms: C28_40  and  C29_41 
REMARK   10  A    between atoms: C29_41  and  O3_42 
REMARK   11  A    between atoms: O3_42  and  C30_43 
REMARK   12  A    between atoms: C30_43  and  C31_44 
REMARK   13  A    between atoms: C31_44  and  O4_45 
ROOT
HETATM    1  C1  UNL     1      -5.119   2.752   2.113  1.00  0.00     0.018 C 
HETATM    2  C2  UNL     1      -3.972   2.693   1.752  1.00  0.00    -0.077 C 
HETATM    3  C3  UNL     1      -2.595   2.622   1.341  1.00  0.00     0.026 A 
HETATM    4  C4  UNL     1      -1.888   3.752   0.935  1.00  0.00     0.033 A 
HETATM    5  C5  UNL     1      -0.571   3.654   0.546  1.00  0.00    -0.022 A 
HETATM    6  C13 UNL     1       0.107   2.444   0.540  1.00  0.00     0.042 A 
HETATM    7  C14 UNL     1      -0.597   1.324   0.943  1.00  0.00     0.038 A 
HETATM    8  C15 UNL     1      -1.910   1.429   1.329  1.00  0.00    -0.012 A 
HETATM    9  C16 UNL     1      -2.576   0.155   1.747  1.00  0.00     0.050 C 
HETATM   10  C17 UNL     1      -2.195  -0.939   0.803  1.00  0.00     0.036 C 
HETATM   11  C25 UNL     1      -0.707  -1.141   0.718  1.00  0.00     0.130 C 
HETATM   12  N5  UNL     1       0.051   0.056   0.955  1.00  0.00    -0.378 N 
ENDROOT
BRANCH   5  13
HETATM   13  C6  UNL     1       0.156   4.838   0.122  1.00  0.00    -0.024 A 
HETATM   14  C7  UNL     1      -0.160   6.047   0.688  1.00  0.00     0.014 A 
HETATM   15  C8  UNL     1       0.522   7.190   0.295  1.00  0.00     0.033 A 
HETATM   16  C9  UNL     1       1.508   7.060  -0.668  1.00  0.00     0.063 A 
HETATM   17  N1  UNL     1       2.304   7.985  -1.218  1.00  0.00    -0.307 N 
HETATM   18  C11 UNL     1       1.838   5.860  -1.245  1.00  0.00     0.064 A 
HETATM   19  C10 UNL     1       3.112   7.360  -2.121  1.00  0.00     0.325 A 
ATOM     20  H1  UNL     1       2.306   8.981  -1.000  1.00  0.00     0.170 HD
HETATM   21  O1  UNL     1       3.969   7.993  -2.794  1.00  0.00    -0.247 OA
HETATM   22  N2  UNL     1       2.829   6.045  -2.143  1.00  0.00    -0.306 N 
ATOM     23  H2  UNL     1       3.273   5.332  -2.721  1.00  0.00     0.170 HD
HETATM   24  C12 UNL     1       1.136   4.749  -0.826  1.00  0.00     0.044 A 
ENDBRANCH   5  13
BRANCH  12  25
HETATM   25  C26 UNL     1       1.484  -0.013   1.209  1.00  0.00     0.149 C 
BRANCH  25  26
HETATM   26  C27 UNL     1       2.282  -0.445   0.020  1.00  0.00     0.187 C 
BRANCH  26  27
HETATM   27  O2  UNL     1       3.621  -0.465   0.414  1.00  0.00    -0.387 OA
BRANCH  27  28
HETATM   28  C28 UNL     1       4.420  -0.866  -0.683  1.00  0.00     0.193 C 
BRANCH  28  29
HETATM   29  C29 UNL     1       5.871  -0.907  -0.293  1.00  0.00     0.193 C 
BRANCH  29  30
HETATM   30  O3  UNL     1       6.720  -1.281  -1.292  1.00  0.00    -0.387 OA
BRANCH  30  31
HETATM   31  C30 UNL     1       6.441  -2.539  -1.788  1.00  0.00     0.193 C 
BRANCH  31  32
HETATM   32  C31 UNL     1       6.506  -3.640  -0.768  1.00  0.00     0.193 C 
BRANCH  32  33
HETATM   33  O4  UNL     1       7.721  -3.788  -0.156  1.00  0.00    -0.394 OA
HETATM   34  C32 UNL     1       8.739  -4.076  -1.043  1.00  0.00     0.201 C 
ENDBRANCH  32  33
ENDBRANCH  31  32
ENDBRANCH  30  31
ENDBRANCH  29  30
ENDBRANCH  28  29
ENDBRANCH  27  28
ENDBRANCH  26  27
ENDBRANCH  25  26
ENDBRANCH  12  25
BRANCH  10  35
HETATM   35  C18 UNL     1      -2.844  -2.248   1.197  1.00  0.00     0.279 C 
BRANCH  35  36
HETATM   36  N3  UNL     1      -4.274  -2.229   1.202  1.00  0.00     0.090 N 
HETATM   37  C19 UNL     1      -4.803  -3.437   1.704  1.00  0.00     0.272 C 
HETATM   38  C20 UNL     1      -4.351  -4.620   0.899  1.00  0.00     0.030 C 
HETATM   39  C21 UNL     1      -4.719  -4.383  -0.544  1.00  0.00     0.004 C 
HETATM   40  C22 UNL     1      -6.114  -3.811  -0.570  1.00  0.00     0.034 C 
HETATM   41  C23 UNL     1      -6.141  -2.324  -0.402  1.00  0.00     0.211 C 
HETATM   42  C24 UNL     1      -4.833  -1.729   0.013  1.00  0.00     0.305 C 
BRANCH  41  43
HETATM   43  N4  UNL     1      -6.532  -1.711  -1.658  1.00  0.00    -0.073 N 
ATOM     44  H43 UNL     1      -5.937  -2.003  -2.434  1.00  0.00     0.274 HD
ATOM     45  H42 UNL     1      -7.417  -2.078  -2.010  1.00  0.00     0.274 HD
ATOM     46  H41 UNL     1      -6.550  -0.698  -1.544  1.00  0.00     0.274 HD
ENDBRANCH  41  43
ENDBRANCH  35  36
ENDBRANCH  10  35
TORSDOF 13
