REMARK  14 active torsions:
REMARK  status: ('A' for Active; 'I' for Inactive)
REMARK       I    between atoms: N1_2  and  C2_4 
REMARK    1  A    between atoms: C2_4  and  C3_6 
REMARK    2  A    between atoms: N2_8  and  C5_9 
REMARK    3  A    between atoms: C5_9  and  C6_10 
REMARK    4  A    between atoms: C6_10  and  O2_11 
REMARK    5  A    between atoms: C6_10  and  C7_13 
REMARK    6  A    between atoms: C7_13  and  C8_15 
REMARK    7  A    between atoms: C8_15  and  C9_17 
REMARK    8  A    between atoms: C11_19  and  O5_20 
REMARK    9  A    between atoms: C14_25  and  C15_26 
REMARK   10  A    between atoms: C15_26  and  O7_27 
REMARK   11  A    between atoms: C15_26  and  C16_29 
REMARK   12  A    between atoms: C21_34  and  O8_35 
REMARK   13  A    between atoms: C22_37  and  O9_38 
REMARK   14  A    between atoms: N3_40  and  O10_41 
ROOT
HETATM    1  C9  UNL     1       0.225   0.438   0.494  1.00  0.00     0.023 A 
HETATM    2  C10 UNL     1      -0.211   0.238   1.762  1.00  0.00     0.053 A 
HETATM    3  C11 UNL     1      -1.550  -0.118   2.020  1.00  0.00     0.083 A 
HETATM    4  C12 UNL     1      -2.472  -0.278   1.018  1.00  0.00     0.077 A 
HETATM    5  C13 UNL     1      -3.790  -0.629   1.206  1.00  0.00     0.200 A 
HETATM    6  O6  UNL     1      -4.179  -0.813   2.399  1.00  0.00    -0.287 OA
HETATM    7  C14 UNL     1      -4.678  -0.783   0.152  1.00  0.00     0.079 A 
HETATM    8  C22 UNL     1      -4.192  -0.570  -1.098  1.00  0.00     0.180 A 
HETATM    9  N3  UNL     1      -2.885  -0.220  -1.298  1.00  0.00    -0.200 N 
HETATM   10  C23 UNL     1      -2.023  -0.072  -0.269  1.00  0.00     0.083 A 
HETATM   11  C24 UNL     1      -0.719   0.276  -0.541  1.00  0.00     0.049 A 
ENDROOT
BRANCH   1  12
HETATM   12  C8  UNL     1       1.576   0.789   0.115  1.00  0.00     0.230 C 
HETATM   13  O4  UNL     1       1.806   0.951  -1.144  1.00  0.00    -0.283 OA
BRANCH  12  14
HETATM   14  C7  UNL     1       2.689   0.978   0.974  1.00  0.00     0.230 C 
HETATM   15  O3  UNL     1       2.623   0.899   2.209  1.00  0.00    -0.286 OA
BRANCH  14  16
HETATM   16  C6  UNL     1       4.048   1.292   0.411  1.00  0.00     0.215 C 
BRANCH  16  17
HETATM   17  C5  UNL     1       4.528   0.026  -0.314  1.00  0.00     0.189 C 
BRANCH  17  18
HETATM   18  N2  UNL     1       5.890   0.244  -0.807  1.00  0.00    -0.284 N 
HETATM   19  C4  UNL     1       6.989  -0.057  -0.075  1.00  0.00     0.148 A 
HETATM   20  C3  UNL     1       8.089   0.266  -0.829  1.00  0.00     0.134 A 
HETATM   21  N5  UNL     1       7.612   0.749  -1.982  1.00  0.00    -0.280 N 
HETATM   22  N4  UNL     1       6.281   0.730  -1.955  1.00  0.00    -0.240 N 
ATOM     23  H5  UNL     1       8.180   1.081  -2.761  1.00  0.00     0.189 HD
ATOM     24  H4  UNL     1       5.667   1.043  -2.707  1.00  0.00     0.208 HD
BRANCH  20  25
HETATM   25  C2  UNL     1       9.503   0.129  -0.493  1.00  0.00     0.270 C 
HETATM   26  N1  UNL     1       9.908  -0.410   0.754  1.00  0.00    -0.360 N 
HETATM   27  C1  UNL     1      11.304  -0.554   1.103  1.00  0.00     0.149 C 
ATOM     28  H1  UNL     1       9.196  -0.704   1.423  1.00  0.00     0.162 HD
HETATM   29  O1  UNL     1      10.394   0.485  -1.304  1.00  0.00    -0.266 OA
ENDBRANCH  20  25
ENDBRANCH  17  18
ENDBRANCH  16  17
BRANCH  16  30
HETATM   30  O2  UNL     1       4.925   1.533   1.474  1.00  0.00    -0.386 OA
ATOM     31  H2  UNL     1       4.628   2.316   1.922  1.00  0.00     0.210 HD
ENDBRANCH  16  30
ENDBRANCH  14  16
ENDBRANCH  12  14
ENDBRANCH   1  12
BRANCH   3  32
HETATM   32  O5  UNL     1      -1.970  -0.317   3.327  1.00  0.00    -0.360 OA
ATOM     33  H5  UNL     1      -2.873  -0.557   3.501  1.00  0.00     0.217 HD
ENDBRANCH   3  32
BRANCH   9  34
HETATM   34  O10 UNL     1      -2.455  -0.020  -2.568  1.00  0.00    -0.280 OA
ATOM     35  H10 UNL     1      -1.547   0.223  -2.707  1.00  0.00     0.245 HD
ENDBRANCH   9  34
BRANCH   8  36
HETATM   36  O9  UNL     1      -5.053  -0.714  -2.181  1.00  0.00    -0.344 OA
ATOM     37  H9  UNL     1      -4.713  -0.565  -3.055  1.00  0.00     0.219 HD
ENDBRANCH   8  36
BRANCH   7  38
HETATM   38  C15 UNL     1      -6.073  -1.166   0.438  1.00  0.00     0.195 C 
BRANCH  38  39
HETATM   39  O7  UNL     1      -6.142  -2.541   0.351  1.00  0.00    -0.386 OA
ATOM     40  H7  UNL     1      -7.041  -2.788   0.535  1.00  0.00     0.210 HD
ENDBRANCH  38  39
BRANCH  38  41
HETATM   41  C16 UNL     1      -7.086  -0.398  -0.270  1.00  0.00     0.008 A 
HETATM   42  C17 UNL     1      -7.162   0.973   0.030  1.00  0.00     0.013 A 
HETATM   43  C18 UNL     1      -8.079   1.812  -0.558  1.00  0.00     0.001 A 
HETATM   44  C19 UNL     1      -8.971   1.316  -1.482  1.00  0.00     0.003 A 
HETATM   45  C20 UNL     1      -8.914  -0.010  -1.786  1.00  0.00     0.037 A 
HETATM   46  C21 UNL     1      -7.972  -0.892  -1.188  1.00  0.00     0.074 A 
BRANCH  46  47
HETATM   47  O8  UNL     1      -8.026  -2.191  -1.585  1.00  0.00    -0.360 OA
ATOM     48  H8  UNL     1      -8.641  -2.534  -2.222  1.00  0.00     0.217 HD
ENDBRANCH  46  47
ENDBRANCH  38  41
ENDBRANCH   7  38
TORSDOF 14
