REMARK  1 active torsions:
REMARK  status: ('A' for Active; 'I' for Inactive)
REMARK    1  A    between atoms: C7_7  and  C8_8 
ROOT
HETATM    1  C8  UNL     1       0.171  -0.003   0.332  1.00  0.00     0.168 C 
HETATM    2  C9  UNL     1       1.205  -0.707  -0.550  1.00  0.00     0.076 C 
HETATM    3  C10 UNL     1       2.446   0.060  -0.062  1.00  0.00     0.099 C 
HETATM    4  C11 UNL     1       3.247   0.423  -1.247  1.00  0.00     0.041 C 
HETATM    5  C12 UNL     1       4.652  -0.124  -1.250  1.00  0.00     0.003 C 
HETATM    6  C13 UNL     1       5.226   0.258   0.122  1.00  0.00     0.000 C 
HETATM    7  C14 UNL     1       4.569  -0.689   1.081  1.00  0.00     0.003 C 
HETATM    8  C15 UNL     1       3.095  -0.760   0.981  1.00  0.00     0.041 C 
HETATM    9  O1  UNL     1       1.952   1.225   0.523  1.00  0.00    -0.229 OA
HETATM   10  O2  UNL     1       0.688   1.293   0.294  1.00  0.00    -0.234 OA
ENDROOT
BRANCH   1  11
HETATM   11  C7  UNL     1      -1.184   0.031  -0.304  1.00  0.00     0.023 C 
HETATM   12  C6  UNL     1      -1.717  -1.381  -0.577  1.00  0.00     0.012 C 
HETATM   13  C5  UNL     1      -2.974  -1.483   0.289  1.00  0.00    -0.013 C 
HETATM   14  C4  UNL     1      -4.057  -0.573  -0.203  1.00  0.00     0.013 C 
HETATM   15  C17 UNL     1      -2.483  -0.683   1.509  1.00  0.00     0.010 C 
HETATM   16  C2  UNL     1      -3.459   0.825   0.015  1.00  0.00    -0.043 C 
HETATM   17  C1  UNL     1      -3.262   1.452  -1.348  1.00  0.00     0.015 C 
HETATM   18  C3  UNL     1      -4.375   1.693   0.820  1.00  0.00     0.015 C 
HETATM   19  C16 UNL     1      -2.147   0.589   0.714  1.00  0.00     0.000 C 
ENDBRANCH   1  11
TORSDOF 1
