REMARK  14 active torsions:
REMARK  status: ('A' for Active; 'I' for Inactive)
REMARK    1  A    between atoms: O1_2  and  C2_3 
REMARK    2  A    between atoms: C2_3  and  C3_5 
REMARK    3  A    between atoms: C3_5  and  C4_6 
REMARK    4  A    between atoms: C4_6  and  C5_7 
REMARK    5  A    between atoms: C5_7  and  C6_8 
REMARK    6  A    between atoms: C6_8  and  C7_9 
REMARK    7  A    between atoms: C7_9  and  O3_10 
REMARK    8  A    between atoms: C7_9  and  C8_12 
REMARK    9  A    between atoms: C8_12  and  C9_13 
REMARK   10  A    between atoms: C9_13  and  C10_14 
REMARK   11  A    between atoms: C10_14  and  O4_15 
REMARK   12  A    between atoms: C10_14  and  C11_17 
REMARK   13  A    between atoms: C12_18  and  C13_19 
REMARK   14  A    between atoms: C16_23  and  O6_24 
ROOT
HETATM    1  C11 UNL     1      -2.451   0.745   0.510  1.00  0.00     0.020 C 
HETATM    2  C12 UNL     1      -3.440  -0.299   0.197  1.00  0.00    -0.025 C 
HETATM    3  C17 UNL     1      -4.819  -0.057   0.652  1.00  0.00     0.048 C 
HETATM    4  C18 UNL     1      -5.844  -0.901  -0.085  1.00  0.00     0.018 C 
HETATM    5  C19 UNL     1      -5.250   1.367   0.391  1.00  0.00     0.168 C 
HETATM    6  C20 UNL     1      -5.073   1.871  -0.986  1.00  0.00     0.039 C 
HETATM    7  C21 UNL     1      -3.610   2.127  -1.280  1.00  0.00     0.049 C 
HETATM    8  C22 UNL     1      -2.835   2.119   0.013  1.00  0.00     0.123 C 
HETATM    9  C23 UNL     1      -1.686   3.072  -0.201  1.00  0.00     0.055 C 
HETATM   10  O7  UNL     1      -3.628   2.790   0.950  1.00  0.00    -0.225 OA
HETATM   11  O8  UNL     1      -4.659   2.156   1.370  1.00  0.00    -0.234 OA
ENDROOT
BRANCH   1  12
HETATM   12  C10 UNL     1      -1.006   0.526   0.525  1.00  0.00     0.075 C 
BRANCH  12  13
HETATM   13  C9  UNL     1      -0.219   0.188  -0.624  1.00  0.00     0.035 C 
BRANCH  13  14
HETATM   14  C8  UNL     1       1.017  -0.334  -0.620  1.00  0.00     0.007 C 
BRANCH  14  15
HETATM   15  C7  UNL     1       1.768  -0.639   0.597  1.00  0.00     0.141 C 
BRANCH  15  16
HETATM   16  C6  UNL     1       3.144  -1.228   0.417  1.00  0.00     0.036 C 
BRANCH  16  17
HETATM   17  C5  UNL     1       4.058  -0.362  -0.416  1.00  0.00     0.003 C 
BRANCH  17  18
HETATM   18  C4  UNL     1       5.484  -0.914  -0.416  1.00  0.00     0.010 C 
BRANCH  18  19
HETATM   19  C3  UNL     1       6.335   0.062  -1.245  1.00  0.00     0.111 C 
BRANCH  19  20
HETATM   20  C2  UNL     1       7.784  -0.336  -1.126  1.00  0.00     0.258 C 
HETATM   21  O2  UNL     1       8.246  -1.225  -1.841  1.00  0.00    -0.265 OA
BRANCH  20  22
HETATM   22  O1  UNL     1       8.577   0.307  -0.206  1.00  0.00    -0.326 OA
HETATM   23  C1  UNL     1       9.899   0.130   0.092  1.00  0.00     0.213 C 
ENDBRANCH  20  22
ENDBRANCH  19  20
ENDBRANCH  18  19
ENDBRANCH  17  18
ENDBRANCH  16  17
ENDBRANCH  15  16
BRANCH  15  24
HETATM   24  O3  UNL     1       2.069   0.606   1.251  1.00  0.00    -0.392 OA
ATOM     25  H3  UNL     1       1.202   0.977   1.364  1.00  0.00     0.210 HD
ENDBRANCH  15  24
ENDBRANCH  14  15
ENDBRANCH  13  14
ENDBRANCH  12  13
BRANCH  12  26
HETATM   26  O4  UNL     1      -0.403   1.557   1.350  1.00  0.00    -0.360 OA
ATOM     27  H4  UNL     1      -0.925   1.781   2.112  1.00  0.00     0.217 HD
ENDBRANCH  12  26
ENDBRANCH   1  12
BRANCH   2  28
HETATM   28  C13 UNL     1      -3.049  -1.716   0.428  1.00  0.00     0.031 A 
HETATM   29  C14 UNL     1      -2.132  -2.480  -0.256  1.00  0.00     0.041 A 
HETATM   30  C15 UNL     1      -2.262  -3.811   0.156  1.00  0.00     0.146 A 
HETATM   31  O5  UNL     1      -3.193  -3.860   1.032  1.00  0.00    -0.300 OA
HETATM   32  C16 UNL     1      -3.690  -2.667   1.234  1.00  0.00     0.193 A 
BRANCH  32  33
HETATM   33  O6  UNL     1      -4.702  -2.473   2.147  1.00  0.00    -0.340 OA
ATOM     34  H6  UNL     1      -5.136  -3.118   2.693  1.00  0.00     0.220 HD
ENDBRANCH  32  33
ENDBRANCH   2  28
TORSDOF 14
