REMARK  3 active torsions:
REMARK  status: ('A' for Active; 'I' for Inactive)
REMARK    1  A    between atoms: O1_1  and  C1_3 
REMARK    2  A    between atoms: C1_3  and  C2_4 
REMARK    3  A    between atoms: C7_11  and  O4_12 
ROOT
HETATM    1  C2  UNL     1       1.646   0.161  -0.595  1.00  0.00     0.153 C 
HETATM    2  C3  UNL     1       0.483   0.767   0.093  1.00  0.00     0.108 C 
HETATM    3  C4  UNL     1      -0.709   0.017  -0.440  1.00  0.00     0.217 C 
HETATM    4  O2  UNL     1      -1.315  -0.793   0.500  1.00  0.00    -0.349 OA
HETATM    5  C5  UNL     1      -2.236  -0.013   1.169  1.00  0.00     0.198 C 
HETATM    6  C6  UNL     1      -2.271   1.265   0.373  1.00  0.00     0.198 C 
HETATM    7  O3  UNL     1      -1.680   0.889  -0.848  1.00  0.00    -0.349 OA
HETATM    8  C7  UNL     1      -0.125  -0.819  -1.543  1.00  0.00     0.320 C 
HETATM    9  O5  UNL     1       1.228  -0.958  -1.284  1.00  0.00    -0.348 OA
ENDROOT
BRANCH   8  10
HETATM   10  O4  UNL     1      -0.690  -2.096  -1.511  1.00  0.00    -0.366 OA
ATOM     11  H4  UNL     1      -0.321  -2.625  -2.209  1.00  0.00     0.212 HD
ENDBRANCH   8  10
BRANCH   1  12
HETATM   12  C1  UNL     1       2.732  -0.232   0.414  1.00  0.00     0.196 C 
BRANCH  12  13
HETATM   13  O1  UNL     1       2.238  -1.164   1.323  1.00  0.00    -0.398 OA
ATOM     14  H1  UNL     1       2.911  -1.407   1.948  1.00  0.00     0.209 HD
ENDBRANCH  12  13
ENDBRANCH   1  12
TORSDOF 3
