REMARK  7 active torsions:
REMARK  status: ('A' for Active; 'I' for Inactive)
REMARK    1  A    between atoms: S1_2  and  C2_3 
REMARK    2  A    between atoms: C2_3  and  C4_5 
REMARK    3  A    between atoms: C2_3  and  C15_28 
REMARK    4  A    between atoms: C5_6  and  C6_7 
REMARK    5  A    between atoms: N1_9  and  C8_10 
REMARK    6  A    between atoms: C14_24  and  N4_25 
REMARK    7  A    between atoms: C15_28  and  O4_29 
ROOT
HETATM    1  C8  UNL     1      -3.132  -0.046  -0.649  1.00  0.00     0.389 C 
HETATM    2  O1  UNL     1      -4.249  -0.850  -0.423  1.00  0.00    -0.273 OA
HETATM    3  C9  UNL     1      -5.331   0.006  -0.319  1.00  0.00     0.402 C 
HETATM    4  F1  UNL     1      -5.873   0.154  -1.582  1.00  0.00    -0.171 F 
HETATM    5  F2  UNL     1      -6.300  -0.537   0.485  1.00  0.00    -0.171 F 
HETATM    6  C10 UNL     1      -4.729   1.264   0.207  1.00  0.00     0.242 C 
HETATM    7  C11 UNL     1      -4.952   1.372   1.695  1.00  0.00     0.072 C 
HETATM    8  C12 UNL     1      -5.326   2.396  -0.512  1.00  0.00     0.107 C 
HETATM    9  N2  UNL     1      -5.792   3.285  -1.095  1.00  0.00    -0.194 NA
HETATM   10  O2  UNL     1      -3.367   1.157  -0.026  1.00  0.00    -0.308 OA
ENDROOT
BRANCH   1  11
HETATM   11  N1  UNL     1      -1.956  -0.730  -0.126  1.00  0.00    -0.258 N 
HETATM   12  C7  UNL     1      -0.718  -0.376  -0.503  1.00  0.00     0.125 A 
HETATM   13  C6  UNL     1       0.362  -1.053   0.020  1.00  0.00     0.077 A 
HETATM   14  C14 UNL     1       0.160  -2.077   0.916  1.00  0.00     0.123 A 
HETATM   15  N3  UNL     1      -1.081  -2.411   1.276  1.00  0.00    -0.293 N 
HETATM   16  C13 UNL     1      -2.120  -1.742   0.758  1.00  0.00     0.331 A 
ATOM     17  H3  UNL     1      -1.237  -3.169   1.940  1.00  0.00     0.172 HD
HETATM   18  O3  UNL     1      -3.289  -2.070   1.109  1.00  0.00    -0.246 OA
BRANCH  13  19
HETATM   19  C5  UNL     1       1.684  -0.670  -0.387  1.00  0.00    -0.060 C 
HETATM   20  C4  UNL     1       2.799  -0.343  -0.709  1.00  0.00    -0.078 C 
BRANCH  20  21
HETATM   21  C2  UNL     1       4.174   0.069  -1.082  1.00  0.00     0.088 C 
HETATM   22  C3  UNL     1       4.491  -0.440  -2.500  1.00  0.00     0.043 C 
BRANCH  21  23
HETATM   23  S1  UNL     1       5.403  -0.631   0.010  1.00  0.00    -0.148 SA
HETATM   24  C1  UNL     1       5.164  -0.189   1.743  1.00  0.00     0.091 C 
ENDBRANCH  21  23
BRANCH  21  25
HETATM   25  C15 UNL     1       4.160   1.568  -1.132  1.00  0.00     0.197 C 
BRANCH  25  26
HETATM   26  O4  UNL     1       3.912   2.201   0.053  1.00  0.00    -0.398 OA
ATOM     27  H4  UNL     1       3.903   3.150   0.021  1.00  0.00     0.209 HD
ENDBRANCH  25  26
ENDBRANCH  21  25
ENDBRANCH  20  21
ENDBRANCH  13  19
BRANCH  14  28
HETATM   28  N4  UNL     1       1.156  -2.743   1.434  1.00  0.00    -0.384 N 
ATOM     29  H42 UNL     1       2.104  -2.488   1.159  1.00  0.00     0.157 HD
ATOM     30  H41 UNL     1       1.006  -3.502   2.098  1.00  0.00     0.157 HD
ENDBRANCH  14  28
ENDBRANCH   1  11
TORSDOF 7
