REMARK  5 active torsions:
REMARK  status: ('A' for Active; 'I' for Inactive)
REMARK    1  A    between atoms: C6_8  and  N2_9 
REMARK    2  A    between atoms: N2_9  and  S1_11 
REMARK    3  A    between atoms: S1_11  and  C7_14 
REMARK    4  A    between atoms: C8_15  and  N3_16 
REMARK    5  A    between atoms: C12_25  and  C13_26 
ROOT
HETATM    1  C7  UNL     1      -1.372  -0.170   0.286  1.00  0.00     0.130 A 
HETATM    2  C8  UNL     1      -1.962  -1.374   0.500  1.00  0.00     0.128 A 
HETATM    3  N4  UNL     1      -3.253  -1.570   0.107  1.00  0.00    -0.327 N 
ATOM      4  H4  UNL     1      -3.688  -2.478   0.271  1.00  0.00     0.169 HD
HETATM    5  C11 UNL     1      -3.960  -0.616  -0.482  1.00  0.00     0.107 A 
HETATM    6  N5  UNL     1      -5.166  -0.788  -0.853  1.00  0.00    -0.385 N 
ATOM      7  H51 UNL     1      -5.710  -0.054  -1.306  1.00  0.00     0.157 HD
ATOM      8  H52 UNL     1      -5.583  -1.702  -0.679  1.00  0.00     0.157 HD
HETATM    9  C12 UNL     1      -3.378   0.659  -0.724  1.00  0.00    -0.003 A 
HETATM   10  C16 UNL     1      -2.082   0.871  -0.341  1.00  0.00    -0.025 A 
HETATM   11  C17 UNL     1      -1.278   2.081  -0.623  1.00  0.00     0.050 C 
ENDROOT
BRANCH   1  12
HETATM   12  S1  UNL     1       0.239   0.128   0.830  1.00  0.00     0.280 S 
HETATM   13  O1  UNL     1       0.442  -0.662   2.129  1.00  0.00    -0.200 OA
HETATM   14  O2  UNL     1       0.444   1.564   1.288  1.00  0.00    -0.200 OA
BRANCH  12  15
HETATM   15  N2  UNL     1       1.427  -0.375  -0.242  1.00  0.00    -0.112 N 
ATOM     16  H2  UNL     1       1.087  -0.921  -1.034  1.00  0.00     0.197 HD
BRANCH  15  17
HETATM   17  C6  UNL     1       2.691  -0.182  -0.224  1.00  0.00     0.692 A 
HETATM   18  N1  UNL     1       3.324   0.511   0.732  1.00  0.00    -0.195 N 
HETATM   19  C4  UNL     1       4.664   0.670   0.722  1.00  0.00     0.024 A 
ATOM     20  H1  UNL     1       2.779   0.929   1.486  1.00  0.00     0.184 HD
HETATM   21  C3  UNL     1       5.439   0.125  -0.271  1.00  0.00     0.050 A 
HETATM   22  C5  UNL     1       5.307   1.463   1.803  1.00  0.00     0.068 C 
HETATM   23  C2  UNL     1       4.781  -0.586  -1.248  1.00  0.00     0.024 A 
HETATM   24  C1  UNL     1       5.581  -1.218  -2.347  1.00  0.00     0.068 C 
HETATM   25  N6  UNL     1       3.457  -0.732  -1.225  1.00  0.00    -0.195 N 
ATOM     26  H6  UNL     1       3.001  -1.264  -1.967  1.00  0.00     0.184 HD
ENDBRANCH  15  17
ENDBRANCH  12  15
ENDBRANCH   1  12
BRANCH   2  27
HETATM   27  N3  UNL     1      -1.310  -2.454   1.111  1.00  0.00    -0.375 N 
HETATM   28  C9  UNL     1      -1.645  -2.816   2.464  1.00  0.00     0.150 C 
HETATM   29  C10 UNL     1      -0.327  -3.218   0.396  1.00  0.00     0.150 C 
ENDBRANCH   2  27
BRANCH   9  30
HETATM   30  C13 UNL     1      -4.219   1.674  -1.380  1.00  0.00     0.023 A 
HETATM   31  C14 UNL     1      -4.015   3.111  -1.283  1.00  0.00     0.010 A 
HETATM   32  C15 UNL     1      -5.253   2.472  -0.650  1.00  0.00     0.010 A 
ENDBRANCH   9  30
TORSDOF 5
