REMARK  11 active torsions:
REMARK  status: ('A' for Active; 'I' for Inactive)
REMARK    1  A    between atoms: C1_4  and  N2_5 
REMARK    2  A    between atoms: C1_4  and  C2_10 
REMARK    3  A    between atoms: N2_5  and  N3_7 
REMARK    4  A    between atoms: N5_13  and  C3_14 
REMARK    5  A    between atoms: C3_14  and  C4_15 
REMARK    6  A    between atoms: C4_15  and  O1_16 
REMARK    7  A    between atoms: C4_15  and  C5_18 
REMARK    8  A    between atoms: C5_18  and  O2_19 
REMARK    9  A    between atoms: C6_21  and  N6_22 
REMARK       I    between atoms: N6_22  and  C7_24 
REMARK       I    between atoms: C7_24  and  N7_26 
REMARK   10  A    between atoms: N7_26  and  C8_28 
REMARK   11  A    between atoms: N12_37  and  N13_38 
ROOT
HETATM    1  C2  UNL     1      -1.792  -0.711   0.518  1.00  0.00     0.205 A 
HETATM    2  N4  UNL     1      -2.063   0.562   0.833  1.00  0.00    -0.264 N 
ATOM      3  H4  UNL     1      -2.946   0.897   1.219  1.00  0.00     0.189 HD
HETATM    4  N5  UNL     1      -0.999   1.328   0.564  1.00  0.00    -0.117 N 
HETATM    5  C6  UNL     1      -0.069   0.480   0.076  1.00  0.00     0.726 A 
HETATM    6  N12 UNL     1      -0.538  -0.777   0.040  1.00  0.00    -0.069 N 
ENDROOT
BRANCH   5   7
HETATM    7  N6  UNL     1       1.103   0.904  -0.290  1.00  0.00    -0.137 N 
HETATM    8  C7  UNL     1       2.106   0.044  -0.808  1.00  0.00     0.353 C 
HETATM    9  O3  UNL     1       2.089  -0.299  -2.039  1.00  0.00    -0.246 OA
HETATM   10  N7  UNL     1       3.130  -0.432   0.056  1.00  0.00    -0.138 N 
ATOM     11  H7  UNL     1       3.250  -0.008   0.976  1.00  0.00     0.189 HD
ATOM     12  H6  UNL     1       1.312   1.899  -0.201  1.00  0.00     0.189 HD
BRANCH  10  13
HETATM   13  C8  UNL     1       3.900  -1.383  -0.305  1.00  0.00     0.717 A 
HETATM   14  N8  UNL     1       3.882  -2.047  -1.464  1.00  0.00    -0.115 N 
HETATM   15  N9  UNL     1       4.845  -2.946  -1.422  1.00  0.00    -0.213 N 
ATOM     16  H8  UNL     1       3.240  -1.887  -2.240  1.00  0.00     0.207 HD
HETATM   17  N10 UNL     1       5.470  -2.867  -0.265  1.00  0.00    -0.213 N 
ATOM     18  H9  UNL     1       5.071  -3.602  -2.170  1.00  0.00     0.210 HD
HETATM   19  N11 UNL     1       4.891  -1.902   0.432  1.00  0.00    -0.115 N 
ATOM     20  H10 UNL     1       6.255  -3.443   0.038  1.00  0.00     0.210 HD
ATOM     21  H11 UNL     1       5.155  -1.604   1.371  1.00  0.00     0.207 HD
ENDBRANCH  10  13
ENDBRANCH   5   7
BRANCH   4  22
HETATM   22  C3  UNL     1      -0.867   2.759   0.755  1.00  0.00     0.202 C 
BRANCH  22  23
HETATM   23  C4  UNL     1      -1.311   3.507  -0.498  1.00  0.00     0.162 C 
BRANCH  23  24
HETATM   24  O1  UNL     1      -2.639   3.242  -0.813  1.00  0.00    -0.392 OA
ATOM     25  H1  UNL     1      -2.916   3.708  -1.593  1.00  0.00     0.210 HD
ENDBRANCH  23  24
BRANCH  23  26
HETATM   26  C5  UNL     1      -1.040   4.988  -0.369  1.00  0.00     0.197 C 
BRANCH  26  27
HETATM   27  O2  UNL     1      -1.345   5.581  -1.590  1.00  0.00    -0.398 OA
ATOM     28  H2  UNL     1      -1.175   6.512  -1.509  1.00  0.00     0.209 HD
ENDBRANCH  26  27
ENDBRANCH  23  26
ENDBRANCH  22  23
ENDBRANCH   4  22
BRANCH   6  29
HETATM   29  N13 UNL     1       0.139  -1.921  -0.404  1.00  0.00    -0.322 N 
ATOM     30 2H13 UNL     1      -0.217  -2.876  -0.431  1.00  0.00     0.178 HD
ATOM     31 1H13 UNL     1       1.091  -1.971  -0.767  1.00  0.00     0.178 HD
ENDBRANCH   6  29
BRANCH   1  32
HETATM   32  C1  UNL     1      -2.691  -1.848   0.663  1.00  0.00     0.162 C 
HETATM   33  N1  UNL     1      -3.888  -1.703   1.134  1.00  0.00    -0.381 N 
ATOM     34  H12 UNL     1      -4.517  -2.499   1.236  1.00  0.00     0.157 HD
ATOM     35  H11 UNL     1      -4.178  -0.762   1.400  1.00  0.00     0.157 HD
BRANCH  32  36
HETATM   36  N2  UNL     1      -2.287  -3.158   0.293  1.00  0.00    -0.289 N 
ATOM     37  H2  UNL     1      -1.974  -3.371  -0.654  1.00  0.00     0.188 HD
BRANCH  36  38
HETATM   38  N3  UNL     1      -2.337  -4.155   1.296  1.00  0.00    -0.344 N 
ATOM     39  H32 UNL     1      -2.652  -3.926   2.239  1.00  0.00     0.176 HD
ATOM     40  H31 UNL     1      -2.047  -5.096   1.030  1.00  0.00     0.176 HD
ENDBRANCH  36  38
ENDBRANCH  32  36
ENDBRANCH   1  32
TORSDOF 11
