REMARK  13 active torsions:
REMARK  status: ('A' for Active; 'I' for Inactive)
REMARK    1  A    between atoms: C2_2  and  O1_3 
REMARK    2  A    between atoms: O1_3  and  C3_4 
REMARK    3  A    between atoms: C10_13  and  O2_14 
REMARK    4  A    between atoms: O2_14  and  C11_15 
REMARK    5  A    between atoms: C11_15  and  C12_16 
REMARK    6  A    between atoms: C12_16  and  C13_17 
REMARK    7  A    between atoms: C13_17  and  C14_18 
REMARK    8  A    between atoms: C14_18  and  O3_19 
REMARK    9  A    between atoms: O3_19  and  C15_20 
REMARK   10  A    between atoms: N2_22  and  O4_23 
REMARK   11  A    between atoms: C23_31  and  N3_32 
REMARK   12  A    between atoms: N3_32  and  C24_34 
REMARK   13  A    between atoms: C24_34  and  C25_35 
ROOT
HETATM    1  C3  UNL     1      -3.736   1.603  -1.726  1.00  0.00     0.083 A 
HETATM    2  C4  UNL     1      -4.452   2.532  -2.432  1.00  0.00     0.039 A 
HETATM    3  C5  UNL     1      -5.718   2.910  -2.062  1.00  0.00     0.021 A 
HETATM    4  C6  UNL     1      -6.311   2.356  -0.950  1.00  0.00     0.049 A 
HETATM    5  C7  UNL     1      -5.626   1.403  -0.192  1.00  0.00     0.065 A 
HETATM    6  C8  UNL     1      -4.343   1.034  -0.593  1.00  0.00     0.058 A 
HETATM    7  C9  UNL     1      -3.526   0.090   0.118  1.00  0.00     0.122 A 
HETATM    8  N1  UNL     1      -2.205   0.482   0.263  1.00  0.00    -0.322 N 
ATOM      9  H1  UNL     1      -1.907   1.344  -0.194  1.00  0.00     0.169 HD
HETATM   10  C10 UNL     1      -1.306  -0.196   0.960  1.00  0.00     0.147 A 
HETATM   11  C22 UNL     1      -1.690  -1.366   1.585  1.00  0.00     0.104 A 
HETATM   12  C23 UNL     1      -3.002  -1.773   1.450  1.00  0.00     0.107 A 
HETATM   13  N4  UNL     1      -3.870  -1.032   0.721  1.00  0.00    -0.328 N 
ATOM     14  H4  UNL     1      -4.833  -1.356   0.634  1.00  0.00     0.169 HD
HETATM   15  C26 UNL     1      -6.473   1.044   0.932  1.00  0.00     0.262 A 
HETATM   16  O7  UNL     1      -6.249   0.236   1.864  1.00  0.00    -0.267 OA
HETATM   17  N5  UNL     1      -7.705   1.789   0.854  1.00  0.00    -0.284 N 
HETATM   18  C27 UNL     1      -8.817   1.697   1.810  1.00  0.00     0.163 C 
HETATM   19  C28 UNL     1      -7.602   2.587  -0.295  1.00  0.00     0.261 A 
HETATM   20  O8  UNL     1      -8.486   3.399  -0.724  1.00  0.00    -0.267 OA
ENDROOT
BRANCH  10  21
HETATM   21  O2  UNL     1       0.017   0.183   1.113  1.00  0.00    -0.336 OA
BRANCH  21  22
HETATM   22  C11 UNL     1       0.425   1.386   0.474  1.00  0.00     0.177 C 
BRANCH  22  23
HETATM   23  C12 UNL     1       1.889   1.674   0.722  1.00  0.00     0.029 C 
BRANCH  23  24
HETATM   24  C13 UNL     1       2.673   0.506   0.163  1.00  0.00     0.029 C 
BRANCH  24  25
HETATM   25  C14 UNL     1       4.169   0.678   0.352  1.00  0.00     0.176 C 
BRANCH  25  26
HETATM   26  O3  UNL     1       4.848  -0.422  -0.179  1.00  0.00    -0.349 OA
BRANCH  26  27
HETATM   27  C15 UNL     1       6.218  -0.541  -0.154  1.00  0.00     0.092 A 
HETATM   28  C16 UNL     1       7.053   0.410   0.394  1.00  0.00     0.160 A 
HETATM   29  N2  UNL     1       8.390   0.283   0.412  1.00  0.00    -0.238 N 
HETATM   30  C17 UNL     1       8.983  -0.816  -0.123  1.00  0.00     0.036 A 
HETATM   31  C18 UNL     1      10.457  -0.937  -0.093  1.00  0.00     0.071 C 
HETATM   32  C19 UNL     1       8.182  -1.788  -0.680  1.00  0.00     0.036 A 
HETATM   33  C20 UNL     1       6.811  -1.675  -0.708  1.00  0.00    -0.025 A 
HETATM   34  C21 UNL     1       5.950  -2.718  -1.304  1.00  0.00     0.051 C 
BRANCH  29  35
HETATM   35  O4  UNL     1       9.220   1.239   0.963  1.00  0.00    -0.283 OA
ATOM     36  H4  UNL     1      10.166   1.149   0.976  1.00  0.00     0.245 HD
ENDBRANCH  29  35
ENDBRANCH  26  27
ENDBRANCH  25  26
ENDBRANCH  24  25
ENDBRANCH  23  24
ENDBRANCH  22  23
ENDBRANCH  21  22
ENDBRANCH  10  21
BRANCH  12  37
HETATM   37  N3  UNL     1      -3.377  -2.863   2.027  1.00  0.00    -0.366 N 
ATOM     38  H3  UNL     1      -4.342  -3.182   1.940  1.00  0.00     0.161 HD
BRANCH  37  39
HETATM   39  C24 UNL     1      -2.429  -3.631   2.796  1.00  0.00     0.234 C 
BRANCH  39  40
HETATM   40  C25 UNL     1      -3.066  -4.893   3.280  1.00  0.00     0.191 C 
HETATM   41  O5  UNL     1      -2.419  -5.703   3.977  1.00  0.00    -0.647 OA
HETATM   42  O6  UNL     1      -4.400  -5.209   2.973  1.00  0.00    -0.647 OA
ENDBRANCH  39  40
ENDBRANCH  37  39
ENDBRANCH  12  37
BRANCH   1  43
HETATM   43  O1  UNL     1      -2.449   1.225  -2.109  1.00  0.00    -0.350 OA
BRANCH  43  44
HETATM   44  C2  UNL     1      -1.923   1.845  -3.256  1.00  0.00     0.171 C 
HETATM   45  C1  UNL     1      -0.537   1.402  -3.621  1.00  0.00     0.034 C 
ENDBRANCH  43  44
ENDBRANCH   1  43
TORSDOF 13
