REMARK  22 active torsions:
REMARK  status: ('A' for Active; 'I' for Inactive)
REMARK    1  A    between atoms: O1_1  and  C1_3 
REMARK    2  A    between atoms: C1_3  and  C2_4 
REMARK    3  A    between atoms: C4_7  and  O3_8 
REMARK    4  A    between atoms: O3_8  and  C5_9 
REMARK    5  A    between atoms: C6_10  and  C7_11 
REMARK    6  A    between atoms: C7_11  and  O4_12 
REMARK    7  A    between atoms: C8_15  and  O6_16 
REMARK    8  A    between atoms: O6_16  and  C9_17 
REMARK    9  A    between atoms: C10_18  and  C11_19 
REMARK   10  A    between atoms: C11_19  and  O7_20 
REMARK   11  A    between atoms: C12_23  and  C13_24 
REMARK   12  A    between atoms: C13_24  and  C14_25 
REMARK   13  A    between atoms: C15_27  and  O9_28 
REMARK   14  A    between atoms: O9_28  and  C16_29 
REMARK   15  A    between atoms: C17_31  and  C18_32 
REMARK   16  A    between atoms: C18_32  and  O11_33 
REMARK   17  A    between atoms: C19_35  and  O12_36 
REMARK   18  A    between atoms: C20_38  and  O13_39 
REMARK   19  A    between atoms: C21_41  and  O14_42 
REMARK   20  A    between atoms: C22_44  and  O15_45 
REMARK   21  A    between atoms: C23_47  and  O16_48 
REMARK   22  A    between atoms: C24_50  and  O17_51 
ROOT
HETATM    1  C9  UNL     1      -0.707  -1.320  -0.418  1.00  0.00     0.187 C 
HETATM    2  C10 UNL     1      -0.980  -2.792  -0.220  1.00  0.00     0.177 C 
HETATM    3  O8  UNL     1      -2.157  -3.097   0.317  1.00  0.00    -0.373 OA
HETATM    4  C12 UNL     1      -3.231  -2.311   0.299  1.00  0.00     0.156 C 
HETATM    5  C15 UNL     1      -3.208  -0.954  -0.287  1.00  0.00     0.185 C 
HETATM    6  C22 UNL     1      -1.903  -0.567  -0.876  1.00  0.00     0.181 C 
ENDROOT
BRANCH   1   7
HETATM    7  O6  UNL     1       0.341  -1.264  -1.339  1.00  0.00    -0.348 OA
BRANCH   7   8
HETATM    8  C8  UNL     1       1.521  -0.757  -0.807  1.00  0.00     0.292 C 
HETATM    9  O5  UNL     1       2.589  -1.621  -0.968  1.00  0.00    -0.348 OA
HETATM   10  C6  UNL     1       3.641  -1.179  -0.206  1.00  0.00     0.180 C 
HETATM   11  C5  UNL     1       4.049   0.235  -0.367  1.00  0.00     0.187 C 
HETATM   12  C24 UNL     1       3.002   1.155  -0.929  1.00  0.00     0.183 C 
HETATM   13  C23 UNL     1       1.882   0.474  -1.638  1.00  0.00     0.204 C 
BRANCH  10  14
HETATM   14  C7  UNL     1       4.866  -2.061  -0.491  1.00  0.00     0.198 C 
BRANCH  14  15
HETATM   15  O4  UNL     1       5.226  -2.003  -1.838  1.00  0.00    -0.398 OA
ATOM     16  H4  UNL     1       5.984  -2.548  -2.014  1.00  0.00     0.209 HD
ENDBRANCH  14  15
ENDBRANCH  10  14
BRANCH  11  17
HETATM   17  O3  UNL     1       4.477   0.693   0.904  1.00  0.00    -0.349 OA
BRANCH  17  18
HETATM   18  C4  UNL     1       5.776   1.099   0.939  1.00  0.00     0.284 C 
HETATM   19  O2  UNL     1       5.746   2.499   1.173  1.00  0.00    -0.356 OA
HETATM   20  C3  UNL     1       7.016   2.955   0.866  1.00  0.00     0.205 C 
HETATM   21  C2  UNL     1       8.136   2.220   1.511  1.00  0.00     0.169 C 
HETATM   22  O18 UNL     1       7.934   0.891   1.764  1.00  0.00    -0.377 OA
HETATM   23  C25 UNL     1       6.617   0.539   2.045  1.00  0.00     0.229 C 
BRANCH  21  24
HETATM   24  C1  UNL     1       9.329   2.314   0.547  1.00  0.00     0.198 C 
BRANCH  24  25
HETATM   25  O1  UNL     1       9.619   3.638   0.227  1.00  0.00    -0.398 OA
ATOM     26  H1  UNL     1      10.357   3.696  -0.369  1.00  0.00     0.209 HD
ENDBRANCH  24  25
ENDBRANCH  21  24
ENDBRANCH  17  18
ENDBRANCH  11  17
BRANCH  12  27
HETATM   27  O17 UNL     1       3.573   2.073  -1.809  1.00  0.00    -0.390 OA
ATOM     28  H17 UNL     1       2.911   2.655  -2.164  1.00  0.00     0.210 HD
ENDBRANCH  12  27
BRANCH  13  29
HETATM   29  O16 UNL     1       0.826   1.346  -1.774  1.00  0.00    -0.388 OA
ATOM     30  H16 UNL     1       1.050   2.111  -2.290  1.00  0.00     0.210 HD
ENDBRANCH  13  29
ENDBRANCH   7   8
ENDBRANCH   1   7
BRANCH   2  31
HETATM   31  C11 UNL     1      -0.802  -3.559  -1.533  1.00  0.00     0.198 C 
BRANCH  31  32
HETATM   32  O7  UNL     1      -0.846  -4.921  -1.334  1.00  0.00    -0.398 OA
ATOM     33  H7  UNL     1      -0.736  -5.397  -2.149  1.00  0.00     0.209 HD
ENDBRANCH  31  32
ENDBRANCH   2  31
BRANCH   6  34
HETATM   34  O15 UNL     1      -1.917  -0.600  -2.289  1.00  0.00    -0.390 OA
ATOM     35  H15 UNL     1      -2.682  -0.118  -2.582  1.00  0.00     0.210 HD
ENDBRANCH   6  34
BRANCH   5  36
HETATM   36  O9  UNL     1      -3.609  -0.072   0.739  1.00  0.00    -0.348 OA
BRANCH  36  37
HETATM   37  C16 UNL     1      -4.801   0.574   0.430  1.00  0.00     0.292 C 
HETATM   38  O10 UNL     1      -4.544   1.936   0.522  1.00  0.00    -0.348 OA
HETATM   39  C17 UNL     1      -5.635   2.754   0.516  1.00  0.00     0.179 C 
HETATM   40  C19 UNL     1      -6.805   2.298   1.331  1.00  0.00     0.180 C 
HETATM   41  C20 UNL     1      -6.363   1.218   2.294  1.00  0.00     0.183 C 
HETATM   42  C21 UNL     1      -5.811   0.091   1.454  1.00  0.00     0.204 C 
BRANCH  39  43
HETATM   43  C18 UNL     1      -6.062   3.186  -0.889  1.00  0.00     0.198 C 
BRANCH  43  44
HETATM   44  O11 UNL     1      -6.393   2.093  -1.686  1.00  0.00    -0.398 OA
ATOM     45  H11 UNL     1      -6.658   2.361  -2.558  1.00  0.00     0.209 HD
ENDBRANCH  43  44
ENDBRANCH  39  43
BRANCH  40  46
HETATM   46  O12 UNL     1      -7.374   3.322   2.086  1.00  0.00    -0.390 OA
ATOM     47  H12 UNL     1      -8.116   3.033   2.603  1.00  0.00     0.210 HD
ENDBRANCH  40  46
BRANCH  41  48
HETATM   48  O13 UNL     1      -5.442   1.659   3.218  1.00  0.00    -0.390 OA
ATOM     49  H13 UNL     1      -5.164   0.981   3.823  1.00  0.00     0.210 HD
ENDBRANCH  41  48
BRANCH  42  50
HETATM   50  O14 UNL     1      -6.906  -0.541   0.859  1.00  0.00    -0.388 OA
ATOM     51  H14 UNL     1      -7.538  -0.843   1.500  1.00  0.00     0.210 HD
ENDBRANCH  42  50
ENDBRANCH  36  37
ENDBRANCH   5  36
BRANCH   4  52
HETATM   52  C13 UNL     1      -4.335  -3.101  -0.459  1.00  0.00     0.066 C 
BRANCH  52  53
HETATM   53  C14 UNL     1      -4.630  -4.388   0.253  1.00  0.00     0.224 C 
HETATM   54  F1  UNL     1      -5.068  -4.164   1.540  1.00  0.00    -0.255 F 
ENDBRANCH  52  53
ENDBRANCH   4  52
TORSDOF 22
