REMARK  4 active torsions:
REMARK  status: ('A' for Active; 'I' for Inactive)
REMARK    1  A    between atoms: C1_1  and  C2_2 
REMARK    2  A    between atoms: C1_1  and  N3_9 
REMARK    3  A    between atoms: C2_2  and  N1_3 
REMARK    4  A    between atoms: N3_9  and  C5_11 
ROOT
HETATM    1  C1  UNL     1       0.948  -0.311   0.801  1.00  0.00     0.153 C 
ENDROOT
BRANCH   1   2
HETATM    2  C2  UNL     1      -0.377  -0.934   0.577  1.00  0.00     0.296 C 
BRANCH   2   3
HETATM    3  N1  UNL     1      -1.251  -0.225  -0.312  1.00  0.00     0.141 N 
HETATM    4  C3  UNL     1      -1.752   1.048   0.149  1.00  0.00     0.507 C 
HETATM    5  N2  UNL     1      -2.596   0.261   1.065  1.00  0.00    -0.022 N 
HETATM    6  C4  UNL     1      -2.627  -0.703  -0.052  1.00  0.00     0.507 C 
ATOM      7  H22 UNL     1      -2.300   0.006   2.007  1.00  0.00     0.281 HD
ATOM      8  H21 UNL     1      -3.442   0.635   1.496  1.00  0.00     0.281 HD
ENDBRANCH   2   3
ENDBRANCH   1   2
BRANCH   1   9
HETATM    9  N3  UNL     1       1.732  -0.157  -0.402  1.00  0.00    -0.358 N 
ATOM     10  H3  UNL     1       1.345  -0.469  -1.292  1.00  0.00     0.162 HD
BRANCH   9  11
HETATM   11  C5  UNL     1       3.027   0.418  -0.374  1.00  0.00     0.209 A 
HETATM   12  N4  UNL     1       3.966   1.056   0.343  1.00  0.00    -0.267 N 
HETATM   13  N5  UNL     1       4.278   0.782  -0.952  1.00  0.00    -0.267 N 
ATOM     14  H4  UNL     1       4.248   1.462   1.235  1.00  0.00     0.190 HD
ATOM     15  H5  UNL     1       4.922   0.813  -1.742  1.00  0.00     0.190 HD
ENDBRANCH   9  11
ENDBRANCH   1   9
TORSDOF 4
