REMARK  7 active torsions:
REMARK  status: ('A' for Active; 'I' for Inactive)
REMARK    1  A    between atoms: C2_2  and  C4_4 
REMARK    2  A    between atoms: C4_4  and  N1_5 
REMARK    3  A    between atoms: C4_4  and  C11_19 
REMARK    4  A    between atoms: N1_5  and  C5_7 
REMARK    5  A    between atoms: C5_7  and  C6_11 
REMARK    6  A    between atoms: C6_11  and  O1_12 
REMARK    7  A    between atoms: C6_11  and  N3_14 
ROOT
HETATM    1  C5  UNL     1       0.279   0.729  -0.034  1.00  0.00     0.131 C 
HETATM    2  N2  UNL     1       0.289   1.957  -0.422  1.00  0.00    -0.385 N 
ATOM      3  H21 UNL     1       1.148   2.501  -0.502  1.00  0.00     0.157 HD
ATOM      4  H22 UNL     1      -0.588   2.381  -0.723  1.00  0.00     0.157 HD
ENDROOT
BRANCH   1   5
HETATM    5  N1  UNL     1      -0.920  -0.031   0.077  1.00  0.00    -0.363 N 
ATOM      6  H1  UNL     1      -0.902  -0.961   0.496  1.00  0.00     0.161 HD
BRANCH   5   7
HETATM    7  C4  UNL     1      -2.188   0.537  -0.418  1.00  0.00     0.175 C 
BRANCH   7   8
HETATM    8  C2  UNL     1      -3.319   0.121   0.414  1.00  0.00     0.009 C 
HETATM    9  C1  UNL     1      -3.798  -1.247   0.472  1.00  0.00     0.012 C 
HETATM   10  C3  UNL     1      -4.377   1.183   0.615  1.00  0.00     0.012 C 
ENDBRANCH   7   8
BRANCH   7  11
HETATM   11  C11 UNL     1      -2.169  -0.075  -1.817  1.00  0.00     0.254 C 
HETATM   12  N4  UNL     1      -2.356  -1.478  -1.893  1.00  0.00    -0.060 NA
HETATM   13  O2  UNL     1      -1.995   0.609  -2.816  1.00  0.00    -0.275 OA
ENDBRANCH   7  11
ENDBRANCH   5   7
ENDBRANCH   1   5
BRANCH   1  14
HETATM   14  C6  UNL     1       1.538   0.120   0.398  1.00  0.00     0.424 C 
BRANCH  14  15
HETATM   15  O1  UNL     1       1.532   0.140   1.796  1.00  0.00    -0.362 OA
ATOM     16  H1  UNL     1       2.349  -0.255   2.076  1.00  0.00     0.212 HD
ENDBRANCH  14  15
BRANCH  14  17
HETATM   17  N3  UNL     1       2.725   0.524  -0.233  1.00  0.00     0.124 N 
HETATM   18  C7  UNL     1       3.322  -0.419  -1.117  1.00  0.00     0.276 C 
HETATM   19  C8  UNL     1       4.505  -1.001  -0.309  1.00  0.00     0.032 C 
HETATM   20  C9  UNL     1       4.512  -0.234   0.996  1.00  0.00     0.032 C 
HETATM   21  C10 UNL     1       3.744   1.053   0.624  1.00  0.00     0.276 C 
ENDBRANCH  14  17
ENDBRANCH   1  14
TORSDOF 7
