REMARK  4 active torsions:
REMARK  status: ('A' for Active; 'I' for Inactive)
REMARK    1  A    between atoms: O1_1  and  C1_3 
REMARK    2  A    between atoms: C1_3  and  N1_4 
REMARK    3  A    between atoms: N1_4  and  N2_5 
REMARK    4  A    between atoms: N2_5  and  C2_7 
ROOT
HETATM    1  C2  UNL     1      -0.082   0.232  -0.792  1.00  0.00     0.176 A 
HETATM    2  N3  UNL     1       0.137   1.347  -1.457  1.00  0.00    -0.280 N 
ATOM      3  H3  UNL     1      -0.537   1.849  -2.035  1.00  0.00     0.188 HD
HETATM    4  N4  UNL     1       1.416   1.701  -1.231  1.00  0.00    -0.282 N 
ATOM      5  H4  UNL     1       1.871   2.526  -1.620  1.00  0.00     0.188 HD
HETATM    6  C3  UNL     1       2.005   0.809  -0.418  1.00  0.00     0.152 A 
HETATM    7  N5  UNL     1       3.152   0.462   0.237  1.00  0.00    -0.336 N 
ATOM      8  H5  UNL     1       4.024   0.990   0.212  1.00  0.00     0.168 HD
HETATM    9  C4  UNL     1       2.956  -0.700   0.932  1.00  0.00     0.182 A 
HETATM   10  N6  UNL     1       1.677  -1.043   0.690  1.00  0.00    -0.346 N 
ATOM     11  H6  UNL     1       1.225  -1.874   1.072  1.00  0.00     0.167 HD
HETATM   12  C5  UNL     1       1.059  -0.142  -0.129  1.00  0.00     0.127 A 
ENDROOT
BRANCH   1  13
HETATM   13  N2  UNL     1      -1.337  -0.555  -0.720  1.00  0.00    -0.214 N 
ATOM     14  H2  UNL     1      -1.451  -1.416  -1.255  1.00  0.00     0.203 HD
BRANCH  13  15
HETATM   15  N1  UNL     1      -2.303  -0.103   0.062  1.00  0.00    -0.313 NA
BRANCH  15  16
HETATM   16  C1  UNL     1      -3.292   0.354   0.860  1.00  0.00     0.343 C 
BRANCH  16  17
HETATM   17  O1  UNL     1      -4.324  -0.455   1.114  1.00  0.00    -0.344 OA
ATOM     18  H1  UNL     1      -5.020  -0.134   1.675  1.00  0.00     0.219 HD
ENDBRANCH  16  17
ENDBRANCH  15  16
ENDBRANCH  13  15
ENDBRANCH   1  13
TORSDOF 4
