REMARK  3 active torsions:
REMARK  status: ('A' for Active; 'I' for Inactive)
REMARK       I    between atoms: C1_4  and  N3_6 
REMARK    1  A    between atoms: N3_6  and  N4_8 
REMARK    2  A    between atoms: N5_10  and  N6_12 
REMARK    3  A    between atoms: N6_12  and  C2_14 
ROOT
HETATM    1  N4  UNL     1      -1.302  -0.220   1.471  1.00  0.00    -0.226 N 
ATOM      2  H4  UNL     1      -1.766  -0.579   2.305  1.00  0.00     0.210 HD
HETATM    3  N5  UNL     1      -0.035  -0.365   1.320  1.00  0.00    -0.232 N 
ATOM      4  H5  UNL     1       0.508  -0.841   2.040  1.00  0.00     0.209 HD
ENDROOT
BRANCH   3   5
HETATM    5  N6  UNL     1       0.611   0.127   0.171  1.00  0.00    -0.313 N 
ATOM      6  H6  UNL     1       0.113   0.095  -0.718  1.00  0.00     0.182 HD
BRANCH   5   7
HETATM    7  C2  UNL     1       1.936   0.671   0.192  1.00  0.00     0.152 C 
HETATM    8  C3  UNL     1       3.018  -0.281   0.664  1.00  0.00     0.260 C 
HETATM    9  N7  UNL     1       3.032  -0.817  -0.695  1.00  0.00    -0.071 N 
HETATM   10  C4  UNL     1       2.659   0.519  -1.142  1.00  0.00     0.260 C 
ATOM     11  H72 UNL     1       3.853  -1.292  -1.070  1.00  0.00     0.277 HD
ATOM     12  H71 UNL     1       2.478  -1.635  -0.948  1.00  0.00     0.277 HD
ENDBRANCH   5   7
ENDBRANCH   3   5
BRANCH   1  13
HETATM   13  N3  UNL     1      -2.042   0.439   0.473  1.00  0.00    -0.258 N 
HETATM   14  C1  UNL     1      -3.319  -0.001   0.049  1.00  0.00     0.201 C 
HETATM   15  N1  UNL     1      -4.253   0.793  -0.313  1.00  0.00    -0.372 N 
HETATM   16  N2  UNL     1      -3.598  -1.398   0.015  1.00  0.00    -0.062 NA
ATOM     17  H12 UNL     1      -5.173   0.476  -0.618  1.00  0.00     0.158 HD
ATOM     18  H11 UNL     1      -4.053   1.793  -0.289  1.00  0.00     0.158 HD
ATOM     19  H3  UNL     1      -1.642   1.269   0.036  1.00  0.00     0.191 HD
ENDBRANCH   1  13
TORSDOF 3
