REMARK  8 active torsions:
REMARK  status: ('A' for Active; 'I' for Inactive)
REMARK       I    between atoms: C2_4  and  N2_5 
REMARK       I    between atoms: C2_4  and  N3_16 
REMARK       I    between atoms: N2_5  and  C3_7 
REMARK    1  A    between atoms: C3_7  and  C4_9 
REMARK    2  A    between atoms: N3_16  and  C10_17 
REMARK    3  A    between atoms: N3_16  and  C13_21 
REMARK    4  A    between atoms: C10_17  and  C11_18 
REMARK    5  A    between atoms: C11_18  and  O2_19 
REMARK    6  A    between atoms: C13_21  and  O3_22 
REMARK    7  A    between atoms: C13_21  and  C14_24 
REMARK    8  A    between atoms: N5_31  and  O5_32 
ROOT
HETATM    1  C1  UNL     1       1.065   2.395  -2.870  1.00  0.00     0.165 C 
HETATM    2  N1  UNL     1       0.015   1.737  -2.191  1.00  0.00    -0.230 N 
ATOM      3  H1  UNL     1      -0.941   2.005  -2.425  1.00  0.00     0.177 HD
HETATM    4  C2  UNL     1       0.186   0.782  -1.257  1.00  0.00     0.684 C 
HETATM    5  N2  UNL     1       1.502   0.475  -0.998  1.00  0.00    -0.155 N 
ATOM      6  H2  UNL     1       2.131   0.923  -1.664  1.00  0.00     0.187 HD
HETATM    7  C3  UNL     1       2.205  -0.294  -0.057  1.00  0.00     0.271 C 
HETATM    8  O1  UNL     1       1.662  -0.892   0.911  1.00  0.00    -0.267 OA
HETATM    9  N3  UNL     1      -1.053   0.375  -0.718  1.00  0.00    -0.159 N 
ENDROOT
BRANCH   9  10
HETATM   10  C10 UNL     1      -2.014   1.411  -0.427  1.00  0.00     0.176 C 
BRANCH  10  11
HETATM   11  C11 UNL     1      -1.971   1.976   0.947  1.00  0.00     0.188 C 
BRANCH  11  12
HETATM   12  O2  UNL     1      -0.844   2.606   1.388  1.00  0.00    -0.394 OA
HETATM   13  C12 UNL     1      -0.531   3.810   0.830  1.00  0.00     0.201 C 
ENDBRANCH  11  12
ENDBRANCH  10  11
ENDBRANCH   9  10
BRANCH   9  14
HETATM   14  C13 UNL     1      -1.306  -0.970  -0.458  1.00  0.00     0.168 C 
BRANCH  14  15
HETATM   15  O3  UNL     1      -0.316  -1.744  -0.903  1.00  0.00    -0.345 OA
ATOM     16  H3  UNL     1      -0.489  -2.661  -0.726  1.00  0.00     0.219 HD
ENDBRANCH  14  15
BRANCH  14  17
HETATM   17  C14 UNL     1      -2.342  -1.726   0.155  1.00  0.00     0.018 A 
HETATM   18  C15 UNL     1      -2.137  -3.119   0.306  1.00  0.00     0.018 A 
HETATM   19  C16 UNL     1      -3.076  -3.959   0.859  1.00  0.00     0.035 A 
HETATM   20  C17 UNL     1      -4.280  -3.460   1.295  1.00  0.00     0.088 A 
HETATM   21  N4  UNL     1      -5.398  -3.975   1.868  1.00  0.00    -0.237 N 
HETATM   22  C18 UNL     1      -4.538  -2.116   1.175  1.00  0.00     0.119 A 
HETATM   23  O4  UNL     1      -6.254  -3.012   2.072  1.00  0.00    -0.128 OA
ATOM     24  H4  UNL     1      -5.545  -4.957   2.101  1.00  0.00     0.197 HD
HETATM   25  N5  UNL     1      -5.772  -1.882   1.669  1.00  0.00    -0.100 N 
HETATM   26  C19 UNL     1      -3.556  -1.299   0.608  1.00  0.00     0.052 A 
BRANCH  25  27
HETATM   27  O5  UNL     1      -6.425  -0.683   1.744  1.00  0.00    -0.261 OA
ATOM     28  H5  UNL     1      -6.071   0.147   1.448  1.00  0.00     0.247 HD
ENDBRANCH  25  27
ENDBRANCH  14  17
ENDBRANCH   9  14
BRANCH   7  29
HETATM   29  C4  UNL     1       3.672  -0.475  -0.110  1.00  0.00     0.050 A 
HETATM   30  C5  UNL     1       4.344  -0.413   1.112  1.00  0.00     0.018 A 
HETATM   31  C6  UNL     1       5.711  -0.498   1.156  1.00  0.00     0.001 A 
HETATM   32  C7  UNL     1       6.466  -0.645   0.018  1.00  0.00     0.001 A 
HETATM   33  C8  UNL     1       5.805  -0.706  -1.176  1.00  0.00     0.020 A 
HETATM   34  C9  UNL     1       4.405  -0.620  -1.218  1.00  0.00     0.026 A 
HETATM   35 BR1  UNL     1       3.559  -0.817  -2.937  1.00  0.00    -0.050 Br
ENDBRANCH   7  29
TORSDOF 8
