REMARK  2 active torsions:
REMARK  status: ('A' for Active; 'I' for Inactive)
REMARK    1  A    between atoms: C1_4  and  C2_6 
REMARK    2  A    between atoms: C4_8  and  N3_9 
ROOT
HETATM    1  C2  UNL     1       1.361   0.249  -0.157  1.00  0.00     0.008 A 
HETATM    2  C3  UNL     1       0.669   1.290  -0.745  1.00  0.00     0.053 A 
HETATM    3  C4  UNL     1      -0.699   1.325  -0.750  1.00  0.00     0.138 A 
HETATM    4  C5  UNL     1      -1.375   0.285  -0.147  1.00  0.00     0.129 A 
HETATM    5  O3  UNL     1      -2.693   0.323  -0.154  1.00  0.00    -0.258 OA
HETATM    6  C6  UNL     1      -3.413  -0.632   0.399  1.00  0.00     0.372 A 
HETATM    7  O4  UNL     1      -4.689  -0.579   0.383  1.00  0.00    -0.238 OA
HETATM    8  N4  UNL     1      -2.833  -1.685   0.995  1.00  0.00    -0.268 N 
ATOM      9  H4  UNL     1      -3.396  -2.420   1.423  1.00  0.00     0.174 HD
HETATM   10  C7  UNL     1      -1.492  -1.746   1.014  1.00  0.00     0.262 A 
HETATM   11  O5  UNL     1      -0.869  -2.713   1.560  1.00  0.00    -0.267 OA
HETATM   12  C8  UNL     1      -0.708  -0.762   0.444  1.00  0.00     0.070 A 
HETATM   13  C9  UNL     1       0.661  -0.780   0.438  1.00  0.00     0.035 A 
ENDROOT
BRANCH   1  14
HETATM   14  C1  UNL     1       2.823   0.221  -0.158  1.00  0.00     0.120 C 
HETATM   15  N1  UNL     1       3.487   1.194  -0.723  1.00  0.00    -0.387 N 
ATOM     16  H12 UNL     1       4.507   1.174  -0.724  1.00  0.00     0.157 HD
ATOM     17  H11 UNL     1       2.986   1.968  -1.160  1.00  0.00     0.157 HD
HETATM   18  N2  UNL     1       3.515  -0.849   0.446  1.00  0.00    -0.082 NA
ENDBRANCH   1  14
BRANCH   3  19
HETATM   19  N3  UNL     1      -1.430   2.385  -1.347  1.00  0.00    -0.113 N 
HETATM   20  O1  UNL     1      -2.546   2.175  -1.862  1.00  0.00    -0.532 OA
HETATM   21  O2  UNL     1      -0.844   3.630  -1.322  1.00  0.00    -0.532 OA
ENDBRANCH   3  19
TORSDOF 2
