REMARK  8 active torsions:
REMARK  status: ('A' for Active; 'I' for Inactive)
REMARK    1  A    between atoms: N1_1  and  C1_4 
REMARK    2  A    between atoms: C2_5  and  N2_6 
REMARK       I    between atoms: N2_6  and  C3_8 
REMARK    3  A    between atoms: C3_8  and  C4_10 
REMARK    4  A    between atoms: C4_10  and  C5_11 
REMARK    5  A    between atoms: C5_11  and  C6_12 
REMARK    6  A    between atoms: C7_15  and  C8_16 
REMARK    7  A    between atoms: N5_23  and  C13_24 
REMARK    8  A    between atoms: C13_24  and  C14_25 
REMARK       I    between atoms: C14_25  and  N6_27 
ROOT
HETATM    1  C1  UNL     1       0.366   0.609   0.987  1.00  0.00     0.145 A 
HETATM    2  C2  UNL     1      -0.844  -0.027   0.790  1.00  0.00     0.105 A 
HETATM    3  C7  UNL     1      -0.532  -1.321   0.459  1.00  0.00     0.060 A 
HETATM    4  N4  UNL     1       0.809  -1.417   0.468  1.00  0.00    -0.298 N 
ATOM      5  H4  UNL     1       1.323  -2.272   0.257  1.00  0.00     0.187 HD
HETATM    6  N5  UNL     1       1.378  -0.269   0.783  1.00  0.00    -0.266 N 
ENDROOT
BRANCH   2   7
HETATM    7  N2  UNL     1      -2.146   0.526   0.902  1.00  0.00    -0.322 N 
HETATM    8  C3  UNL     1      -2.836   1.133  -0.192  1.00  0.00     0.222 C 
HETATM    9  O1  UNL     1      -2.198   1.150  -1.299  1.00  0.00    -0.273 OA
ATOM     10  H2  UNL     1      -2.612   0.488   1.808  1.00  0.00     0.169 HD
BRANCH   8  11
HETATM   11  C4  UNL     1      -4.185   1.704  -0.070  1.00  0.00     0.112 C 
BRANCH  11  12
HETATM   12  C5  UNL     1      -4.589   2.253  -1.418  1.00  0.00     0.109 C 
BRANCH  12  13
HETATM   13  C6  UNL     1      -5.933   2.828  -1.319  1.00  0.00     0.231 C 
HETATM   14  N3  UNL     1      -6.526   3.405  -2.464  1.00  0.00    -0.062 NA
HETATM   15  O2  UNL     1      -6.547   2.808  -0.237  1.00  0.00    -0.277 OA
ENDBRANCH  12  13
ENDBRANCH  11  12
ENDBRANCH   8  11
ENDBRANCH   2   7
BRANCH   1  16
HETATM   16  N1  UNL     1       0.534   1.865   1.320  1.00  0.00    -0.382 N 
ATOM     17  H12 UNL     1      -0.228   2.526   1.474  1.00  0.00     0.157 HD
ATOM     18  H11 UNL     1       1.428   2.335   1.465  1.00  0.00     0.157 HD
ENDBRANCH   1  16
BRANCH   3  19
HETATM   19  C8  UNL     1      -1.516  -2.364   0.161  1.00  0.00     0.039 C 
HETATM   20  C9  UNL     1      -0.880  -3.692  -0.164  1.00  0.00     0.011 C 
HETATM   21  C10 UNL     1      -1.926  -4.736   0.235  1.00  0.00     0.001 C 
HETATM   22  C11 UNL     1      -3.082  -3.956   0.827  1.00  0.00     0.001 C 
HETATM   23  C12 UNL     1      -2.359  -2.741   1.382  1.00  0.00     0.011 C 
ENDBRANCH   3  19
BRANCH   6  24
HETATM   24  C13 UNL     1       2.799   0.038   0.899  1.00  0.00     0.253 C 
BRANCH  24  25
HETATM   25  C14 UNL     1       3.367   0.501  -0.381  1.00  0.00     0.239 C 
HETATM   26  O3  UNL     1       2.611   0.577  -1.379  1.00  0.00    -0.271 OA
HETATM   27  N6  UNL     1       4.740   0.849  -0.470  1.00  0.00    -0.351 N 
HETATM   28  C15 UNL     1       5.383   1.312  -1.682  1.00  0.00     0.126 C 
HETATM   29  C18 UNL     1       5.728   0.806   0.614  1.00  0.00     0.126 C 
HETATM   30  C16 UNL     1       6.453   2.233  -1.155  1.00  0.00     0.021 C 
HETATM   31  C17 UNL     1       6.906   1.568   0.107  1.00  0.00     0.021 C 
ENDBRANCH  24  25
ENDBRANCH   6  24
TORSDOF 8
