REMARK  7 active torsions:
REMARK  status: ('A' for Active; 'I' for Inactive)
REMARK    1  A    between atoms: C9_11  and  N2_12 
REMARK    2  A    between atoms: N2_12  and  C10_14 
REMARK    3  A    between atoms: C10_14  and  C11_15 
REMARK    4  A    between atoms: C11_15  and  N3_16 
REMARK    5  A    between atoms: N3_16  and  C12_19 
REMARK    6  A    between atoms: C12_19  and  C13_20 
REMARK    7  A    between atoms: C13_20  and  N4_21 
ROOT
HETATM    1  C1  UNL     1      -1.549   1.581  -1.842  1.00  0.00     0.026 C 
HETATM    2  C2  UNL     1      -2.279   1.021  -0.718  1.00  0.00     0.020 C 
HETATM    3  C3  UNL     1      -3.064   1.705   0.358  1.00  0.00     0.020 C 
HETATM    4  C4  UNL     1      -3.231   0.539   1.419  1.00  0.00     0.012 C 
HETATM    5  C5  UNL     1      -3.839  -0.715   0.909  1.00  0.00     0.041 C 
HETATM    6  C6  UNL     1      -2.830  -1.880   0.723  1.00  0.00     0.051 C 
HETATM    7  C7  UNL     1      -1.542  -1.142   0.587  1.00  0.00    -0.033 A 
HETATM    8  C8  UNL     1      -0.516  -1.762   1.240  1.00  0.00     0.097 A 
HETATM    9  N1  UNL     1       0.678  -1.190   1.434  1.00  0.00    -0.351 N 
ATOM     10  H1  UNL     1       1.425  -1.683   1.923  1.00  0.00     0.166 HD
HETATM   11  C9  UNL     1       0.860   0.050   0.965  1.00  0.00     0.122 A 
HETATM   12  C14 UNL     1      -0.132   0.768   0.283  1.00  0.00     0.096 A 
HETATM   13  C15 UNL     1       0.086   2.188   0.064  1.00  0.00     0.104 C 
HETATM   14  N5  UNL     1       0.264   3.334  -0.062  1.00  0.00    -0.191 NA
HETATM   15  C16 UNL     1      -1.341   0.141   0.091  1.00  0.00    -0.013 A 
HETATM   16  C17 UNL     1      -4.198  -0.530  -0.570  1.00  0.00     0.027 A 
HETATM   17  N6  UNL     1      -5.283  -1.164  -1.008  1.00  0.00    -0.355 N 
ATOM     18  H6  UNL     1      -5.809  -1.787  -0.395  1.00  0.00     0.166 HD
HETATM   19  C18 UNL     1      -5.670  -0.959  -2.290  1.00  0.00     0.183 A 
HETATM   20  N7  UNL     1      -4.957  -0.136  -3.062  1.00  0.00    -0.319 N 
ATOM     21  H7  UNL     1      -5.261   0.008  -4.025  1.00  0.00     0.169 HD
HETATM   22  C19 UNL     1      -3.837   0.526  -2.629  1.00  0.00     0.255 A 
HETATM   23  O1  UNL     1      -3.339   1.254  -3.519  1.00  0.00    -0.268 OA
HETATM   24  C20 UNL     1      -3.440   0.317  -1.331  1.00  0.00     0.046 A 
ENDROOT
BRANCH  11  25
HETATM   25  N2  UNL     1       2.119   0.705   1.157  1.00  0.00    -0.373 N 
ATOM     26  H2  UNL     1       2.239   1.653   0.800  1.00  0.00     0.161 HD
BRANCH  25  27
HETATM   27  C10 UNL     1       3.225   0.073   1.838  1.00  0.00     0.148 C 
BRANCH  27  28
HETATM   28  C11 UNL     1       3.740  -1.159   1.161  1.00  0.00     0.251 C 
BRANCH  28  29
HETATM   29  N3  UNL     1       4.206  -0.931  -0.175  1.00  0.00    -0.072 N 
ATOM     30  H32 UNL     1       4.340  -1.818  -0.661  1.00  0.00     0.277 HD
ATOM     31  H31 UNL     1       3.463  -0.529  -0.747  1.00  0.00     0.277 HD
BRANCH  29  32
HETATM   32  C12 UNL     1       5.386  -0.134  -0.261  1.00  0.00     0.259 C 
BRANCH  32  33
HETATM   33  C13 UNL     1       5.760  -0.011  -1.742  1.00  0.00     0.257 C 
BRANCH  33  34
HETATM   34  N4  UNL     1       6.946   0.789  -1.898  1.00  0.00    -0.078 N 
ATOM     35  H43 UNL     1       6.848   1.702  -1.455  1.00  0.00     0.274 HD
ATOM     36  H42 UNL     1       7.721   0.431  -1.340  1.00  0.00     0.274 HD
ATOM     37  H41 UNL     1       7.195   0.871  -2.884  1.00  0.00     0.274 HD
ENDBRANCH  33  34
ENDBRANCH  32  33
ENDBRANCH  29  32
ENDBRANCH  28  29
ENDBRANCH  27  28
ENDBRANCH  25  27
ENDBRANCH  11  25
TORSDOF 7
