REMARK  4 active torsions:
REMARK  status: ('A' for Active; 'I' for Inactive)
REMARK    1  A    between atoms: N1_1  and  C1_4 
REMARK    2  A    between atoms: C3_8  and  C4_9 
REMARK    3  A    between atoms: N3_10  and  N4_12 
REMARK    4  A    between atoms: N4_12  and  C5_14 
ROOT
HETATM    1  C4  UNL     1       0.181   0.933  -0.192  1.00  0.00     0.126 C 
HETATM    2  N3  UNL     1      -0.455   1.112   0.917  1.00  0.00    -0.297 N 
ATOM      3  H3  UNL     1       0.013   0.891   1.796  1.00  0.00     0.186 HD
ENDROOT
BRANCH   2   4
HETATM    4  N4  UNL     1      -1.759   1.597   0.950  1.00  0.00    -0.132 N 
ATOM      5  H4  UNL     1      -1.956   2.596   1.016  1.00  0.00     0.205 HD
BRANCH   4   6
HETATM    6  C5  UNL     1      -2.723   0.710   0.892  1.00  0.00     0.701 A 
HETATM    7  N5  UNL     1      -3.998   1.125   0.920  1.00  0.00    -0.186 N 
HETATM    8  C6  UNL     1      -4.977   0.221   0.861  1.00  0.00     0.202 A 
ATOM      9  H5  UNL     1      -4.216   2.119   0.986  1.00  0.00     0.185 HD
HETATM   10  N6  UNL     1      -4.692  -1.103   0.774  1.00  0.00    -0.304 N 
HETATM   11  C7  UNL     1      -3.413  -1.514   0.746  1.00  0.00     0.339 A 
ATOM     12  H6  UNL     1      -5.448  -1.786   0.730  1.00  0.00     0.171 HD
HETATM   13  O1  UNL     1      -3.168  -2.754   0.664  1.00  0.00    -0.246 OA
HETATM   14  N7  UNL     1      -2.444  -0.593   0.806  1.00  0.00    -0.140 N 
ATOM     15  H7  UNL     1      -1.469  -0.893   0.786  1.00  0.00     0.189 HD
ENDBRANCH   4   6
ENDBRANCH   2   4
BRANCH   1  16
HETATM   16  C3  UNL     1       1.542   0.424  -0.183  1.00  0.00     0.065 A 
HETATM   17  C2  UNL     1       2.229   0.230  -1.358  1.00  0.00     0.124 A 
HETATM   18  N2  UNL     1       3.507  -0.249  -1.310  1.00  0.00    -0.201 N 
HETATM   19  C1  UNL     1       4.095  -0.532  -0.136  1.00  0.00     0.678 A 
ATOM     20  H2  UNL     1       4.022  -0.394  -2.178  1.00  0.00     0.183 HD
HETATM   21  N8  UNL     1       3.435  -0.347   1.008  1.00  0.00    -0.156 N 
HETATM   22  C8  UNL     1       2.156   0.131   1.015  1.00  0.00     0.272 A 
ATOM     23  H8  UNL     1       3.893  -0.566   1.892  1.00  0.00     0.187 HD
HETATM   24  O2  UNL     1       1.559   0.295   2.118  1.00  0.00    -0.267 OA
BRANCH  19  25
HETATM   25  N1  UNL     1       5.320  -0.993  -0.078  1.00  0.00    -0.234 N 
ATOM     26  H12 UNL     1       5.825  -1.134  -0.953  1.00  0.00     0.174 HD
ATOM     27  H11 UNL     1       5.767  -1.208   0.814  1.00  0.00     0.174 HD
ENDBRANCH  19  25
ENDBRANCH   1  16
TORSDOF 4
