REMARK  2 active torsions:
REMARK  status: ('A' for Active; 'I' for Inactive)
REMARK    1  A    between atoms: C3_9  and  N3_10 
REMARK    2  A    between atoms: N3_10  and  O3_12 
ROOT
HETATM    1  O1  UNL     1      -1.876  -2.177   0.425  1.00  0.00    -0.246 OA
HETATM    2  C1  UNL     1      -1.194  -1.151   0.207  1.00  0.00     0.342 A 
HETATM    3  N1  UNL     1      -1.803   0.007  -0.159  1.00  0.00    -0.260 N 
ATOM      4  H1  UNL     1      -2.818   0.044  -0.257  1.00  0.00     0.175 HD
HETATM    5  C2  UNL     1      -1.062   1.101  -0.391  1.00  0.00     0.342 A 
HETATM    6  O2  UNL     1      -1.682   2.148  -0.728  1.00  0.00    -0.246 OA
HETATM    7  N2  UNL     1       0.270   1.082  -0.269  1.00  0.00    -0.139 N 
ATOM      8  H2  UNL     1       0.813   1.926  -0.449  1.00  0.00     0.189 HD
HETATM    9  C3  UNL     1       0.881  -0.041   0.088  1.00  0.00     0.710 A 
HETATM   10  N4  UNL     1       0.144  -1.126   0.317  1.00  0.00    -0.139 N 
ATOM     11  H4  UNL     1       0.622  -1.985   0.591  1.00  0.00     0.189 HD
ENDROOT
BRANCH   9  12
HETATM   12  N3  UNL     1       2.167  -0.015   0.194  1.00  0.00    -0.098 N 
ATOM     13  H3  UNL     1       2.653  -0.869   0.468  1.00  0.00     0.213 HD
BRANCH  12  14
HETATM   14  O3  UNL     1       2.906   1.113  -0.047  1.00  0.00    -0.276 OA
ATOM     15  H3  UNL     1       3.853   1.132   0.031  1.00  0.00     0.245 HD
ENDBRANCH  12  14
ENDBRANCH   9  12
TORSDOF 2
