REMARK  9 active torsions:
REMARK  status: ('A' for Active; 'I' for Inactive)
REMARK       I    between atoms: N1_2  and  C2_4 
REMARK       I    between atoms: C2_4  and  N2_6 
REMARK    1  A    between atoms: N2_6  and  C3_8 
REMARK    2  A    between atoms: C3_8  and  C4_9 
REMARK    3  A    between atoms: C4_9  and  C5_10 
REMARK    4  A    between atoms: C9_14  and  C10_15 
REMARK    5  A    between atoms: C10_15  and  C11_16 
REMARK    6  A    between atoms: C10_15  and  C17_27 
REMARK    7  A    between atoms: C11_16  and  O2_17 
REMARK    8  A    between atoms: C11_16  and  N3_19 
REMARK       I    between atoms: N3_19  and  C12_21 
REMARK    9  A    between atoms: C12_21  and  C13_23 
ROOT
HETATM    1  C5  UNL     1       2.504  -0.181   0.067  1.00  0.00    -0.043 C 
HETATM    2  C6  UNL     1       2.858   1.207  -0.327  1.00  0.00     0.015 C 
HETATM    3  C7  UNL     1       1.466  -0.151   1.138  1.00  0.00     0.010 C 
HETATM    4  C8  UNL     1       0.025  -0.107   0.676  1.00  0.00     0.010 C 
HETATM    5  C9  UNL     1      -0.163  -1.129  -0.349  1.00  0.00     0.019 C 
HETATM    6  C21 UNL     1       0.691  -0.633  -1.541  1.00  0.00     0.010 C 
HETATM    7  C22 UNL     1       2.115  -0.927  -1.191  1.00  0.00     0.010 C 
ENDROOT
BRANCH   5   8
HETATM    8  C10 UNL     1      -1.461  -1.559  -0.867  1.00  0.00    -0.017 C 
BRANCH   8   9
HETATM    9  C11 UNL     1      -2.360  -0.619  -1.525  1.00  0.00     0.146 C 
BRANCH   9  10
HETATM   10  O2  UNL     1      -2.400  -0.745  -2.871  1.00  0.00    -0.346 OA
ATOM     11  H2  UNL     1      -2.986  -0.132  -3.300  1.00  0.00     0.219 HD
ENDBRANCH   9  10
BRANCH   9  12
HETATM   12  N3  UNL     1      -3.208   0.398  -1.159  1.00  0.00    -0.307 N 
HETATM   13  C12 UNL     1      -3.669   1.011  -0.002  1.00  0.00     0.231 C 
HETATM   14  O3  UNL     1      -3.288   0.637   1.119  1.00  0.00    -0.272 OA
ATOM     15  H3  UNL     1      -3.623   0.832  -1.984  1.00  0.00     0.171 HD
BRANCH  13  16
HETATM   16  C13 UNL     1      -4.639   2.146   0.017  1.00  0.00     0.030 C 
HETATM   17  C14 UNL     1      -4.897   2.539   1.447  1.00  0.00     0.025 C 
HETATM   18  C15 UNL     1      -4.106   3.347  -0.712  1.00  0.00     0.025 C 
HETATM   19  C16 UNL     1      -5.968   1.776  -0.586  1.00  0.00     0.025 C 
ENDBRANCH  13  16
ENDBRANCH   9  12
ENDBRANCH   8   9
BRANCH   8  20
HETATM   20  C17 UNL     1      -2.127  -2.752  -0.238  1.00  0.00    -0.023 C 
HETATM   21  C18 UNL     1      -2.450  -2.736   1.190  1.00  0.00     0.019 C 
HETATM   22  C19 UNL     1      -1.387  -4.044  -0.540  1.00  0.00     0.019 C 
HETATM   23  C20 UNL     1      -3.469  -2.897  -0.989  1.00  0.00     0.019 C 
ENDBRANCH   8  20
ENDBRANCH   5   8
BRANCH   1  24
HETATM   24  C4  UNL     1       3.670  -0.969   0.602  1.00  0.00     0.029 C 
BRANCH  24  25
HETATM   25  C3  UNL     1       4.358  -0.499   1.804  1.00  0.00     0.125 C 
BRANCH  25  26
HETATM   26  N2  UNL     1       5.008   0.765   1.643  1.00  0.00    -0.343 N 
HETATM   27  C2  UNL     1       6.095   1.008   0.724  1.00  0.00     0.315 C 
HETATM   28  N1  UNL     1       6.691   2.286   0.606  1.00  0.00    -0.347 N 
HETATM   29  O1  UNL     1       6.564   0.103  -0.013  1.00  0.00    -0.247 OA
HETATM   30  C1  UNL     1       7.771   2.570  -0.293  1.00  0.00     0.151 C 
ATOM     31  H1  UNL     1       6.334   3.043   1.190  1.00  0.00     0.163 HD
ATOM     32  H2  UNL     1       4.683   1.545   2.214  1.00  0.00     0.164 HD
ENDBRANCH  25  26
ENDBRANCH  24  25
ENDBRANCH   1  24
TORSDOF 9
