REMARK  7 active torsions:
REMARK  status: ('A' for Active; 'I' for Inactive)
REMARK    1  A    between atoms: N1_2  and  C2_4 
REMARK    2  A    between atoms: C9_12  and  C10_13 
REMARK       I    between atoms: C10_13  and  N2_15 
REMARK    3  A    between atoms: N3_19  and  C14_20 
REMARK    4  A    between atoms: C14_20  and  C15_21 
REMARK       I    between atoms: C15_21  and  N4_23 
REMARK    5  A    between atoms: N4_23  and  C16_25 
REMARK    6  A    between atoms: C16_25  and  C17_26 
REMARK    7  A    between atoms: C17_26  and  C18_27 
ROOT
HETATM    1  C2  UNL     1      -1.948   0.460  -2.052  1.00  0.00     0.118 A 
HETATM    2  C3  UNL     1      -2.810   1.378  -1.495  1.00  0.00     0.022 A 
HETATM    3  C4  UNL     1      -3.114   2.505  -2.216  1.00  0.00     0.016 A 
HETATM    4  C5  UNL     1      -3.971   3.441  -1.682  1.00  0.00     0.004 A 
HETATM    5  C6  UNL     1      -4.530   3.281  -0.452  1.00  0.00     0.043 A 
HETATM    6  C7  UNL     1      -4.241   2.167   0.281  1.00  0.00     0.128 A 
HETATM    7  F1  UNL     1      -4.801   2.004   1.529  1.00  0.00    -0.205 F 
HETATM    8  C8  UNL     1      -3.386   1.204  -0.219  1.00  0.00     0.034 A 
HETATM    9  C9  UNL     1      -3.069   0.076   0.484  1.00  0.00     0.061 A 
HETATM   10  C13 UNL     1      -2.193  -0.846  -0.096  1.00  0.00     0.111 A 
HETATM   11  N3  UNL     1      -1.666  -0.659  -1.294  1.00  0.00    -0.333 N 
ENDROOT
BRANCH  11  12
HETATM   12  C14 UNL     1      -0.768  -1.674  -1.806  1.00  0.00     0.232 C 
BRANCH  12  13
HETATM   13  C15 UNL     1       0.631  -1.443  -1.452  1.00  0.00     0.235 C 
HETATM   14  O2  UNL     1       1.494  -2.265  -1.847  1.00  0.00    -0.272 OA
HETATM   15  N4  UNL     1       1.061  -0.334  -0.685  1.00  0.00    -0.359 N 
ATOM     16  H4  UNL     1       0.347   0.324  -0.374  1.00  0.00     0.162 HD
BRANCH  15  17
HETATM   17  C16 UNL     1       2.416  -0.059  -0.309  1.00  0.00     0.127 C 
BRANCH  17  18
HETATM   18  C17 UNL     1       3.067  -1.123   0.526  1.00  0.00     0.058 C 
BRANCH  18  19
HETATM   19  C18 UNL     1       4.453  -0.682   0.825  1.00  0.00    -0.054 A 
HETATM   20  C19 UNL     1       4.709   0.060   1.950  1.00  0.00     0.010 A 
HETATM   21  C20 UNL     1       6.035   0.436   2.163  1.00  0.00     0.040 A 
HETATM   22  C21 UNL     1       7.045   0.087   1.295  1.00  0.00     0.105 A 
HETATM   23  C22 UNL     1       6.777  -0.654   0.175  1.00  0.00     0.105 A 
HETATM   24  O4  UNL     1       8.424   0.352   1.313  1.00  0.00    -0.323 OA
HETATM   25  C23 UNL     1       5.453  -1.038  -0.050  1.00  0.00     0.047 A 
HETATM   26  O3  UNL     1       7.969  -0.845  -0.489  1.00  0.00    -0.323 OA
HETATM   27  C24 UNL     1       9.021  -0.507   0.385  1.00  0.00     0.352 C 
ENDBRANCH  18  19
ENDBRANCH  17  18
ENDBRANCH  15  17
ENDBRANCH  12  13
ENDBRANCH  11  12
BRANCH   1  28
HETATM   28  N1  UNL     1      -1.415   0.525  -3.124  1.00  0.00    -0.361 N 
HETATM   29  C1  UNL     1      -1.130   1.107  -4.326  1.00  0.00     0.120 C 
ATOM     30  H1  UNL     1      -0.869  -0.336  -3.156  1.00  0.00     0.165 HD
ENDBRANCH   1  28
BRANCH   9  31
HETATM   31  C10 UNL     1      -3.625  -0.185   1.793  1.00  0.00     0.255 C 
HETATM   32  O1  UNL     1      -3.022   0.252   2.805  1.00  0.00    -0.267 OA
HETATM   33  N2  UNL     1      -4.825  -0.918   2.008  1.00  0.00    -0.357 N 
HETATM   34  C11 UNL     1      -5.346  -1.152   3.338  1.00  0.00     0.152 C 
HETATM   35  C12 UNL     1      -5.610  -1.492   0.910  1.00  0.00     0.152 C 
ENDBRANCH   9  31
TORSDOF 7
