REMARK  8 active torsions:
REMARK  status: ('A' for Active; 'I' for Inactive)
REMARK    1  A    between atoms: O1_2  and  C2_3 
REMARK    2  A    between atoms: C2_3  and  C3_5 
REMARK    3  A    between atoms: C4_7  and  C5_8 
REMARK    4  A    between atoms: C5_8  and  N1_9 
REMARK    5  A    between atoms: C12_17  and  C13_18 
REMARK    6  A    between atoms: C13_18  and  C14_19 
REMARK    7  A    between atoms: C14_19  and  C15_20 
REMARK       I    between atoms: C15_20  and  N2_22 
REMARK    8  A    between atoms: N2_22  and  C16_24 
ROOT
HETATM    1  C3  UNL     1       0.681  -0.391   1.040  1.00  0.00     0.157 A 
HETATM    2  O3  UNL     1       1.606  -0.810   0.201  1.00  0.00    -0.307 OA
HETATM    3  C4  UNL     1       1.930   0.091  -0.676  1.00  0.00     0.072 A 
HETATM    4  C11 UNL     1       1.157   1.187  -0.389  1.00  0.00     0.044 A 
HETATM    5  C12 UNL     1       0.349   0.900   0.706  1.00  0.00    -0.015 A 
ENDROOT
BRANCH   5   6
HETATM    6  C13 UNL     1      -0.619   1.798   1.316  1.00  0.00     0.051 C 
BRANCH   6   7
HETATM    7  C14 UNL     1      -2.054   1.599   1.015  1.00  0.00     0.108 C 
BRANCH   7   8
HETATM    8  C15 UNL     1      -2.462   1.722  -0.386  1.00  0.00     0.236 C 
HETATM    9  O4  UNL     1      -1.637   2.079  -1.250  1.00  0.00    -0.273 OA
HETATM   10  N2  UNL     1      -3.825   1.429  -0.751  1.00  0.00    -0.159 N 
ATOM     11  H2  UNL     1      -4.495   2.185  -0.893  1.00  0.00     0.187 HD
BRANCH  10  12
HETATM   12  C16 UNL     1      -4.195   0.181  -0.899  1.00  0.00     0.686 A 
HETATM   13  N3  UNL     1      -3.395  -0.884  -0.737  1.00  0.00    -0.200 N 
HETATM   14  C17 UNL     1      -4.072  -2.023  -0.959  1.00  0.00     0.124 A 
ATOM     15  H3  UNL     1      -2.409  -0.836  -0.481  1.00  0.00     0.183 HD
HETATM   16  C18 UNL     1      -5.348  -1.603  -1.271  1.00  0.00     0.126 A 
HETATM   17  N4  UNL     1      -5.400  -0.262  -1.229  1.00  0.00    -0.196 N 
HETATM   18  C19 UNL     1      -6.577   0.563  -1.499  1.00  0.00     0.175 C 
ENDBRANCH  10  12
ENDBRANCH   7   8
ENDBRANCH   6   7
ENDBRANCH   5   6
BRANCH   1  19
HETATM   19  C2  UNL     1       0.150  -1.215   2.120  1.00  0.00     0.317 C 
HETATM   20  O2  UNL     1      -0.708  -0.833   2.935  1.00  0.00    -0.257 OA
BRANCH  19  21
HETATM   21  O1  UNL     1       0.593  -2.533   2.306  1.00  0.00    -0.321 OA
HETATM   22  C1  UNL     1       0.093  -3.356   3.347  1.00  0.00     0.213 C 
ENDBRANCH  19  21
ENDBRANCH   1  19
BRANCH   3  23
HETATM   23  C5  UNL     1       2.950  -0.063  -1.772  1.00  0.00     0.192 C 
BRANCH  23  24
HETATM   24  N1  UNL     1       4.238   0.346  -1.261  1.00  0.00    -0.359 N 
HETATM   25  C6  UNL     1       4.659   1.611  -1.354  1.00  0.00     0.091 A 
HETATM   26  C7  UNL     1       5.890   1.955  -0.855  1.00  0.00     0.019 A 
HETATM   27  C8  UNL     1       6.712   1.037  -0.258  1.00  0.00     0.022 A 
HETATM   28  C9  UNL     1       6.270  -0.267  -0.166  1.00  0.00     0.026 A 
HETATM   29 BR1  UNL     1       7.371  -1.578   0.651  1.00  0.00    -0.050 Br
HETATM   30  C10 UNL     1       5.018  -0.571  -0.685  1.00  0.00     0.110 A 
ENDBRANCH  23  24
ENDBRANCH   3  23
TORSDOF 8
