REMARK  3 active torsions:
REMARK  status: ('A' for Active; 'I' for Inactive)
REMARK       I    between atoms: C1_4  and  N3_6 
REMARK    1  A    between atoms: C4_9  and  N4_10 
REMARK    2  A    between atoms: N4_10  and  C5_12 
REMARK    3  A    between atoms: N8_17  and  O1_18 
ROOT
HETATM    1  N1  UNL     1      -4.111  -1.338   0.213  1.00  0.00    -0.374 N 
ATOM      2  H11 UNL     1      -3.838  -2.114  -0.390  1.00  0.00     0.158 HD
ATOM      3  H12 UNL     1      -5.065  -1.295   0.572  1.00  0.00     0.158 HD
HETATM    4  C1  UNL     1      -3.236  -0.445   0.492  1.00  0.00     0.184 C 
HETATM    5  N2  UNL     1      -3.616   0.634   1.330  1.00  0.00    -0.064 NA
HETATM    6  N3  UNL     1      -1.906  -0.505  -0.009  1.00  0.00    -0.354 N 
HETATM    7  C2  UNL     1      -1.463   0.107  -1.248  1.00  0.00     0.127 C 
HETATM    8  C3  UNL     1      -0.093   0.597  -0.887  1.00  0.00     0.047 C 
HETATM    9  C4  UNL     1       0.426  -0.529  -0.022  1.00  0.00     0.119 C 
HETATM   10  C6  UNL     1      -0.780  -1.173   0.613  1.00  0.00     0.151 C 
ENDROOT
BRANCH   9  11
HETATM   11  N4  UNL     1       1.342   0.015   0.954  1.00  0.00    -0.216 N 
ATOM     12  H4  UNL     1       1.023   0.202   1.905  1.00  0.00     0.178 HD
BRANCH  11  13
HETATM   13  C5  UNL     1       2.563   0.264   0.622  1.00  0.00     0.731 A 
HETATM   14  N5  UNL     1       3.202   0.104  -0.549  1.00  0.00    -0.115 N 
HETATM   15  N6  UNL     1       4.468   0.497  -0.429  1.00  0.00     0.009 NA
ATOM     16  H5  UNL     1       2.780  -0.263  -1.402  1.00  0.00     0.203 HD
HETATM   17  N7  UNL     1       4.634   0.909   0.824  1.00  0.00     0.037 NA
HETATM   18  N8  UNL     1       3.473   0.769   1.469  1.00  0.00     0.030 N 
BRANCH  18  19
HETATM   19  O1  UNL     1       3.297   1.104   2.791  1.00  0.00    -0.256 OA
ATOM     20  H1  UNL     1       3.941   1.462   3.391  1.00  0.00     0.247 HD
ENDBRANCH  18  19
ENDBRANCH  11  13
ENDBRANCH   9  11
TORSDOF 3
