REMARK  14 active torsions:
REMARK  status: ('A' for Active; 'I' for Inactive)
REMARK    1  A    between atoms: S1_2  and  C2_3 
REMARK    2  A    between atoms: C3_6  and  N2_7 
REMARK    3  A    between atoms: C5_9  and  C6_10 
REMARK    4  A    between atoms: C6_10  and  O1_11 
REMARK    5  A    between atoms: O1_11  and  C7_12 
REMARK    6  A    between atoms: C7_12  and  C8_13 
REMARK    7  A    between atoms: C8_13  and  N3_14 
REMARK       I    between atoms: N3_14  and  C9_16 
REMARK    8  A    between atoms: C9_16  and  C10_18 
REMARK    9  A    between atoms: C10_18  and  N4_19 
REMARK       I    between atoms: N4_19  and  C11_21 
REMARK   10  A    between atoms: N8_32  and  C14_33 
REMARK   11  A    between atoms: C16_35  and  O5_36 
REMARK   12  A    between atoms: C17_38  and  N9_39 
REMARK   13  A    between atoms: C20_42  and  N10_43 
REMARK   14  A    between atoms: C23_51  and  N12_52 
ROOT
HETATM    1  C2  UNL     1      -0.688   1.381   1.372  1.00  0.00     0.167 A 
HETATM    2  N1  UNL     1       0.613   1.461   0.966  1.00  0.00    -0.168 N 
ATOM      3  H1  UNL     1       1.192   2.221   1.323  1.00  0.00     0.186 HD
HETATM    4  C3  UNL     1       1.161   0.576   0.113  1.00  0.00     0.710 A 
HETATM    5  N7  UNL     1       0.373  -0.407  -0.333  1.00  0.00    -0.139 N 
ATOM      6  H7  UNL     1       0.744  -1.102  -0.980  1.00  0.00     0.189 HD
HETATM    7  C13 UNL     1      -0.911  -0.482   0.070  1.00  0.00     0.345 A 
HETATM    8  O4  UNL     1      -1.565  -1.462  -0.421  1.00  0.00    -0.246 OA
HETATM    9  N8  UNL     1      -1.477   0.396   0.923  1.00  0.00    -0.250 N 
ENDROOT
BRANCH   9  10
HETATM   10  C14 UNL     1      -2.860   0.204   1.275  1.00  0.00     0.247 C 
HETATM   11  C15 UNL     1      -3.668   1.414   1.542  1.00  0.00     0.093 C 
HETATM   12  C16 UNL     1      -5.171   1.186   1.255  1.00  0.00     0.179 C 
HETATM   13  C17 UNL     1      -5.299   0.896  -0.181  1.00  0.00     0.127 C 
HETATM   14  C25 UNL     1      -4.370  -0.178  -0.667  1.00  0.00     0.311 C 
HETATM   15  O7  UNL     1      -4.479  -0.582  -1.844  1.00  0.00    -0.258 OA
HETATM   16  O8  UNL     1      -3.458  -0.625   0.268  1.00  0.00    -0.290 OA
BRANCH  12  17
HETATM   17  O5  UNL     1      -5.744   2.463   1.477  1.00  0.00    -0.389 OA
ATOM     18  H5  UNL     1      -6.667   2.323   1.301  1.00  0.00     0.210 HD
ENDBRANCH  12  17
BRANCH  13  19
HETATM   19  N9  UNL     1      -6.572   0.944  -0.787  1.00  0.00    -0.244 N 
HETATM   20  C18 UNL     1      -7.535   0.071  -0.434  1.00  0.00     0.122 A 
HETATM   21  C19 UNL     1      -8.804   0.081  -0.995  1.00  0.00     0.032 A 
HETATM   22  N13 UNL     1      -7.263  -0.912   0.543  1.00  0.00    -0.373 N 
HETATM   23  C20 UNL     1      -9.093   1.038  -1.966  1.00  0.00     0.112 A 
HETATM   24  C22 UNL     1      -9.868  -0.875  -0.603  1.00  0.00     0.081 C 
HETATM   25  N11 UNL     1      -8.132   1.898  -2.310  1.00  0.00    -0.294 N 
HETATM   26  C21 UNL     1      -6.939   1.849  -1.748  1.00  0.00     0.334 A 
ATOM     27  H11 UNL     1      -8.323   2.605  -3.020  1.00  0.00     0.172 HD
HETATM   28  O6  UNL     1      -6.032   2.677  -2.086  1.00  0.00    -0.246 OA
HETATM   29  C23 UNL     1      -9.445  -1.925   0.364  1.00  0.00     0.205 C 
HETATM   30  C24 UNL     1      -8.393  -1.418   1.338  1.00  0.00     0.154 C 
ATOM     31  H13 UNL     1      -6.316  -1.259   0.692  1.00  0.00     0.161 HD
BRANCH  23  32
HETATM   32  N10 UNL     1     -10.250   1.097  -2.523  1.00  0.00    -0.385 N 
ATOM     33 2H10 UNL     1     -10.984   0.440  -2.260  1.00  0.00     0.157 HD
ATOM     34 1H10 UNL     1     -10.462   1.797  -3.234  1.00  0.00     0.157 HD
ENDBRANCH  23  32
BRANCH  29  35
HETATM   35  N12 UNL     1      -8.894  -3.088  -0.296  1.00  0.00    -0.073 N 
ATOM     36 3H12 UNL     1      -9.545  -3.463  -0.986  1.00  0.00     0.274 HD
ATOM     37 2H12 UNL     1      -8.128  -2.830  -0.918  1.00  0.00     0.274 HD
ATOM     38 1H12 UNL     1      -8.604  -3.807   0.367  1.00  0.00     0.274 HD
ENDBRANCH  29  35
ENDBRANCH  13  19
ENDBRANCH   9  10
BRANCH   1  39
HETATM   39  S1  UNL     1      -1.282   2.611   2.518  1.00  0.00    -0.097 SA
HETATM   40  C1  UNL     1      -1.000   2.031   4.218  1.00  0.00     0.099 C 
ENDBRANCH   1  39
BRANCH   4  41
HETATM   41  N2  UNL     1       2.536   0.692  -0.295  1.00  0.00    -0.081 N 
HETATM   42  C4  UNL     1       3.541   0.743   0.601  1.00  0.00     0.165 A 
HETATM   43  C5  UNL     1       4.756   0.858  -0.079  1.00  0.00     0.069 A 
HETATM   44  N5  UNL     1       4.409   0.870  -1.376  1.00  0.00    -0.286 N 
HETATM   45  N6  UNL     1       3.073   0.769  -1.479  1.00  0.00    -0.222 N 
ATOM     46  H5  UNL     1       5.057   0.944  -2.160  1.00  0.00     0.188 HD
ATOM     47  H6  UNL     1       2.555   0.755  -2.357  1.00  0.00     0.209 HD
BRANCH  43  48
HETATM   48  C6  UNL     1       6.127   0.949   0.481  1.00  0.00     0.227 C 
BRANCH  48  49
HETATM   49  O1  UNL     1       6.783  -0.247   0.597  1.00  0.00    -0.384 OA
BRANCH  49  50
HETATM   50  C7  UNL     1       6.964  -0.917  -0.609  1.00  0.00     0.187 C 
BRANCH  50  51
HETATM   51  C8  UNL     1       7.700  -2.196  -0.276  1.00  0.00     0.148 C 
BRANCH  51  52
HETATM   52  N3  UNL     1       8.974  -1.983   0.346  1.00  0.00    -0.358 N 
HETATM   53  C9  UNL     1      10.017  -1.287  -0.302  1.00  0.00     0.235 C 
HETATM   54  O2  UNL     1       9.835  -0.840  -1.461  1.00  0.00    -0.272 OA
ATOM     55  H3  UNL     1       9.132  -2.346   1.286  1.00  0.00     0.162 HD
BRANCH  53  56
HETATM   56  C10 UNL     1      11.331  -1.078   0.379  1.00  0.00     0.225 C 
BRANCH  56  57
HETATM   57  N4  UNL     1      12.221  -0.369  -0.481  1.00  0.00    -0.353 N 
HETATM   58  C11 UNL     1      12.651  -0.898  -1.718  1.00  0.00     0.213 C 
HETATM   59  C12 UNL     1      13.581  -0.117  -2.600  1.00  0.00     0.117 C 
HETATM   60  O3  UNL     1      12.287  -2.017  -2.132  1.00  0.00    -0.274 OA
ATOM     61  H4  UNL     1      12.558   0.550  -0.193  1.00  0.00     0.162 HD
ENDBRANCH  56  57
ENDBRANCH  53  56
ENDBRANCH  51  52
ENDBRANCH  50  51
ENDBRANCH  49  50
ENDBRANCH  48  49
ENDBRANCH  43  48
ENDBRANCH   4  41
TORSDOF 14
