REMARK  5 active torsions:
REMARK  status: ('A' for Active; 'I' for Inactive)
REMARK    1  A    between atoms: N1_1  and  C1_5 
REMARK    2  A    between atoms: C1_5  and  C2_6 
REMARK    3  A    between atoms: C1_5  and  C11_17 
REMARK    4  A    between atoms: C2_6  and  N2_7 
REMARK    5  A    between atoms: C5_10  and  N3_11 
ROOT
HETATM    1  C2  UNL     1      -1.840   0.442   0.798  1.00  0.00     0.103 C 
ENDROOT
BRANCH   1   2
HETATM    2  C1  UNL     1      -2.955   0.092  -0.137  1.00  0.00     0.254 C 
BRANCH   2   3
HETATM    3  N1  UNL     1      -3.389  -1.264  -0.129  1.00  0.00    -0.068 N 
ATOM      4  H13 UNL     1      -2.594  -1.880  -0.298  1.00  0.00     0.275 HD
ATOM      5  H12 UNL     1      -3.639  -1.539   0.821  1.00  0.00     0.275 HD
ATOM      6  H11 UNL     1      -4.149  -1.503  -0.766  1.00  0.00     0.275 HD
ENDBRANCH   2   3
BRANCH   2   7
HETATM    7  C11 UNL     1      -4.128   1.058  -0.002  1.00  0.00     0.246 A 
HETATM    8  C12 UNL     1      -5.138   0.959  -1.084  1.00  0.00     0.268 A 
HETATM    9  N4  UNL     1      -5.413   0.473   0.263  1.00  0.00    -0.065 N 
ATOM     10  H42 UNL     1      -5.720  -0.421   0.645  1.00  0.00     0.277 HD
ATOM     11  H41 UNL     1      -6.148   0.655   0.946  1.00  0.00     0.277 HD
ENDBRANCH   2   7
ENDBRANCH   1   2
BRANCH   1  12
HETATM   12  N2  UNL     1      -0.646  -0.227   0.581  1.00  0.00    -0.350 N 
HETATM   13  C3  UNL     1      -0.415  -1.559   0.806  1.00  0.00     0.070 C 
HETATM   14  C4  UNL     1       0.953  -1.867   0.216  1.00  0.00     0.086 C 
HETATM   15  C5  UNL     1       1.568  -0.574  -0.115  1.00  0.00     0.266 C 
HETATM   16  C10 UNL     1       0.446   0.429  -0.000  1.00  0.00     0.104 C 
BRANCH  15  17
HETATM   17  N3  UNL     1       2.641  -0.117   0.724  1.00  0.00     0.098 N 
HETATM   18  C6  UNL     1       2.958   1.239   0.268  1.00  0.00     0.273 C 
HETATM   19  C7  UNL     1       4.431   1.335   0.108  1.00  0.00     0.032 C 
HETATM   20  C8  UNL     1       4.896  -0.073  -0.056  1.00  0.00     0.032 C 
HETATM   21  C9  UNL     1       3.839  -0.875   0.678  1.00  0.00     0.273 C 
ENDBRANCH  15  17
ENDBRANCH   1  12
TORSDOF 5
