REMARK  4 active torsions:
REMARK  status: ('A' for Active; 'I' for Inactive)
REMARK    1  A    between atoms: C2_2  and  C3_3 
REMARK    2  A    between atoms: C2_2  and  C5_6 
REMARK    3  A    between atoms: C3_3  and  C4_4 
REMARK    4  A    between atoms: C5_6  and  C6_7 
ROOT
HETATM    1  C6  UNL     1      -0.523   0.552  -0.172  1.00  0.00     0.164 C 
HETATM    2  C7  UNL     1      -1.066   0.109   1.146  1.00  0.00     0.037 C 
HETATM    3  C8  UNL     1      -2.558   0.238   1.270  1.00  0.00     0.032 C 
HETATM    4  C9  UNL     1      -3.287  -0.002  -0.025  1.00  0.00     0.210 C 
HETATM    5  O2  UNL     1      -2.389  -0.294  -1.026  1.00  0.00    -0.241 OA
HETATM    6  O3  UNL     1      -1.536   0.710  -1.097  1.00  0.00    -0.235 OA
ENDROOT
BRANCH   1   7
HETATM    7  C5  UNL     1       0.480  -0.447  -0.737  1.00  0.00     0.068 C 
BRANCH   7   8
HETATM    8  C2  UNL     1       1.635  -0.629   0.176  1.00  0.00    -0.080 C 
HETATM    9  C1  UNL     1       1.877  -1.843   0.659  1.00  0.00     0.015 C 
BRANCH   8  10
HETATM   10  C3  UNL     1       2.513   0.495   0.563  1.00  0.00     0.102 C 
BRANCH  10  11
HETATM   11  C4  UNL     1       3.199   1.137  -0.570  1.00  0.00     0.235 C 
HETATM   12  O1  UNL     1       3.058   0.771  -1.718  1.00  0.00    -0.307 OA
ENDBRANCH  10  11
ENDBRANCH   8  10
ENDBRANCH   7   8
ENDBRANCH   1   7
TORSDOF 4
