REMARK  4 active torsions:
REMARK  status: ('A' for Active; 'I' for Inactive)
REMARK    1  A    between atoms: N2_5  and  C4_6 
REMARK    2  A    between atoms: C7_9  and  O1_10 
REMARK    3  A    between atoms: O1_10  and  C8_11 
REMARK    4  A    between atoms: C16_23  and  C17_24 
ROOT
HETATM    1  N1  UNL     1      -5.223  -4.057  -1.061  1.00  0.00    -0.191 NA
HETATM    2  C1  UNL     1      -4.429  -3.232  -0.903  1.00  0.00     0.103 C 
HETATM    3  C2  UNL     1      -3.436  -2.210  -0.730  1.00  0.00     0.086 A 
HETATM    4  C3  UNL     1      -2.070  -2.384  -0.776  1.00  0.00     0.141 A 
HETATM    5  N2  UNL     1      -1.523  -1.183  -0.567  1.00  0.00    -0.266 N 
HETATM    6  N3  UNL     1      -2.492  -0.303  -0.399  1.00  0.00    -0.296 N 
ATOM      7  H3  UNL     1      -2.342   0.690  -0.223  1.00  0.00     0.187 HD
HETATM    8  C16 UNL     1      -3.700  -0.881  -0.489  1.00  0.00     0.052 A 
ENDROOT
BRANCH   8   9
HETATM    9  C17 UNL     1      -5.032  -0.232  -0.358  1.00  0.00     0.042 C 
HETATM   10  C18 UNL     1      -4.818   1.268  -0.103  1.00  0.00     0.038 C 
HETATM   11  C19 UNL     1      -6.193   1.896  -0.120  1.00  0.00     0.233 C 
HETATM   12  N4  UNL     1      -7.255   0.923  -0.151  1.00  0.00    -0.075 N 
HETATM   13  C20 UNL     1      -7.140  -0.098   0.849  1.00  0.00     0.233 C 
ATOM     14  H42 UNL     1      -8.164   1.383  -0.091  1.00  0.00     0.277 HD
ATOM     15  H41 UNL     1      -7.333   0.508  -1.079  1.00  0.00     0.277 HD
HETATM   16  C21 UNL     1      -5.770  -0.744   0.865  1.00  0.00     0.038 C 
ENDBRANCH   8   9
BRANCH   5  17
HETATM   17  C4  UNL     1      -0.141  -0.880  -0.527  1.00  0.00     0.056 A 
HETATM   18  C5  UNL     1       0.779  -1.747  -1.068  1.00  0.00     0.034 A 
HETATM   19  C6  UNL     1       2.114  -1.476  -1.041  1.00  0.00     0.039 A 
HETATM   20  C7  UNL     1       2.636  -0.310  -0.469  1.00  0.00     0.069 A 
HETATM   21  C14 UNL     1       1.709   0.552   0.070  1.00  0.00     0.039 A 
HETATM   22  C15 UNL     1       0.359   0.274   0.041  1.00  0.00     0.034 A 
BRANCH  20  23
HETATM   23  O1  UNL     1       3.996  -0.117  -0.485  1.00  0.00    -0.346 OA
BRANCH  23  24
HETATM   24  C8  UNL     1       4.634   0.989   0.045  1.00  0.00     0.129 C 
HETATM   25  C9  UNL     1       5.425   1.687  -1.049  1.00  0.00     0.038 C 
HETATM   26  C10 UNL     1       6.352   0.685  -1.686  1.00  0.00     0.081 C 
HETATM   27  C11 UNL     1       7.358   0.235  -0.663  1.00  0.00     0.243 C 
HETATM   28  F1  UNL     1       8.601   0.709  -1.065  1.00  0.00    -0.206 F 
HETATM   29  F2  UNL     1       7.332  -1.144  -0.586  1.00  0.00    -0.206 F 
HETATM   30  C12 UNL     1       7.054   0.778   0.715  1.00  0.00     0.081 C 
HETATM   31  C13 UNL     1       5.633   0.486   1.079  1.00  0.00     0.038 C 
ENDBRANCH  23  24
ENDBRANCH  20  23
ENDBRANCH   5  17
TORSDOF 4
