REMARK  7 active torsions:
REMARK  status: ('A' for Active; 'I' for Inactive)
REMARK    1  A    between atoms: C2_6  and  C3_7 
REMARK    2  A    between atoms: N4_8  and  N5_10 
REMARK    3  A    between atoms: N5_10  and  C4_12 
REMARK    4  A    between atoms: C4_12  and  C5_13 
REMARK    5  A    between atoms: C5_13  and  C6_17 
REMARK    6  A    between atoms: C7_20  and  N8_21 
REMARK    7  A    between atoms: C9_30  and  C10_31 
ROOT
HETATM    1  C6  UNL     1      -2.283   1.671  -0.069  1.00  0.00     0.090 A 
HETATM    2  N7  UNL     1      -2.993   2.840  -0.316  1.00  0.00    -0.189 N 
ATOM      3  H7  UNL     1      -2.483   3.652  -0.662  1.00  0.00     0.184 HD
HETATM    4  C7  UNL     1      -4.307   2.953  -0.123  1.00  0.00     0.678 A 
HETATM    5  N9  UNL     1      -5.010   1.903   0.331  1.00  0.00    -0.176 N 
ATOM      6  H9  UNL     1      -6.015   2.001   0.475  1.00  0.00     0.186 HD
HETATM    7  C8  UNL     1      -4.424   0.733   0.599  1.00  0.00     0.131 A 
HETATM    8  N10 UNL     1      -5.084  -0.288   1.034  1.00  0.00    -0.384 N 
ATOM      9 1H10 UNL     1      -4.637  -1.181   1.239  1.00  0.00     0.157 HD
ATOM     10 2H10 UNL     1      -6.090  -0.222   1.188  1.00  0.00     0.157 HD
HETATM   11  C9  UNL     1      -3.029   0.642   0.386  1.00  0.00     0.084 A 
ENDROOT
BRANCH   1  12
HETATM   12  C5  UNL     1      -0.855   1.673  -0.324  1.00  0.00     0.051 C 
HETATM   13  N6  UNL     1      -0.383   2.809  -0.792  1.00  0.00    -0.399 N 
ATOM     14  H62 UNL     1       0.621   2.810  -0.971  1.00  0.00     0.156 HD
ATOM     15  H61 UNL     1      -1.043   3.580  -0.894  1.00  0.00     0.156 HD
BRANCH  12  16
HETATM   16  C4  UNL     1       0.079   0.581  -0.180  1.00  0.00     0.198 C 
BRANCH  16  17
HETATM   17  N5  UNL     1       1.465   1.092  -0.170  1.00  0.00    -0.331 N 
ATOM     18  H5  UNL     1       1.629   2.096  -0.096  1.00  0.00     0.180 HD
BRANCH  17  19
HETATM   19  N4  UNL     1       2.550   0.227  -0.260  1.00  0.00    -0.312 N 
HETATM   20  C3  UNL     1       2.750  -0.600  -1.208  1.00  0.00     0.157 C 
ATOM     21  H4  UNL     1       3.239   0.257   0.491  1.00  0.00     0.185 HD
BRANCH  20  22
HETATM   22  C2  UNL     1       3.941  -1.438  -1.150  1.00  0.00     0.151 A 
HETATM   23  N3  UNL     1       4.330  -2.364  -2.044  1.00  0.00    -0.266 N 
HETATM   24  N2  UNL     1       5.464  -2.901  -1.625  1.00  0.00    -0.003 NA
ATOM     25  H3  UNL     1       3.834  -2.611  -2.901  1.00  0.00     0.186 HD
HETATM   26  N1  UNL     1       5.835  -2.354  -0.480  1.00  0.00    -0.221 N 
HETATM   27  C1  UNL     1       7.025  -2.682   0.287  1.00  0.00     0.197 C 
HETATM   28  N15 UNL     1       4.900  -1.462  -0.198  1.00  0.00    -0.269 N 
ATOM     29  H15 UNL     1       4.902  -0.868   0.631  1.00  0.00     0.190 HD
ENDBRANCH  20  22
ENDBRANCH  17  19
ENDBRANCH  16  17
ENDBRANCH  12  16
ENDBRANCH   1  12
BRANCH  11  30
HETATM   30  C10 UNL     1      -2.505  -0.666   0.716  1.00  0.00     0.153 A 
HETATM   31  N11 UNL     1      -2.272  -1.710  -0.099  1.00  0.00    -0.268 N 
HETATM   32  N12 UNL     1      -1.870  -2.745   0.611  1.00  0.00    -0.227 N 
ATOM     33  H11 UNL     1      -2.389  -1.702  -1.112  1.00  0.00     0.190 HD
HETATM   34  N13 UNL     1      -1.836  -2.398   1.869  1.00  0.00    -0.227 N 
ATOM     35  H12 UNL     1      -1.626  -3.663   0.240  1.00  0.00     0.210 HD
HETATM   36  N14 UNL     1      -2.217  -1.137   1.966  1.00  0.00    -0.268 N 
ATOM     37  H13 UNL     1      -1.562  -2.999   2.646  1.00  0.00     0.210 HD
ATOM     38  H14 UNL     1      -2.285  -0.602   2.832  1.00  0.00     0.190 HD
ENDBRANCH  11  30
BRANCH   4  39
HETATM   39  N8  UNL     1      -4.872   4.082  -0.382  1.00  0.00    -0.234 N 
ATOM     40  H82 UNL     1      -4.338   4.880  -0.727  1.00  0.00     0.174 HD
ATOM     41  H81 UNL     1      -5.878   4.168  -0.234  1.00  0.00     0.174 HD
ENDBRANCH   4  39
TORSDOF 7
