REMARK  5 active torsions:
REMARK  status: ('A' for Active; 'I' for Inactive)
REMARK    1  A    between atoms: N1_2  and  C2_5 
REMARK    2  A    between atoms: C2_5  and  C3_6 
REMARK    3  A    between atoms: C3_6  and  N2_7 
REMARK    4  A    between atoms: N2_7  and  C4_9 
REMARK    5  A    between atoms: C7_14  and  N4_15 
ROOT
HETATM    1  C4  UNL     1       1.135   0.138   0.055  1.00  0.00     0.679 A 
HETATM    2  N3  UNL     1       1.592  -0.524  -1.010  1.00  0.00    -0.202 N 
ATOM      3  H3  UNL     1       0.967  -0.684  -1.800  1.00  0.00     0.183 HD
HETATM    4  C5  UNL     1       2.873  -0.993  -1.071  1.00  0.00     0.110 A 
HETATM    5  C6  UNL     1       3.664  -0.744   0.028  1.00  0.00     0.066 A 
HETATM    6  C7  UNL     1       3.218  -0.066   1.135  1.00  0.00     0.116 A 
HETATM    7  N5  UNL     1       1.929   0.366   1.112  1.00  0.00    -0.177 N 
ATOM      8  H5  UNL     1       1.558   0.874   1.915  1.00  0.00     0.185 HD
ENDROOT
BRANCH   1   9
HETATM    9  N2  UNL     1      -0.069   0.554   0.061  1.00  0.00    -0.224 N 
ATOM     10  H2  UNL     1      -0.426   1.060   0.871  1.00  0.00     0.177 HD
BRANCH   9  11
HETATM   11  C3  UNL     1      -0.923   0.316  -1.061  1.00  0.00     0.165 C 
BRANCH  11  12
HETATM   12  C2  UNL     1      -2.356   0.697  -0.726  1.00  0.00     0.252 C 
BRANCH  12  13
HETATM   13  N1  UNL     1      -2.834  -0.090   0.396  1.00  0.00    -0.077 N 
HETATM   14  C1  UNL     1      -4.208   0.335   0.652  1.00  0.00     0.267 C 
ATOM     15  H12 UNL     1      -2.233  -0.026   1.218  1.00  0.00     0.276 HD
ATOM     16  H11 UNL     1      -2.744  -1.095   0.250  1.00  0.00     0.276 HD
ENDBRANCH  12  13
ENDBRANCH  11  12
ENDBRANCH   9  11
ENDBRANCH   1   9
BRANCH   6  17
HETATM   17  N4  UNL     1       3.983   0.152   2.149  1.00  0.00    -0.385 N 
ATOM     18  H42 UNL     1       4.950  -0.172   2.166  1.00  0.00     0.157 HD
ATOM     19  H41 UNL     1       3.652   0.656   2.972  1.00  0.00     0.157 HD
ENDBRANCH   6  17
TORSDOF 5
