REMARK  12 active torsions:
REMARK  status: ('A' for Active; 'I' for Inactive)
REMARK    1  A    between atoms: C2_9  and  S1_10 
REMARK    2  A    between atoms: S1_10  and  C3_11 
REMARK    3  A    between atoms: C3_11  and  N5_12 
REMARK    4  A    between atoms: C4_15  and  C5_16 
REMARK    5  A    between atoms: C6_17  and  C7_18 
REMARK    6  A    between atoms: C7_18  and  O1_19 
REMARK    7  A    between atoms: C7_18  and  C8_21 
REMARK    8  A    between atoms: C8_21  and  C11_24 
REMARK    9  A    between atoms: C11_24  and  O2_26 
REMARK   10  A    between atoms: C11_24  and  C13_28 
REMARK   11  A    between atoms: C13_28  and  N7_29 
REMARK   12  A    between atoms: C13_28  and  O3_33 
ROOT
HETATM    1  N5  UNL     1       3.086   0.225  -1.087  1.00  0.00    -0.265 N 
HETATM    2  N6  UNL     1       1.755   0.333  -0.985  1.00  0.00    -0.286 N 
ATOM      3  H6  UNL     1       1.230   1.201  -1.093  1.00  0.00     0.188 HD
HETATM    4  C4  UNL     1       1.217  -0.854  -0.722  1.00  0.00     0.126 A 
HETATM    5  C14 UNL     1       2.264  -1.750  -0.656  1.00  0.00     0.126 A 
HETATM    6  C15 UNL     1       2.186  -3.151  -0.397  1.00  0.00     0.106 C 
HETATM    7  N8  UNL     1       2.101  -4.303  -0.182  1.00  0.00    -0.191 NA
HETATM    8  C16 UNL     1       3.440  -1.056  -0.889  1.00  0.00     0.140 A 
HETATM    9  N9  UNL     1       4.612  -1.607  -0.904  1.00  0.00    -0.383 N 
ATOM     10  H91 UNL     1       4.881  -2.579  -0.754  1.00  0.00     0.157 HD
ATOM     11  H92 UNL     1       5.478  -1.096  -1.076  1.00  0.00     0.157 HD
ENDROOT
BRANCH   4  12
HETATM   12  C5  UNL     1      -0.181  -1.143  -0.541  1.00  0.00    -0.043 C 
HETATM   13  C6  UNL     1      -1.375  -1.398  -0.406  1.00  0.00    -0.067 C 
BRANCH  13  14
HETATM   14  C7  UNL     1      -2.779  -1.736  -0.240  1.00  0.00     0.208 C 
BRANCH  14  15
HETATM   15  O1  UNL     1      -3.033  -2.062   1.102  1.00  0.00    -0.382 OA
ATOM     16  H1  UNL     1      -3.951  -2.283   1.210  1.00  0.00     0.211 HD
ENDBRANCH  14  15
BRANCH  14  17
HETATM   17  C8  UNL     1      -3.694  -0.682  -0.749  1.00  0.00     0.024 C 
HETATM   18  C9  UNL     1      -5.137  -1.116  -0.550  1.00  0.00     0.022 C 
HETATM   19  C10 UNL     1      -3.515  -0.569  -2.272  1.00  0.00     0.022 C 
BRANCH  17  20
HETATM   20  C11 UNL     1      -3.420   0.668  -0.197  1.00  0.00     0.115 C 
HETATM   21  C12 UNL     1      -4.416   1.684  -0.756  1.00  0.00     0.051 C 
BRANCH  20  22
HETATM   22  O2  UNL     1      -2.172   1.112  -0.680  1.00  0.00    -0.385 OA
ATOM     23  H2  UNL     1      -1.997   1.976  -0.327  1.00  0.00     0.210 HD
ENDBRANCH  20  22
BRANCH  20  24
HETATM   24  C13 UNL     1      -3.405   0.787   1.286  1.00  0.00     0.351 C 
BRANCH  24  25
HETATM   25  N7  UNL     1      -4.643   0.358   1.895  1.00  0.00    -0.050 N 
ATOM     26  H73 UNL     1      -5.438   0.857   1.497  1.00  0.00     0.277 HD
ATOM     27  H72 UNL     1      -4.882  -0.591   1.607  1.00  0.00     0.277 HD
ATOM     28  H71 UNL     1      -4.633   0.440   2.912  1.00  0.00     0.277 HD
ENDBRANCH  24  25
BRANCH  24  29
HETATM   29  O3  UNL     1      -3.226   2.141   1.649  1.00  0.00    -0.368 OA
ATOM     30  H3  UNL     1      -3.216   2.217   2.596  1.00  0.00     0.212 HD
ENDBRANCH  24  29
ENDBRANCH  20  24
ENDBRANCH  17  20
ENDBRANCH  14  17
ENDBRANCH  13  14
ENDBRANCH   4  12
BRANCH   1  31
HETATM   31  C3  UNL     1       4.014   1.289  -1.353  1.00  0.00     0.233 C 
BRANCH  31  32
HETATM   32  S1  UNL     1       4.512   2.102   0.178  1.00  0.00    -0.069 SA
BRANCH  32  33
HETATM   33  C2  UNL     1       5.441   1.040   1.241  1.00  0.00     0.179 A 
HETATM   34  N1  UNL     1       6.760   0.846   1.268  1.00  0.00    -0.259 N 
HETATM   35  C1  UNL     1       7.668   1.531   0.343  1.00  0.00     0.181 C 
HETATM   36  N2  UNL     1       7.084  -0.018   2.215  1.00  0.00    -0.224 N 
HETATM   37  N3  UNL     1       5.961  -0.375   2.793  1.00  0.00    -0.226 N 
ATOM     38  H2  UNL     1       8.022  -0.343   2.450  1.00  0.00     0.210 HD
HETATM   39  N4  UNL     1       4.946   0.246   2.229  1.00  0.00    -0.263 N 
ATOM     40  H3  UNL     1       5.886  -1.036   3.566  1.00  0.00     0.210 HD
ATOM     41  H4  UNL     1       3.964   0.149   2.487  1.00  0.00     0.190 HD
ENDBRANCH  32  33
ENDBRANCH  31  32
ENDBRANCH   1  31
TORSDOF 12
