REMARK  5 active torsions:
REMARK  status: ('A' for Active; 'I' for Inactive)
REMARK       I    between atoms: C1_2  and  N1_3 
REMARK       I    between atoms: C1_2  and  N2_17 
REMARK    1  A    between atoms: N1_3  and  C2_5 
REMARK    2  A    between atoms: C5_8  and  C6_9 
REMARK    3  A    between atoms: N2_17  and  C14_19 
REMARK    4  A    between atoms: C18_23  and  N3_24 
REMARK       I    between atoms: N3_24  and  C19_26 
REMARK    5  A    between atoms: C19_26  and  C20_28 
ROOT
HETATM    1  O1  UNL     1      -0.902   1.299   0.698  1.00  0.00    -0.247 OA
HETATM    2  C1  UNL     1      -0.633   0.087   0.537  1.00  0.00     0.325 C 
HETATM    3  N1  UNL     1      -1.640  -0.890   0.352  1.00  0.00    -0.309 N 
ATOM      4  H1  UNL     1      -1.337  -1.857   0.234  1.00  0.00     0.170 HD
HETATM    5  N2  UNL     1       0.712  -0.346   0.538  1.00  0.00    -0.309 N 
ATOM      6  H2  UNL     1       0.879  -1.342   0.395  1.00  0.00     0.170 HD
ENDROOT
BRANCH   5   7
HETATM    7  C14 UNL     1       1.843   0.473   0.719  1.00  0.00     0.038 A 
HETATM    8  C15 UNL     1       1.769   1.684   1.343  1.00  0.00     0.029 A 
HETATM    9  C16 UNL     1       2.909   2.488   1.488  1.00  0.00     0.004 A 
HETATM   10  C17 UNL     1       4.113   2.045   0.995  1.00  0.00     0.029 A 
HETATM   11  C18 UNL     1       4.229   0.812   0.353  1.00  0.00     0.037 A 
HETATM   12  C25 UNL     1       3.071   0.038   0.225  1.00  0.00     0.059 A 
BRANCH  11  13
HETATM   13  N3  UNL     1       5.427   0.285  -0.149  1.00  0.00    -0.323 N 
HETATM   14  C19 UNL     1       6.700   0.647   0.272  1.00  0.00     0.257 C 
HETATM   15  O2  UNL     1       6.863   1.500   1.175  1.00  0.00    -0.267 OA
ATOM     16  H3  UNL     1       5.358  -0.421  -0.882  1.00  0.00     0.169 HD
BRANCH  14  17
HETATM   17  C20 UNL     1       7.929   0.051  -0.317  1.00  0.00     0.047 A 
HETATM   18  C21 UNL     1       7.904  -0.785  -1.403  1.00  0.00     0.020 A 
HETATM   19  C22 UNL     1       9.086  -1.326  -1.921  1.00  0.00     0.018 A 
HETATM   20  C23 UNL     1      10.296  -1.022  -1.343  1.00  0.00     0.087 A 
HETATM   21  N4  UNL     1      10.292  -0.200  -0.281  1.00  0.00    -0.374 N 
HETATM   22  C24 UNL     1       9.162   0.330   0.231  1.00  0.00     0.104 A 
ATOM     23  H4  UNL     1      11.183   0.034   0.158  1.00  0.00     0.164 HD
ENDBRANCH  14  17
ENDBRANCH  11  13
ENDBRANCH   5   7
BRANCH   3  24
HETATM   24  C2  UNL     1      -3.020  -0.640   0.317  1.00  0.00     0.036 A 
HETATM   25  C3  UNL     1      -3.875  -1.740   0.500  1.00  0.00     0.030 A 
HETATM   26  C4  UNL     1      -5.233  -1.582   0.463  1.00  0.00     0.014 A 
HETATM   27  C5  UNL     1      -5.849  -0.369   0.249  1.00  0.00    -0.026 A 
HETATM   28  C12 UNL     1      -5.020   0.705   0.070  1.00  0.00     0.014 A 
HETATM   29  C13 UNL     1      -3.625   0.574   0.103  1.00  0.00     0.030 A 
BRANCH  27  30
HETATM   30  C6  UNL     1      -7.293  -0.269   0.222  1.00  0.00    -0.026 A 
HETATM   31  C7  UNL     1      -8.021  -1.333  -0.241  1.00  0.00     0.012 A 
HETATM   32  C8  UNL     1      -9.384  -1.268  -0.278  1.00  0.00     0.001 A 
HETATM   33  C9  UNL     1     -10.071  -0.154   0.142  1.00  0.00     0.000 A 
HETATM   34  C10 UNL     1      -9.328   0.912   0.608  1.00  0.00     0.001 A 
HETATM   35  C11 UNL     1      -7.933   0.860   0.650  1.00  0.00     0.012 A 
ENDBRANCH  27  30
ENDBRANCH   3  24
TORSDOF 5
