REMARK  5 active torsions:
REMARK  status: ('A' for Active; 'I' for Inactive)
REMARK       I    between atoms: C1_2  and  N1_3 
REMARK       I    between atoms: C1_2  and  N2_11 
REMARK    1  A    between atoms: N1_3  and  C2_5 
REMARK    2  A    between atoms: N2_11  and  C8_13 
REMARK    3  A    between atoms: C11_16  and  N3_17 
REMARK    4  A    between atoms: N3_17  and  S1_19 
REMARK    5  A    between atoms: S1_19  and  C12_22 
ROOT
HETATM    1  C8  UNL     1      -1.353   1.452   0.686  1.00  0.00     0.036 A 
HETATM    2  C9  UNL     1      -0.605   1.833   1.825  1.00  0.00     0.032 A 
HETATM    3  C10 UNL     1       0.704   2.195   1.705  1.00  0.00     0.032 A 
HETATM    4  C11 UNL     1       1.368   2.215   0.502  1.00  0.00     0.042 A 
HETATM    5  C22 UNL     1       0.668   1.852  -0.611  1.00  0.00     0.032 A 
HETATM    6  C23 UNL     1      -0.673   1.479  -0.503  1.00  0.00     0.032 A 
ENDROOT
BRANCH   4   7
HETATM    7  N3  UNL     1       2.726   2.589   0.359  1.00  0.00    -0.281 N 
ATOM      8  H3  UNL     1       2.962   3.227  -0.401  1.00  0.00     0.179 HD
BRANCH   7   9
HETATM    9  S1  UNL     1       4.004   2.049   1.368  1.00  0.00     0.264 S 
HETATM   10  O2  UNL     1       5.289   2.776   1.063  1.00  0.00    -0.200 OA
HETATM   11  O3  UNL     1       3.660   2.431   2.788  1.00  0.00    -0.200 OA
BRANCH   9  12
HETATM   12  C12 UNL     1       4.228   0.319   1.322  1.00  0.00     0.090 A 
HETATM   13  C13 UNL     1       4.049  -0.454   2.476  1.00  0.00     0.026 A 
HETATM   14  C14 UNL     1       4.221  -1.811   2.390  1.00  0.00     0.002 A 
HETATM   15  C15 UNL     1       4.562  -2.428   1.206  1.00  0.00     0.012 A 
HETATM   16  C16 UNL     1       4.746  -1.684   0.044  1.00  0.00    -0.024 A 
HETATM   17  C17 UNL     1       5.090  -2.317  -1.127  1.00  0.00     0.012 A 
HETATM   18  C21 UNL     1       4.568  -0.306   0.148  1.00  0.00    -0.003 A 
HETATM   19  C18 UNL     1       5.268  -1.554  -2.254  1.00  0.00     0.001 A 
HETATM   20  C19 UNL     1       5.102  -0.176  -2.199  1.00  0.00     0.001 A 
HETATM   21  C20 UNL     1       4.757   0.429  -1.010  1.00  0.00     0.014 A 
ENDBRANCH   9  12
ENDBRANCH   7   9
ENDBRANCH   4   7
BRANCH   1  22
HETATM   22  N2  UNL     1      -2.708   1.109   0.873  1.00  0.00    -0.309 N 
HETATM   23  C1  UNL     1      -3.502   0.353  -0.008  1.00  0.00     0.325 C 
HETATM   24  O1  UNL     1      -3.027  -0.094  -1.069  1.00  0.00    -0.247 OA
HETATM   25  N1  UNL     1      -4.852   0.117   0.347  1.00  0.00    -0.309 N 
ATOM     26  H1  UNL     1      -5.182   0.517   1.226  1.00  0.00     0.170 HD
ATOM     27  H2  UNL     1      -3.154   1.441   1.728  1.00  0.00     0.170 HD
BRANCH  25  28
HETATM   28  C2  UNL     1      -5.775  -0.623  -0.412  1.00  0.00     0.036 A 
HETATM   29  C3  UNL     1      -5.418  -1.541  -1.346  1.00  0.00     0.029 A 
HETATM   30  C4  UNL     1      -6.371  -2.247  -2.103  1.00  0.00     0.002 A 
HETATM   31  C5  UNL     1      -7.710  -2.011  -1.903  1.00  0.00     0.000 A 
HETATM   32  C6  UNL     1      -8.087  -1.079  -0.954  1.00  0.00     0.002 A 
HETATM   33  C7  UNL     1      -7.153  -0.401  -0.226  1.00  0.00     0.029 A 
ENDBRANCH  25  28
ENDBRANCH   1  22
TORSDOF 5
