REMARK  2 active torsions:
REMARK  status: ('A' for Active; 'I' for Inactive)
REMARK    1  A    between atoms: C9_13  and  C10_14 
REMARK    2  A    between atoms: C11_15  and  C12_16 
ROOT
HETATM    1  C1  UNL     1      -2.091   0.104   2.564  1.00  0.00     0.071 C 
HETATM    2  C2  UNL     1      -2.820  -0.088   1.273  1.00  0.00     0.041 A 
HETATM    3  N1  UNL     1      -4.164  -0.093   1.207  1.00  0.00    -0.356 N 
ATOM      4  H1  UNL     1      -4.696   0.038   2.067  1.00  0.00     0.166 HD
HETATM    5  C3  UNL     1      -4.839  -0.265   0.045  1.00  0.00     0.059 A 
HETATM    6  C4  UNL     1      -6.214  -0.268  -0.009  1.00  0.00     0.032 A 
HETATM    7  C5  UNL     1      -6.926  -0.443  -1.185  1.00  0.00     0.002 A 
HETATM    8  C6  UNL     1      -6.181  -0.620  -2.340  1.00  0.00     0.002 A 
HETATM    9  C7  UNL     1      -4.796  -0.621  -2.308  1.00  0.00     0.032 A 
HETATM   10  C8  UNL     1      -4.117  -0.443  -1.115  1.00  0.00     0.060 A 
HETATM   11  N2  UNL     1      -2.761  -0.442  -1.071  1.00  0.00    -0.346 N 
ATOM     12  H2  UNL     1      -2.227  -0.574  -1.930  1.00  0.00     0.167 HD
HETATM   13  C9  UNL     1      -2.115  -0.268   0.096  1.00  0.00     0.110 A 
ENDROOT
BRANCH  13  14
HETATM   14  C10 UNL     1      -0.665  -0.264   0.163  1.00  0.00    -0.041 C 
HETATM   15  C11 UNL     1       0.541  -0.254   0.238  1.00  0.00    -0.060 C 
BRANCH  15  16
HETATM   16  C12 UNL     1       1.976  -0.229   0.350  1.00  0.00     0.018 A 
HETATM   17  C13 UNL     1       2.653  -1.070   1.218  1.00  0.00     0.021 A 
HETATM   18  C14 UNL     1       4.047  -1.009   1.291  1.00  0.00     0.013 A 
HETATM   19  C15 UNL     1       4.764  -0.127   0.515  1.00  0.00    -0.026 A 
HETATM   20  C16 UNL     1       6.145  -0.083   0.603  1.00  0.00     0.012 A 
HETATM   21  C20 UNL     1       4.056   0.709  -0.351  1.00  0.00    -0.025 A 
HETATM   22  C17 UNL     1       6.848   0.809  -0.184  1.00  0.00     0.001 A 
HETATM   23  C18 UNL     1       6.178   1.657  -1.058  1.00  0.00     0.001 A 
HETATM   24  C19 UNL     1       4.823   1.573  -1.105  1.00  0.00     0.012 A 
HETATM   25  C21 UNL     1       2.677   0.662  -0.436  1.00  0.00     0.032 A 
ENDBRANCH  15  16
ENDBRANCH  13  14
TORSDOF 2
