REMARK  9 active torsions:
REMARK  status: ('A' for Active; 'I' for Inactive)
REMARK    1  A    between atoms: C3_3  and  C4_4 
REMARK    2  A    between atoms: C5_5  and  C6_6 
REMARK    3  A    between atoms: C7_7  and  C9_9 
REMARK    4  A    between atoms: C11_13  and  C12_14 
REMARK    5  A    between atoms: C12_14  and  C14_16 
REMARK    6  A    between atoms: C14_16  and  N1_17 
REMARK    7  A    between atoms: C17_25  and  N2_27 
REMARK    8  A    between atoms: N2_27  and  S1_29 
REMARK    9  A    between atoms: C21_33  and  O7_34 
ROOT
HETATM    1  C1  UNL     1       9.795  -1.131   0.490  1.00  0.00     0.113 C 
HETATM    2  C2  UNL     1       8.336  -1.011   0.548  1.00  0.00    -0.097 C 
HETATM    3  C3  UNL     1       7.137  -0.896   0.607  1.00  0.00    -0.015 C 
ENDROOT
BRANCH   3   4
HETATM    4  C4  UNL     1       5.736  -0.782   0.664  1.00  0.00    -0.011 C 
HETATM    5  C5  UNL     1       4.544  -0.700   0.710  1.00  0.00    -0.064 C 
BRANCH   5   6
HETATM    6  C6  UNL     1       3.122  -0.620   0.754  1.00  0.00     0.070 C 
HETATM    7  C7  UNL     1       2.460  -0.024  -0.201  1.00  0.00    -0.043 C 
HETATM    8  C8  UNL     1       3.204   0.565  -1.327  1.00  0.00     0.046 C 
BRANCH   7   9
HETATM    9  C9  UNL     1       0.957   0.029  -0.123  1.00  0.00     0.215 C 
HETATM   10  C10 UNL     1       0.398  -0.696  -1.285  1.00  0.00     0.288 C 
HETATM   11  O1  UNL     1       0.722  -0.185  -2.395  1.00  0.00    -0.262 OA
HETATM   12  O2  UNL     1      -0.378  -1.782  -1.286  1.00  0.00    -0.287 OA
HETATM   13  C11 UNL     1      -1.282  -2.267  -0.320  1.00  0.00     0.284 C 
HETATM   14  O3  UNL     1      -2.505  -1.648  -0.669  1.00  0.00    -0.289 OA
HETATM   15  C15 UNL     1      -3.142  -0.652   0.023  1.00  0.00     0.264 C 
HETATM   16  O4  UNL     1      -4.396  -0.740   0.076  1.00  0.00    -0.265 OA
HETATM   17  C16 UNL     1      -2.411   0.423   0.649  1.00  0.00     0.151 C 
HETATM   18  C17 UNL     1      -2.140   1.674  -0.165  1.00  0.00     0.112 C 
HETATM   19  C18 UNL     1      -2.692   1.481  -1.612  1.00  0.00     0.049 C 
HETATM   20  C21 UNL     1      -0.715   1.968  -0.374  1.00  0.00     0.144 C 
HETATM   21  N3  UNL     1       0.470   1.354   0.094  1.00  0.00    -0.350 N 
HETATM   22  C22 UNL     1       1.350   2.210   0.887  1.00  0.00     0.152 C 
BRANCH  13  23
HETATM   23  C12 UNL     1      -1.437  -3.756  -0.560  1.00  0.00     0.063 C 
HETATM   24  C13 UNL     1      -1.982  -4.072  -1.928  1.00  0.00     0.016 C 
BRANCH  23  25
HETATM   25  C14 UNL     1      -2.141  -4.490   0.528  1.00  0.00     0.238 C 
BRANCH  25  26
HETATM   26  N1  UNL     1      -3.490  -4.052   0.794  1.00  0.00    -0.079 N 
ATOM     27  H13 UNL     1      -3.502  -3.050   0.983  1.00  0.00     0.274 HD
ATOM     28  H12 UNL     1      -4.043  -4.080  -0.063  1.00  0.00     0.274 HD
ATOM     29  H11 UNL     1      -3.972  -4.555   1.539  1.00  0.00     0.274 HD
ENDBRANCH  25  26
ENDBRANCH  23  25
ENDBRANCH  13  23
BRANCH  18  30
HETATM   30  N2  UNL     1      -2.997   2.661   0.349  1.00  0.00    -0.297 N 
HETATM   31  C19 UNL     1      -4.409   2.386   0.156  1.00  0.00     0.164 C 
BRANCH  30  32
HETATM   32  S1  UNL     1      -2.675   3.813   1.455  1.00  0.00     0.225 S 
HETATM   33  C20 UNL     1      -1.460   5.000   1.010  1.00  0.00     0.186 C 
HETATM   34  O5  UNL     1      -3.962   4.632   1.697  1.00  0.00    -0.206 OA
HETATM   35  O6  UNL     1      -2.304   3.331   2.837  1.00  0.00    -0.206 OA
ENDBRANCH  30  32
ENDBRANCH  18  30
BRANCH  20  36
HETATM   36  O7  UNL     1      -0.575   3.006  -1.157  1.00  0.00    -0.347 OA
ATOM     37  H7  UNL     1       0.346   3.196  -1.292  1.00  0.00     0.219 HD
ENDBRANCH  20  36
ENDBRANCH   7   9
ENDBRANCH   5   6
ENDBRANCH   3   4
TORSDOF 9
