REMARK  18 active torsions:
REMARK  status: ('A' for Active; 'I' for Inactive)
REMARK    1  A    between atoms: C2_2  and  O1_3 
REMARK    2  A    between atoms: C2_2  and  C3_5 
REMARK    3  A    between atoms: C2_2  and  C14_19 
REMARK    4  A    between atoms: C3_5  and  N1_6 
REMARK    5  A    between atoms: N1_6  and  C6_9 
REMARK    6  A    between atoms: C7_10  and  C8_11 
REMARK    7  A    between atoms: C8_11  and  C9_12 
REMARK    8  A    between atoms: C9_12  and  C10_13 
REMARK    9  A    between atoms: C10_13  and  C11_14 
REMARK   10  A    between atoms: C11_14  and  C12_15 
REMARK   11  A    between atoms: C12_15  and  C13_16 
REMARK   12  A    between atoms: C19_24  and  O4_25 
REMARK   13  A    between atoms: C23_30  and  C24_31 
REMARK   14  A    between atoms: C25_32  and  C26_33 
REMARK   15  A    between atoms: C26_33  and  O5_34 
REMARK   16  A    between atoms: C26_33  and  C27_36 
REMARK   17  A    between atoms: C27_36  and  O6_37 
REMARK   18  A    between atoms: C28_39  and  O7_40 
ROOT
HETATM    1  C14 UNL     1      -1.202  -0.201  -1.739  1.00  0.00     0.030 C 
HETATM    2  C15 UNL     1      -1.351   0.300  -3.229  1.00  0.00     0.009 C 
HETATM    3  C16 UNL     1      -0.219   1.270  -3.377  1.00  0.00     0.006 C 
HETATM    4  C17 UNL     1       0.608   1.084  -2.130  1.00  0.00     0.001 C 
HETATM    5  C18 UNL     1       2.041   1.360  -2.298  1.00  0.00     0.024 C 
HETATM    6  C19 UNL     1       2.262   2.812  -1.848  1.00  0.00     0.123 C 
HETATM    7  C20 UNL     1       2.849   2.881  -0.462  1.00  0.00     0.037 C 
HETATM    8  C21 UNL     1       4.240   2.301  -0.520  1.00  0.00    -0.002 C 
HETATM    9  C22 UNL     1       4.831   2.242   0.874  1.00  0.00     0.025 C 
HETATM   10  C23 UNL     1       6.199   1.645   0.901  1.00  0.00     0.094 C 
HETATM   11  C28 UNL     1       6.461   0.644  -0.187  1.00  0.00     0.134 C 
HETATM   12  C29 UNL     1       5.111  -0.005  -0.505  1.00  0.00     0.042 C 
HETATM   13  C30 UNL     1       4.341   1.047  -1.295  1.00  0.00    -0.034 C 
HETATM   14  C31 UNL     1       5.136   1.246  -2.594  1.00  0.00     0.016 C 
HETATM   15  C32 UNL     1       3.006   0.419  -1.684  1.00  0.00     0.001 C 
HETATM   16  C33 UNL     1       2.460  -0.380  -0.545  1.00  0.00     0.007 C 
HETATM   17  C34 UNL     1       1.001  -0.632  -0.539  1.00  0.00     0.010 C 
HETATM   18  C35 UNL     1       0.268  -0.408  -1.816  1.00  0.00    -0.034 C 
HETATM   19  C36 UNL     1       0.807  -1.163  -2.974  1.00  0.00     0.016 C 
ENDROOT
BRANCH   1  20
HETATM   20  C2  UNL     1      -2.137  -1.324  -1.538  1.00  0.00     0.083 C 
HETATM   21  C1  UNL     1      -3.564  -0.830  -1.910  1.00  0.00     0.048 C 
BRANCH  20  22
HETATM   22  O1  UNL     1      -1.857  -2.270  -2.533  1.00  0.00    -0.388 OA
ATOM     23  H1  UNL     1      -0.985  -2.572  -2.306  1.00  0.00     0.210 HD
ENDBRANCH  20  22
BRANCH  20  24
HETATM   24  C3  UNL     1      -2.167  -2.084  -0.287  1.00  0.00     0.279 C 
BRANCH  24  25
HETATM   25  N1  UNL     1      -2.494  -1.576   0.983  1.00  0.00    -0.052 N 
HETATM   26  C4  UNL     1      -1.427  -2.073   1.925  1.00  0.00     0.278 C 
HETATM   27  C5  UNL     1      -2.554  -0.201   1.246  1.00  0.00     0.278 C 
BRANCH  25  28
HETATM   28  C6  UNL     1      -3.670  -2.232   1.505  1.00  0.00     0.197 C 
HETATM   29  C7  UNL     1      -4.571  -1.626   2.461  1.00  0.00    -0.002 C 
BRANCH  29  30
HETATM   30  C8  UNL     1      -5.424  -0.466   2.156  1.00  0.00     0.028 C 
BRANCH  30  31
HETATM   31  C9  UNL     1      -6.403  -0.724   1.015  1.00  0.00     0.004 C 
BRANCH  31  32
HETATM   32  C10 UNL     1      -7.224   0.511   0.787  1.00  0.00     0.001 C 
BRANCH  32  33
HETATM   33  C11 UNL     1      -8.225   0.352  -0.315  1.00  0.00     0.010 C 
BRANCH  33  34
HETATM   34  C12 UNL     1      -9.034   1.594  -0.524  1.00  0.00     0.113 C 
BRANCH  34  35
HETATM   35  C13 UNL     1      -9.847   2.003   0.638  1.00  0.00     0.172 C 
HETATM   36  O2  UNL     1     -10.377   3.136   0.633  1.00  0.00    -0.648 OA
HETATM   37  O3  UNL     1     -10.070   1.210   1.747  1.00  0.00    -0.648 OA
ENDBRANCH  34  35
ENDBRANCH  33  34
ENDBRANCH  32  33
ENDBRANCH  31  32
ENDBRANCH  30  31
ENDBRANCH  29  30
ENDBRANCH  25  28
ENDBRANCH  24  25
ENDBRANCH  20  24
ENDBRANCH   1  20
BRANCH   6  38
HETATM   38  O4  UNL     1       3.040   3.526  -2.732  1.00  0.00    -0.395 OA
ATOM     39  H4  UNL     1       3.177   4.424  -2.454  1.00  0.00     0.210 HD
ENDBRANCH   6  38
BRANCH  11  40
HETATM   40  O7  UNL     1       7.307  -0.388   0.238  1.00  0.00    -0.394 OA
ATOM     41  H7  UNL     1       7.473  -1.021  -0.450  1.00  0.00     0.210 HD
ENDBRANCH  11  40
BRANCH  10  42
HETATM   42  C24 UNL     1       6.373   1.034   2.239  1.00  0.00    -0.096 C 
HETATM   43  C25 UNL     1       6.508   0.552   3.343  1.00  0.00    -0.072 C 
BRANCH  43  44
HETATM   44  C26 UNL     1       6.655  -0.007   4.680  1.00  0.00     0.220 C 
BRANCH  44  45
HETATM   45  O5  UNL     1       5.536  -0.804   4.982  1.00  0.00    -0.381 OA
ATOM     46  H5  UNL     1       5.632  -1.169   5.854  1.00  0.00     0.211 HD
ENDBRANCH  44  45
BRANCH  44  47
HETATM   47  C27 UNL     1       7.868  -0.921   4.782  1.00  0.00     0.208 C 
BRANCH  47  48
HETATM   48  O6  UNL     1       9.047  -0.254   4.500  1.00  0.00    -0.397 OA
ATOM     49  H6  UNL     1       9.804  -0.824   4.564  1.00  0.00     0.209 HD
ENDBRANCH  47  48
ENDBRANCH  44  47
ENDBRANCH  43  44
ENDBRANCH  10  42
TORSDOF 18
