REMARK  8 active torsions:
REMARK  status: ('A' for Active; 'I' for Inactive)
REMARK    1  A    between atoms: C3_5  and  N2_6 
REMARK    2  A    between atoms: C4_11  and  N4_12 
REMARK    3  A    between atoms: N4_12  and  C5_14 
REMARK    4  A    between atoms: C5_14  and  C6_15 
REMARK    5  A    between atoms: C6_15  and  C7_16 
REMARK    6  A    between atoms: C7_16  and  C8_17 
REMARK    7  A    between atoms: C8_17  and  C9_18 
REMARK    8  A    between atoms: C9_18  and  N5_19 
ROOT
HETATM    1  C1  UNL     1      -6.355   1.813  -0.177  1.00  0.00     0.069 C 
HETATM    2  C2  UNL     1      -5.349   0.927   0.402  1.00  0.00     0.032 A 
HETATM    3  N1  UNL     1      -5.272   0.732   1.724  1.00  0.00    -0.196 N 
ATOM      4  H1  UNL     1      -5.927   1.210   2.343  1.00  0.00     0.184 HD
HETATM    5  C3  UNL     1      -4.325  -0.100   2.256  1.00  0.00     0.677 A 
HETATM    6  N3  UNL     1      -3.441  -0.751   1.476  1.00  0.00    -0.177 N 
ATOM      7  H3  UNL     1      -2.743  -1.367   1.892  1.00  0.00     0.186 HD
HETATM    8  C4  UNL     1      -3.488  -0.582   0.161  1.00  0.00     0.124 A 
HETATM    9  C15 UNL     1      -4.454   0.268  -0.391  1.00  0.00     0.005 A 
HETATM   10  C16 UNL     1      -4.484   0.437  -1.847  1.00  0.00     0.054 C 
ENDROOT
BRANCH   8  11
HETATM   11  N4  UNL     1      -2.654  -1.193  -0.614  1.00  0.00    -0.375 N 
ATOM     12  H4  UNL     1      -2.715  -1.045  -1.621  1.00  0.00     0.161 HD
BRANCH  11  13
HETATM   13  C5  UNL     1      -1.645  -2.074  -0.099  1.00  0.00     0.121 C 
BRANCH  13  14
HETATM   14  C6  UNL     1      -0.413  -1.282   0.345  1.00  0.00     0.020 C 
BRANCH  14  15
HETATM   15  C7  UNL     1       0.090  -0.571  -0.862  1.00  0.00     0.003 C 
BRANCH  15  16
HETATM   16  C8  UNL     1       1.307   0.273  -0.590  1.00  0.00     0.030 C 
BRANCH  16  17
HETATM   17  C9  UNL     1       2.413  -0.581  -0.089  1.00  0.00     0.272 C 
BRANCH  17  18
HETATM   18  N5  UNL     1       3.630   0.142   0.190  1.00  0.00     0.088 N 
HETATM   19  C10 UNL     1       4.284   0.666  -0.984  1.00  0.00     0.272 C 
HETATM   20  C11 UNL     1       5.312   1.661  -0.557  1.00  0.00     0.030 C 
HETATM   21  C12 UNL     1       6.389   0.939   0.218  1.00  0.00     0.003 C 
HETATM   22  C13 UNL     1       5.949  -0.451   0.541  1.00  0.00     0.030 C 
HETATM   23  C14 UNL     1       4.547  -0.566   1.035  1.00  0.00     0.272 C 
ENDBRANCH  17  18
ENDBRANCH  16  17
ENDBRANCH  15  16
ENDBRANCH  14  15
ENDBRANCH  13  14
ENDBRANCH  11  13
ENDBRANCH   8  11
BRANCH   5  24
HETATM   24  N2  UNL     1      -4.297  -0.251   3.543  1.00  0.00    -0.234 N 
ATOM     25  H22 UNL     1      -4.967   0.242   4.134  1.00  0.00     0.174 HD
ATOM     26  H21 UNL     1      -3.591  -0.871   3.940  1.00  0.00     0.174 HD
ENDBRANCH   5  24
TORSDOF 8
