REMARK  11 active torsions:
REMARK  status: ('A' for Active; 'I' for Inactive)
REMARK    1  A    between atoms: C2_3  and  N2_4 
REMARK    2  A    between atoms: C2_3  and  C3_8 
REMARK    3  A    between atoms: N3_9  and  C4_11 
REMARK    4  A    between atoms: C5_12  and  N4_13 
REMARK    5  A    between atoms: N4_13  and  C6_15 
REMARK    6  A    between atoms: C6_15  and  C7_16 
REMARK    7  A    between atoms: C6_15  and  C8_19 
REMARK    8  A    between atoms: C7_16  and  O1_17 
REMARK    9  A    between atoms: C8_19  and  O2_20 
REMARK   10  A    between atoms: C10_23  and  N5_24 
REMARK   11  A    between atoms: N5_24  and  C11_26 
ROOT
HETATM    1  N1  UNL     1      -1.814   5.830  -1.598  1.00  0.00    -0.195 NA
HETATM    2  C1  UNL     1      -1.956   4.980  -0.804  1.00  0.00     0.098 C 
HETATM    3  C2  UNL     1      -2.150   3.920   0.171  1.00  0.00     0.327 C 
ENDROOT
BRANCH   3   4
HETATM    4  N2  UNL     1      -3.465   3.324  -0.004  1.00  0.00    -0.058 N 
ATOM      5  H23 UNL     1      -4.210   4.020   0.033  1.00  0.00     0.276 HD
ATOM      6  H22 UNL     1      -3.614   2.999  -0.959  1.00  0.00     0.276 HD
ATOM      7  H21 UNL     1      -3.601   2.580   0.680  1.00  0.00     0.276 HD
ENDBRANCH   3   4
BRANCH   3   8
HETATM    8  C3  UNL     1      -1.154   2.835  -0.049  1.00  0.00     0.108 C 
HETATM    9  N3  UNL     1      -0.807   2.024   0.878  1.00  0.00    -0.362 N 
ATOM     10  H3  UNL     1      -1.206   2.092   1.814  1.00  0.00     0.165 HD
BRANCH   9  11
HETATM   11  C4  UNL     1       0.161   1.016   0.557  1.00  0.00     0.102 A 
HETATM   12  C5  UNL     1      -0.212  -0.312   0.481  1.00  0.00     0.062 A 
HETATM   13  C9  UNL     1       0.740  -1.230   0.175  1.00  0.00     0.080 A 
HETATM   14  C10 UNL     1       2.051  -0.821  -0.054  1.00  0.00     0.105 A 
HETATM   15  N6  UNL     1       2.403   0.472   0.022  1.00  0.00    -0.327 N 
HETATM   16  C14 UNL     1       1.462   1.384   0.326  1.00  0.00     0.130 A 
ATOM     17  H6  UNL     1       3.367   0.758  -0.148  1.00  0.00     0.169 HD
HETATM   18  N7  UNL     1       1.834   2.628   0.392  1.00  0.00    -0.384 N 
ATOM     19  H72 UNL     1       1.121   3.320   0.623  1.00  0.00     0.157 HD
ATOM     20  H71 UNL     1       2.801   2.902   0.220  1.00  0.00     0.157 HD
BRANCH  12  21
HETATM   21  N4  UNL     1      -1.572  -0.649   0.745  1.00  0.00    -0.379 N 
ATOM     22  H4  UNL     1      -2.191   0.105   1.043  1.00  0.00     0.160 HD
BRANCH  21  23
HETATM   23  C6  UNL     1      -2.139  -1.954   0.627  1.00  0.00     0.129 C 
BRANCH  23  24
HETATM   24  C7  UNL     1      -3.566  -1.936   1.209  1.00  0.00     0.191 C 
BRANCH  24  25
HETATM   25  O1  UNL     1      -4.365  -1.037   0.530  1.00  0.00    -0.399 OA
ATOM     26  H1  UNL     1      -5.245  -1.026   0.889  1.00  0.00     0.209 HD
ENDBRANCH  24  25
ENDBRANCH  23  24
BRANCH  23  27
HETATM   27  C8  UNL     1      -2.298  -2.386  -0.824  1.00  0.00     0.191 C 
BRANCH  27  28
HETATM   28  O2  UNL     1      -3.140  -1.504  -1.503  1.00  0.00    -0.399 OA
ATOM     29  H2  UNL     1      -3.239  -1.774  -2.409  1.00  0.00     0.209 HD
ENDBRANCH  27  28
ENDBRANCH  23  27
ENDBRANCH  21  23
ENDBRANCH  12  21
BRANCH  14  30
HETATM   30  N5  UNL     1       2.978  -1.846  -0.380  1.00  0.00    -0.372 N 
ATOM     31  H5  UNL     1       2.672  -2.817  -0.438  1.00  0.00     0.161 HD
BRANCH  30  32
HETATM   32  C11 UNL     1       4.351  -1.502  -0.628  1.00  0.00     0.083 A 
HETATM   33  C12 UNL     1       5.206  -0.959   0.503  1.00  0.00     0.027 A 
HETATM   34  C13 UNL     1       5.450  -2.327  -0.054  1.00  0.00     0.027 A 
ENDBRANCH  30  32
ENDBRANCH  14  30
ENDBRANCH   9  11
ENDBRANCH   3   8
TORSDOF 11
