REMARK  6 active torsions:
REMARK  status: ('A' for Active; 'I' for Inactive)
REMARK    1  A    between atoms: C3_4  and  C4_6 
REMARK    2  A    between atoms: C4_6  and  N1_7 
REMARK       I    between atoms: N1_7  and  C5_9 
REMARK    3  A    between atoms: C5_9  and  C6_11 
REMARK    4  A    between atoms: C6_11  and  N2_12 
REMARK    5  A    between atoms: C7_13  and  C8_14 
REMARK    6  A    between atoms: C13_22  and  C14_23 
ROOT
HETATM    1  N2  UNL     1      -1.087  -0.109  -0.665  1.00  0.00    -0.327 N 
HETATM    2  C7  UNL     1      -2.251   0.755  -0.688  1.00  0.00     0.094 C 
HETATM    3  N3  UNL     1      -3.239   0.083  -1.194  1.00  0.00    -0.314 N 
ATOM      4  H3  UNL     1      -4.183   0.445  -1.329  1.00  0.00     0.170 HD
HETATM    5  C12 UNL     1      -2.815  -1.230  -1.532  1.00  0.00     0.246 C 
HETATM    6  O2  UNL     1      -3.278  -2.048  -2.367  1.00  0.00    -0.271 OA
HETATM    7  C13 UNL     1      -1.613  -1.448  -0.616  1.00  0.00     0.186 C 
ENDROOT
BRANCH   1   8
HETATM    8  C6  UNL     1       0.216   0.375  -0.683  1.00  0.00     0.167 C 
BRANCH   8   9
HETATM    9  C5  UNL     1       1.347  -0.569  -0.722  1.00  0.00     0.257 C 
HETATM   10  N1  UNL     1       2.647   0.047  -0.734  1.00  0.00    -0.351 N 
ATOM     11  H1  UNL     1       2.744   1.062  -0.717  1.00  0.00     0.163 HD
HETATM   12  O1  UNL     1       1.309  -1.801  -0.744  1.00  0.00    -0.267 OA
BRANCH  10  13
HETATM   13  C4  UNL     1       3.807  -0.805  -0.771  1.00  0.00     0.175 C 
BRANCH  13  14
HETATM   14  C3  UNL     1       5.074  -0.033  -0.779  1.00  0.00     0.042 C 
HETATM   15  C2  UNL     1       5.975  -0.163   0.162  1.00  0.00     0.004 C 
HETATM   16  C1  UNL     1       5.743  -1.103   1.277  1.00  0.00     0.058 C 
HETATM   17 BR1  UNL     1       7.572   0.869   0.072  1.00  0.00    -0.055 Br
HETATM   18 CL1  UNL     1       5.336   1.074  -2.104  1.00  0.00    -0.086 Cl
ENDBRANCH  13  14
ENDBRANCH  10  13
ENDBRANCH   8   9
ENDBRANCH   1   8
BRANCH   2  19
HETATM   19  C8  UNL     1      -2.297   2.123  -0.229  1.00  0.00     0.008 C 
HETATM   20  C9  UNL     1      -3.722   2.673  -0.444  1.00  0.00     0.022 C 
HETATM   21  C10 UNL     1      -1.390   3.091  -0.890  1.00  0.00     0.022 C 
HETATM   22  C11 UNL     1      -2.103   2.258   1.289  1.00  0.00     0.022 C 
ENDBRANCH   2  19
BRANCH   7  23
HETATM   23  C14 UNL     1      -2.235  -1.782   0.721  1.00  0.00     0.010 C 
HETATM   24  C15 UNL     1      -2.747  -3.205   0.658  1.00  0.00     0.012 C 
HETATM   25  C16 UNL     1      -1.213  -1.718   1.829  1.00  0.00     0.012 C 
ENDBRANCH   7  23
TORSDOF 6
