REMARK  8 active torsions:
REMARK  status: ('A' for Active; 'I' for Inactive)
REMARK    1  A    between atoms: N1_2  and  C2_4 
REMARK    2  A    between atoms: C2_4  and  O1_5 
REMARK    3  A    between atoms: C2_4  and  C10_14 
REMARK    4  A    between atoms: O1_5  and  C3_6 
REMARK    5  A    between atoms: C3_6  and  C4_7 
REMARK    6  A    between atoms: C4_7  and  N2_8 
REMARK    7  A    between atoms: C13_22  and  N6_23 
REMARK    8  A    between atoms: C14_28  and  N8_29 
ROOT
HETATM    1  C10 UNL     1       2.592   1.047  -0.917  1.00  0.00     0.102 A 
HETATM    2  C11 UNL     1       3.205   2.045  -1.647  1.00  0.00     0.138 A 
HETATM    3  N3  UNL     1       2.480   3.141  -2.240  1.00  0.00    -0.081 NA
HETATM    4  N4  UNL     1       4.544   1.962  -1.793  1.00  0.00    -0.295 N 
ATOM      5  H4  UNL     1       5.044   2.675  -2.324  1.00  0.00     0.172 HD
HETATM    6  C12 UNL     1       5.216   0.943  -1.240  1.00  0.00     0.348 A 
HETATM    7  O2  UNL     1       6.483   0.875  -1.385  1.00  0.00    -0.245 OA
HETATM    8  N5  UNL     1       4.646  -0.047  -0.522  1.00  0.00    -0.079 N 
HETATM    9  C13 UNL     1       5.403  -1.027  -0.011  1.00  0.00     0.702 A 
HETATM   10  N7  UNL     1       4.791  -1.987   0.689  1.00  0.00    -0.022 N 
ATOM     11  H7  UNL     1       5.337  -2.748   1.092  1.00  0.00     0.203 HD
HETATM   12  C14 UNL     1       3.464  -1.954   0.864  1.00  0.00     0.692 A 
HETATM   13  N9  UNL     1       2.713  -0.961   0.344  1.00  0.00    -0.174 N 
ATOM     14  H9  UNL     1       1.703  -0.956   0.490  1.00  0.00     0.186 HD
HETATM   15  C15 UNL     1       3.290   0.017  -0.362  1.00  0.00     0.167 A 
ENDROOT
BRANCH   1  16
HETATM   16  C2  UNL     1       1.107   1.173  -0.772  1.00  0.00     0.159 C 
BRANCH  16  17
HETATM   17  N1  UNL     1       0.557   2.162  -1.328  1.00  0.00    -0.356 N 
HETATM   18  C1  UNL     1      -0.649   2.757  -1.528  1.00  0.00     0.120 C 
ATOM     19  H1  UNL     1       1.275   2.714  -1.796  1.00  0.00     0.166 HD
ENDBRANCH  16  17
BRANCH  16  20
HETATM   20  O1  UNL     1       0.307   0.319  -0.096  1.00  0.00    -0.333 OA
BRANCH  20  21
HETATM   21  C3  UNL     1      -1.049   0.228  -0.025  1.00  0.00     0.197 C 
BRANCH  21  22
HETATM   22  C4  UNL     1      -1.485  -0.951   0.901  1.00  0.00     0.153 C 
BRANCH  22  23
HETATM   23  N2  UNL     1      -2.883  -0.962   0.920  1.00  0.00    -0.372 N 
HETATM   24  C5  UNL     1      -3.564   0.097   1.548  1.00  0.00     0.063 C 
HETATM   25  C6  UNL     1      -4.509   0.711   0.534  1.00  0.00     0.045 C 
HETATM   26  C7  UNL     1      -5.486  -0.340   0.129  1.00  0.00     0.010 C 
HETATM   27  C8  UNL     1      -5.091  -1.735   0.473  1.00  0.00     0.045 C 
HETATM   28  C9  UNL     1      -3.606  -2.004   0.332  1.00  0.00     0.063 C 
ENDBRANCH  22  23
ENDBRANCH  21  22
ENDBRANCH  20  21
ENDBRANCH  16  20
ENDBRANCH   1  16
BRANCH   9  29
HETATM   29  N6  UNL     1       6.690  -1.027  -0.202  1.00  0.00    -0.233 N 
ATOM     30  H62 UNL     1       7.157  -0.294  -0.736  1.00  0.00     0.174 HD
ATOM     31  H61 UNL     1       7.266  -1.773   0.187  1.00  0.00     0.174 HD
ENDBRANCH   9  29
BRANCH  12  32
HETATM   32  N8  UNL     1       2.869  -2.881   1.538  1.00  0.00    -0.234 N 
ATOM     33  H82 UNL     1       3.437  -3.632   1.931  1.00  0.00     0.174 HD
ATOM     34  H81 UNL     1       1.858  -2.856   1.671  1.00  0.00     0.174 HD
ENDBRANCH  12  32
TORSDOF 8
