REMARK  1 active torsions:
REMARK  status: ('A' for Active; 'I' for Inactive)
REMARK    1  A    between atoms: C10_13  and  N1_14 
ROOT
HETATM    1  C1  UNL     1      -4.721  -0.015   0.784  1.00  0.00     0.076 C 
HETATM    2  C2  UNL     1      -3.378   0.661   0.459  1.00  0.00     0.170 C 
HETATM    3  F1  UNL     1      -3.736   1.930  -0.019  1.00  0.00    -0.220 F 
HETATM    4  C3  UNL     1      -2.656   0.773   1.756  1.00  0.00     0.087 C 
HETATM    5  C4  UNL     1      -1.140   0.958   1.557  1.00  0.00     0.102 C 
HETATM    6 CL1  UNL     1      -1.013   2.593   0.881  1.00  0.00    -0.124 Cl
HETATM    7  C5  UNL     1      -0.660  -0.145   0.708  1.00  0.00     0.022 C 
HETATM    8  C6  UNL     1      -1.174  -1.462   1.317  1.00  0.00     0.024 C 
HETATM    9  C7  UNL     1       0.822  -0.198   0.464  1.00  0.00    -0.049 C 
HETATM   10  C8  UNL     1       1.683  -0.545   1.407  1.00  0.00    -0.006 C 
HETATM   11 BR1  UNL     1       0.974  -0.980   3.139  1.00  0.00    -0.055 Br
HETATM   12  C9  UNL     1       3.174  -0.675   1.237  1.00  0.00     0.081 C 
HETATM   13  C10 UNL     1       3.659  -0.383  -0.134  1.00  0.00     0.207 C 
HETATM   14  C11 UNL     1       2.802   0.748  -0.731  1.00  0.00     0.050 C 
HETATM   15  C12 UNL     1       3.335   1.145  -2.085  1.00  0.00     0.030 C 
HETATM   16 BR2  UNL     1       2.963   2.224   0.450  1.00  0.00    -0.083 Br
HETATM   17  C13 UNL     1       1.417   0.147  -0.845  1.00  0.00     0.037 C 
HETATM   18  C14 UNL     1       0.577   1.032  -1.732  1.00  0.00     0.013 C 
HETATM   19  C15 UNL     1      -0.877   0.857  -1.633  1.00  0.00     0.032 C 
HETATM   20  C16 UNL     1      -1.354  -0.130  -0.639  1.00  0.00     0.037 C 
HETATM   21  C17 UNL     1      -1.065  -1.516  -1.255  1.00  0.00     0.039 C 
HETATM   22  N2  UNL     1      -2.768  -0.049  -0.562  1.00  0.00    -0.378 N 
ATOM     23  H2  UNL     1      -3.340  -0.517  -1.264  1.00  0.00     0.157 HD
ENDROOT
BRANCH  13  24
HETATM   24  N1  UNL     1       3.661  -1.532  -1.015  1.00  0.00    -0.073 N 
ATOM     25  H13 UNL     1       4.193  -2.299  -0.603  1.00  0.00     0.274 HD
ATOM     26  H12 UNL     1       2.736  -1.961  -1.046  1.00  0.00     0.274 HD
ATOM     27  H11 UNL     1       3.995  -1.331  -1.958  1.00  0.00     0.274 HD
ENDBRANCH  13  24
TORSDOF 1
