REMARK  1 active torsions:
REMARK  status: ('A' for Active; 'I' for Inactive)
REMARK    1  A    between atoms: C13_16  and  O1_17 
ROOT
HETATM    1  C1  UNL     1      -1.234   0.637   1.662  1.00  0.00     0.017 C 
HETATM    2  C2  UNL     1      -1.380   0.876   0.223  1.00  0.00    -0.025 C 
HETATM    3  C3  UNL     1      -1.060   2.373   0.028  1.00  0.00     0.027 C 
HETATM    4  C4  UNL     1       0.473   2.302   0.135  1.00  0.00     0.072 C 
HETATM    5 BR1  UNL     1       1.248   3.882  -0.718  1.00  0.00    -0.090 Br
HETATM    6  C5  UNL     1       0.879   1.050  -0.606  1.00  0.00     0.002 C 
HETATM    7  C6  UNL     1       1.366   1.507  -1.984  1.00  0.00     0.022 C 
HETATM    8  C7  UNL     1       1.926   0.268   0.092  1.00  0.00    -0.034 A 
HETATM    9  C8  UNL     1       3.140   0.878   0.327  1.00  0.00     0.051 A 
HETATM   10  C9  UNL     1       4.204   0.274   0.963  1.00  0.00     0.119 A 
HETATM   11  F1  UNL     1       5.387   0.931   1.168  1.00  0.00    -0.206 F 
HETATM   12  C10 UNL     1       3.999  -1.025   1.375  1.00  0.00     0.085 A 
HETATM   13  C11 UNL     1       2.802  -1.661   1.157  1.00  0.00     0.128 A 
HETATM   14  F2  UNL     1       2.624  -2.958   1.579  1.00  0.00    -0.205 F 
HETATM   15  C12 UNL     1       1.763  -1.026   0.519  1.00  0.00     0.017 A 
HETATM   16  C13 UNL     1       0.495  -1.798   0.326  1.00  0.00     0.159 C 
HETATM   17  C14 UNL     1      -0.269  -1.177  -0.785  1.00  0.00     0.025 C 
HETATM   18  C15 UNL     1      -1.580  -1.805  -1.095  1.00  0.00     0.008 C 
HETATM   19  C16 UNL     1      -2.556  -1.916   0.002  1.00  0.00     0.002 C 
HETATM   20  C17 UNL     1      -3.335  -0.688   0.315  1.00  0.00     0.016 C 
HETATM   21  C18 UNL     1      -2.773   0.580  -0.231  1.00  0.00     0.066 C 
HETATM   22 BR2  UNL     1      -3.993   2.019   0.264  1.00  0.00    -0.090 Br
HETATM   23  C19 UNL     1      -0.413   0.303  -0.726  1.00  0.00     0.015 C 
ENDROOT
BRANCH  16  24
HETATM   24  O1  UNL     1       0.920  -3.072  -0.128  1.00  0.00    -0.390 OA
ATOM     25  H1  UNL     1       0.115  -3.562  -0.250  1.00  0.00     0.210 HD
ENDBRANCH  16  24
TORSDOF 1
