REMARK  5 active torsions:
REMARK  status: ('A' for Active; 'I' for Inactive)
REMARK       I    between atoms: C1_4  and  N3_6 
REMARK    1  A    between atoms: N3_6  and  C2_8 
REMARK    2  A    between atoms: N6_15  and  C4_16 
REMARK    3  A    between atoms: C4_16  and  C5_17 
REMARK    4  A    between atoms: C5_17  and  C6_18 
REMARK    5  A    between atoms: C5_17  and  C7_21 
REMARK       I    between atoms: C7_21  and  N8_23 
ROOT
HETATM    1  C2  UNL     1       3.009   0.722  -0.162  1.00  0.00     0.705 A 
HETATM    2  N4  UNL     1       3.728   1.344  -1.140  1.00  0.00    -0.128 N 
ATOM      3  H4  UNL     1       4.740   1.469  -1.140  1.00  0.00     0.205 HD
HETATM    4  N5  UNL     1       2.912   1.755  -2.079  1.00  0.00    -0.236 N 
ATOM      5  H5  UNL     1       3.191   2.251  -2.925  1.00  0.00     0.192 HD
HETATM    6  C3  UNL     1       1.661   1.425  -1.759  1.00  0.00     0.355 A 
HETATM    7  O1  UNL     1       0.611   1.661  -2.429  1.00  0.00    -0.244 OA
HETATM    8  N6  UNL     1       1.739   0.774  -0.551  1.00  0.00    -0.129 N 
ENDROOT
BRANCH   8   9
HETATM    9  C4  UNL     1       0.596   0.219   0.094  1.00  0.00     0.176 C 
BRANCH   9  10
HETATM   10  C5  UNL     1      -0.001  -1.026  -0.391  1.00  0.00     0.186 C 
BRANCH  10  11
HETATM   11  C6  UNL     1       0.743  -2.270  -0.430  1.00  0.00     0.246 C 
HETATM   12  N7  UNL     1       0.025  -3.401  -1.002  1.00  0.00    -0.061 NA
HETATM   13  O2  UNL     1       1.892  -2.410  -0.024  1.00  0.00    -0.276 OA
ENDBRANCH  10  11
BRANCH  10  14
HETATM   14  C7  UNL     1      -1.219  -1.286   0.485  1.00  0.00     0.234 C 
HETATM   15  O3  UNL     1      -1.087  -2.146   1.424  1.00  0.00    -0.272 OA
HETATM   16  N8  UNL     1      -2.451  -0.647   0.328  1.00  0.00    -0.351 N 
HETATM   17  C8  UNL     1      -2.696   0.298  -0.709  1.00  0.00     0.125 C 
HETATM   18  C12 UNL     1      -3.534  -0.937   1.236  1.00  0.00     0.125 C 
HETATM   19  C9  UNL     1      -3.216   1.583  -0.115  1.00  0.00     0.020 C 
HETATM   20  C10 UNL     1      -4.396   1.380   0.788  1.00  0.00     0.003 C 
HETATM   21  C11 UNL     1      -4.725  -0.064   1.032  1.00  0.00     0.020 C 
ENDBRANCH  10  14
ENDBRANCH   9  10
ENDBRANCH   8   9
BRANCH   1  22
HETATM   22  N3  UNL     1       3.554   0.248   0.933  1.00  0.00    -0.162 N 
HETATM   23  C1  UNL     1       4.933   0.369   1.139  1.00  0.00     0.200 C 
HETATM   24  N1  UNL     1       5.401   1.322   1.904  1.00  0.00    -0.373 N 
HETATM   25  N2  UNL     1       5.871  -0.510   0.545  1.00  0.00    -0.063 NA
ATOM     26  H12 UNL     1       6.406   1.410   2.054  1.00  0.00     0.158 HD
ATOM     27  H11 UNL     1       4.725   1.955   2.332  1.00  0.00     0.158 HD
ATOM     28  H3  UNL     1       2.972  -0.209   1.635  1.00  0.00     0.187 HD
ENDBRANCH   1  22
TORSDOF 5
