REMARK  11 active torsions:
REMARK  status: ('A' for Active; 'I' for Inactive)
REMARK    1  A    between atoms: N1_2  and  N2_4 
REMARK    2  A    between atoms: N2_4  and  C1_6 
REMARK    3  A    between atoms: C2_10  and  C3_11 
REMARK    4  A    between atoms: C3_11  and  N5_12 
REMARK    5  A    between atoms: N5_12  and  N6_13 
REMARK    6  A    between atoms: N7_19  and  C8_20 
REMARK    7  A    between atoms: C8_20  and  C9_21 
REMARK    8  A    between atoms: C9_21  and  C10_22 
REMARK    9  A    between atoms: C10_22  and  C11_23 
REMARK   10  A    between atoms: C11_23  and  C12_24 
REMARK   11  A    between atoms: C13_25  and  C14_26 
ROOT
HETATM    1  C1  UNL     1      -0.826  -2.798   1.935  1.00  0.00     0.712 C 
HETATM    2  N3  UNL     1      -2.045  -2.603   2.387  1.00  0.00    -0.133 N 
ATOM      3  H3  UNL     1      -2.438  -3.026   3.228  1.00  0.00     0.201 HD
HETATM    4  N4  UNL     1      -2.712  -1.731   1.540  1.00  0.00    -0.098 NA
HETATM    5  C2  UNL     1      -2.056  -1.931   0.242  1.00  0.00     0.233 C 
HETATM    6  N7  UNL     1      -0.665  -2.038   0.751  1.00  0.00    -0.194 N 
ENDROOT
BRANCH   6   7
HETATM    7  C8  UNL     1       0.516  -1.541   0.157  1.00  0.00     0.143 C 
BRANCH   7   8
HETATM    8  C9  UNL     1       1.759  -1.532   0.982  1.00  0.00     0.021 C 
BRANCH   8   9
HETATM    9  C10 UNL     1       1.708  -0.642   2.192  1.00  0.00     0.014 C 
BRANCH   9  10
HETATM   10  C11 UNL     1       1.486   0.795   1.741  1.00  0.00     0.094 C 
BRANCH  10  11
HETATM   11  C12 UNL     1       2.612   1.142   0.877  1.00  0.00    -0.101 C 
HETATM   12  C13 UNL     1       3.547   1.421   0.160  1.00  0.00    -0.067 C 
BRANCH  12  13
HETATM   13  C14 UNL     1       4.652   1.762  -0.693  1.00  0.00     0.017 A 
HETATM   14  C15 UNL     1       5.946   1.774  -0.212  1.00  0.00     0.020 A 
HETATM   15  C16 UNL     1       7.013   2.104  -1.036  1.00  0.00     0.001 A 
HETATM   16  C17 UNL     1       6.831   2.431  -2.363  1.00  0.00     0.000 A 
HETATM   17  C18 UNL     1       5.538   2.420  -2.845  1.00  0.00     0.001 A 
HETATM   18  C19 UNL     1       4.477   2.092  -2.026  1.00  0.00     0.020 A 
ENDBRANCH  12  13
ENDBRANCH  10  11
ENDBRANCH   9  10
ENDBRANCH   8   9
ENDBRANCH   7   8
ENDBRANCH   6   7
BRANCH   1  19
HETATM   19  N2  UNL     1       0.134  -3.650   2.571  1.00  0.00    -0.071 N 
ATOM     20  H2  UNL     1       0.654  -3.312   3.381  1.00  0.00     0.212 HD
BRANCH  19  21
HETATM   21  N1  UNL     1       0.362  -4.941   2.088  1.00  0.00    -0.024 N 
HETATM   22  O1  UNL     1      -0.636  -5.552   1.645  1.00  0.00    -0.516 OA
HETATM   23  O2  UNL     1       1.607  -5.525   2.090  1.00  0.00    -0.516 OA
ENDBRANCH  19  21
ENDBRANCH   1  19
BRANCH   5  24
HETATM   24  C3  UNL     1      -2.197  -0.767  -0.678  1.00  0.00     0.179 C 
BRANCH  24  25
HETATM   25  N5  UNL     1      -3.587  -0.488  -0.960  1.00  0.00    -0.140 NA
BRANCH  25  26
HETATM   26  N6  UNL     1      -3.782   0.566  -1.815  1.00  0.00    -0.330 N 
HETATM   27  C4  UNL     1      -3.187   1.807  -1.466  1.00  0.00     0.148 C 
HETATM   28  C5  UNL     1      -3.605   2.356  -0.117  1.00  0.00     0.095 C 
HETATM   29  S1  UNL     1      -5.369   1.975   0.071  1.00  0.00    -0.166 SA
HETATM   30  C6  UNL     1      -5.998   1.602  -1.592  1.00  0.00     0.095 C 
HETATM   31  C7  UNL     1      -5.111   0.664  -2.345  1.00  0.00     0.148 C 
ENDBRANCH  25  26
ENDBRANCH  24  25
ENDBRANCH   5  24
TORSDOF 11
