REMARK  12 active torsions:
REMARK  status: ('A' for Active; 'I' for Inactive)
REMARK    1  A    between atoms: C2_2  and  O1_3 
REMARK    2  A    between atoms: O1_3  and  C3_4 
REMARK    3  A    between atoms: C5_6  and  C6_7 
REMARK    4  A    between atoms: C8_9  and  O2_10 
REMARK    5  A    between atoms: O2_10  and  C9_11 
REMARK    6  A    between atoms: C9_11  and  O3_12 
REMARK    7  A    between atoms: O3_12  and  C10_13 
REMARK    8  A    between atoms: C11_15  and  C12_16 
REMARK    9  A    between atoms: C12_16  and  O5_17 
REMARK   10  A    between atoms: C13_19  and  O6_20 
REMARK   11  A    between atoms: C14_22  and  O7_23 
REMARK   12  A    between atoms: C15_25  and  O8_26 
ROOT
HETATM    1  O2  UNL     1       1.024  -0.896  -0.943  1.00  0.00    -0.338 OA
ENDROOT
BRANCH   1   2
HETATM    2  C8  UNL     1      -0.219  -0.294  -1.006  1.00  0.00     0.140 C 
HETATM    3  C6  UNL     1      -1.053  -0.238   0.046  1.00  0.00    -0.055 C 
HETATM    4  C7  UNL     1      -0.578  -0.835   1.296  1.00  0.00     0.046 C 
BRANCH   3   5
HETATM    5  C5  UNL     1      -2.338   0.420  -0.133  1.00  0.00     0.051 C 
HETATM    6  C3  UNL     1      -3.561  -0.423   0.090  1.00  0.00     0.069 C 
HETATM    7  C4  UNL     1      -3.249  -1.882   0.367  1.00  0.00     0.047 C 
HETATM    8  C22 UNL     1      -4.119   0.140   1.340  1.00  0.00     0.028 C 
HETATM    9  C17 UNL     1      -3.854   1.641   1.101  1.00  0.00    -0.006 C 
HETATM   10  C20 UNL     1      -5.540   0.155   1.615  1.00  0.00    -0.011 C 
HETATM   11  C16 UNL     1      -2.397   1.575   0.892  1.00  0.00     0.017 C 
HETATM   12  C18 UNL     1      -4.381   2.182   2.356  1.00  0.00     0.005 C 
HETATM   13  C19 UNL     1      -5.666   1.362   2.564  1.00  0.00     0.005 C 
HETATM   14  C21 UNL     1      -6.496   0.366   0.509  1.00  0.00     0.010 C 
BRANCH   6  15
HETATM   15  O1  UNL     1      -4.460  -0.296  -0.963  1.00  0.00    -0.380 OA
BRANCH  15  16
HETATM   16  C2  UNL     1      -4.050  -0.845  -2.147  1.00  0.00     0.164 C 
HETATM   17  C1  UNL     1      -5.066  -0.679  -3.254  1.00  0.00     0.033 C 
ENDBRANCH  15  16
ENDBRANCH   6  15
ENDBRANCH   3   5
ENDBRANCH   1   2
BRANCH   1  18
HETATM   18  C9  UNL     1       2.222  -0.206  -0.741  1.00  0.00     0.347 C 
BRANCH  18  19
HETATM   19  O3  UNL     1       3.310  -1.079  -0.724  1.00  0.00    -0.334 OA
BRANCH  19  20
HETATM   20  C10 UNL     1       4.509  -0.397  -0.523  1.00  0.00     0.294 C 
HETATM   21  O4  UNL     1       5.283  -0.559  -1.651  1.00  0.00    -0.348 OA
HETATM   22  C11 UNL     1       6.494   0.089  -1.617  1.00  0.00     0.179 C 
HETATM   23  C13 UNL     1       7.348  -0.455  -0.532  1.00  0.00     0.180 C 
HETATM   24  C14 UNL     1       6.632  -1.212   0.541  1.00  0.00     0.183 C 
HETATM   25  C15 UNL     1       5.207  -0.828   0.740  1.00  0.00     0.204 C 
BRANCH  22  26
HETATM   26  C12 UNL     1       6.344   1.601  -1.529  1.00  0.00     0.198 C 
BRANCH  26  27
HETATM   27  O5  UNL     1       7.648   2.119  -1.505  1.00  0.00    -0.398 OA
ATOM     28  H5  UNL     1       7.554   3.063  -1.450  1.00  0.00     0.209 HD
ENDBRANCH  26  27
ENDBRANCH  22  26
BRANCH  23  29
HETATM   29  O6  UNL     1       8.323  -1.287  -1.104  1.00  0.00    -0.390 OA
ATOM     30  H6  UNL     1       8.870  -1.635  -0.409  1.00  0.00     0.210 HD
ENDBRANCH  23  29
BRANCH  24  31
HETATM   31  O7  UNL     1       7.300  -0.937   1.757  1.00  0.00    -0.390 OA
ATOM     32  H7  UNL     1       6.845  -1.418   2.439  1.00  0.00     0.210 HD
ENDBRANCH  24  31
BRANCH  25  33
HETATM   33  O8  UNL     1       5.061   0.154   1.737  1.00  0.00    -0.388 OA
ATOM     34  H8  UNL     1       5.501  -0.118   2.534  1.00  0.00     0.210 HD
ENDBRANCH  25  33
ENDBRANCH  19  20
ENDBRANCH  18  19
ENDBRANCH   1  18
TORSDOF 12
