REMARK  11 active torsions:
REMARK  status: ('A' for Active; 'I' for Inactive)
REMARK    1  A    between atoms: C2_2  and  C3_3 
REMARK    2  A    between atoms: C2_2  and  C11_20 
REMARK    3  A    between atoms: C3_3  and  C4_4 
REMARK       I    between atoms: C4_4  and  N1_6 
REMARK    4  A    between atoms: N1_6  and  C5_8 
REMARK    5  A    between atoms: C8_11  and  N2_12 
REMARK    6  A    between atoms: C10_16  and  N3_17 
REMARK    7  A    between atoms: C11_20  and  O6_21 
REMARK    8  A    between atoms: C11_20  and  N4_23 
REMARK    9  A    between atoms: N4_23  and  C12_24 
REMARK   10  A    between atoms: C14_26  and  C15_27 
REMARK   11  A    between atoms: C17_31  and  O9_32 
ROOT
HETATM    1  C3  UNL     1      -0.815  -2.090   0.068  1.00  0.00     0.146 C 
ENDROOT
BRANCH   1   2
HETATM    2  C2  UNL     1       0.464  -1.458   0.461  1.00  0.00     0.006 C 
HETATM    3  C1  UNL     1       1.016  -1.849   1.577  1.00  0.00     0.025 C 
BRANCH   2   4
HETATM    4  C11 UNL     1       1.139  -0.441  -0.379  1.00  0.00     0.214 C 
BRANCH   4   5
HETATM    5  O6  UNL     1       0.459  -0.131  -1.447  1.00  0.00    -0.335 OA
ATOM      6  H6  UNL     1       0.892   0.521  -1.986  1.00  0.00     0.220 HD
ENDBRANCH   4   5
BRANCH   4   7
HETATM    7  N4  UNL     1       2.332   0.142  -0.108  1.00  0.00    -0.416 NA
BRANCH   7   8
HETATM    8  C12 UNL     1       3.538   0.732   0.166  1.00  0.00     0.195 C 
HETATM    9  C13 UNL     1       4.554   0.441  -0.996  1.00  0.00     0.057 C 
HETATM   10  C14 UNL     1       5.839   0.950  -0.358  1.00  0.00     0.092 C 
HETATM   11  C16 UNL     1       5.642   0.986   1.125  1.00  0.00     0.050 C 
HETATM   12  C17 UNL     1       4.307   0.259   1.346  1.00  0.00     0.155 C 
BRANCH  10  13
HETATM   13  C15 UNL     1       6.083   2.367  -0.810  1.00  0.00     0.177 C 
HETATM   14  O7  UNL     1       5.283   2.891  -1.600  1.00  0.00    -0.648 OA
HETATM   15  O8  UNL     1       7.213   3.008  -0.307  1.00  0.00    -0.648 OA
ENDBRANCH  10  13
BRANCH  12  16
HETATM   16  O9  UNL     1       4.571  -1.130   1.289  1.00  0.00    -0.392 OA
ATOM     17  H9  UNL     1       5.063  -1.432   2.043  1.00  0.00     0.210 HD
ENDBRANCH  12  16
ENDBRANCH   7   8
ENDBRANCH   4   7
ENDBRANCH   2   4
ENDBRANCH   1   2
BRANCH   1  18
HETATM   18  C4  UNL     1      -1.914  -1.076   0.048  1.00  0.00     0.226 C 
HETATM   19  O1  UNL     1      -1.635   0.087   0.336  1.00  0.00    -0.273 OA
HETATM   20  N1  UNL     1      -3.231  -1.479  -0.300  1.00  0.00    -0.325 N 
ATOM     21  H1  UNL     1      -3.391  -2.465  -0.505  1.00  0.00     0.169 HD
BRANCH  20  22
HETATM   22  C5  UNL     1      -4.327  -0.605  -0.380  1.00  0.00     0.068 A 
HETATM   23  C6  UNL     1      -4.226   0.763  -0.585  1.00  0.00     0.034 A 
HETATM   24  C7  UNL     1      -5.316   1.604  -0.731  1.00  0.00     0.038 A 
HETATM   25  C8  UNL     1      -6.604   1.085  -0.676  1.00  0.00     0.105 A 
HETATM   26  C9  UNL     1      -6.730  -0.256  -0.479  1.00  0.00     0.074 A 
HETATM   27  C10 UNL     1      -5.627  -1.131  -0.327  1.00  0.00     0.132 A 
BRANCH  25  28
HETATM   28  N2  UNL     1      -7.730   1.947  -0.824  1.00  0.00    -0.116 N 
HETATM   29  O2  UNL     1      -7.588   3.158  -1.042  1.00  0.00    -0.532 OA
HETATM   30  O3  UNL     1      -8.980   1.416  -0.733  1.00  0.00    -0.532 OA
ENDBRANCH  25  28
BRANCH  27  31
HETATM   31  N3  UNL     1      -5.971  -2.471  -0.100  1.00  0.00    -0.113 N 
HETATM   32  O4  UNL     1      -7.065  -2.723   0.518  1.00  0.00    -0.532 OA
HETATM   33  O5  UNL     1      -5.261  -3.546  -0.457  1.00  0.00    -0.532 OA
ENDBRANCH  27  31
ENDBRANCH  20  22
ENDBRANCH   1  18
TORSDOF 11
