REMARK  7 active torsions:
REMARK  status: ('A' for Active; 'I' for Inactive)
REMARK    1  A    between atoms: N1_1  and  C1_4 
REMARK    2  A    between atoms: N3_9  and  C3_10 
REMARK    3  A    between atoms: C3_10  and  C4_11 
REMARK       I    between atoms: C4_11  and  N4_13 
REMARK    4  A    between atoms: N4_13  and  C5_15 
REMARK    5  A    between atoms: C5_15  and  C6_16 
REMARK    6  A    between atoms: C6_16  and  N5_17 
REMARK    7  A    between atoms: N5_17  and  C7_19 
ROOT
HETATM    1  C4  UNL     1       1.292   0.305   0.129  1.00  0.00     0.236 C 
HETATM    2  O2  UNL     1       1.755   1.464  -0.026  1.00  0.00    -0.272 OA
HETATM    3  N4  UNL     1      -0.093   0.200   0.429  1.00  0.00    -0.358 N 
ATOM      4  H4  UNL     1      -0.496  -0.728   0.559  1.00  0.00     0.162 HD
ENDROOT
BRANCH   1   5
HETATM    5  C3  UNL     1       2.095  -0.918   0.017  1.00  0.00     0.241 C 
BRANCH   5   6
HETATM    6  N3  UNL     1       3.484  -0.653  -0.293  1.00  0.00    -0.242 N 
HETATM    7  C2  UNL     1       4.396  -0.471   0.678  1.00  0.00     0.345 A 
HETATM    8  N2  UNL     1       5.704  -0.223   0.384  1.00  0.00    -0.141 N 
HETATM    9  O1  UNL     1       4.066  -0.526   1.886  1.00  0.00    -0.246 OA
HETATM   10  C1  UNL     1       6.106  -0.155  -0.880  1.00  0.00     0.683 A 
ATOM     11  H2  UNL     1       6.377  -0.089   1.139  1.00  0.00     0.189 HD
HETATM   12  N8  UNL     1       5.212  -0.333  -1.866  1.00  0.00    -0.141 N 
HETATM   13  C11 UNL     1       3.918  -0.579  -1.564  1.00  0.00     0.345 A 
ATOM     14  H8  UNL     1       5.509  -0.283  -2.841  1.00  0.00     0.189 HD
HETATM   15  O4  UNL     1       3.100  -0.743  -2.506  1.00  0.00    -0.246 OA
BRANCH  10  16
HETATM   16  N1  UNL     1       7.366   0.085  -1.152  1.00  0.00    -0.234 N 
ATOM     17  H12 UNL     1       8.045   0.220  -0.403  1.00  0.00     0.174 HD
ATOM     18  H11 UNL     1       7.675   0.137  -2.123  1.00  0.00     0.174 HD
ENDBRANCH  10  16
ENDBRANCH   5   6
ENDBRANCH   1   5
BRANCH   3  19
HETATM   19  C5  UNL     1      -0.956   1.354   0.558  1.00  0.00     0.142 C 
BRANCH  19  20
HETATM   20  C6  UNL     1      -2.376   0.952   0.880  1.00  0.00     0.139 C 
BRANCH  20  21
HETATM   21  N5  UNL     1      -2.957   0.115  -0.127  1.00  0.00    -0.384 N 
ATOM     22  H5  UNL     1      -2.423  -0.151  -0.954  1.00  0.00     0.159 HD
BRANCH  21  23
HETATM   23  C7  UNL     1      -4.284  -0.335   0.048  1.00  0.00     0.099 A 
HETATM   24  C8  UNL     1      -5.041   0.003   1.153  1.00  0.00     0.053 A 
HETATM   25  C9  UNL     1      -6.327  -0.438   1.314  1.00  0.00     0.109 A 
HETATM   26  N6  UNL     1      -6.855  -1.223   0.358  1.00  0.00    -0.309 N 
HETATM   27  N7  UNL     1      -6.166  -1.568  -0.712  1.00  0.00    -0.265 N 
ATOM     28  H6  UNL     1      -7.812  -1.560   0.463  1.00  0.00     0.186 HD
HETATM   29  C10 UNL     1      -4.901  -1.146  -0.891  1.00  0.00     0.286 A 
ATOM     30  H7  UNL     1      -6.600  -2.165  -1.416  1.00  0.00     0.190 HD
HETATM   31  O3  UNL     1      -4.240  -1.475  -1.913  1.00  0.00    -0.264 OA
ENDBRANCH  21  23
ENDBRANCH  20  21
ENDBRANCH  19  20
ENDBRANCH   3  19
TORSDOF 7
