REMARK  5 active torsions:
REMARK  status: ('A' for Active; 'I' for Inactive)
REMARK    1  A    between atoms: C2_2  and  C3_3 
REMARK    2  A    between atoms: C3_3  and  C4_4 
REMARK    3  A    between atoms: C4_4  and  C5_5 
REMARK    4  A    between atoms: N1_7  and  N2_9 
REMARK       I    between atoms: C7_11  and  N3_12 
REMARK       I    between atoms: C7_11  and  N6_17 
REMARK       I    between atoms: N6_17  and  C9_18 
REMARK    5  A    between atoms: N8_21  and  N9_23 
ROOT
HETATM    1  C5  UNL     1      -0.296   1.827  -0.261  1.00  0.00     0.000 C 
HETATM    2  C6  UNL     1      -0.577   3.269  -0.174  1.00  0.00     0.065 C 
HETATM    3  N1  UNL     1       0.805   1.399  -0.773  1.00  0.00    -0.306 N 
ATOM      4  H1  UNL     1       1.509   2.039  -1.139  1.00  0.00     0.186 HD
ENDROOT
BRANCH   3   5
HETATM    5  N2  UNL     1       0.988   0.009  -0.802  1.00  0.00    -0.259 N 
HETATM    6  C7  UNL     1       1.888  -0.569   0.010  1.00  0.00     0.280 C 
HETATM    7  N3  UNL     1       1.897  -1.985  -0.193  1.00  0.00    -0.291 N 
HETATM    8  N6  UNL     1       2.576   0.231   0.825  1.00  0.00    -0.317 NA
HETATM    9  C8  UNL     1       2.895  -2.685  -0.545  1.00  0.00     0.204 C 
ATOM     10  H3  UNL     1       1.018  -2.479  -0.040  1.00  0.00     0.172 HD
HETATM   11  N4  UNL     1       4.163  -2.107  -0.783  1.00  0.00    -0.066 NA
HETATM   12  N5  UNL     1       2.740  -4.090  -0.704  1.00  0.00    -0.066 NA
HETATM   13  C9  UNL     1       3.272   1.038   1.648  1.00  0.00     0.408 C 
HETATM   14  N7  UNL     1       3.051   2.486   1.667  1.00  0.00    -0.025 NA
HETATM   15  O1  UNL     1       4.172   0.718   2.487  1.00  0.00    -0.234 OA
ATOM     16  H2  UNL     1       0.437  -0.564  -1.441  1.00  0.00     0.191 HD
ENDBRANCH   3   5
BRANCH   1  17
HETATM   17  C4  UNL     1      -1.274   0.850   0.252  1.00  0.00     0.059 C 
BRANCH  17  18
HETATM   18  C3  UNL     1      -2.593   1.064  -0.483  1.00  0.00     0.059 C 
BRANCH  18  19
HETATM   19  C2  UNL     1      -3.549   0.050  -0.003  1.00  0.00    -0.001 C 
HETATM   20  C1  UNL     1      -3.221  -1.372  -0.264  1.00  0.00     0.065 C 
HETATM   21  N8  UNL     1      -4.614   0.403   0.621  1.00  0.00    -0.316 N 
ATOM     22  H8  UNL     1      -4.797   1.394   0.777  1.00  0.00     0.185 HD
BRANCH  21  23
HETATM   23  N9  UNL     1      -5.521  -0.538   1.087  1.00  0.00    -0.345 N 
ATOM     24  H92 UNL     1      -5.323  -1.525   0.922  1.00  0.00     0.176 HD
ATOM     25  H91 UNL     1      -6.367  -0.258   1.583  1.00  0.00     0.176 HD
ENDBRANCH  21  23
ENDBRANCH  18  19
ENDBRANCH  17  18
ENDBRANCH   1  17
TORSDOF 5
