REMARK  10 active torsions:
REMARK  status: ('A' for Active; 'I' for Inactive)
REMARK    1  A    between atoms: C2_2  and  N1_3 
REMARK       I    between atoms: N1_3  and  C3_5 
REMARK    2  A    between atoms: C3_5  and  O2_7 
REMARK    3  A    between atoms: O2_7  and  C4_8 
REMARK    4  A    between atoms: C6_11  and  C7_12 
REMARK    5  A    between atoms: C10_15  and  C11_16 
REMARK    6  A    between atoms: C11_16  and  C12_17 
REMARK    7  A    between atoms: C13_18  and  C14_19 
REMARK    8  A    between atoms: C14_19  and  S1_20 
REMARK    9  A    between atoms: S1_20  and  C15_21 
REMARK   10  A    between atoms: C18_26  and  C19_27 
ROOT
HETATM    1  C7  UNL     1       1.795   0.753   2.180  1.00  0.00     0.026 C 
HETATM    2  C8  UNL     1       0.631   1.166   1.747  1.00  0.00    -0.002 C 
HETATM    3  C9  UNL     1      -0.380   0.334   1.099  1.00  0.00     0.075 C 
HETATM    4  C10 UNL     1      -1.584   1.089   0.611  1.00  0.00     0.137 C 
HETATM    5  O5  UNL     1      -1.305   2.407   0.178  1.00  0.00    -0.341 OA
HETATM    6  C17 UNL     1      -0.700   3.258   1.079  1.00  0.00     0.120 C 
HETATM    7  C18 UNL     1      -0.945   4.531   1.246  1.00  0.00     0.055 C 
HETATM    8  C25 UNL     1       0.332   2.611   1.922  1.00  0.00     0.211 C 
HETATM    9  O6  UNL     1       0.925   3.323   2.767  1.00  0.00    -0.285 OA
ENDROOT
BRANCH   1  10
HETATM   10  C6  UNL     1       2.342  -0.588   2.120  1.00  0.00     0.013 A 
HETATM   11  C5  UNL     1       1.804  -1.831   2.316  1.00  0.00     0.158 A 
HETATM   12  O3  UNL     1       2.719  -2.775   2.140  1.00  0.00    -0.298 OA
HETATM   13  C4  UNL     1       3.868  -2.240   1.831  1.00  0.00     0.217 A 
HETATM   14  C26 UNL     1       3.687  -0.878   1.805  1.00  0.00     0.105 A 
HETATM   15 CL2  UNL     1       4.900   0.321   1.448  1.00  0.00    -0.078 Cl
BRANCH  13  16
HETATM   16  O2  UNL     1       5.047  -2.914   1.578  1.00  0.00    -0.235 OA
BRANCH  16  17
HETATM   17  C3  UNL     1       5.460  -3.323   0.341  1.00  0.00     0.367 C 
HETATM   18  N1  UNL     1       6.710  -4.014   0.221  1.00  0.00    -0.337 N 
ATOM     19  H1  UNL     1       7.264  -4.186   1.060  1.00  0.00     0.164 HD
HETATM   20  O1  UNL     1       4.755  -3.094  -0.664  1.00  0.00    -0.238 OA
BRANCH  18  21
HETATM   21  C2  UNL     1       7.207  -4.473  -1.052  1.00  0.00     0.120 C 
HETATM   22  C1  UNL     1       7.389  -3.289  -2.006  1.00  0.00     0.026 C 
ENDBRANCH  18  21
ENDBRANCH  16  17
ENDBRANCH  13  16
ENDBRANCH   1  10
BRANCH   4  23
HETATM   23  C11 UNL     1      -2.288   0.336  -0.501  1.00  0.00     0.059 C 
BRANCH  23  24
HETATM   24  C12 UNL     1      -2.754  -1.007  -0.045  1.00  0.00    -0.027 C 
HETATM   25  C13 UNL     1      -2.339  -2.124  -0.624  1.00  0.00    -0.020 C 
BRANCH  25  26
HETATM   26  C14 UNL     1      -2.839  -3.429  -0.123  1.00  0.00     0.109 C 
BRANCH  26  27
HETATM   27  S1  UNL     1      -3.731  -4.341  -1.410  1.00  0.00    -0.089 SA
BRANCH  27  28
HETATM   28  C15 UNL     1      -5.214  -3.466  -1.827  1.00  0.00     0.182 C 
HETATM   29  C16 UNL     1      -6.178  -3.958  -2.866  1.00  0.00     0.104 C 
HETATM   30  O4  UNL     1      -5.479  -2.423  -1.261  1.00  0.00    -0.286 OA
ENDBRANCH  27  28
ENDBRANCH  26  27
ENDBRANCH  25  26
ENDBRANCH  23  24
ENDBRANCH   4  23
BRANCH   7  31
HETATM   31  C19 UNL     1      -1.905   5.343   0.527  1.00  0.00     0.007 A 
HETATM   32  C20 UNL     1      -2.758   6.217   1.217  1.00  0.00     0.041 A 
HETATM   33  C21 UNL     1      -3.664   7.016   0.565  1.00  0.00     0.073 A 
HETATM   34 CL1  UNL     1      -4.711   8.094   1.469  1.00  0.00    -0.081 Cl
HETATM   35  C22 UNL     1      -3.774   6.990  -0.804  1.00  0.00     0.141 A 
HETATM   36  F1  UNL     1      -4.676   7.782  -1.467  1.00  0.00    -0.204 F 
HETATM   37  C23 UNL     1      -2.944   6.138  -1.502  1.00  0.00     0.087 A 
HETATM   38  C24 UNL     1      -2.019   5.323  -0.839  1.00  0.00     0.129 A 
HETATM   39  F2  UNL     1      -1.251   4.547  -1.640  1.00  0.00    -0.205 F 
ENDBRANCH   7  31
TORSDOF 10
