REMARK  9 active torsions:
REMARK  status: ('A' for Active; 'I' for Inactive)
REMARK    1  A    between atoms: C1_2  and  C2_3 
REMARK    2  A    between atoms: C2_3  and  C3_4 
REMARK    3  A    between atoms: C3_4  and  C4_5 
REMARK    4  A    between atoms: C4_5  and  C5_6 
REMARK    5  A    between atoms: C5_6  and  C6_7 
REMARK    6  A    between atoms: C6_7  and  C7_8 
REMARK    7  A    between atoms: C7_8  and  N2_9 
REMARK       I    between atoms: N2_9  and  C8_11 
REMARK    8  A    between atoms: C8_11  and  C9_13 
REMARK    9  A    between atoms: C10_14  and  C11_15 
REMARK       I    between atoms: N3_21  and  C17_23 
REMARK       I    between atoms: C17_23  and  N4_25 
ROOT
HETATM    1  C4  UNL     1      -1.458   1.017  -1.454  1.00  0.00     0.000 C 
ENDROOT
BRANCH   1   2
HETATM    2  C3  UNL     1      -2.752   1.460  -0.869  1.00  0.00     0.007 C 
BRANCH   2   3
HETATM    3  C2  UNL     1      -3.629   0.412  -0.298  1.00  0.00     0.073 C 
BRANCH   3   4
HETATM    4  C1  UNL     1      -3.101  -0.389   0.795  1.00  0.00     0.097 C 
HETATM    5  N1  UNL     1      -1.983  -1.252   0.672  1.00  0.00    -0.087 NA
HETATM    6  N3  UNL     1      -3.656  -0.337   1.954  1.00  0.00    -0.300 N 
HETATM    7  C17 UNL     1      -4.764   0.438   2.309  1.00  0.00     0.323 C 
ATOM      8  H3  UNL     1      -3.248  -0.918   2.686  1.00  0.00     0.171 HD
HETATM    9  O2  UNL     1      -4.611   1.609   2.756  1.00  0.00    -0.247 OA
HETATM   10  N4  UNL     1      -6.069  -0.104   2.161  1.00  0.00    -0.334 N 
HETATM   11  C18 UNL     1      -7.224   0.712   2.536  1.00  0.00     0.127 C 
HETATM   12  C22 UNL     1      -6.325  -1.419   1.661  1.00  0.00     0.127 C 
HETATM   13  C19 UNL     1      -8.080   0.840   1.297  1.00  0.00     0.020 C 
HETATM   14  C20 UNL     1      -8.581  -0.558   0.967  1.00  0.00     0.003 C 
HETATM   15  C21 UNL     1      -7.457  -1.494   0.669  1.00  0.00     0.020 C 
ENDBRANCH   3   4
ENDBRANCH   2   3
ENDBRANCH   1   2
BRANCH   1  16
HETATM   16  C5  UNL     1      -0.747   2.250  -1.972  1.00  0.00     0.002 C 
BRANCH  16  17
HETATM   17  C6  UNL     1       0.587   1.946  -2.599  1.00  0.00     0.020 C 
BRANCH  17  18
HETATM   18  C7  UNL     1       1.544   1.295  -1.638  1.00  0.00     0.123 C 
BRANCH  18  19
HETATM   19  N2  UNL     1       2.816   1.020  -2.240  1.00  0.00    -0.358 N 
HETATM   20  C8  UNL     1       3.876   0.391  -1.473  1.00  0.00     0.240 C 
HETATM   21  O1  UNL     1       3.580   0.132  -0.313  1.00  0.00    -0.269 OA
ATOM     22  H2  UNL     1       2.978   1.269  -3.216  1.00  0.00     0.162 HD
BRANCH  20  23
HETATM   23  C9  UNL     1       5.126   0.138  -2.107  1.00  0.00     0.070 C 
HETATM   24  C10 UNL     1       6.211  -0.388  -1.721  1.00  0.00    -0.017 C 
BRANCH  24  25
HETATM   25  C11 UNL     1       6.815  -0.984  -0.592  1.00  0.00     0.008 C 
HETATM   26  C12 UNL     1       6.024  -1.363   0.584  1.00  0.00     0.008 C 
HETATM   27  C13 UNL     1       6.852  -2.284   1.526  1.00  0.00     0.001 C 
HETATM   28  C14 UNL     1       8.113  -1.571   1.882  1.00  0.00     0.000 C 
HETATM   29  C15 UNL     1       8.128  -0.156   1.341  1.00  0.00     0.001 C 
HETATM   30  C16 UNL     1       8.034  -0.159  -0.146  1.00  0.00     0.008 C 
ENDBRANCH  24  25
ENDBRANCH  20  23
ENDBRANCH  18  19
ENDBRANCH  17  18
ENDBRANCH  16  17
ENDBRANCH   1  16
TORSDOF 9
