REMARK  8 active torsions:
REMARK  status: ('A' for Active; 'I' for Inactive)
REMARK    1  A    between atoms: N1_2  and  N2_3 
REMARK       I    between atoms: N1_2  and  C8_32 
REMARK    2  A    between atoms: N3_5  and  C2_7 
REMARK    3  A    between atoms: C3_8  and  C4_9 
REMARK    4  A    between atoms: C4_9  and  O1_10 
REMARK    5  A    between atoms: C4_9  and  O2_12 
REMARK    6  A    between atoms: C5_16  and  N5_17 
REMARK       I    between atoms: N5_17  and  C6_19 
REMARK       I    between atoms: C6_19  and  N6_20 
REMARK       I    between atoms: C6_19  and  N7_24 
REMARK    7  A    between atoms: C8_32  and  C9_34 
REMARK       I    between atoms: C9_34  and  N9_36 
REMARK    8  A    between atoms: N9_36  and  N10_38 
ROOT
HETATM    1  C2  UNL     1      -0.462  -0.570  -0.089  1.00  0.00     0.146 A 
HETATM    2  C3  UNL     1      -1.415   0.400  -0.295  1.00  0.00     0.114 A 
HETATM    3  N4  UNL     1      -2.684   0.105   0.070  1.00  0.00    -0.188 N 
ATOM      4  H4  UNL     1      -3.404   0.812  -0.075  1.00  0.00     0.184 HD
HETATM    5  C5  UNL     1      -3.047  -1.068   0.613  1.00  0.00     0.684 A 
HETATM    6  N8  UNL     1      -2.109  -2.013   0.813  1.00  0.00    -0.154 N 
ATOM      7  H8  UNL     1      -2.368  -2.909   1.225  1.00  0.00     0.187 HD
HETATM    8  C7  UNL     1      -0.834  -1.775   0.470  1.00  0.00     0.290 A 
HETATM    9  O3  UNL     1       0.011  -2.698   0.678  1.00  0.00    -0.265 OA
ENDROOT
BRANCH   1  10
HETATM   10  N3  UNL     1       0.884  -0.340  -0.443  1.00  0.00    -0.279 N 
HETATM   11  N2  UNL     1       1.670   0.116   0.429  1.00  0.00    -0.237 N 
ATOM     12  H2  UNL     1       1.312   0.305   1.365  1.00  0.00     0.208 HD
ATOM     13  H3  UNL     1       1.214  -0.539  -1.387  1.00  0.00     0.189 HD
BRANCH  11  14
HETATM   14  N1  UNL     1       3.027   0.373   0.155  1.00  0.00    -0.243 N 
HETATM   15  C1  UNL     1       3.394   1.719  -0.175  1.00  0.00     0.183 C 
HETATM   16  C8  UNL     1       3.924  -0.683   0.218  1.00  0.00     0.332 C 
HETATM   17  O4  UNL     1       3.519  -1.831   0.514  1.00  0.00    -0.260 OA
BRANCH  16  18
HETATM   18  C9  UNL     1       5.330  -0.509  -0.048  1.00  0.00     0.329 C 
HETATM   19  O5  UNL     1       5.744   0.640  -0.345  1.00  0.00    -0.261 OA
HETATM   20  N9  UNL     1       6.264  -1.592   0.015  1.00  0.00    -0.268 N 
ATOM     21  H9  UNL     1       5.919  -2.521   0.258  1.00  0.00     0.190 HD
BRANCH  20  22
HETATM   22  N10 UNL     1       7.617  -1.432  -0.240  1.00  0.00    -0.342 N 
ATOM     23 2H10 UNL     1       7.945  -0.497  -0.481  1.00  0.00     0.176 HD
ATOM     24 1H10 UNL     1       8.283  -2.204  -0.195  1.00  0.00     0.176 HD
ENDBRANCH  20  22
ENDBRANCH  16  18
ENDBRANCH  11  14
ENDBRANCH   1  10
BRANCH   2  25
HETATM   25  C4  UNL     1      -1.059   1.726  -0.899  1.00  0.00     0.308 C 
BRANCH  25  26
HETATM   26  O1  UNL     1      -1.659   2.768  -0.194  1.00  0.00    -0.366 OA
ATOM     27  H1  UNL     1      -1.434   3.608  -0.577  1.00  0.00     0.213 HD
ENDBRANCH  25  26
BRANCH  25  28
HETATM   28  O2  UNL     1      -1.475   1.818  -2.216  1.00  0.00    -0.366 OA
ATOM     29  H2  UNL     1      -1.250   2.658  -2.599  1.00  0.00     0.213 HD
ENDBRANCH  25  28
ENDBRANCH   2  25
BRANCH   5  30
HETATM   30  N5  UNL     1      -4.282  -1.241   0.922  1.00  0.00    -0.173 N 
HETATM   31  C6  UNL     1      -5.288  -0.247   0.717  1.00  0.00     0.494 C 
HETATM   32  N6  UNL     1      -6.584  -0.928   0.894  1.00  0.00    -0.032 N 
HETATM   33  N7  UNL     1      -5.228   0.846   1.673  1.00  0.00    -0.032 N 
ATOM     34  H63 UNL     1      -6.696  -1.747   0.297  1.00  0.00     0.278 HD
ATOM     35  H62 UNL     1      -6.669  -1.412   1.788  1.00  0.00     0.278 HD
ATOM     36  H61 UNL     1      -7.302  -0.219   0.748  1.00  0.00     0.278 HD
ATOM     37  H73 UNL     1      -5.261   0.491   2.629  1.00  0.00     0.278 HD
ATOM     38  H72 UNL     1      -4.300   1.268   1.680  1.00  0.00     0.278 HD
ATOM     39  H71 UNL     1      -5.946   1.555   1.527  1.00  0.00     0.278 HD
ATOM     40  H5  UNL     1      -4.558  -2.132   1.334  1.00  0.00     0.181 HD
ENDBRANCH   5  30
TORSDOF 8
