REMARK  7 active torsions:
REMARK  status: ('A' for Active; 'I' for Inactive)
REMARK    1  A    between atoms: C1_2  and  C2_7 
REMARK    2  A    between atoms: N2_3  and  O1_5 
REMARK       I    between atoms: C2_7  and  N3_9 
REMARK    3  A    between atoms: N3_9  and  N4_11 
REMARK    4  A    between atoms: C4_16  and  N6_17 
REMARK    5  A    between atoms: C5_23  and  C6_24 
REMARK    6  A    between atoms: C7_27  and  N8_28 
REMARK    7  A    between atoms: N8_28  and  N9_30 
ROOT
HETATM    1  N4  UNL     1       0.859   0.416   0.324  1.00  0.00    -0.281 N 
ATOM      2  H4  UNL     1       0.346   1.181   0.762  1.00  0.00     0.188 HD
HETATM    3  C3  UNL     1       0.315  -0.761   0.303  1.00  0.00     0.149 C 
HETATM    4  N5  UNL     1       1.065  -1.802  -0.318  1.00  0.00    -0.330 N 
ATOM      5  H5  UNL     1       2.066  -1.687  -0.475  1.00  0.00     0.165 HD
HETATM    6  C4  UNL     1       0.395  -3.036  -0.729  1.00  0.00     0.388 C 
HETATM    7  N7  UNL     1      -0.682  -3.303   0.172  1.00  0.00    -0.339 N 
ATOM      8  H7  UNL     1      -0.909  -4.276   0.378  1.00  0.00     0.163 HD
HETATM    9  C5  UNL     1      -1.462  -2.274   0.804  1.00  0.00     0.140 C 
HETATM   10  C7  UNL     1      -0.995  -1.018   0.882  1.00  0.00     0.122 C 
ENDROOT
BRANCH   1  11
HETATM   11  N3  UNL     1       2.100   0.682  -0.219  1.00  0.00    -0.262 N 
HETATM   12  C2  UNL     1       3.009   1.514   0.472  1.00  0.00     0.302 C 
HETATM   13  O2  UNL     1       2.683   2.007   1.574  1.00  0.00    -0.263 OA
ATOM     14  H3  UNL     1       2.361   0.278  -1.119  1.00  0.00     0.190 HD
BRANCH  12  15
HETATM   15  C1  UNL     1       4.309   1.771  -0.133  1.00  0.00     0.205 C 
HETATM   16  N1  UNL     1       4.673   1.209  -1.384  1.00  0.00    -0.075 NA
HETATM   17  N2  UNL     1       5.136   2.519   0.480  1.00  0.00    -0.251 N 
ATOM     18  H2  UNL     1       6.039   2.683   0.035  1.00  0.00     0.195 HD
BRANCH  17  19
HETATM   19  O1  UNL     1       4.912   3.116   1.679  1.00  0.00    -0.288 OA
ATOM     20  H1  UNL     1       5.529   3.674   2.137  1.00  0.00     0.244 HD
ENDBRANCH  17  19
ENDBRANCH  12  15
ENDBRANCH   1  11
BRANCH  10  21
HETATM   21  N8  UNL     1      -1.730   0.027   1.496  1.00  0.00    -0.312 N 
ATOM     22  H8  UNL     1      -1.729   0.082   2.515  1.00  0.00     0.181 HD
BRANCH  21  23
HETATM   23  N9  UNL     1      -2.448   0.977   0.792  1.00  0.00    -0.204 NA
HETATM   24  C8  UNL     1      -2.510   0.761  -0.620  1.00  0.00     0.143 A 
HETATM   25  C9  UNL     1      -2.165   2.043  -1.302  1.00  0.00     0.250 A 
HETATM   26  N10 UNL     1      -1.840   2.965  -0.261  1.00  0.00    -0.061 N 
HETATM   27  C10 UNL     1      -2.028   2.323   0.998  1.00  0.00     0.345 A 
ATOM     28 2H10 UNL     1      -0.903   3.354  -0.364  1.00  0.00     0.278 HD
ATOM     29 1H10 UNL     1      -2.364   3.837  -0.336  1.00  0.00     0.278 HD
ENDBRANCH  21  23
ENDBRANCH  10  21
BRANCH   6  30
HETATM   30  N6  UNL     1      -0.029  -2.920  -2.110  1.00  0.00    -0.041 N 
ATOM     31  H63 UNL     1      -0.609  -2.096  -2.267  1.00  0.00     0.279 HD
ATOM     32  H62 UNL     1       0.743  -2.676  -2.731  1.00  0.00     0.279 HD
ATOM     33  H61 UNL     1      -0.496  -3.780  -2.397  1.00  0.00     0.279 HD
ENDBRANCH   6  30
BRANCH   9  34
HETATM   34  C6  UNL     1      -2.755  -2.583   1.363  1.00  0.00     0.229 C 
HETATM   35  O3  UNL     1      -3.432  -1.698   1.911  1.00  0.00    -0.643 OA
HETATM   36  O4  UNL     1      -3.244  -3.864   1.291  1.00  0.00    -0.643 OA
ENDBRANCH   9  34
TORSDOF 7
