REMARK  15 active torsions:
REMARK  status: ('A' for Active; 'I' for Inactive)
REMARK    1  A    between atoms: N1_1  and  C1_4 
REMARK    2  A    between atoms: C4_14  and  S1_15 
REMARK    3  A    between atoms: S1_15  and  C5_16 
REMARK    4  A    between atoms: C5_16  and  C6_17 
REMARK    5  A    between atoms: C5_16  and  O1_22 
REMARK    6  A    between atoms: C6_17  and  N5_18 
REMARK    7  A    between atoms: O1_22  and  N6_23 
REMARK    8  A    between atoms: N7_26  and  C7_27 
REMARK    9  A    between atoms: C7_27  and  O2_28 
REMARK   10  A    between atoms: O2_28  and  C8_29 
REMARK   11  A    between atoms: C8_29  and  C9_30 
REMARK   12  A    between atoms: C8_29  and  C10_32 
REMARK   13  A    between atoms: C10_32  and  O3_33 
REMARK   14  A    between atoms: C10_32  and  C11_35 
REMARK   15  A    between atoms: C11_35  and  O4_36 
ROOT
HETATM    1  C1  UNL     1       0.706   3.149  -2.278  1.00  0.00     0.679 A 
HETATM    2  N2  UNL     1       0.084   4.154  -1.654  1.00  0.00    -0.175 N 
ATOM      3  H2  UNL     1       0.192   5.098  -2.025  1.00  0.00     0.186 HD
HETATM    4  C2  UNL     1      -0.676   3.980  -0.562  1.00  0.00     0.145 A 
HETATM    5  N3  UNL     1      -1.261   4.964   0.011  1.00  0.00    -0.383 N 
ATOM      6  H31 UNL     1      -1.839   4.832   0.841  1.00  0.00     0.157 HD
ATOM      7  H32 UNL     1      -1.174   5.920  -0.334  1.00  0.00     0.157 HD
HETATM    8  C3  UNL     1      -0.794   2.685  -0.095  1.00  0.00     0.124 A 
HETATM    9  N4  UNL     1      -1.458   2.188   0.946  1.00  0.00    -0.330 N 
ATOM     10  H4  UNL     1      -2.027   2.716   1.608  1.00  0.00     0.168 HD
HETATM   11  C4  UNL     1      -1.235   0.829   0.965  1.00  0.00     0.153 A 
HETATM   12  N7  UNL     1      -0.438   0.480  -0.056  1.00  0.00    -0.289 N 
HETATM   13  C12 UNL     1      -0.164   1.621  -0.716  1.00  0.00     0.157 A 
HETATM   14  N8  UNL     1       0.578   1.906  -1.810  1.00  0.00    -0.174 N 
ATOM     15  H8  UNL     1       1.056   1.145  -2.294  1.00  0.00     0.186 HD
ENDROOT
BRANCH  11  16
HETATM   16  S1  UNL     1      -1.969  -0.277   2.178  1.00  0.00    -0.057 SA
BRANCH  16  17
HETATM   17  C5  UNL     1      -3.624  -0.804   1.668  1.00  0.00     0.246 C 
BRANCH  17  18
HETATM   18  C6  UNL     1      -3.630  -1.741   0.505  1.00  0.00     0.275 C 
BRANCH  18  19
HETATM   19  N5  UNL     1      -4.966  -2.020   0.021  1.00  0.00    -0.076 N 
ATOM     20  H53 UNL     1      -5.563  -2.365   0.772  1.00  0.00     0.274 HD
ATOM     21  H52 UNL     1      -5.463  -1.157  -0.201  1.00  0.00     0.274 HD
ATOM     22  H51 UNL     1      -4.970  -2.660  -0.773  1.00  0.00     0.274 HD
ENDBRANCH  18  19
ENDBRANCH  17  18
BRANCH  17  23
HETATM   23  O1  UNL     1      -4.351  -1.402   2.708  1.00  0.00    -0.269 OA
BRANCH  23  24
HETATM   24  N6  UNL     1      -5.500  -0.725   2.975  1.00  0.00    -0.310 N 
ATOM     25  H62 UNL     1      -5.785   0.115   2.471  1.00  0.00     0.184 HD
ATOM     26  H61 UNL     1      -6.029  -1.160   3.731  1.00  0.00     0.184 HD
ENDBRANCH  23  24
ENDBRANCH  17  23
ENDBRANCH  16  17
ENDBRANCH  11  16
BRANCH  12  27
HETATM   27  C7  UNL     1       0.112  -0.878  -0.296  1.00  0.00     0.303 C 
BRANCH  27  28
HETATM   28  O2  UNL     1       1.286  -1.050   0.038  1.00  0.00    -0.363 OA
BRANCH  28  29
HETATM   29  C8  UNL     1       2.477  -1.223   0.380  1.00  0.00     0.164 C 
BRANCH  29  30
HETATM   30  C9  UNL     1       2.713  -2.527   1.237  1.00  0.00     0.120 C 
HETATM   31 BR1  UNL     1       1.640  -2.341   2.837  1.00  0.00    -0.094 Br
ENDBRANCH  29  30
BRANCH  29  32
HETATM   32  C10 UNL     1       3.548  -1.108  -0.675  1.00  0.00     0.171 C 
BRANCH  32  33
HETATM   33  O3  UNL     1       3.360  -2.065  -1.684  1.00  0.00    -0.391 OA
ATOM     34  H3  UNL     1       4.035  -1.993  -2.349  1.00  0.00     0.210 HD
ENDBRANCH  32  33
BRANCH  32  35
HETATM   35  C11 UNL     1       4.936  -1.212  -0.141  1.00  0.00     0.198 C 
BRANCH  35  36
HETATM   36  O4  UNL     1       5.875  -0.974  -1.171  1.00  0.00    -0.398 OA
ATOM     37  H4  UNL     1       6.759  -1.040  -0.831  1.00  0.00     0.209 HD
ENDBRANCH  35  36
ENDBRANCH  32  35
ENDBRANCH  29  32
ENDBRANCH  28  29
ENDBRANCH  27  28
ENDBRANCH  12  27
BRANCH   1  38
HETATM   38  N1  UNL     1       1.423   3.392  -3.331  1.00  0.00    -0.234 N 
ATOM     39  H12 UNL     1       1.521   4.342  -3.689  1.00  0.00     0.174 HD
ATOM     40  H11 UNL     1       1.898   2.625  -3.807  1.00  0.00     0.174 HD
ENDBRANCH   1  38
TORSDOF 15
