REMARK  14 active torsions:
REMARK  status: ('A' for Active; 'I' for Inactive)
REMARK    1  A    between atoms: C2_2  and  C3_3 
REMARK    2  A    between atoms: C3_3  and  C4_4 
REMARK    3  A    between atoms: C4_4  and  N1_5 
REMARK    4  A    between atoms: C4_4  and  C22_32 
REMARK    5  A    between atoms: N1_5  and  C5_7 
REMARK    6  A    between atoms: C5_7  and  C7_9 
REMARK    7  A    between atoms: C5_7  and  C9_11 
REMARK    8  A    between atoms: C9_11  and  O1_12 
REMARK       I    between atoms: N2_14  and  C10_16 
REMARK    9  A    between atoms: C10_16  and  C11_18 
REMARK       I    between atoms: N3_22  and  C15_23 
REMARK   10  A    between atoms: C15_23  and  C16_25 
REMARK   11  A    between atoms: C16_25  and  C17_27 
REMARK   12  A    between atoms: C17_27  and  C18_28 
REMARK   13  A    between atoms: C18_28  and  C20_30 
REMARK   14  A    between atoms: C22_32  and  C23_34 
REMARK       I    between atoms: C23_34  and  N5_36 
ROOT
HETATM    1  C9  UNL     1      -1.133  -0.199   0.842  1.00  0.00     0.146 C 
HETATM    2  N2  UNL     1       0.106   0.108   1.322  1.00  0.00    -0.307 N 
ATOM      3  H2  UNL     1       0.062   0.764   2.102  1.00  0.00     0.170 HD
HETATM    4  C10 UNL     1       1.429  -0.252   1.012  1.00  0.00     0.246 C 
HETATM    5  O2  UNL     1       1.786  -0.991   0.100  1.00  0.00    -0.271 OA
ENDROOT
BRANCH   1   6
HETATM    6  C5  UNL     1      -1.765  -0.985  -0.236  1.00  0.00     0.088 C 
HETATM    7  C6  UNL     1      -1.052  -2.355  -0.292  1.00  0.00     0.047 C 
BRANCH   6   8
HETATM    8  N1  UNL     1      -3.091  -1.283   0.041  1.00  0.00    -0.395 N 
ATOM      9  H1  UNL     1      -3.155  -1.962   0.799  1.00  0.00     0.155 HD
BRANCH   8  10
HETATM   10  C4  UNL     1      -4.324  -0.940  -0.396  1.00  0.00     0.158 C 
BRANCH  10  11
HETATM   11  C3  UNL     1      -5.357  -1.826   0.318  1.00  0.00     0.033 C 
BRANCH  11  12
HETATM   12  C2  UNL     1      -5.121  -3.307   0.027  1.00  0.00    -0.002 C 
HETATM   13  C1  UNL     1      -6.186  -4.047   0.815  1.00  0.00     0.005 C 
ENDBRANCH  11  12
ENDBRANCH  10  11
BRANCH  10  14
HETATM   14  C22 UNL     1      -4.823   0.432  -0.418  1.00  0.00     0.238 C 
HETATM   15  O4  UNL     1      -4.124   1.348  -0.997  1.00  0.00    -0.285 OA
BRANCH  14  16
HETATM   16  C23 UNL     1      -6.052   0.985   0.129  1.00  0.00     0.291 C 
HETATM   17  O5  UNL     1      -6.695   0.252   0.961  1.00  0.00    -0.264 OA
HETATM   18  N5  UNL     1      -6.595   2.253  -0.180  1.00  0.00    -0.345 N 
HETATM   19  C24 UNL     1      -7.778   2.788   0.503  1.00  0.00     0.126 C 
HETATM   20  C27 UNL     1      -6.215   3.204  -1.173  1.00  0.00     0.126 C 
HETATM   21  C25 UNL     1      -8.483   3.508  -0.632  1.00  0.00     0.021 C 
HETATM   22  C26 UNL     1      -7.292   4.276  -1.204  1.00  0.00     0.021 C 
ENDBRANCH  14  16
ENDBRANCH  10  14
ENDBRANCH   8  10
ENDBRANCH   6   8
BRANCH   6  23
HETATM   23  C7  UNL     1      -1.405  -0.345  -1.535  1.00  0.00     0.034 C 
HETATM   24  C8  UNL     1      -1.803  -1.182  -2.748  1.00  0.00     0.008 C 
ENDBRANCH   6  23
ENDBRANCH   1   6
BRANCH   1  25
HETATM   25  O1  UNL     1      -2.097   0.405   1.601  1.00  0.00    -0.347 OA
ATOM     26  H1  UNL     1      -1.690   0.911   2.295  1.00  0.00     0.219 HD
ENDBRANCH   1  25
BRANCH   4  27
HETATM   27  C11 UNL     1       2.558   0.300   1.861  1.00  0.00     0.180 C 
HETATM   28  C12 UNL     1       2.346  -0.239   3.253  1.00  0.00     0.037 C 
HETATM   29  C13 UNL     1       2.908  -1.664   3.052  1.00  0.00     0.022 C 
HETATM   30  C14 UNL     1       4.044  -1.486   2.091  1.00  0.00     0.127 C 
HETATM   31  N3  UNL     1       3.848  -0.185   1.499  1.00  0.00    -0.334 N 
HETATM   32  C15 UNL     1       4.761   0.570   0.714  1.00  0.00     0.264 C 
HETATM   33  O3  UNL     1       4.420   1.711   0.320  1.00  0.00    -0.267 OA
BRANCH  32  34
HETATM   34  C16 UNL     1       6.123   0.107   0.309  1.00  0.00     0.092 C 
HETATM   35  N4  UNL     1       6.319  -1.277   0.257  1.00  0.00    -0.101 NA
BRANCH  34  36
HETATM   36  C17 UNL     1       6.653   0.973  -0.770  1.00  0.00     0.064 C 
BRANCH  36  37
HETATM   37  C18 UNL     1       8.006   0.644  -1.290  1.00  0.00    -0.014 C 
HETATM   38  C19 UNL     1       8.021  -0.724  -1.921  1.00  0.00     0.010 C 
BRANCH  37  39
HETATM   39  C20 UNL     1       8.530   1.652  -2.289  1.00  0.00    -0.000 C 
HETATM   40  C21 UNL     1       8.619   3.025  -1.633  1.00  0.00     0.005 C 
ENDBRANCH  37  39
ENDBRANCH  36  37
ENDBRANCH  34  36
ENDBRANCH  32  34
ENDBRANCH   4  27
TORSDOF 14
