REMARK  6 active torsions:
REMARK  status: ('A' for Active; 'I' for Inactive)
REMARK    1  A    between atoms: O1_2  and  C2_3 
REMARK    2  A    between atoms: C4_5  and  N1_6 
REMARK    3  A    between atoms: C5_8  and  C6_9 
REMARK    4  A    between atoms: C7_10  and  O2_11 
REMARK    5  A    between atoms: C12_18  and  O3_19 
REMARK    6  A    between atoms: C18_28  and  O6_29 
ROOT
HETATM    1  C6  UNL     1      -2.179  -0.070   0.117  1.00  0.00     0.089 A 
HETATM    2  C7  UNL     1      -3.126   0.927  -0.121  1.00  0.00     0.096 A 
HETATM    3  C8  UNL     1      -4.434   0.629   0.161  1.00  0.00     0.038 A 
HETATM    4  C9  UNL     1      -5.462   1.553  -0.040  1.00  0.00     0.059 A 
HETATM    5  C10 UNL     1      -6.773   1.234   0.251  1.00  0.00     0.120 A 
HETATM    6  F1  UNL     1      -7.757   2.137   0.052  1.00  0.00    -0.206 F 
HETATM    7  C11 UNL     1      -7.117  -0.019   0.755  1.00  0.00     0.081 A 
HETATM    8  C12 UNL     1      -6.096  -0.924   0.950  1.00  0.00     0.103 A 
HETATM    9  C13 UNL     1      -4.783  -0.618   0.664  1.00  0.00     0.125 A 
HETATM   10  O4  UNL     1      -3.834  -1.501   0.860  1.00  0.00    -0.271 OA
HETATM   11  C14 UNL     1      -2.585  -1.292   0.618  1.00  0.00     0.302 A 
HETATM   12  O5  UNL     1      -1.721  -2.210   0.839  1.00  0.00    -0.259 OA
ENDROOT
BRANCH   1  13
HETATM   13  C5  UNL     1      -0.770   0.176  -0.160  1.00  0.00     0.108 C 
HETATM   14  N1  UNL     1       0.072  -0.744   0.065  1.00  0.00    -0.365 N 
ATOM     15  H1  UNL     1      -0.281  -1.626   0.436  1.00  0.00     0.165 HD
BRANCH  14  16
HETATM   16  C4  UNL     1       1.467  -0.638  -0.160  1.00  0.00     0.035 A 
HETATM   17  C3  UNL     1       2.341  -0.084   0.744  1.00  0.00     0.069 A 
HETATM   18  C2  UNL     1       3.692  -0.010   0.466  1.00  0.00     0.104 A 
HETATM   19  C18 UNL     1       4.230  -0.480  -0.715  1.00  0.00     0.107 A 
HETATM   20  C16 UNL     1       3.353  -1.036  -1.623  1.00  0.00    -0.024 A 
HETATM   21  C15 UNL     1       1.993  -1.111  -1.344  1.00  0.00     0.039 A 
HETATM   22  C17 UNL     1       3.910  -1.553  -2.913  1.00  0.00     0.051 C 
BRANCH  18  23
HETATM   23  O1  UNL     1       4.590   0.551   1.378  1.00  0.00    -0.353 OA
HETATM   24  C1  UNL     1       4.080   1.045   2.603  1.00  0.00     0.210 C 
ENDBRANCH  18  23
BRANCH  19  25
HETATM   25  O6  UNL     1       5.596  -0.389  -0.962  1.00  0.00    -0.353 OA
HETATM   26  C19 UNL     1       6.057   0.791  -1.607  1.00  0.00     0.210 C 
ENDBRANCH  19  25
ENDBRANCH  14  16
ENDBRANCH   1  13
BRANCH   2  27
HETATM   27  O2  UNL     1      -2.786   2.163  -0.619  1.00  0.00    -0.359 OA
ATOM     28  H2  UNL     1      -3.431   2.842  -0.781  1.00  0.00     0.217 HD
ENDBRANCH   2  27
BRANCH   8  29
HETATM   29  O3  UNL     1      -6.432  -2.173   1.451  1.00  0.00    -0.358 OA
ATOM     30  H3  UNL     1      -5.728  -2.797   1.585  1.00  0.00     0.217 HD
ENDBRANCH   8  29
TORSDOF 6
