REMARK  8 active torsions:
REMARK  status: ('A' for Active; 'I' for Inactive)
REMARK    1  A    between atoms: C2_2  and  C3_3 
REMARK    2  A    between atoms: C3_3  and  C4_4 
REMARK    3  A    between atoms: C4_4  and  C5_5 
REMARK    4  A    between atoms: C5_5  and  O1_6 
REMARK    5  A    between atoms: O1_6  and  N1_7 
REMARK    6  A    between atoms: C8_12  and  C9_13 
REMARK    7  A    between atoms: N2_15  and  N3_16 
REMARK    8  A    between atoms: C12_22  and  N4_23 
ROOT
HETATM    1  N1  UNL     1      -0.309  -1.577  -0.101  1.00  0.00    -0.192 N 
HETATM    2  C6  UNL     1      -0.816  -2.366  -1.166  1.00  0.00     0.254 C 
HETATM    3  O2  UNL     1      -0.191  -2.431  -2.275  1.00  0.00    -0.270 OA
HETATM    4  C7  UNL     1      -2.068  -3.160  -1.097  1.00  0.00     0.179 C 
HETATM    5  S1  UNL     1      -2.901  -2.738   0.454  1.00  0.00    -0.146 SA
HETATM    6  C8  UNL     1      -2.505  -1.050   0.918  1.00  0.00     0.141 C 
HETATM    7  C12 UNL     1      -1.055  -0.710   0.750  1.00  0.00     0.332 C 
ENDROOT
BRANCH   6   8
HETATM    8  C9  UNL     1      -3.300  -0.101   0.060  1.00  0.00     0.021 A 
HETATM    9  C10 UNL     1      -4.150   0.879   0.496  1.00  0.00     0.133 A 
HETATM   10  N2  UNL     1      -4.761   1.604  -0.420  1.00  0.00    -0.256 N 
HETATM   11  C11 UNL     1      -4.511   1.335  -1.701  1.00  0.00     0.163 A 
HETATM   12  S2  UNL     1      -5.154   2.104  -3.026  1.00  0.00    -0.050 SA
HETATM   13  S3  UNL     1      -3.403   0.048  -1.632  1.00  0.00    -0.061 SA
BRANCH  10  14
HETATM   14  N3  UNL     1      -5.672   2.658  -0.052  1.00  0.00    -0.337 N 
ATOM     15  H32 UNL     1      -5.863   2.864   0.929  1.00  0.00     0.177 HD
ATOM     16  H31 UNL     1      -6.145   3.219  -0.761  1.00  0.00     0.177 HD
ENDBRANCH  10  14
ENDBRANCH   6   8
BRANCH   7  17
HETATM   17  N4  UNL     1      -0.430  -0.762   2.084  1.00  0.00    -0.054 N 
ATOM     18  H43 UNL     1      -0.351  -1.710   2.451  1.00  0.00     0.276 HD
ATOM     19  H42 UNL     1       0.566  -0.544   2.067  1.00  0.00     0.276 HD
ATOM     20  H41 UNL     1      -0.964  -0.142   2.693  1.00  0.00     0.276 HD
ENDBRANCH   7  17
BRANCH   1  21
HETATM   21  O1  UNL     1       1.037  -1.667   0.120  1.00  0.00    -0.273 OA
BRANCH  21  22
HETATM   22  C5  UNL     1       1.666  -0.444  -0.099  1.00  0.00     0.201 C 
BRANCH  22  23
HETATM   23  C4  UNL     1       3.157  -0.555   0.161  1.00  0.00     0.029 C 
BRANCH  23  24
HETATM   24  C3  UNL     1       3.859   0.761  -0.057  1.00  0.00     0.002 C 
BRANCH  24  25
HETATM   25  C2  UNL     1       5.344   0.637   0.208  1.00  0.00    -0.004 C 
HETATM   26  C1  UNL     1       5.957   2.014  -0.032  1.00  0.00     0.005 C 
ENDBRANCH  24  25
ENDBRANCH  23  24
ENDBRANCH  22  23
ENDBRANCH  21  22
ENDBRANCH   1  21
TORSDOF 8
