REMARK  10 active torsions:
REMARK  status: ('A' for Active; 'I' for Inactive)
REMARK    1  A    between atoms: C3_5  and  O1_6 
REMARK    2  A    between atoms: O1_6  and  C4_7 
REMARK    3  A    between atoms: C4_7  and  C5_8 
REMARK    4  A    between atoms: C7_10  and  C8_11 
REMARK    5  A    between atoms: C8_11  and  N2_12 
REMARK    6  A    between atoms: C10_17  and  C11_18 
REMARK    7  A    between atoms: C14_21  and  C15_22 
REMARK    8  A    between atoms: C15_22  and  N4_23 
REMARK    9  A    between atoms: C19_30  and  N5_31 
REMARK   10  A    between atoms: C22_38  and  C23_39 
ROOT
HETATM    1  C5  UNL     1       2.193  -0.472  -1.007  1.00  0.00    -0.020 A 
HETATM    2  C6  UNL     1       1.163  -0.892  -0.193  1.00  0.00     0.023 A 
HETATM    3  C7  UNL     1      -0.092  -0.229  -0.153  1.00  0.00    -0.020 A 
HETATM    4  C20 UNL     1      -0.175   0.855  -0.982  1.00  0.00     0.014 A 
HETATM    5  C21 UNL     1       0.843   1.270  -1.787  1.00  0.00     0.016 A 
HETATM    6  C22 UNL     1       2.094   0.620  -1.846  1.00  0.00     0.013 A 
ENDROOT
BRANCH   3   7
HETATM    7  C8  UNL     1      -1.137  -0.769   0.675  1.00  0.00     0.107 C 
BRANCH   7   8
HETATM    8  N2  UNL     1      -2.497  -0.349   0.523  1.00  0.00    -0.310 N 
HETATM    9  C9  UNL     1      -3.271  -0.584  -0.655  1.00  0.00     0.176 C 
HETATM   10  S1  UNL     1      -2.564  -1.109  -2.012  1.00  0.00    -0.041 SA
HETATM   11  N3  UNL     1      -4.704  -0.358  -0.580  1.00  0.00    -0.358 N 
HETATM   12  C10 UNL     1      -5.337  -0.736   0.662  1.00  0.00     0.120 C 
ATOM     13  H3  UNL     1      -5.231   0.043  -1.356  1.00  0.00     0.162 HD
HETATM   14  C18 UNL     1      -4.568  -0.380   1.886  1.00  0.00     0.078 C 
HETATM   15  C19 UNL     1      -3.216   0.283   1.602  1.00  0.00     0.208 C 
BRANCH  12  16
HETATM   16  C11 UNL     1      -6.783  -0.440   0.653  1.00  0.00    -0.035 A 
HETATM   17  C12 UNL     1      -7.495   0.202   1.624  1.00  0.00     0.010 A 
HETATM   18  C13 UNL     1      -8.873   0.326   1.545  1.00  0.00     0.009 A 
HETATM   19  C14 UNL     1      -9.619  -0.183   0.494  1.00  0.00    -0.033 A 
HETATM   20  C16 UNL     1      -8.905  -0.824  -0.490  1.00  0.00     0.009 A 
HETATM   21  C17 UNL     1      -7.540  -0.948  -0.414  1.00  0.00     0.010 A 
BRANCH  19  22
HETATM   22  C15 UNL     1     -11.090  -0.139   0.430  1.00  0.00     0.268 C 
BRANCH  22  23
HETATM   23  N4  UNL     1     -11.570   0.805  -0.537  1.00  0.00    -0.075 N 
ATOM     24  H43 UNL     1     -11.182   1.733  -0.368  1.00  0.00     0.274 HD
ATOM     25  H42 UNL     1     -11.168   0.625  -1.457  1.00  0.00     0.274 HD
ATOM     26  H41 UNL     1     -12.589   0.835  -0.581  1.00  0.00     0.274 HD
ENDBRANCH  22  23
ENDBRANCH  19  22
ENDBRANCH  12  16
BRANCH  15  27
HETATM   27  N5  UNL     1      -3.461   1.657   1.499  1.00  0.00    -0.319 N 
HETATM   28  N6  UNL     1      -3.035   2.520   0.757  1.00  0.00    -0.348 N 
ATOM     29  H62 UNL     1      -2.366   2.152   0.080  1.00  0.00     0.176 HD
ATOM     30  H61 UNL     1      -3.214   3.521   0.682  1.00  0.00     0.176 HD
ATOM     31  H5  UNL     1      -4.132   2.004   2.184  1.00  0.00     0.182 HD
ENDBRANCH  15  27
ENDBRANCH   7   8
ENDBRANCH   3   7
BRANCH   1  32
HETATM   32  C4  UNL     1       3.495  -1.272  -1.055  1.00  0.00     0.217 C 
BRANCH  32  33
HETATM   33  O1  UNL     1       4.514  -0.530  -0.505  1.00  0.00    -0.330 OA
BRANCH  33  34
HETATM   34  C3  UNL     1       5.832  -0.812  -0.283  1.00  0.00     0.156 A 
HETATM   35  N1  UNL     1       6.410  -2.026  -0.524  1.00  0.00    -0.326 N 
HETATM   36  C2  UNL     1       7.729  -2.197  -0.264  1.00  0.00     0.079 A 
ATOM     37  H1  UNL     1       5.854  -2.796  -0.896  1.00  0.00     0.169 HD
HETATM   38  C1  UNL     1       8.372  -3.527  -0.502  1.00  0.00     0.089 C 
HETATM   39  N9  UNL     1       8.503  -1.218   0.222  1.00  0.00    -0.345 N 
HETATM   40  C30 UNL     1       8.005   0.005   0.485  1.00  0.00     0.054 A 
ATOM     41  H9  UNL     1       9.491  -1.403   0.397  1.00  0.00     0.167 HD
HETATM   42  C24 UNL     1       6.654   0.186   0.222  1.00  0.00     0.042 A 
HETATM   43  C28 UNL     1       8.823   1.018   0.921  1.00  0.00    -0.034 A 
HETATM   44  C25 UNL     1       6.178   1.455   0.430  1.00  0.00     0.018 A 
HETATM   45  C26 UNL     1       6.956   2.497   0.859  1.00  0.00     0.002 A 
HETATM   46  C27 UNL     1       8.316   2.287   1.117  1.00  0.00     0.009 A 
HETATM   47  C29 UNL     1      10.273   0.801   1.186  1.00  0.00     0.050 C 
ENDBRANCH  33  34
ENDBRANCH  32  33
ENDBRANCH   1  32
BRANCH   6  48
HETATM   48  C23 UNL     1       3.059   1.069  -2.824  1.00  0.00     0.120 C 
HETATM   49  N7  UNL     1       4.057   0.471  -3.284  1.00  0.00    -0.387 N 
ATOM     50  H72 UNL     1       4.120  -0.504  -2.991  1.00  0.00     0.157 HD
ATOM     51  H71 UNL     1       4.738   0.788  -3.974  1.00  0.00     0.157 HD
HETATM   52  N8  UNL     1       2.969   2.453  -3.240  1.00  0.00    -0.082 NA
ENDBRANCH   6  48
TORSDOF 10
