REMARK  12 active torsions:
REMARK  status: ('A' for Active; 'I' for Inactive)
REMARK       I    between atoms: N2_4  and  C3_6 
REMARK    1  A    between atoms: N4_8  and  C4_10 
REMARK    2  A    between atoms: C4_10  and  C5_11 
REMARK    3  A    between atoms: C5_11  and  C6_12 
REMARK    4  A    between atoms: C6_12  and  O1_13 
REMARK    5  A    between atoms: O1_13  and  C7_14 
REMARK    6  A    between atoms: C11_18  and  N5_19 
REMARK    7  A    between atoms: N5_19  and  C12_20 
REMARK    8  A    between atoms: C12_20  and  C13_21 
REMARK    9  A    between atoms: C13_21  and  N6_22 
REMARK   10  A    between atoms: N6_22  and  C14_23 
REMARK   11  A    between atoms: C20_31  and  O2_32 
REMARK   12  A    between atoms: C27_40  and  C28_41 
ROOT
HETATM    1  C7  UNL     1       1.979   1.534   1.140  1.00  0.00     0.070 A 
HETATM    2  C8  UNL     1       0.771   2.236   0.864  1.00  0.00     0.038 A 
HETATM    3  C9  UNL     1      -0.287   1.618   0.291  1.00  0.00     0.020 A 
HETATM    4  C10 UNL     1      -0.270   0.270  -0.064  1.00  0.00     0.032 A 
HETATM    5  C11 UNL     1      -1.399  -0.317  -0.658  1.00  0.00     0.125 A 
HETATM    6  C23 UNL     1      -1.306  -1.674  -0.990  1.00  0.00     0.032 A 
HETATM    7  C24 UNL     1      -2.362  -2.349  -1.571  1.00  0.00     0.017 A 
HETATM    8  C25 UNL     1      -2.254  -3.689  -1.884  1.00  0.00     0.002 A 
HETATM    9  C26 UNL     1      -1.064  -4.332  -1.601  1.00  0.00     0.010 A 
HETATM   10  C27 UNL     1      -0.001  -3.704  -1.030  1.00  0.00    -0.026 A 
HETATM   11  C31 UNL     1      -0.131  -2.340  -0.718  1.00  0.00     0.053 A 
HETATM   12  N8  UNL     1       0.906  -1.713  -0.148  1.00  0.00    -0.354 N 
ATOM     13  H8  UNL     1       1.755  -2.247   0.035  1.00  0.00     0.166 HD
HETATM   14  C32 UNL     1       0.881  -0.394   0.200  1.00  0.00     0.049 A 
HETATM   15  C33 UNL     1       1.982   0.204   0.785  1.00  0.00     0.067 A 
ENDROOT
BRANCH   5  16
HETATM   16  N5  UNL     1      -2.391   0.341  -0.861  1.00  0.00    -0.440 NA
BRANCH  16  17
HETATM   17  C12 UNL     1      -3.609   0.760  -1.215  1.00  0.00     0.277 C 
BRANCH  17  18
HETATM   18  C13 UNL     1      -4.688   0.437  -0.165  1.00  0.00     0.188 C 
BRANCH  18  19
HETATM   19  N6  UNL     1      -5.930   0.816  -0.453  1.00  0.00    -0.418 NA
BRANCH  19  20
HETATM   20  C14 UNL     1      -7.038   1.156  -0.707  1.00  0.00     0.120 A 
HETATM   21  C15 UNL     1      -7.645   0.798  -1.905  1.00  0.00     0.062 A 
HETATM   22  C16 UNL     1      -8.907   1.190  -2.189  1.00  0.00     0.091 A 
HETATM   23  N7  UNL     1      -9.607   1.926  -1.341  1.00  0.00    -0.365 N 
HETATM   24  C17 UNL     1      -9.077   2.312  -0.151  1.00  0.00     0.045 A 
ATOM     25  H7  UNL     1     -10.557   2.207  -1.584  1.00  0.00     0.165 HD
HETATM   26  C18 UNL     1      -9.811   3.080   0.727  1.00  0.00     0.033 A 
HETATM   27  C22 UNL     1      -7.790   1.929   0.170  1.00  0.00     0.034 A 
HETATM   28  C19 UNL     1      -9.294   3.481   1.929  1.00  0.00     0.039 A 
HETATM   29  C20 UNL     1      -8.015   3.106   2.260  1.00  0.00     0.066 A 
HETATM   30  C21 UNL     1      -7.253   2.331   1.392  1.00  0.00     0.053 A 
BRANCH  29  31
HETATM   31  O2  UNL     1      -7.460   3.489   3.458  1.00  0.00    -0.361 OA
ATOM     32  H2  UNL     1      -6.575   3.230   3.687  1.00  0.00     0.217 HD
ENDBRANCH  29  31
ENDBRANCH  19  20
ENDBRANCH  18  19
ENDBRANCH  17  18
ENDBRANCH  16  17
ENDBRANCH   5  16
BRANCH  10  33
HETATM   33  C28 UNL     1       1.297  -4.343  -0.741  1.00  0.00     0.021 A 
HETATM   34  C29 UNL     1       1.365  -5.834  -0.803  1.00  0.00     0.010 A 
HETATM   35  C30 UNL     1       1.399  -5.163   0.539  1.00  0.00     0.010 A 
ENDBRANCH  10  33
BRANCH   1  36
HETATM   36  O1  UNL     1       2.988   2.195   1.710  1.00  0.00    -0.351 OA
BRANCH  36  37
HETATM   37  C6  UNL     1       4.212   2.124   2.142  1.00  0.00     0.177 C 
BRANCH  37  38
HETATM   38  C5  UNL     1       5.414   1.890   1.305  1.00  0.00     0.046 C 
BRANCH  38  39
HETATM   39  C4  UNL     1       5.546   0.661   0.517  1.00  0.00     0.124 C 
BRANCH  39  40
HETATM   40  N4  UNL     1       6.854   0.721  -0.162  1.00  0.00    -0.364 N 
HETATM   41  C3  UNL     1       7.698  -0.246  -0.057  1.00  0.00     0.189 C 
HETATM   42  N2  UNL     1       8.969  -0.248  -0.684  1.00  0.00    -0.323 N 
HETATM   43  N3  UNL     1       7.329  -1.369   0.732  1.00  0.00    -0.064 NA
HETATM   44  C2  UNL     1       9.904   0.599  -0.483  1.00  0.00     0.091 C 
ATOM     45  H2  UNL     1       9.154  -0.993  -1.356  1.00  0.00     0.169 HD
HETATM   46  C1  UNL     1      11.173   0.399  -1.265  1.00  0.00     0.085 C 
HETATM   47  N1  UNL     1       9.863   1.695   0.392  1.00  0.00    -0.088 NA
ATOM     48  H4  UNL     1       7.093   1.539  -0.722  1.00  0.00     0.162 HD
ENDBRANCH  39  40
ENDBRANCH  38  39
ENDBRANCH  37  38
ENDBRANCH  36  37
ENDBRANCH   1  36
TORSDOF 12
