REMARK  2 active torsions:
REMARK  status: ('A' for Active; 'I' for Inactive)
REMARK    1  A    between atoms: N1_5  and  N2_7 
REMARK       I    between atoms: N2_7  and  C5_9 
REMARK    2  A    between atoms: C5_9  and  C6_11 
REMARK       I    between atoms: N3_18  and  C12_19 
ROOT
HETATM    1  C1  UNL     1       3.160  -2.390  -0.450  1.00  0.00     0.019 C 
HETATM    2  C2  UNL     1       3.491  -1.278  -0.114  1.00  0.00    -0.063 C 
HETATM    3  C3  UNL     1       3.908   0.039   0.276  1.00  0.00     0.074 C 
HETATM    4  C4  UNL     1       5.041   0.191   1.248  1.00  0.00     0.080 C 
HETATM    5  N1  UNL     1       3.346   1.105  -0.178  1.00  0.00    -0.294 N 
ATOM      6  H1  UNL     1       3.660   2.031   0.113  1.00  0.00     0.187 HD
ENDROOT
BRANCH   5   7
HETATM    7  N2  UNL     1       2.284   0.952  -1.089  1.00  0.00    -0.268 N 
HETATM    8  C5  UNL     1       0.955   0.724  -0.667  1.00  0.00     0.261 C 
HETATM    9  O1  UNL     1       0.738   0.659   0.569  1.00  0.00    -0.269 OA
ATOM     10  H2  UNL     1       2.481   1.008  -2.088  1.00  0.00     0.190 HD
BRANCH   8  11
HETATM   11  C6  UNL     1      -0.098   0.575  -1.709  1.00  0.00     0.206 C 
HETATM   12  C7  UNL     1       0.035   1.757  -2.611  1.00  0.00     0.112 C 
HETATM   13  S1  UNL     1      -1.318   2.814  -1.951  1.00  0.00    -0.140 SA
HETATM   14  C8  UNL     1      -2.283   1.418  -1.280  1.00  0.00     0.166 C 
HETATM   15  C9  UNL     1      -2.484   1.722   0.212  1.00  0.00     0.064 C 
HETATM   16  N4  UNL     1      -1.366   0.348  -1.250  1.00  0.00    -0.294 N 
HETATM   17  C10 UNL     1      -2.333   0.333   0.809  1.00  0.00     0.110 C 
HETATM   18  C11 UNL     1      -3.745  -0.247   0.919  1.00  0.00     0.034 C 
HETATM   19  N3  UNL     1      -1.571  -0.427  -0.155  1.00  0.00    -0.257 N 
HETATM   20  C12 UNL     1      -1.139  -1.751   0.056  1.00  0.00     0.234 C 
HETATM   21  C13 UNL     1      -1.430  -2.512   1.316  1.00  0.00     0.119 C 
HETATM   22  O2  UNL     1      -0.472  -2.385  -0.814  1.00  0.00    -0.272 OA
ENDBRANCH   8  11
ENDBRANCH   5   7
TORSDOF 2
