REMARK  1 active torsions:
REMARK  status: ('A' for Active; 'I' for Inactive)
REMARK    1  A    between atoms: O1_1  and  C1_3 
ROOT
HETATM    1  C1  UNL     1       1.790  -1.118  -0.121  1.00  0.00     0.150 C 
HETATM    2  C2  UNL     1       0.639  -1.346  -1.058  1.00  0.00     0.305 C 
HETATM    3  N1  UNL     1      -0.176  -0.133  -1.187  1.00  0.00     0.102 N 
HETATM    4  C3  UNL     1       0.689   0.908  -1.634  1.00  0.00     0.274 C 
HETATM    5  C4  UNL     1       1.768   1.265  -0.616  1.00  0.00     0.037 C 
HETATM    6  C5  UNL     1       1.678   0.257   0.494  1.00  0.00     0.020 C 
HETATM    7  C6  UNL     1       0.295   0.384   1.112  1.00  0.00     0.051 C 
HETATM    8  C7  UNL     1      -0.793   0.179   0.071  1.00  0.00     0.183 C 
HETATM    9  C8  UNL     1      -1.686  -0.916   0.559  1.00  0.00     0.070 C 
HETATM   10  C9  UNL     1      -3.008  -0.180   0.804  1.00  0.00     0.170 C 
HETATM   11  O2  UNL     1      -2.973   0.760  -0.229  1.00  0.00    -0.388 OA
HETATM   12  C10 UNL     1      -1.705   1.349  -0.052  1.00  0.00     0.209 C 
ENDROOT
BRANCH   1  13
HETATM   13  O1  UNL     1       1.773  -2.063   0.917  1.00  0.00    -0.393 OA
ATOM     14  H1  UNL     1       2.501  -1.919   1.510  1.00  0.00     0.210 HD
ENDBRANCH   1  13
TORSDOF 1
