REMARK  14 active torsions:
REMARK  status: ('A' for Active; 'I' for Inactive)
REMARK    1  A    between atoms: C2_2  and  C3_3 
REMARK    2  A    between atoms: C3_3  and  N1_4 
REMARK       I    between atoms: N1_4  and  C4_6 
REMARK    3  A    between atoms: C4_6  and  C5_8 
REMARK    4  A    between atoms: C6_9  and  C7_10 
REMARK       I    between atoms: N2_15  and  C11_16 
REMARK    5  A    between atoms: C11_16  and  C12_18 
REMARK    6  A    between atoms: C12_18  and  C13_19 
REMARK    7  A    between atoms: C12_18  and  N3_23 
REMARK    8  A    between atoms: C13_19  and  C14_20 
REMARK       I    between atoms: N3_23  and  C17_25 
REMARK    9  A    between atoms: C17_25  and  C18_27 
REMARK   10  A    between atoms: C18_27  and  N4_28 
REMARK       I    between atoms: N4_28  and  C19_30 
REMARK   11  A    between atoms: C19_30  and  C20_32 
REMARK   12  A    between atoms: C20_32  and  C21_33 
REMARK   13  A    between atoms: C29_41  and  C30_42 
REMARK       I    between atoms: C30_42  and  N5_44 
REMARK   14  A    between atoms: N5_44  and  C31_46 
ROOT
HETATM    1  N3  UNL     1       0.041   1.451  -1.043  1.00  0.00    -0.346 N 
ATOM      2  H3  UNL     1      -0.690   1.909  -1.588  1.00  0.00     0.163 HD
HETATM    3  C17 UNL     1      -0.323   0.329  -0.270  1.00  0.00     0.246 C 
HETATM    4  O4  UNL     1       0.594  -0.254   0.357  1.00  0.00    -0.271 OA
ENDROOT
BRANCH   3   5
HETATM    5  C18 UNL     1      -1.700  -0.192  -0.152  1.00  0.00     0.114 C 
HETATM    6  C27 UNL     1      -2.423   0.623   0.964  1.00  0.00     0.042 C 
HETATM    7  C28 UNL     1      -2.773   1.999   0.501  1.00  0.00     0.017 C 
HETATM    8  C29 UNL     1      -3.702   1.939  -0.710  1.00  0.00     0.078 C 
HETATM    9  C35 UNL     1      -3.779   0.560  -1.259  1.00  0.00     0.017 C 
HETATM   10  C36 UNL     1      -2.407  -0.029  -1.454  1.00  0.00     0.042 C 
BRANCH   5  11
HETATM   11  N4  UNL     1      -1.804  -1.548   0.305  1.00  0.00    -0.343 N 
HETATM   12  C19 UNL     1      -1.375  -2.146   1.485  1.00  0.00     0.218 C 
HETATM   13  O5  UNL     1      -0.783  -1.556   2.400  1.00  0.00    -0.274 OA
ATOM     14  H4  UNL     1      -2.271  -2.180  -0.345  1.00  0.00     0.163 HD
BRANCH  12  15
HETATM   15  C20 UNL     1      -1.651  -3.613   1.668  1.00  0.00     0.107 C 
BRANCH  15  16
HETATM   16  C21 UNL     1      -1.030  -4.219   2.877  1.00  0.00    -0.006 C 
HETATM   17  C22 UNL     1       0.467  -4.169   2.893  1.00  0.00     0.005 C 
HETATM   18  C23 UNL     1       1.049  -4.989   1.744  1.00  0.00     0.000 C 
HETATM   19  C24 UNL     1       0.340  -6.302   1.603  1.00  0.00     0.000 C 
HETATM   20  C25 UNL     1      -0.408  -6.666   2.858  1.00  0.00     0.000 C 
HETATM   21  C26 UNL     1      -1.506  -5.634   3.096  1.00  0.00     0.005 C 
ENDBRANCH  15  16
ENDBRANCH  12  15
ENDBRANCH   5  11
BRANCH   8  22
HETATM   22  C30 UNL     1      -5.069   2.385  -0.317  1.00  0.00     0.222 C 
HETATM   23  O6  UNL     1      -6.027   1.627  -0.541  1.00  0.00    -0.273 OA
HETATM   24  N5  UNL     1      -5.298   3.641   0.296  1.00  0.00    -0.353 N 
ATOM     25  H5  UNL     1      -4.492   4.244   0.462  1.00  0.00     0.163 HD
BRANCH  24  26
HETATM   26  C31 UNL     1      -6.594   4.123   0.700  1.00  0.00     0.022 C 
HETATM   27  C32 UNL     1      -7.555   4.233  -0.465  1.00  0.00     0.037 C 
HETATM   28  C33 UNL     1      -6.416   5.511   1.322  1.00  0.00     0.037 C 
HETATM   29  C34 UNL     1      -7.236   3.247   1.742  1.00  0.00     0.037 C 
ENDBRANCH  24  26
ENDBRANCH   8  22
ENDBRANCH   3   5
BRANCH   1  30
HETATM   30  C12 UNL     1       1.393   2.005  -1.119  1.00  0.00     0.177 C 
BRANCH  30  31
HETATM   31  C11 UNL     1       2.240   0.971  -1.874  1.00  0.00     0.243 C 
HETATM   32  N2  UNL     1       3.637   1.003  -1.672  1.00  0.00    -0.338 N 
HETATM   33  C7  UNL     1       4.626   0.169  -2.339  1.00  0.00     0.134 C 
HETATM   34  C10 UNL     1       4.189   1.907  -0.681  1.00  0.00     0.153 C 
HETATM   35  C8  UNL     1       5.889   0.311  -1.498  1.00  0.00     0.197 C 
HETATM   36  O2  UNL     1       6.330   1.647  -1.710  1.00  0.00    -0.387 OA
HETATM   37  C9  UNL     1       5.506   2.498  -1.042  1.00  0.00     0.187 C 
HETATM   38  O3  UNL     1       1.659   0.159  -2.623  1.00  0.00    -0.271 OA
BRANCH  33  39
HETATM   39  C6  UNL     1       4.277  -1.174  -2.728  1.00  0.00     0.006 C 
HETATM   40  C5  UNL     1       3.903  -2.302  -1.928  1.00  0.00     0.072 C 
BRANCH  40  41
HETATM   41  C4  UNL     1       4.668  -2.934  -0.878  1.00  0.00     0.241 C 
HETATM   42  N1  UNL     1       4.207  -4.193  -0.335  1.00  0.00    -0.354 N 
ATOM     43  H1  UNL     1       3.370  -4.635  -0.715  1.00  0.00     0.163 HD
HETATM   44  O1  UNL     1       5.706  -2.468  -0.399  1.00  0.00    -0.269 OA
BRANCH  42  45
HETATM   45  C3  UNL     1       4.930  -4.826   0.744  1.00  0.00     0.149 C 
BRANCH  45  46
HETATM   46  C2  UNL     1       4.906  -3.883   1.938  1.00  0.00    -0.018 C 
HETATM   47  C1  UNL     1       5.994  -3.434   2.501  1.00  0.00     0.008 C 
ENDBRANCH  45  46
ENDBRANCH  42  45
ENDBRANCH  40  41
ENDBRANCH  33  39
ENDBRANCH  30  31
BRANCH  30  48
HETATM   48  C13 UNL     1       1.417   3.192  -2.012  1.00  0.00     0.038 C 
BRANCH  48  49
HETATM   49  C14 UNL     1       0.680   4.399  -1.573  1.00  0.00    -0.020 C 
HETATM   50  C15 UNL     1       1.095   5.045  -0.310  1.00  0.00     0.009 C 
HETATM   51  C16 UNL     1       0.699   5.464  -2.687  1.00  0.00     0.009 C 
ENDBRANCH  48  49
ENDBRANCH  30  48
ENDBRANCH   1  30
TORSDOF 14
