REMARK  10 active torsions:
REMARK  status: ('A' for Active; 'I' for Inactive)
REMARK    1  A    between atoms: C5_5  and  S1_6 
REMARK    2  A    between atoms: S1_6  and  N1_9 
REMARK    3  A    between atoms: N1_9  and  C6_11 
REMARK    4  A    between atoms: C8_15  and  C9_16 
REMARK    5  A    between atoms: C9_16  and  C10_17 
REMARK    6  A    between atoms: C9_16  and  C20_34 
REMARK    7  A    between atoms: C10_17  and  N3_18 
REMARK    8  A    between atoms: N3_18  and  C11_20 
REMARK    9  A    between atoms: C11_20  and  C12_21 
REMARK   10  A    between atoms: C12_21  and  C13_22 
ROOT
HETATM    1  C9  UNL     1       0.991  -0.992  -0.295  1.00  0.00     0.089 C 
ENDROOT
BRANCH   1   2
HETATM    2  C8  UNL     1      -0.425  -0.607  -0.531  1.00  0.00     0.035 A 
HETATM    3  N2  UNL     1      -1.385  -1.187   0.196  1.00  0.00    -0.364 N 
HETATM    4  C7  UNL     1      -2.697  -0.873   0.066  1.00  0.00     0.137 A 
ATOM      5  H2  UNL     1      -1.119  -1.897   0.878  1.00  0.00     0.165 HD
HETATM    6  C6  UNL     1      -3.091   0.069  -0.833  1.00  0.00     0.130 A 
HETATM    7  N7  UNL     1      -2.121   0.668  -1.584  1.00  0.00    -0.349 N 
HETATM    8  C28 UNL     1      -0.830   0.343  -1.439  1.00  0.00     0.115 A 
ATOM      9  H7  UNL     1      -2.385   1.377  -2.269  1.00  0.00     0.167 HD
BRANCH   6  10
HETATM   10  N1  UNL     1      -4.305   0.407  -0.968  1.00  0.00    -0.265 N 
ATOM     11  H1  UNL     1      -4.479   1.123  -1.674  1.00  0.00     0.180 HD
BRANCH  10  12
HETATM   12  S1  UNL     1      -5.686  -0.151  -0.152  1.00  0.00     0.264 S 
HETATM   13  O1  UNL     1      -6.143  -1.496  -0.619  1.00  0.00    -0.200 OA
HETATM   14  O2  UNL     1      -5.382  -0.295   1.335  1.00  0.00    -0.200 OA
BRANCH  12  15
HETATM   15  C5  UNL     1      -6.975   1.049  -0.318  1.00  0.00     0.079 A 
HETATM   16  C4  UNL     1      -7.139   1.979   0.685  1.00  0.00     0.026 A 
HETATM   17  C3  UNL     1      -8.120   2.934   0.600  1.00  0.00     0.008 A 
HETATM   18  C2  UNL     1      -8.931   2.939  -0.503  1.00  0.00    -0.062 A 
HETATM   19  C1  UNL     1      -9.987   3.954  -0.606  1.00  0.00     0.048 C 
HETATM   20  C30 UNL     1      -8.782   2.014  -1.520  1.00  0.00     0.008 A 
HETATM   21  C29 UNL     1      -7.784   1.047  -1.427  1.00  0.00     0.026 A 
ENDBRANCH  12  15
ENDBRANCH  10  12
ENDBRANCH   6  10
ENDBRANCH   1   2
BRANCH   1  22
HETATM   22  C10 UNL     1       1.830   0.162   0.126  1.00  0.00     0.129 C 
BRANCH  22  23
HETATM   23  N3  UNL     1       3.188  -0.237   0.332  1.00  0.00    -0.420 N 
ATOM     24  H3  UNL     1       3.617  -0.245   1.257  1.00  0.00     0.153 HD
BRANCH  23  25
HETATM   25  C11 UNL     1       3.905  -0.624  -0.840  1.00  0.00     0.118 C 
BRANCH  25  26
HETATM   26  C12 UNL     1       5.349  -0.932  -0.452  1.00  0.00     0.058 C 
BRANCH  26  27
HETATM   27  C13 UNL     1       5.964   0.307   0.137  1.00  0.00    -0.054 A 
HETATM   28  C14 UNL     1       5.904   0.499   1.493  1.00  0.00     0.009 A 
HETATM   29  C15 UNL     1       6.462   1.662   2.024  1.00  0.00     0.032 A 
HETATM   30  C16 UNL     1       7.062   2.600   1.202  1.00  0.00     0.063 A 
HETATM   31  N4  UNL     1       7.668   3.786   1.412  1.00  0.00    -0.307 N 
HETATM   32  C18 UNL     1       7.117   2.395  -0.167  1.00  0.00     0.063 A 
HETATM   33  C17 UNL     1       8.096   4.331   0.267  1.00  0.00     0.325 A 
ATOM     34  H4  UNL     1       7.786   4.215   2.330  1.00  0.00     0.170 HD
HETATM   35  O3  UNL     1       8.705   5.425   0.053  1.00  0.00    -0.247 OA
HETATM   36  N5  UNL     1       7.741   3.443  -0.707  1.00  0.00    -0.306 N 
ATOM     37  H5  UNL     1       7.926   3.563  -1.703  1.00  0.00     0.170 HD
HETATM   38  C19 UNL     1       6.569   1.248  -0.701  1.00  0.00     0.039 A 
ENDBRANCH  26  27
ENDBRANCH  25  26
ENDBRANCH  23  25
ENDBRANCH  22  23
ENDBRANCH   1  22
BRANCH   1  39
HETATM   39  C20 UNL     1       1.003  -2.047   0.746  1.00  0.00    -0.019 A 
HETATM   40  C21 UNL     1       1.216  -1.938   2.103  1.00  0.00     0.097 A 
HETATM   41  N6  UNL     1       1.114  -3.150   2.677  1.00  0.00    -0.365 N 
HETATM   42  C22 UNL     1       0.839  -4.080   1.747  1.00  0.00     0.042 A 
ATOM     43  H6  UNL     1       1.229  -3.336   3.673  1.00  0.00     0.165 HD
HETATM   44  C23 UNL     1       0.640  -5.450   1.787  1.00  0.00     0.030 A 
HETATM   45  C27 UNL     1       0.766  -3.398   0.527  1.00  0.00    -0.001 A 
HETATM   46  C24 UNL     1       0.369  -6.125   0.602  1.00  0.00     0.002 A 
HETATM   47  C25 UNL     1       0.293  -5.476  -0.605  1.00  0.00     0.001 A 
HETATM   48  C26 UNL     1       0.492  -4.117  -0.633  1.00  0.00     0.014 A 
ENDBRANCH   1  39
TORSDOF 10
