REMARK  13 active torsions:
REMARK  status: ('A' for Active; 'I' for Inactive)
REMARK    1  A    between atoms: C2_2  and  C4_4 
REMARK    2  A    between atoms: C4_4  and  C5_5 
REMARK    3  A    between atoms: C9_14  and  O2_15 
REMARK    4  A    between atoms: C10_17  and  C11_18 
REMARK    5  A    between atoms: C14_21  and  C15_22 
REMARK    6  A    between atoms: C15_22  and  C17_24 
REMARK    7  A    between atoms: C17_24  and  C18_25 
REMARK    8  A    between atoms: C18_25  and  C19_26 
REMARK    9  A    between atoms: C19_26  and  C20_27 
REMARK   10  A    between atoms: C20_27  and  C21_28 
REMARK       I    between atoms: C21_28  and  N3_30 
REMARK   11  A    between atoms: N3_30  and  C22_32 
REMARK   12  A    between atoms: C28_38  and  O4_39 
REMARK   13  A    between atoms: C31_46  and  O6_47 
ROOT
HETATM    1  C5  UNL     1       5.430  -0.125  -1.002  1.00  0.00     0.159 C 
HETATM    2  N1  UNL     1       5.082   0.060   0.356  1.00  0.00    -0.347 N 
ATOM      3  H1  UNL     1       5.632  -0.485   1.020  1.00  0.00     0.163 HD
HETATM    4  C6  UNL     1       4.095   0.879   0.934  1.00  0.00     0.240 C 
HETATM    5  O1  UNL     1       4.069   0.969   2.217  1.00  0.00    -0.271 OA
HETATM    6  C7  UNL     1       3.059   1.671   0.264  1.00  0.00     0.171 C 
HETATM    7  C8  UNL     1       3.621   3.121   0.287  1.00  0.00     0.042 C 
HETATM    8  N2  UNL     1       1.794   1.766   0.920  1.00  0.00    -0.357 N 
ATOM      9  H2  UNL     1       1.836   2.155   1.862  1.00  0.00     0.162 HD
HETATM   10  C9  UNL     1       0.492   1.415   0.491  1.00  0.00     0.147 C 
HETATM   11  C10 UNL     1       0.042   0.149  -0.104  1.00  0.00     0.023 C 
HETATM   12  C14 UNL     1      -1.067  -0.573   0.561  1.00  0.00    -0.040 C 
HETATM   13  C25 UNL     1      -1.001  -1.912   0.692  1.00  0.00     0.008 C 
HETATM   14  C26 UNL     1       0.070  -2.839   0.262  1.00  0.00    -0.001 C 
HETATM   15  C27 UNL     1       1.282  -3.046   0.547  1.00  0.00     0.005 C 
HETATM   16  C28 UNL     1       2.438  -3.923   0.184  1.00  0.00     0.149 C 
HETATM   17  C29 UNL     1       3.603  -2.887   0.193  1.00  0.00     0.138 C 
HETATM   18  C30 UNL     1       4.911  -3.412  -0.084  1.00  0.00     0.226 C 
HETATM   19  O5  UNL     1       5.113  -4.629   0.257  1.00  0.00    -0.273 OA
HETATM   20  N4  UNL     1       5.962  -2.665  -0.701  1.00  0.00    -0.309 N 
ATOM     21  H4  UNL     1       6.892  -3.076  -0.613  1.00  0.00     0.170 HD
HETATM   22  C31 UNL     1       5.914  -1.470  -1.400  1.00  0.00     0.141 C 
ENDROOT
BRANCH  12  23
HETATM   23  C15 UNL     1      -2.202   0.205   1.226  1.00  0.00     0.015 C 
HETATM   24  C16 UNL     1      -3.108   0.776   0.156  1.00  0.00     0.015 C 
BRANCH  23  25
HETATM   25  C17 UNL     1      -3.093  -0.711   2.036  1.00  0.00     0.009 C 
BRANCH  25  26
HETATM   26  C18 UNL     1      -4.164  -0.153   2.826  1.00  0.00     0.001 C 
BRANCH  26  27
HETATM   27  C19 UNL     1      -5.342   0.554   2.358  1.00  0.00     0.009 C 
BRANCH  27  28
HETATM   28  C20 UNL     1      -6.303  -0.191   1.468  1.00  0.00     0.103 C 
BRANCH  28  29
HETATM   29  C21 UNL     1      -7.423   0.748   1.128  1.00  0.00     0.217 C 
HETATM   30  O3  UNL     1      -7.434   1.943   1.556  1.00  0.00    -0.274 OA
HETATM   31  N3  UNL     1      -8.509   0.333   0.317  1.00  0.00    -0.357 N 
ATOM     32  H3  UNL     1      -8.524  -0.622  -0.041  1.00  0.00     0.162 HD
BRANCH  31  33
HETATM   33  C22 UNL     1      -9.596   1.225  -0.017  1.00  0.00     0.076 C 
HETATM   34  C23 UNL     1      -9.751   1.408  -1.495  1.00  0.00     0.032 C 
HETATM   35  C24 UNL     1     -10.893   0.732   0.587  1.00  0.00     0.032 C 
ENDBRANCH  31  33
ENDBRANCH  28  29
ENDBRANCH  27  28
ENDBRANCH  26  27
ENDBRANCH  25  26
ENDBRANCH  23  25
ENDBRANCH  12  23
BRANCH  11  36
HETATM   36  C11 UNL     1       0.165   0.199  -1.561  1.00  0.00    -0.073 C 
HETATM   37  C12 UNL     1      -0.282  -0.936  -2.400  1.00  0.00     0.044 C 
HETATM   38  C13 UNL     1      -0.132   1.491  -2.275  1.00  0.00     0.044 C 
ENDBRANCH  11  36
BRANCH  10  39
HETATM   39  O2  UNL     1      -0.385   2.361   0.663  1.00  0.00    -0.346 OA
ATOM     40  H2  UNL     1      -1.259   2.125   0.375  1.00  0.00     0.219 HD
ENDBRANCH  10  39
BRANCH  16  41
HETATM   41  O4  UNL     1       2.491  -4.546  -1.007  1.00  0.00    -0.391 OA
ATOM     42  H4  UNL     1       3.225  -5.103  -1.238  1.00  0.00     0.210 HD
ENDBRANCH  16  41
BRANCH   1  43
HETATM   43  C4  UNL     1       6.273   0.977  -1.589  1.00  0.00     0.037 C 
BRANCH  43  44
HETATM   44  C2  UNL     1       7.567   1.278  -1.000  1.00  0.00    -0.020 C 
HETATM   45  C1  UNL     1       7.609   1.699   0.430  1.00  0.00     0.009 C 
HETATM   46  C3  UNL     1       8.607   0.195  -1.194  1.00  0.00     0.009 C 
ENDBRANCH  43  44
ENDBRANCH   1  43
BRANCH  22  47
HETATM   47  O6  UNL     1       6.357  -1.449  -2.630  1.00  0.00    -0.348 OA
ATOM     48  H6  UNL     1       6.667  -2.310  -2.885  1.00  0.00     0.219 HD
ENDBRANCH  22  47
TORSDOF 13
