REMARK  7 active torsions:
REMARK  status: ('A' for Active; 'I' for Inactive)
REMARK    1  A    between atoms: C2_2  and  C3_3 
REMARK    2  A    between atoms: C3_3  and  C4_4 
REMARK       I    between atoms: C4_4  and  N1_6 
REMARK    3  A    between atoms: N1_6  and  C5_8 
REMARK    4  A    between atoms: C7_12  and  N3_13 
REMARK    5  A    between atoms: N3_13  and  C8_15 
REMARK    6  A    between atoms: N7_28  and  C16_29 
REMARK    7  A    between atoms: C16_29  and  C17_30 
ROOT
HETATM    1  C5  UNL     1      -1.413  -1.135  -1.008  1.00  0.00     0.689 A 
HETATM    2  N2  UNL     1      -0.292  -0.494  -0.583  1.00  0.00    -0.184 N 
ATOM      3  H2  UNL     1      -0.243   0.462  -0.231  1.00  0.00     0.184 HD
HETATM    4  C6  UNL     1       0.726  -1.335  -0.708  1.00  0.00     0.137 A 
HETATM    5  C7  UNL     1       2.094  -1.167  -0.410  1.00  0.00     0.134 A 
HETATM    6  N5  UNL     1       2.854  -2.238  -0.662  1.00  0.00    -0.337 N 
ATOM      7  H5  UNL     1       3.854  -2.182  -0.468  1.00  0.00     0.168 HD
HETATM    8  C14 UNL     1       2.357  -3.389  -1.161  1.00  0.00     0.183 A 
HETATM    9  N6  UNL     1       1.043  -3.532  -1.441  1.00  0.00    -0.336 N 
ATOM     10  H6  UNL     1       0.683  -4.409  -1.818  1.00  0.00     0.168 HD
HETATM   11  C15 UNL     1       0.228  -2.503  -1.214  1.00  0.00     0.156 A 
HETATM   12  N7  UNL     1      -1.118  -2.384  -1.405  1.00  0.00    -0.160 N 
ENDROOT
BRANCH   1  13
HETATM   13  N1  UNL     1      -2.612  -0.637  -1.038  1.00  0.00    -0.159 N 
HETATM   14  C4  UNL     1      -2.894   0.687  -0.612  1.00  0.00     0.244 C 
HETATM   15  O1  UNL     1      -2.208   1.619  -1.091  1.00  0.00    -0.272 OA
ATOM     16  H1  UNL     1      -3.378  -1.218  -1.380  1.00  0.00     0.187 HD
BRANCH  14  17
HETATM   17  C3  UNL     1      -3.984   0.959   0.385  1.00  0.00     0.047 C 
HETATM   18  C18 UNL     1      -4.191   2.423   0.587  1.00  0.00     0.025 C 
HETATM   19  C19 UNL     1      -5.529   2.771  -0.033  1.00  0.00     0.080 C 
HETATM   20  C20 UNL     1      -5.782   1.663  -1.003  1.00  0.00     0.244 C 
HETATM   21  F3  UNL     1      -7.088   1.502  -1.355  1.00  0.00    -0.206 F 
HETATM   22  F4  UNL     1      -4.942   1.831  -2.098  1.00  0.00    -0.206 F 
HETATM   23  C21 UNL     1      -5.270   0.442  -0.241  1.00  0.00     0.098 C 
BRANCH  17  24
HETATM   24  C2  UNL     1      -3.647   0.223   1.643  1.00  0.00     0.015 C 
HETATM   25  C1  UNL     1      -4.653   0.404   2.731  1.00  0.00     0.006 C 
ENDBRANCH  17  24
ENDBRANCH  14  17
ENDBRANCH   1  13
BRANCH  12  26
HETATM   26  C16 UNL     1      -1.991  -3.415  -1.927  1.00  0.00     0.220 C 
BRANCH  26  27
HETATM   27  C17 UNL     1      -2.096  -3.339  -3.440  1.00  0.00     0.371 C 
HETATM   28  F1  UNL     1      -2.921  -4.319  -3.894  1.00  0.00    -0.213 F 
HETATM   29  F2  UNL     1      -2.485  -2.073  -3.847  1.00  0.00    -0.213 F 
ENDBRANCH  26  27
ENDBRANCH  12  26
BRANCH   5  30
HETATM   30  N3  UNL     1       2.523  -0.081   0.054  1.00  0.00    -0.370 N 
ATOM     31  H3  UNL     1       1.769   0.597   0.166  1.00  0.00     0.161 HD
BRANCH  30  32
HETATM   32  C8  UNL     1       3.736   0.446   0.454  1.00  0.00     0.086 C 
HETATM   33  C9  UNL     1       4.846   0.464  -0.605  1.00  0.00     0.055 C 
HETATM   34  C10 UNL     1       5.800   1.541  -0.115  1.00  0.00     0.274 C 
HETATM   35  N4  UNL     1       6.341   1.237   1.186  1.00  0.00     0.084 N 
HETATM   36  C11 UNL     1       6.974   2.452   1.680  1.00  0.00     0.309 C 
HETATM   37  C12 UNL     1       5.424   0.785   2.167  1.00  0.00     0.274 C 
HETATM   38  C13 UNL     1       4.395  -0.204   1.674  1.00  0.00     0.055 C 
ENDBRANCH  30  32
ENDBRANCH   5  30
TORSDOF 7
