REMARK  6 active torsions:
REMARK  status: ('A' for Active; 'I' for Inactive)
REMARK    1  A    between atoms: C2_2  and  C3_3 
REMARK    2  A    between atoms: C3_3  and  C4_4 
REMARK    3  A    between atoms: C3_3  and  N1_7 
REMARK    4  A    between atoms: C4_4  and  O1_5 
REMARK    5  A    between atoms: C16_26  and  N4_27 
REMARK    6  A    between atoms: N4_27  and  C17_29 
ROOT
HETATM    1  N1  UNL     1      -2.837  -1.461  -0.691  1.00  0.00     0.103 N 
HETATM    2  C5  UNL     1      -3.293  -0.222  -0.126  1.00  0.00     0.314 C 
HETATM    3  C6  UNL     1      -2.046   0.546   0.086  1.00  0.00     0.005 A 
HETATM    4  C7  UNL     1      -1.841   1.928   0.259  1.00  0.00     0.081 A 
HETATM    5  C8  UNL     1      -3.013   2.782   0.115  1.00  0.00     0.102 C 
HETATM    6  N2  UNL     1      -3.953   3.455  -0.039  1.00  0.00    -0.191 NA
HETATM    7  C9  UNL     1      -0.572   2.395   0.447  1.00  0.00     0.072 A 
HETATM    8  C10 UNL     1      -0.286   3.808   0.538  1.00  0.00     0.076 A 
HETATM    9  C11 UNL     1      -0.901   4.695   1.363  1.00  0.00     0.170 A 
HETATM   10  F1  UNL     1      -1.726   4.263   2.359  1.00  0.00    -0.202 F 
HETATM   11  C12 UNL     1      -0.662   6.073   1.321  1.00  0.00     0.159 A 
HETATM   12  F2  UNL     1      -1.312   6.894   2.170  1.00  0.00    -0.203 F 
HETATM   13  C13 UNL     1       0.231   6.601   0.422  1.00  0.00     0.091 A 
HETATM   14  C14 UNL     1       0.869   5.727  -0.421  1.00  0.00     0.159 A 
HETATM   15  F3  UNL     1       1.752   6.219  -1.313  1.00  0.00    -0.203 F 
HETATM   16  C15 UNL     1       0.626   4.375  -0.373  1.00  0.00     0.170 A 
HETATM   17  F4  UNL     1       1.244   3.516  -1.213  1.00  0.00    -0.202 F 
HETATM   18  N3  UNL     1       0.468   1.490   0.455  1.00  0.00    -0.340 N 
ATOM     19  H3  UNL     1       1.411   1.852   0.594  1.00  0.00     0.167 HD
HETATM   20  C16 UNL     1       0.326   0.180   0.294  1.00  0.00     0.110 A 
HETATM   21  C23 UNL     1      -0.965  -0.292   0.108  1.00  0.00     0.023 A 
HETATM   22  C24 UNL     1      -1.524  -1.656  -0.095  1.00  0.00     0.316 C 
ENDROOT
BRANCH   1  23
HETATM   23  C3  UNL     1      -3.747  -2.505  -0.343  1.00  0.00     0.246 C 
BRANCH  23  24
HETATM   24  C2  UNL     1      -3.127  -3.884  -0.466  1.00  0.00     0.033 C 
HETATM   25  C1  UNL     1      -4.183  -4.888  -0.030  1.00  0.00     0.007 C 
ENDBRANCH  23  24
BRANCH  23  26
HETATM   26  C4  UNL     1      -4.944  -2.482  -1.250  1.00  0.00     0.199 C 
BRANCH  26  27
HETATM   27  O1  UNL     1      -5.670  -1.304  -1.190  1.00  0.00    -0.399 OA
ATOM     28  H1  UNL     1      -6.427  -1.289  -1.764  1.00  0.00     0.209 HD
ENDBRANCH  26  27
ENDBRANCH  23  26
ENDBRANCH   1  23
BRANCH  20  29
HETATM   29  N4  UNL     1       1.249  -0.648   0.297  1.00  0.00    -0.371 N 
ATOM     30  H4  UNL     1       0.902  -1.597   0.155  1.00  0.00     0.161 HD
BRANCH  29  31
HETATM   31  C17 UNL     1       2.644  -0.626   0.444  1.00  0.00     0.086 C 
HETATM   32  C18 UNL     1       3.291  -1.966   0.076  1.00  0.00     0.055 C 
HETATM   33  C19 UNL     1       4.668  -2.008   0.696  1.00  0.00     0.274 C 
HETATM   34  N5  UNL     1       5.399  -0.807   0.337  1.00  0.00     0.084 N 
HETATM   35  C20 UNL     1       6.791  -1.037   0.099  1.00  0.00     0.309 C 
HETATM   36  C21 UNL     1       4.746  -0.112  -0.745  1.00  0.00     0.274 C 
HETATM   37  C22 UNL     1       3.406   0.440  -0.257  1.00  0.00     0.055 C 
ENDBRANCH  29  31
ENDBRANCH  20  29
TORSDOF 6
