REMARK  6 active torsions:
REMARK  status: ('A' for Active; 'I' for Inactive)
REMARK    1  A    between atoms: C3_4  and  N2_5 
REMARK    2  A    between atoms: N4_15  and  C10_16 
REMARK    3  A    between atoms: C10_16  and  C11_17 
REMARK    4  A    between atoms: C15_25  and  C16_26 
REMARK    5  A    between atoms: C16_26  and  N7_27 
REMARK    6  A    between atoms: C18_29  and  C19_30 
ROOT
HETATM    1  N1  UNL     1      -4.993  -2.453  -0.313  1.00  0.00    -0.195 NA
HETATM    2  C1  UNL     1      -4.148  -1.709  -0.179  1.00  0.00     0.086 C 
HETATM    3  C2  UNL     1      -3.041  -0.792  -0.012  1.00  0.00     0.214 C 
HETATM    4  C3  UNL     1      -3.572   0.573   0.466  1.00  0.00     0.124 C 
HETATM    5  C8  UNL     1      -3.315   0.463   1.966  1.00  0.00     0.048 C 
HETATM    6  C9  UNL     1      -1.862  -0.065   1.850  1.00  0.00     0.126 C 
HETATM    7  N4  UNL     1      -2.069  -1.140   0.878  1.00  0.00    -0.370 N 
ENDROOT
BRANCH   4   8
HETATM    8  N2  UNL     1      -4.924   0.836   0.159  1.00  0.00    -0.363 N 
HETATM    9  C4  UNL     1      -5.469   0.990  -1.174  1.00  0.00     0.125 C 
HETATM   10  C5  UNL     1      -6.947   1.287  -1.033  1.00  0.00     0.027 C 
HETATM   11  C6  UNL     1      -7.099   1.718   0.394  1.00  0.00     0.077 C 
HETATM   12  C7  UNL     1      -6.004   1.023   1.095  1.00  0.00     0.073 C 
HETATM   13  N3  UNL     1      -6.065   0.682   2.333  1.00  0.00    -0.389 N 
ATOM     14  H32 UNL     1      -5.307   0.201   2.818  1.00  0.00     0.157 HD
ATOM     15  H31 UNL     1      -6.829   0.814   2.995  1.00  0.00     0.157 HD
ENDBRANCH   4   8
BRANCH   7  16
HETATM   16  C10 UNL     1      -1.085  -2.101   0.872  1.00  0.00     0.099 C 
BRANCH  16  17
HETATM   17  C11 UNL     1      -0.397  -2.031  -0.458  1.00  0.00    -0.006 A 
HETATM   18  C12 UNL     1      -0.873  -2.575  -1.619  1.00  0.00     0.031 A 
HETATM   19  C13 UNL     1      -0.087  -2.467  -2.769  1.00  0.00     0.090 A 
HETATM   20  N5  UNL     1       1.099  -1.857  -2.781  1.00  0.00    -0.352 N 
HETATM   21  C14 UNL     1       1.572  -1.315  -1.623  1.00  0.00     0.116 A 
ATOM     22  H5  UNL     1       1.643  -1.797  -3.642  1.00  0.00     0.166 HD
HETATM   23  N6  UNL     1       2.716  -0.602  -1.417  1.00  0.00    -0.344 N 
HETATM   24  C23 UNL     1       0.850  -1.396  -0.473  1.00  0.00     0.021 A 
HETATM   25  C15 UNL     1       2.708  -0.246  -0.128  1.00  0.00     0.040 A 
ATOM     26  H6  UNL     1       3.434  -0.384  -2.108  1.00  0.00     0.167 HD
HETATM   27  C22 UNL     1       1.572  -0.719   0.490  1.00  0.00     0.043 A 
BRANCH  25  28
HETATM   28  C16 UNL     1       3.741   0.573   0.562  1.00  0.00     0.329 C 
BRANCH  28  29
HETATM   29  N7  UNL     1       5.058   0.034   0.474  1.00  0.00     0.100 N 
HETATM   30  C17 UNL     1       6.065   0.929   0.987  1.00  0.00     0.289 C 
HETATM   31  C18 UNL     1       7.104   1.018  -0.160  1.00  0.00     0.153 C 
HETATM   32  C20 UNL     1       6.994  -0.369  -0.719  1.00  0.00     0.280 C 
HETATM   33  F3  UNL     1       7.444  -1.300   0.157  1.00  0.00    -0.204 F 
HETATM   34  F4  UNL     1       7.515  -0.507  -1.991  1.00  0.00    -0.204 F 
HETATM   35  C21 UNL     1       5.456  -0.478  -0.788  1.00  0.00     0.352 C 
BRANCH  31  36
HETATM   36  C19 UNL     1       6.603   2.102  -1.060  1.00  0.00     0.364 C 
HETATM   37  F1  UNL     1       7.382   2.309  -2.185  1.00  0.00    -0.214 F 
HETATM   38  F2  UNL     1       6.707   3.310  -0.303  1.00  0.00    -0.214 F 
ENDBRANCH  31  36
ENDBRANCH  28  29
ENDBRANCH  25  28
ENDBRANCH  16  17
ENDBRANCH   7  16
TORSDOF 6
