REMARK  2 active torsions:
REMARK  status: ('A' for Active; 'I' for Inactive)
REMARK    1  A    between atoms: N1_1  and  C1_5 
REMARK    2  A    between atoms: C5_10  and  C6_11 
ROOT
HETATM    1  C1  UNL     1      -0.664  -0.690  -0.327  1.00  0.00     0.192 C 
HETATM    2  C2  UNL     1      -1.239   0.369   0.602  1.00  0.00     0.070 C 
HETATM    3  C3  UNL     1      -0.837   1.616  -0.197  1.00  0.00     0.172 C 
HETATM    4  F1  UNL     1      -1.071   2.764   0.503  1.00  0.00    -0.249 F 
HETATM    5  C4  UNL     1       0.655   1.328  -0.341  1.00  0.00     0.046 C 
HETATM    6  C5  UNL     1       0.705  -0.176  -0.610  1.00  0.00     0.047 C 
ENDROOT
BRANCH   1   7
HETATM    7  N1  UNL     1      -0.712  -2.005   0.228  1.00  0.00    -0.074 N 
ATOM      8  H13 UNL     1      -0.254  -2.033   1.139  1.00  0.00     0.274 HD
ATOM      9  H12 UNL     1      -1.662  -2.246   0.511  1.00  0.00     0.274 HD
ATOM     10  H11 UNL     1      -0.327  -2.715  -0.395  1.00  0.00     0.274 HD
ENDBRANCH   1   7
BRANCH   6  11
HETATM   11  C6  UNL     1       1.751  -0.739   0.332  1.00  0.00     0.229 C 
HETATM   12  F2  UNL     1       2.964  -0.183  -0.041  1.00  0.00    -0.255 F 
ENDBRANCH   6  11
TORSDOF 2
