REMARK  11 active torsions:
REMARK  status: ('A' for Active; 'I' for Inactive)
REMARK    1  A    between atoms: C2_2  and  C3_3 
REMARK    2  A    between atoms: C3_3  and  C4_4 
REMARK    3  A    between atoms: C4_4  and  O1_5 
REMARK    4  A    between atoms: C6_8  and  O2_9 
REMARK    5  A    between atoms: C8_15  and  O3_16 
REMARK    6  A    between atoms: C9_18  and  C10_19 
REMARK    7  A    between atoms: C10_19  and  O4_20 
REMARK    8  A    between atoms: C11_23  and  C12_24 
REMARK    9  A    between atoms: C11_23  and  C13_27 
REMARK   10  A    between atoms: C12_24  and  O6_25 
REMARK   11  A    between atoms: C13_27  and  O7_28 
ROOT
HETATM    1  C4  UNL     1      -0.546   0.284   0.608  1.00  0.00     0.112 C 
HETATM    2  C5  UNL     1      -0.689  -1.092   1.095  1.00  0.00     0.087 C 
HETATM    3  C6  UNL     1      -2.222  -1.166   1.286  1.00  0.00     0.142 C 
HETATM    4  C7  UNL     1      -2.890  -2.317   0.615  1.00  0.00     0.279 C 
HETATM    5  N1  UNL     1      -3.249  -1.456  -0.521  1.00  0.00    -0.036 N 
ATOM      6  H11 UNL     1      -4.201  -1.474  -0.887  1.00  0.00     0.281 HD
ATOM      7  H12 UNL     1      -2.881  -1.665  -1.449  1.00  0.00     0.281 HD
HETATM    8  C8  UNL     1      -2.780  -0.295   0.186  1.00  0.00     0.265 C 
HETATM    9  C9  UNL     1      -1.611   0.432  -0.453  1.00  0.00     0.114 C 
ENDROOT
BRANCH   1  10
HETATM   10  C3  UNL     1       0.780   0.856   0.275  1.00  0.00     0.145 A 
HETATM   11  O5  UNL     1       1.562   0.357  -0.723  1.00  0.00    -0.340 OA
HETATM   12  C11 UNL     1       2.626  -0.348  -0.249  1.00  0.00     0.156 A 
HETATM   13  S1  UNL     1       2.078   0.225   1.416  1.00  0.00    -0.086 SA
BRANCH  10  14
HETATM   14  C2  UNL     1       0.595   2.371   0.334  1.00  0.00     0.048 C 
HETATM   15  C1  UNL     1       1.731   3.227   0.034  1.00  0.00     0.009 C 
ENDBRANCH  10  14
BRANCH  12  16
HETATM   16  C12 UNL     1       4.034   0.077  -0.564  1.00  0.00     0.216 C 
BRANCH  16  17
HETATM   17  O6  UNL     1       4.463   1.280  -0.093  1.00  0.00    -0.397 OA
ATOM     18  H6  UNL     1       5.352   1.548  -0.292  1.00  0.00     0.209 HD
ENDBRANCH  16  17
ENDBRANCH  12  16
BRANCH  12  19
HETATM   19  C13 UNL     1       2.613  -1.864  -0.416  1.00  0.00     0.216 C 
BRANCH  19  20
HETATM   20  O7  UNL     1       2.508  -2.084  -1.808  1.00  0.00    -0.397 OA
ATOM     21  H7  UNL     1       2.500  -3.028  -1.912  1.00  0.00     0.209 HD
ENDBRANCH  19  20
ENDBRANCH  12  19
ENDBRANCH   1  10
BRANCH   1  22
HETATM   22  O1  UNL     1      -1.037   1.101   1.685  1.00  0.00    -0.385 OA
ATOM     23  H1  UNL     1      -1.887   0.734   1.898  1.00  0.00     0.210 HD
ENDBRANCH   1  22
BRANCH   9  24
HETATM   24  C10 UNL     1      -1.244  -0.117  -1.785  1.00  0.00     0.176 C 
BRANCH  24  25
HETATM   25  O4  UNL     1      -2.315   0.085  -2.664  1.00  0.00    -0.400 OA
ATOM     26  H4  UNL     1      -2.080  -0.266  -3.515  1.00  0.00     0.209 HD
ENDBRANCH  24  25
ENDBRANCH   9  24
BRANCH   3  27
HETATM   27  O2  UNL     1      -2.648  -0.901   2.560  1.00  0.00    -0.383 OA
ATOM     28  H2  UNL     1      -3.590  -0.946   2.677  1.00  0.00     0.210 HD
ENDBRANCH   3  27
BRANCH   8  29
HETATM   29  O3  UNL     1      -3.768   0.546   0.695  1.00  0.00    -0.362 OA
ATOM     30  H3  UNL     1      -4.119   1.094   0.003  1.00  0.00     0.212 HD
ENDBRANCH   8  29
TORSDOF 11
