REMARK  8 active torsions:
REMARK  status: ('A' for Active; 'I' for Inactive)
REMARK    1  A    between atoms: N1_1  and  C1_4 
REMARK    2  A    between atoms: C2_7  and  N3_8 
REMARK    3  A    between atoms: N3_8  and  N4_10 
REMARK    4  A    between atoms: C4_14  and  C5_15 
REMARK    5  A    between atoms: C6_23  and  S1_24 
REMARK    6  A    between atoms: S1_24  and  C7_26 
REMARK    7  A    between atoms: C7_26  and  C8_27 
REMARK    8  A    between atoms: C8_27  and  O2_28 
ROOT
HETATM    1  C1  UNL     1      -3.767   0.419  -1.892  1.00  0.00     0.679 A 
HETATM    2  N2  UNL     1      -3.736  -0.325  -0.790  1.00  0.00    -0.175 N 
ATOM      3  H2  UNL     1      -4.581  -0.794  -0.465  1.00  0.00     0.186 HD
HETATM    4  C2  UNL     1      -2.571  -0.458  -0.096  1.00  0.00     0.150 A 
HETATM    5  C3  UNL     1      -1.411   0.152  -0.492  1.00  0.00     0.070 A 
HETATM    6  C4  UNL     1      -0.215   0.047   0.176  1.00  0.00     0.049 A 
HETATM    7  C6  UNL     1       0.908   0.731  -0.340  1.00  0.00     0.062 A 
HETATM    8  C9  UNL     1       0.751   1.460  -1.474  1.00  0.00     0.111 A 
HETATM    9  N9  UNL     1      -0.400   1.563  -2.121  1.00  0.00    -0.350 N 
ATOM     10  H9  UNL     1      -0.466   2.124  -2.971  1.00  0.00     0.166 HD
HETATM   11  C10 UNL     1      -1.481   0.919  -1.644  1.00  0.00     0.136 A 
HETATM   12  N10 UNL     1      -2.653   1.021  -2.296  1.00  0.00    -0.176 N 
ATOM     13  H10 UNL     1      -2.689   1.589  -3.143  1.00  0.00     0.186 HD
ENDROOT
BRANCH   6  14
HETATM   14  C5  UNL     1      -0.069  -0.742   1.384  1.00  0.00     0.147 A 
HETATM   15  N5  UNL     1       0.298  -2.028   1.404  1.00  0.00    -0.266 N 
HETATM   16  N6  UNL     1       0.372  -2.389   2.676  1.00  0.00    -0.005 NA
ATOM     17  H5  UNL     1       0.485  -2.618   0.594  1.00  0.00     0.186 HD
HETATM   18  N7  UNL     1       0.064  -1.375   3.465  1.00  0.00    -0.225 N 
HETATM   19  N8  UNL     1      -0.207  -0.365   2.660  1.00  0.00    -0.271 N 
ATOM     20  H7  UNL     1       0.041  -1.373   4.485  1.00  0.00     0.205 HD
ATOM     21  H8  UNL     1      -0.482   0.568   2.966  1.00  0.00     0.190 HD
ENDBRANCH   6  14
BRANCH   7  22
HETATM   22  S1  UNL     1       2.395   0.569   0.536  1.00  0.00     0.054 S 
HETATM   23  O1  UNL     1       2.509   1.782   1.687  1.00  0.00    -0.253 OA
BRANCH  22  24
HETATM   24  C7  UNL     1       3.812   0.632  -0.532  1.00  0.00     0.140 C 
BRANCH  24  25
HETATM   25  C8  UNL     1       5.045   0.481   0.346  1.00  0.00     0.177 C 
BRANCH  25  26
HETATM   26  O2  UNL     1       6.219   0.514  -0.371  1.00  0.00    -0.400 OA
ATOM     27  H2  UNL     1       6.989   0.420   0.177  1.00  0.00     0.209 HD
ENDBRANCH  25  26
ENDBRANCH  24  25
ENDBRANCH  22  24
ENDBRANCH   7  22
BRANCH   4  28
HETATM   28  N3  UNL     1      -2.596  -1.180   0.953  1.00  0.00    -0.291 N 
ATOM     29  H3  UNL     1      -1.724  -1.281   1.473  1.00  0.00     0.188 HD
BRANCH  28  30
HETATM   30  N4  UNL     1      -3.705  -1.837   1.444  1.00  0.00    -0.344 N 
ATOM     31  H42 UNL     1      -4.568  -1.725   0.911  1.00  0.00     0.176 HD
ATOM     32  H41 UNL     1      -3.725  -2.415   2.284  1.00  0.00     0.176 HD
ENDBRANCH  28  30
ENDBRANCH   4  28
BRANCH   1  33
HETATM   33  N1  UNL     1      -4.889   0.528  -2.532  1.00  0.00    -0.234 N 
ATOM     34  H12 UNL     1      -5.744   0.066  -2.222  1.00  0.00     0.174 HD
ATOM     35  H11 UNL     1      -4.913   1.099  -3.377  1.00  0.00     0.174 HD
ENDBRANCH   1  33
TORSDOF 8
