REMARK  10 active torsions:
REMARK  status: ('A' for Active; 'I' for Inactive)
REMARK    1  A    between atoms: C3_5  and  C4_6 
REMARK    2  A    between atoms: C6_8  and  O1_9 
REMARK    3  A    between atoms: O1_9  and  C7_10 
REMARK    4  A    between atoms: C7_10  and  C8_11 
REMARK    5  A    between atoms: C8_11  and  C9_12 
REMARK    6  A    between atoms: C9_12  and  C10_13 
REMARK    7  A    between atoms: C10_13  and  O2_14 
REMARK    8  A    between atoms: C12_17  and  C13_18 
REMARK    9  A    between atoms: C15_20  and  N2_21 
REMARK   10  A    between atoms: N2_21  and  C16_23 
ROOT
HETATM    1  C4  UNL     1      -1.840   1.357   1.146  1.00  0.00     0.017 A 
HETATM    2  C5  UNL     1      -2.933   0.502   0.949  1.00  0.00     0.052 A 
HETATM    3  C6  UNL     1      -2.784  -0.672   0.257  1.00  0.00     0.070 A 
HETATM    4  C11 UNL     1      -1.567  -1.035  -0.254  1.00  0.00     0.052 A 
HETATM    5  C12 UNL     1      -0.459  -0.207  -0.076  1.00  0.00     0.017 A 
HETATM    6  C23 UNL     1      -0.628   0.961   0.615  1.00  0.00     0.059 A 
HETATM    7 CL1  UNL     1       0.691   2.104   0.807  1.00  0.00    -0.082 Cl
ENDROOT
BRANCH   5   8
HETATM    8  C13 UNL     1       0.818  -0.593  -0.652  1.00  0.00     0.064 A 
HETATM    9  C14 UNL     1       2.088  -0.149  -0.473  1.00  0.00     0.081 A 
HETATM   10  C15 UNL     1       2.997  -0.899  -1.246  1.00  0.00     0.120 A 
HETATM   11  N3  UNL     1       2.237  -1.781  -1.872  1.00  0.00    -0.281 N 
HETATM   12  C22 UNL     1       2.677  -2.821  -2.815  1.00  0.00     0.179 C 
HETATM   13  N4  UNL     1       0.973  -1.630  -1.550  1.00  0.00    -0.296 N 
ATOM     14  H4  UNL     1       0.210  -2.201  -1.914  1.00  0.00     0.187 HD
BRANCH  10  15
HETATM   15  N2  UNL     1       4.227  -0.730  -1.294  1.00  0.00    -0.370 N 
ATOM     16  H2  UNL     1       4.733  -1.367  -1.909  1.00  0.00     0.161 HD
BRANCH  15  17
HETATM   17  C16 UNL     1       5.031   0.228  -0.611  1.00  0.00     0.083 C 
HETATM   18  C17 UNL     1       6.272   0.486  -1.419  1.00  0.00     0.025 C 
HETATM   19  C18 UNL     1       7.360  -0.529  -1.171  1.00  0.00     0.002 C 
HETATM   20  C19 UNL     1       7.731  -0.409   0.299  1.00  0.00     0.000 C 
HETATM   21  C20 UNL     1       6.525  -0.909   1.063  1.00  0.00     0.002 C 
HETATM   22  C21 UNL     1       5.296  -0.099   0.825  1.00  0.00     0.025 C 
ENDBRANCH  15  17
ENDBRANCH  10  15
ENDBRANCH   5   8
BRANCH   3  23
HETATM   23  O1  UNL     1      -3.883  -1.486   0.083  1.00  0.00    -0.351 OA
BRANCH  23  24
HETATM   24  C7  UNL     1      -5.166  -1.185   0.576  1.00  0.00     0.175 C 
BRANCH  24  25
HETATM   25  C8  UNL     1      -6.069  -2.354   0.155  1.00  0.00     0.029 C 
BRANCH  25  26
HETATM   26  C9  UNL     1      -6.096  -2.490  -1.343  1.00  0.00     0.028 C 
BRANCH  26  27
HETATM   27  C10 UNL     1      -6.619  -1.248  -2.002  1.00  0.00     0.164 C 
BRANCH  27  28
HETATM   28  O2  UNL     1      -6.601  -1.485  -3.392  1.00  0.00    -0.401 OA
ATOM     29  H2  UNL     1      -6.932  -0.698  -3.809  1.00  0.00     0.209 HD
ENDBRANCH  27  28
ENDBRANCH  26  27
ENDBRANCH  25  26
ENDBRANCH  24  25
ENDBRANCH  23  24
ENDBRANCH   3  23
BRANCH   1  30
HETATM   30  C3  UNL     1      -2.065   2.599   1.868  1.00  0.00     0.061 A 
HETATM   31  N1  UNL     1      -3.336   3.055   2.100  1.00  0.00    -0.344 N 
HETATM   32  C2  UNL     1      -3.325   4.184   2.800  1.00  0.00     0.077 A 
ATOM     33  H1  UNL     1      -4.183   2.587   1.776  1.00  0.00     0.167 HD
HETATM   34  C1  UNL     1      -4.522   4.978   3.244  1.00  0.00     0.089 C 
HETATM   35  N5  UNL     1      -2.053   4.481   3.035  1.00  0.00    -0.354 N 
HETATM   36  C24 UNL     1      -1.266   3.510   2.466  1.00  0.00     0.119 A 
ATOM     37  H5  UNL     1      -1.717   5.294   3.551  1.00  0.00     0.166 HD
ENDBRANCH   1  30
TORSDOF 10
