REMARK  8 active torsions:
REMARK  status: ('A' for Active; 'I' for Inactive)
REMARK    1  A    between atoms: C2_2  and  C3_3 
REMARK    2  A    between atoms: C3_3  and  C4_4 
REMARK    3  A    between atoms: C4_4  and  C5_5 
REMARK    4  A    between atoms: C5_5  and  C6_6 
REMARK    5  A    between atoms: C6_6  and  C7_7 
REMARK    6  A    between atoms: C10_12  and  C11_13 
REMARK    7  A    between atoms: C11_13  and  O1_14 
REMARK    8  A    between atoms: C11_13  and  C12_16 
ROOT
HETATM    1  C7  UNL     1      -1.237   0.086   0.416  1.00  0.00     0.060 C 
HETATM    2  C8  UNL     1       0.112   0.394  -0.052  1.00  0.00     0.089 A 
HETATM    3  N1  UNL     1       0.562   1.546  -0.636  1.00  0.00    -0.354 N 
ATOM      4  H1  UNL     1      -0.103   2.304  -0.789  1.00  0.00     0.166 HD
HETATM    5  C9  UNL     1       1.809   1.725  -1.010  1.00  0.00     0.102 A 
HETATM    6  C10 UNL     1       2.733   0.681  -0.801  1.00  0.00     0.029 A 
HETATM    7  C16 UNL     1       2.249  -0.454  -0.215  1.00  0.00     0.115 A 
HETATM    8  S1  UNL     1       3.321  -1.686   0.036  1.00  0.00    -0.059 SA
HETATM    9  N4  UNL     1       0.950  -0.624   0.167  1.00  0.00    -0.321 N 
HETATM   10  C17 UNL     1       0.256  -1.694   0.783  1.00  0.00     0.098 C 
HETATM   11  C18 UNL     1       0.684  -3.058   0.298  1.00  0.00     0.038 C 
HETATM   12  C19 UNL     1      -0.496  -3.922   0.209  1.00  0.00    -0.005 A 
HETATM   13  C20 UNL     1      -1.060  -4.275   1.551  1.00  0.00     0.019 C 
HETATM   14  C21 UNL     1      -1.158  -4.514  -0.911  1.00  0.00     0.183 A 
HETATM   15  F1  UNL     1      -0.334  -4.984  -1.942  1.00  0.00    -0.248 F 
HETATM   16  C22 UNL     1      -1.382  -3.126  -0.807  1.00  0.00     0.032 A 
HETATM   17  C23 UNL     1      -2.142  -2.263   0.118  1.00  0.00     0.015 C 
HETATM   18  C24 UNL     1      -1.175  -1.373   0.833  1.00  0.00     0.021 C 
ENDROOT
BRANCH   6  19
HETATM   19  C11 UNL     1       4.126   0.856  -1.210  1.00  0.00     0.196 C 
BRANCH  19  20
HETATM   20  O1  UNL     1       4.500  -0.129  -2.169  1.00  0.00    -0.386 OA
ATOM     21  H1  UNL     1       5.405  -0.015  -2.435  1.00  0.00     0.210 HD
ENDBRANCH  19  20
BRANCH  19  22
HETATM   22  C12 UNL     1       5.130   0.985  -0.168  1.00  0.00     0.068 A 
HETATM   23  C13 UNL     1       5.183   1.913   0.848  1.00  0.00     0.036 A 
HETATM   24  C14 UNL     1       4.194   3.001   1.155  1.00  0.00     0.070 C 
HETATM   25  N2  UNL     1       6.301   1.704   1.567  1.00  0.00    -0.302 N 
HETATM   26  N3  UNL     1       6.946   0.685   1.040  1.00  0.00    -0.266 N 
ATOM     27  H2  UNL     1       6.598   2.243   2.381  1.00  0.00     0.186 HD
HETATM   28  C15 UNL     1       6.262   0.216  -0.027  1.00  0.00     0.271 A 
ATOM     29  H3  UNL     1       7.828   0.307   1.385  1.00  0.00     0.190 HD
HETATM   30  O2  UNL     1       6.694  -0.764  -0.697  1.00  0.00    -0.266 OA
ENDBRANCH  19  22
ENDBRANCH   6  19
BRANCH   1  31
HETATM   31  C6  UNL     1      -2.361   0.404  -0.484  1.00  0.00     0.013 C 
BRANCH  31  32
HETATM   32  C5  UNL     1      -2.496   1.857  -0.845  1.00  0.00     0.001 C 
BRANCH  32  33
HETATM   33  C4  UNL     1      -3.698   2.050  -1.732  1.00  0.00     0.000 C 
BRANCH  33  34
HETATM   34  C3  UNL     1      -5.019   1.718  -1.150  1.00  0.00    -0.000 C 
BRANCH  34  35
HETATM   35  C2  UNL     1      -5.520   2.520  -0.023  1.00  0.00    -0.005 C 
HETATM   36  C1  UNL     1      -4.791   2.582   1.252  1.00  0.00     0.005 C 
ENDBRANCH  34  35
ENDBRANCH  33  34
ENDBRANCH  32  33
ENDBRANCH  31  32
ENDBRANCH   1  31
TORSDOF 8
