REMARK  10 active torsions:
REMARK  status: ('A' for Active; 'I' for Inactive)
REMARK    1  A    between atoms: O1_2  and  C2_3 
REMARK    2  A    between atoms: C3_4  and  C5_6 
REMARK    3  A    between atoms: C5_6  and  C6_7 
REMARK    4  A    between atoms: C6_7  and  N1_8 
REMARK    5  A    between atoms: N1_8  and  C7_10 
REMARK    6  A    between atoms: C12_18  and  C13_19 
REMARK    7  A    between atoms: C13_19  and  O3_21 
REMARK    8  A    between atoms: C15_23  and  O4_24 
REMARK    9  A    between atoms: C15_23  and  C16_26 
REMARK       I    between atoms: C16_26  and  N3_28 
REMARK   10  A    between atoms: N3_28  and  N4_30 
ROOT
HETATM    1  C7  UNL     1       0.030  -0.063   0.521  1.00  0.00     0.119 A 
HETATM    2  C8  UNL     1      -0.786   0.110   1.554  1.00  0.00     0.077 A 
HETATM    3  S1  UNL     1      -0.683  -0.104   3.268  1.00  0.00    -0.071 SA
HETATM    4  C9  UNL     1      -2.265   0.385   3.674  1.00  0.00     0.048 A 
HETATM    5  C10 UNL     1      -2.901   0.457   5.039  1.00  0.00     0.076 C 
HETATM    6  N2  UNL     1      -2.781   0.680   2.505  1.00  0.00    -0.352 N 
ATOM      7  H2  UNL     1      -3.745   1.010   2.449  1.00  0.00     0.166 HD
HETATM    8  C11 UNL     1      -2.076   0.557   1.408  1.00  0.00     0.071 A 
HETATM    9  C12 UNL     1      -2.517   0.826   0.160  1.00  0.00     0.110 A 
HETATM   10  C15 UNL     1      -1.713   0.645  -1.037  1.00  0.00     0.255 A 
HETATM   11  N5  UNL     1      -0.352   0.222  -0.805  1.00  0.00    -0.332 N 
ATOM     12  H5  UNL     1       0.311   0.133  -1.575  1.00  0.00     0.165 HD
ENDROOT
BRANCH   1  13
HETATM   13  N1  UNL     1       1.349  -0.550   0.836  1.00  0.00    -0.375 N 
ATOM     14  H1  UNL     1       1.910  -0.109   1.565  1.00  0.00     0.161 HD
BRANCH  13  15
HETATM   15  C6  UNL     1       1.851  -1.670   0.098  1.00  0.00     0.125 C 
BRANCH  15  16
HETATM   16  C5  UNL     1       3.217  -2.137   0.372  1.00  0.00     0.055 C 
BRANCH  16  17
HETATM   17  C3  UNL     1       4.324  -1.175   0.114  1.00  0.00    -0.060 C 
HETATM   18  C2  UNL     1       5.123  -1.411  -0.938  1.00  0.00     0.136 C 
HETATM   19  C4  UNL     1       4.612  -0.004   0.952  1.00  0.00     0.045 C 
BRANCH  18  20
HETATM   20  O1  UNL     1       6.155  -0.664  -1.282  1.00  0.00    -0.368 OA
HETATM   21  C1  UNL     1       7.004   0.284  -0.852  1.00  0.00     0.208 C 
ENDBRANCH  18  20
ENDBRANCH  16  17
ENDBRANCH  15  16
ENDBRANCH  13  15
ENDBRANCH   1  13
BRANCH  10  22
HETATM   22  O4  UNL     1      -1.714   1.807  -1.828  1.00  0.00    -0.359 OA
ATOM     23  H4  UNL     1      -1.188   1.689  -2.610  1.00  0.00     0.213 HD
ENDBRANCH  10  22
BRANCH  10  24
HETATM   24  C16 UNL     1      -2.412  -0.425  -1.853  1.00  0.00     0.297 C 
HETATM   25  O5  UNL     1      -2.591  -1.571  -1.348  1.00  0.00    -0.266 OA
HETATM   26  N3  UNL     1      -2.851  -0.145  -3.147  1.00  0.00    -0.272 N 
ATOM     27  H3  UNL     1      -2.683   0.794  -3.508  1.00  0.00     0.189 HD
BRANCH  26  28
HETATM   28  N4  UNL     1      -3.499  -1.047  -3.982  1.00  0.00    -0.342 N 
ATOM     29  H42 UNL     1      -3.658  -1.981  -3.604  1.00  0.00     0.176 HD
ATOM     30  H41 UNL     1      -3.820  -0.842  -4.928  1.00  0.00     0.176 HD
ENDBRANCH  26  28
ENDBRANCH  10  24
BRANCH   9  31
HETATM   31  C13 UNL     1      -3.909   1.315  -0.023  1.00  0.00     0.296 C 
HETATM   32  O2  UNL     1      -4.673   1.477   0.940  1.00  0.00    -0.259 OA
BRANCH  31  33
HETATM   33  O3  UNL     1      -4.400   1.607  -1.283  1.00  0.00    -0.323 OA
HETATM   34  C14 UNL     1      -5.740   2.080  -1.476  1.00  0.00     0.213 C 
ENDBRANCH  31  33
ENDBRANCH   9  31
TORSDOF 10
