REMARK  9 active torsions:
REMARK  status: ('A' for Active; 'I' for Inactive)
REMARK    1  A    between atoms: C2_2  and  C3_3 
REMARK    2  A    between atoms: C2_2  and  N1_10 
REMARK    3  A    between atoms: C3_3  and  S1_4 
REMARK    4  A    between atoms: S1_4  and  C4_5 
REMARK    5  A    between atoms: C4_5  and  C5_6 
REMARK    6  A    between atoms: C5_6  and  C6_7 
REMARK    7  A    between atoms: C7_11  and  O3_12 
REMARK    8  A    between atoms: C10_16  and  O4_17 
REMARK    9  A    between atoms: C17_26  and  C18_27 
ROOT
HETATM    1  N1  UNL     1       0.728   0.417  -0.498  1.00  0.00    -0.302 N 
HETATM    2  C7  UNL     1       0.027   1.527  -0.708  1.00  0.00     0.154 A 
HETATM    3  C8  UNL     1      -1.340   1.321  -0.587  1.00  0.00     0.050 A 
HETATM    4  C9  UNL     1      -1.456  -0.041  -0.276  1.00  0.00     0.044 A 
HETATM    5  C10 UNL     1      -0.156  -0.548  -0.229  1.00  0.00     0.154 A 
HETATM    6  C11 UNL     1      -2.881  -0.387  -0.186  1.00  0.00     0.189 C 
HETATM    7  C12 UNL     1      -3.111  -1.558  -1.164  1.00  0.00     0.055 C 
HETATM    8  C13 UNL     1      -3.221  -0.906   1.161  1.00  0.00     0.046 C 
HETATM    9  C14 UNL     1      -4.727  -1.247   1.100  1.00  0.00     0.005 C 
HETATM   10  C15 UNL     1      -5.450   0.018   0.846  1.00  0.00     0.030 C 
HETATM   11  C16 UNL     1      -4.898   0.949  -0.158  1.00  0.00     0.275 C 
HETATM   12  N2  UNL     1      -3.598   0.755  -0.636  1.00  0.00     0.122 N 
HETATM   13  C17 UNL     1      -2.705   1.892  -0.610  1.00  0.00     0.362 C 
ENDROOT
BRANCH   1  14
HETATM   14  C2  UNL     1       2.184   0.292  -0.615  1.00  0.00     0.099 C 
HETATM   15  C1  UNL     1       2.917   1.336   0.112  1.00  0.00     0.033 C 
BRANCH  14  16
HETATM   16  C3  UNL     1       2.628  -1.106  -0.499  1.00  0.00     0.099 C 
BRANCH  16  17
HETATM   17  S1  UNL     1       4.291  -1.462  -1.056  1.00  0.00    -0.167 SA
BRANCH  17  18
HETATM   18  C4  UNL     1       5.444  -2.031   0.141  1.00  0.00     0.084 C 
BRANCH  18  19
HETATM   19  C5  UNL     1       6.023  -1.000   1.041  1.00  0.00     0.123 C 
BRANCH  19  20
HETATM   20  C6  UNL     1       6.857  -0.039   0.271  1.00  0.00     0.173 C 
HETATM   21  O1  UNL     1       7.861   0.475   0.834  1.00  0.00    -0.648 OA
HETATM   22  O2  UNL     1       6.538   0.278  -1.018  1.00  0.00    -0.648 OA
ENDBRANCH  19  20
ENDBRANCH  18  19
ENDBRANCH  17  18
ENDBRANCH  16  17
ENDBRANCH  14  16
ENDBRANCH   1  14
BRANCH   2  23
HETATM   23  O3  UNL     1       0.584   2.761  -1.016  1.00  0.00    -0.345 OA
ATOM     24  H3  UNL     1       0.083   3.554  -1.166  1.00  0.00     0.219 HD
ENDBRANCH   2  23
BRANCH   5  25
HETATM   25  O4  UNL     1       0.112  -1.883   0.067  1.00  0.00    -0.345 OA
ATOM     26  H4  UNL     1      -0.517  -2.569   0.258  1.00  0.00     0.219 HD
ENDBRANCH   5  25
BRANCH  13  27
HETATM   27  C18 UNL     1      -2.930   2.843  -1.720  1.00  0.00     0.212 C 
HETATM   28  O5  UNL     1      -3.670   2.508  -2.668  1.00  0.00    -0.646 OA
HETATM   29  O6  UNL     1      -2.338   4.071  -1.700  1.00  0.00    -0.646 OA
ENDBRANCH  13  27
TORSDOF 9
