REMARK  12 active torsions:
REMARK  status: ('A' for Active; 'I' for Inactive)
REMARK    1  A    between atoms: C2_2  and  C3_3 
REMARK    2  A    between atoms: C3_3  and  C4_4 
REMARK    3  A    between atoms: C4_4  and  N1_5 
REMARK       I    between atoms: N1_5  and  C5_7 
REMARK    4  A    between atoms: C5_7  and  C6_9 
REMARK    5  A    between atoms: C6_9  and  N2_10 
REMARK    6  A    between atoms: N3_13  and  C9_14 
REMARK    7  A    between atoms: C11_19  and  N5_20 
REMARK    8  A    between atoms: C12_22  and  C13_23 
REMARK    9  A    between atoms: C13_23  and  C14_24 
REMARK   10  A    between atoms: C20_33  and  N7_34 
REMARK   11  A    between atoms: C21_36  and  C22_37 
REMARK   12  A    between atoms: C22_37  and  C23_38 
ROOT
HETATM    1  C9  UNL     1      -1.152  -0.704  -0.357  1.00  0.00     0.115 A 
HETATM    2  C10 UNL     1      -1.625   0.574  -0.169  1.00  0.00     0.149 A 
HETATM    3 CL1  UNL     1      -0.502   1.956  -0.298  1.00  0.00    -0.061 Cl
HETATM    4  N4  UNL     1      -2.915   0.788   0.107  1.00  0.00    -0.178 N 
ATOM      5  H4  UNL     1      -3.242   1.745   0.241  1.00  0.00     0.185 HD
HETATM    6  C11 UNL     1      -3.794  -0.226   0.213  1.00  0.00     0.684 A 
HETATM    7  N6  UNL     1      -3.311  -1.484   0.025  1.00  0.00    -0.174 N 
ATOM      8  H6  UNL     1      -3.965  -2.263   0.102  1.00  0.00     0.186 HD
HETATM    9  C20 UNL     1      -2.007  -1.772  -0.260  1.00  0.00     0.150 A 
ENDROOT
BRANCH   1  10
HETATM   10  N3  UNL     1       0.262  -0.835  -0.649  1.00  0.00    -0.372 N 
HETATM   11  C8  UNL     1       1.116  -0.982   0.511  1.00  0.00     0.143 C 
HETATM   12  C7  UNL     1       2.522  -1.346   0.171  1.00  0.00     0.142 C 
HETATM   13  N2  UNL     1       2.897  -1.084  -1.170  1.00  0.00    -0.382 N 
HETATM   14  C25 UNL     1       1.988  -1.505  -2.174  1.00  0.00     0.142 C 
HETATM   15  C24 UNL     1       0.676  -0.787  -2.009  1.00  0.00     0.143 C 
BRANCH  13  16
HETATM   16  C6  UNL     1       4.265  -1.114  -1.486  1.00  0.00     0.160 C 
BRANCH  16  17
HETATM   17  C5  UNL     1       5.105  -0.045  -0.918  1.00  0.00     0.256 C 
HETATM   18  N1  UNL     1       6.488   0.012  -1.170  1.00  0.00    -0.356 N 
ATOM     19  H1  UNL     1       6.891  -0.712  -1.765  1.00  0.00     0.162 HD
HETATM   20  O1  UNL     1       4.584   0.832  -0.196  1.00  0.00    -0.267 OA
BRANCH  18  21
HETATM   21  C4  UNL     1       7.375   1.017  -0.649  1.00  0.00     0.123 C 
BRANCH  21  22
HETATM   22  C3  UNL     1       7.435   1.018   0.844  1.00  0.00     0.019 C 
BRANCH  22  23
HETATM   23  C2  UNL     1       8.385   2.075   1.376  1.00  0.00    -0.003 C 
HETATM   24  C1  UNL     1       7.967   3.460   0.945  1.00  0.00     0.005 C 
ENDBRANCH  22  23
ENDBRANCH  21  22
ENDBRANCH  18  21
ENDBRANCH  16  17
ENDBRANCH  13  16
ENDBRANCH   1  10
BRANCH   9  25
HETATM   25  N7  UNL     1      -1.632  -2.929  -0.428  1.00  0.00    -0.353 N 
HETATM   26  C21 UNL     1      -0.713  -3.875  -0.693  1.00  0.00     0.065 C 
ATOM     27  H7  UNL     1      -2.486  -3.470  -0.292  1.00  0.00     0.166 HD
BRANCH  26  28
HETATM   28  C22 UNL     1      -1.226  -5.324  -0.638  1.00  0.00     0.080 C 
BRANCH  28  29
HETATM   29  C23 UNL     1      -0.100  -6.285  -0.955  1.00  0.00     0.183 C 
HETATM   30 CL3  UNL     1      -0.777  -7.928  -0.869  1.00  0.00    -0.108 Cl
HETATM   31 CL4  UNL     1       1.230  -6.172   0.193  1.00  0.00    -0.108 Cl
ENDBRANCH  28  29
ENDBRANCH  26  28
ENDBRANCH   9  25
BRANCH   6  32
HETATM   32  N5  UNL     1      -4.992  -0.047   0.464  1.00  0.00    -0.205 N 
HETATM   33  C12 UNL     1      -6.034   0.764   0.729  1.00  0.00     0.083 C 
ATOM     34  H5  UNL     1      -5.391  -0.985   0.477  1.00  0.00     0.183 HD
BRANCH  33  35
HETATM   35  C13 UNL     1      -5.711   2.234   0.852  1.00  0.00     0.083 C 
BRANCH  35  36
HETATM   36  C14 UNL     1      -6.919   3.040   1.150  1.00  0.00    -0.053 A 
HETATM   37  C15 UNL     1      -7.729   3.595   0.220  1.00  0.00     0.009 A 
HETATM   38  C16 UNL     1      -8.845   4.339   0.505  1.00  0.00     0.024 A 
HETATM   39  C17 UNL     1      -9.163   4.535   1.838  1.00  0.00     0.034 A 
HETATM   40 CL2  UNL     1     -10.570   5.473   2.278  1.00  0.00    -0.084 Cl
HETATM   41  C18 UNL     1      -8.371   3.991   2.823  1.00  0.00     0.024 A 
HETATM   42  C19 UNL     1      -7.244   3.240   2.481  1.00  0.00     0.009 A 
ENDBRANCH  35  36
ENDBRANCH  33  35
ENDBRANCH   6  32
TORSDOF 12
