REMARK  18 active torsions:
REMARK  status: ('A' for Active; 'I' for Inactive)
REMARK    1  A    between atoms: C2_2  and  C4_4 
REMARK    2  A    between atoms: C4_4  and  O1_5 
REMARK    3  A    between atoms: C4_4  and  C5_7 
REMARK    4  A    between atoms: C5_7  and  C6_9 
REMARK    5  A    between atoms: C6_9  and  O3_10 
REMARK    6  A    between atoms: C10_16  and  O5_18 
REMARK    7  A    between atoms: O5_18  and  C12_19 
REMARK    8  A    between atoms: C12_19  and  C13_21 
REMARK    9  A    between atoms: C13_21  and  C14_22 
REMARK   10  A    between atoms: C14_22  and  C15_23 
REMARK   11  A    between atoms: C15_23  and  C16_24 
REMARK   12  A    between atoms: C16_24  and  C17_25 
REMARK   13  A    between atoms: C18_27  and  C19_28 
REMARK   14  A    between atoms: C19_28  and  C20_29 
REMARK   15  A    between atoms: C24_33  and  C25_34 
REMARK   16  A    between atoms: C25_34  and  O8_35 
REMARK   17  A    between atoms: C25_34  and  C26_37 
REMARK   18  A    between atoms: C27_38  and  C28_39 
ROOT
HETATM    1  C6  UNL     1      -2.890  -1.660   0.824  1.00  0.00     0.139 C 
HETATM    2  C7  UNL     1      -1.634  -2.472   0.571  1.00  0.00     0.126 C 
HETATM    3  C8  UNL     1      -0.890  -1.412  -0.235  1.00  0.00     0.138 C 
HETATM    4  O4  UNL     1      -0.318  -1.568  -1.280  1.00  0.00    -0.297 OA
HETATM    5  C9  UNL     1      -1.059  -0.195   0.595  1.00  0.00     0.105 C 
HETATM    6  C10 UNL     1      -0.620   0.993  -0.110  1.00  0.00     0.079 C 
HETATM    7  C11 UNL     1      -0.344   2.183   0.811  1.00  0.00     0.047 C 
HETATM    8  C23 UNL     1      -1.460   1.543  -1.241  1.00  0.00     0.050 C 
HETATM    9  C24 UNL     1      -2.868   1.671  -1.158  1.00  0.00     0.043 C 
HETATM   10  C29 UNL     1      -3.609   1.642   0.111  1.00  0.00    -0.022 C 
HETATM   11  C30 UNL     1      -3.363   0.755   1.201  1.00  0.00    -0.017 C 
HETATM   12  C31 UNL     1      -2.365  -0.301   1.282  1.00  0.00     0.025 C 
HETATM   13  C32 UNL     1      -2.011  -0.395   2.793  1.00  0.00     0.024 C 
ENDROOT
BRANCH   6  14
HETATM   14  O5  UNL     1       0.613   0.741  -0.734  1.00  0.00    -0.306 OA
BRANCH  14  15
HETATM   15  C12 UNL     1       1.860   0.442  -0.160  1.00  0.00     0.284 C 
HETATM   16  O6  UNL     1       1.833   0.418   1.066  1.00  0.00    -0.260 OA
BRANCH  15  17
HETATM   17  C13 UNL     1       2.960   0.224  -1.028  1.00  0.00     0.094 C 
BRANCH  17  18
HETATM   18  C14 UNL     1       4.284  -0.029  -0.752  1.00  0.00    -0.023 C 
HETATM   19  C18 UNL     1       5.012  -0.202  -1.964  1.00  0.00     0.008 C 
BRANCH  18  20
HETATM   20  C15 UNL     1       4.675  -0.089   0.605  1.00  0.00     0.070 C 
BRANCH  20  21
HETATM   21  C16 UNL     1       5.625  -0.288   1.365  1.00  0.00    -0.087 C 
BRANCH  21  22
HETATM   22  C17 UNL     1       6.694  -0.511   2.250  1.00  0.00     0.314 C 
HETATM   23  O7  UNL     1       7.856  -0.802   1.946  1.00  0.00    -0.293 OA
ENDBRANCH  21  22
ENDBRANCH  20  21
ENDBRANCH  18  20
BRANCH  19  24
HETATM   24  C19 UNL     1       6.050  -0.385  -2.575  1.00  0.00    -0.022 C 
BRANCH  24  25
HETATM   25  C20 UNL     1       7.462  -0.583  -2.590  1.00  0.00    -0.000 C 
HETATM   26  C21 UNL     1       8.135   0.425  -3.573  1.00  0.00     0.013 C 
HETATM   27  C22 UNL     1       8.239  -0.585  -1.335  1.00  0.00     0.013 C 
ENDBRANCH  24  25
ENDBRANCH  19  24
ENDBRANCH  17  18
ENDBRANCH  15  17
ENDBRANCH  14  15
ENDBRANCH   6  14
BRANCH   9  28
HETATM   28  C25 UNL     1      -3.357   2.888  -1.930  1.00  0.00     0.149 C 
BRANCH  28  29
HETATM   29  O8  UNL     1      -2.938   2.656  -3.269  1.00  0.00    -0.391 OA
ATOM     30  H8  UNL     1      -3.243   3.416  -3.751  1.00  0.00     0.210 HD
ENDBRANCH  28  29
BRANCH  28  31
HETATM   31  C26 UNL     1      -2.721   4.156  -1.547  1.00  0.00     0.012 C 
HETATM   32  C27 UNL     1      -3.236   5.329  -1.835  1.00  0.00     0.083 C 
BRANCH  32  33
HETATM   33  C28 UNL     1      -4.454   5.640  -2.541  1.00  0.00     0.198 C 
HETATM   34  O9  UNL     1      -4.722   6.902  -2.656  1.00  0.00    -0.645 OA
HETATM   35  O10 UNL     1      -5.292   4.705  -3.073  1.00  0.00    -0.645 OA
ENDBRANCH  32  33
ENDBRANCH  28  31
ENDBRANCH   9  28
BRANCH   1  36
HETATM   36  C5  UNL     1      -3.956  -2.281   1.547  1.00  0.00     0.195 C 
HETATM   37  O2  UNL     1      -5.087  -2.274   0.997  1.00  0.00    -0.291 OA
BRANCH  36  38
HETATM   38  C4  UNL     1      -3.972  -2.965   2.875  1.00  0.00     0.218 C 
BRANCH  38  39
HETATM   39  C2  UNL     1      -3.222  -4.207   2.932  1.00  0.00    -0.058 C 
HETATM   40  C1  UNL     1      -2.186  -4.355   3.761  1.00  0.00     0.017 C 
HETATM   41  C3  UNL     1      -3.550  -5.379   2.094  1.00  0.00     0.046 C 
ENDBRANCH  38  39
BRANCH  38  42
HETATM   42  O1  UNL     1      -5.314  -3.325   3.200  1.00  0.00    -0.384 OA
ATOM     43  H1  UNL     1      -5.805  -2.512   3.163  1.00  0.00     0.211 HD
ENDBRANCH  38  42
ENDBRANCH  36  38
ENDBRANCH   1  36
BRANCH   1  44
HETATM   44  O3  UNL     1      -3.413  -1.505  -0.506  1.00  0.00    -0.380 OA
ATOM     45  H3  UNL     1      -2.705  -1.092  -0.986  1.00  0.00     0.211 HD
ENDBRANCH   1  44
TORSDOF 18
