REMARK  14 active torsions:
REMARK  status: ('A' for Active; 'I' for Inactive)
REMARK    1  A    between atoms: C2_2  and  C4_4 
REMARK    2  A    between atoms: C6_6  and  O1_7 
REMARK    3  A    between atoms: O1_7  and  C7_8 
REMARK    4  A    between atoms: C7_8  and  C8_9 
REMARK    5  A    between atoms: C8_9  and  C9_10 
REMARK    6  A    between atoms: C9_10  and  O2_11 
REMARK    7  A    between atoms: O2_11  and  C10_12 
REMARK    8  A    between atoms: C12_17  and  O3_18 
REMARK    9  A    between atoms: C23_31  and  C25_33 
REMARK   10  A    between atoms: C25_33  and  O5_34 
REMARK   11  A    between atoms: O5_34  and  C26_35 
REMARK   12  A    between atoms: C26_35  and  C27_37 
REMARK   13  A    between atoms: C27_37  and  C28_38 
REMARK   14  A    between atoms: C28_38  and  C29_39 
ROOT
HETATM    1  C4  UNL     1       1.366   2.333  -0.832  1.00  0.00     0.025 C 
HETATM    2  C5  UNL     1       2.818   2.109  -0.476  1.00  0.00     0.042 C 
HETATM    3  C6  UNL     1       2.927   0.682   0.112  1.00  0.00     0.127 C 
HETATM    4  C13 UNL     1       1.477   0.283   0.258  1.00  0.00     0.024 C 
HETATM    5  C14 UNL     1       1.208  -1.173   0.116  1.00  0.00     0.008 C 
HETATM    6  C15 UNL     1      -0.241  -1.469   0.003  1.00  0.00     0.006 C 
HETATM    7  C16 UNL     1      -1.129  -0.242   0.152  1.00  0.00    -0.000 C 
HETATM    8  C17 UNL     1      -0.693   0.891  -0.713  1.00  0.00    -0.001 C 
HETATM    9  C18 UNL     1      -1.375   0.984  -2.048  1.00  0.00     0.006 C 
HETATM   10  C19 UNL     1      -2.294  -0.179  -2.321  1.00  0.00     0.006 C 
HETATM   11  C20 UNL     1      -3.250  -0.437  -1.197  1.00  0.00    -0.005 C 
HETATM   12  C21 UNL     1      -4.208   0.716  -1.130  1.00  0.00     0.006 C 
HETATM   13  C22 UNL     1      -3.983   1.328   0.205  1.00  0.00     0.012 C 
HETATM   14  C23 UNL     1      -3.429   0.192   1.096  1.00  0.00    -0.014 C 
HETATM   15  C24 UNL     1      -2.787   0.894   2.232  1.00  0.00     0.018 C 
HETATM   16  C30 UNL     1      -2.576  -0.571   0.159  1.00  0.00    -0.027 C 
HETATM   17  C31 UNL     1      -2.686  -2.047   0.510  1.00  0.00     0.016 C 
HETATM   18  C32 UNL     1       0.796   0.978  -0.881  1.00  0.00    -0.027 C 
HETATM   19  C33 UNL     1       1.257   0.337  -2.180  1.00  0.00     0.016 C 
ENDROOT
BRANCH   3  20
HETATM   20  O1  UNL     1       3.485   0.779   1.330  1.00  0.00    -0.385 OA
BRANCH  20  21
HETATM   21  C7  UNL     1       4.652   0.301   1.687  1.00  0.00     0.170 C 
BRANCH  21  22
HETATM   22  C8  UNL     1       4.987  -1.139   1.676  1.00  0.00     0.052 C 
BRANCH  22  23
HETATM   23  C9  UNL     1       5.024  -1.887   0.403  1.00  0.00     0.174 C 
BRANCH  23  24
HETATM   24  O2  UNL     1       5.936  -1.407  -0.539  1.00  0.00    -0.339 OA
BRANCH  24  25
HETATM   25  C10 UNL     1       7.247  -1.435  -0.151  1.00  0.00     0.471 C 
HETATM   26  N1  UNL     1       8.033  -2.272  -1.051  1.00  0.00    -0.020 N 
HETATM   27  C11 UNL     1       9.381  -1.734  -0.980  1.00  0.00     0.298 C 
ATOM     28  H12 UNL     1       7.974  -3.269  -0.845  1.00  0.00     0.283 HD
ATOM     29  H11 UNL     1       7.659  -2.326  -1.998  1.00  0.00     0.283 HD
HETATM   30  C12 UNL     1       9.143  -0.367  -0.427  1.00  0.00     0.287 C 
HETATM   31  O4  UNL     1       7.785  -0.167  -0.329  1.00  0.00    -0.307 OA
BRANCH  30  32
HETATM   32  O3  UNL     1       9.743  -0.189   0.838  1.00  0.00    -0.369 OA
ATOM     33  H3  UNL     1       9.592   0.680   1.190  1.00  0.00     0.212 HD
ENDBRANCH  30  32
ENDBRANCH  24  25
ENDBRANCH  23  24
ENDBRANCH  22  23
ENDBRANCH  21  22
ENDBRANCH  20  21
ENDBRANCH   3  20
BRANCH   1  34
HETATM   34  C2  UNL     1       0.732   3.331   0.050  1.00  0.00    -0.088 C 
HETATM   35  C1  UNL     1       0.197   4.440  -0.492  1.00  0.00     0.014 C 
HETATM   36  C3  UNL     1       0.664   3.229   1.522  1.00  0.00     0.043 C 
ENDBRANCH   1  34
BRANCH  14  37
HETATM   37  C25 UNL     1      -4.673  -0.483   1.605  1.00  0.00     0.188 C 
BRANCH  37  38
HETATM   38  O5  UNL     1      -5.518  -0.992   0.603  1.00  0.00    -0.321 OA
BRANCH  38  39
HETATM   39  C26 UNL     1      -6.693  -1.635   0.877  1.00  0.00     0.259 C 
HETATM   40  O6  UNL     1      -7.049  -1.786   2.064  1.00  0.00    -0.265 OA
BRANCH  39  41
HETATM   41  C27 UNL     1      -7.519  -2.138  -0.265  1.00  0.00     0.121 C 
BRANCH  41  42
HETATM   42  C28 UNL     1      -8.645  -1.136  -0.545  1.00  0.00     0.123 C 
BRANCH  42  43
HETATM   43  C29 UNL     1      -9.507  -0.980   0.653  1.00  0.00     0.172 C 
HETATM   44  O7  UNL     1     -10.298  -1.881   1.027  1.00  0.00    -0.648 OA
HETATM   45  O8  UNL     1      -9.420   0.205   1.364  1.00  0.00    -0.648 OA
ENDBRANCH  42  43
ENDBRANCH  41  42
ENDBRANCH  39  41
ENDBRANCH  38  39
ENDBRANCH  37  38
ENDBRANCH  14  37
TORSDOF 14
