REMARK  19 active torsions:
REMARK  status: ('A' for Active; 'I' for Inactive)
REMARK    1  A    between atoms: C3_3  and  C4_4 
REMARK    2  A    between atoms: C5_5  and  C6_6 
REMARK    3  A    between atoms: C7_7  and  C8_8 
REMARK    4  A    between atoms: C14_16  and  N2_17 
REMARK    5  A    between atoms: N2_17  and  C15_18 
REMARK    6  A    between atoms: C15_18  and  C16_19 
REMARK    7  A    between atoms: C16_19  and  C17_20 
REMARK    8  A    between atoms: C17_20  and  N3_21 
REMARK    9  A    between atoms: N4_24  and  C20_25 
REMARK   10  A    between atoms: C20_25  and  C21_26 
REMARK   11  A    between atoms: C21_26  and  O1_27 
REMARK   12  A    between atoms: O1_27  and  C22_28 
REMARK   13  A    between atoms: C22_28  and  N5_30 
REMARK   14  A    between atoms: N7_38  and  C28_40 
REMARK   15  A    between atoms: C28_40  and  C29_41 
REMARK   16  A    between atoms: C29_41  and  C30_42 
REMARK   17  A    between atoms: C30_42  and  C31_43 
REMARK   18  A    between atoms: C31_43  and  C32_44 
REMARK   19  A    between atoms: C32_44  and  N8_45 
ROOT
HETATM    1  C6  UNL     1      -4.092  -0.879   1.354  1.00  0.00     0.035 A 
HETATM    2  C7  UNL     1      -3.239  -0.536   2.391  1.00  0.00     0.060 A 
HETATM    3  N1  UNL     1      -1.995  -0.147   2.071  1.00  0.00    -0.315 N 
ATOM      4  H1  UNL     1      -1.364   0.110   2.831  1.00  0.00     0.170 HD
HETATM    5  C14 UNL     1      -1.520  -0.073   0.793  1.00  0.00     0.260 A 
HETATM    6  N6  UNL     1      -2.396  -0.426  -0.195  1.00  0.00    -0.302 N 
ATOM      7  H6  UNL     1      -2.072  -0.384  -1.161  1.00  0.00     0.171 HD
HETATM    8  C27 UNL     1      -3.646  -0.821   0.029  1.00  0.00     0.117 A 
HETATM    9  N7  UNL     1      -4.413  -1.143  -0.986  1.00  0.00    -0.375 N 
ATOM     10  H7  UNL     1      -5.368  -1.445  -0.795  1.00  0.00     0.161 HD
ENDROOT
BRANCH   5  11
HETATM   11  N2  UNL     1      -0.396   0.286   0.593  1.00  0.00    -0.388 NA
BRANCH  11  12
HETATM   12  C15 UNL     1       0.839   0.675   0.305  1.00  0.00     0.161 C 
BRANCH  12  13
HETATM   13  C16 UNL     1       1.959  -0.011   1.106  1.00  0.00     0.089 C 
BRANCH  13  14
HETATM   14  C17 UNL     1       3.316   0.516   0.676  1.00  0.00     0.279 C 
BRANCH  14  15
HETATM   15  N3  UNL     1       3.557   0.277  -0.709  1.00  0.00     0.091 N 
HETATM   16  C18 UNL     1       3.721  -1.090  -1.084  1.00  0.00     0.292 C 
HETATM   17  C19 UNL     1       5.097  -1.406  -1.585  1.00  0.00     0.152 C 
HETATM   18  N4  UNL     1       6.120  -0.641  -0.888  1.00  0.00    -0.388 N 
HETATM   19  C25 UNL     1       5.930   0.755  -0.964  1.00  0.00     0.152 C 
HETATM   20  C26 UNL     1       4.505   1.180  -1.256  1.00  0.00     0.292 C 
BRANCH  18  21
HETATM   21  C20 UNL     1       7.415  -1.176  -1.034  1.00  0.00     0.084 C 
BRANCH  21  22
HETATM   22  C21 UNL     1       8.435  -0.400  -0.242  1.00  0.00     0.222 C 
BRANCH  22  23
HETATM   23  O1  UNL     1       8.579   0.926  -0.597  1.00  0.00    -0.322 OA
BRANCH  23  24
HETATM   24  C22 UNL     1       9.360   1.917  -0.120  1.00  0.00     0.211 C 
HETATM   25  S1  UNL     1       8.667   3.432  -0.084  1.00  0.00    -0.033 SA
BRANCH  24  26
HETATM   26  N5  UNL     1      10.685   1.855   0.354  1.00  0.00    -0.361 N 
HETATM   27  C23 UNL     1      11.486   0.646   0.418  1.00  0.00     0.152 C 
HETATM   28  C24 UNL     1      11.363   3.074   0.833  1.00  0.00     0.152 C 
ENDBRANCH  24  26
ENDBRANCH  23  24
ENDBRANCH  22  23
ENDBRANCH  21  22
ENDBRANCH  18  21
ENDBRANCH  14  15
ENDBRANCH  13  14
ENDBRANCH  12  13
ENDBRANCH  11  12
ENDBRANCH   5  11
BRANCH   2  29
HETATM   29  C8  UNL     1      -3.628  -0.575   3.811  1.00  0.00    -0.008 A 
HETATM   30  C9  UNL     1      -2.982   0.363   4.612  1.00  0.00     0.014 A 
HETATM   31  C10 UNL     1      -3.159   0.378   5.971  1.00  0.00     0.001 A 
HETATM   32  C11 UNL     1      -3.994  -0.553   6.553  1.00  0.00     0.000 A 
HETATM   33  C12 UNL     1      -4.632  -1.480   5.762  1.00  0.00     0.001 A 
HETATM   34  C13 UNL     1      -4.440  -1.479   4.400  1.00  0.00     0.014 A 
ENDBRANCH   2  29
BRANCH   1  35
HETATM   35  C5  UNL     1      -5.484  -1.089   1.629  1.00  0.00     0.017 C 
HETATM   36  C4  UNL     1      -6.382  -1.670   0.906  1.00  0.00     0.001 C 
BRANCH  36  37
HETATM   37  C3  UNL     1      -7.760  -1.743   1.439  1.00  0.00    -0.004 C 
HETATM   38  C2  UNL     1      -8.688  -2.321   0.734  1.00  0.00    -0.031 C 
HETATM   39  C1  UNL     1      -8.377  -2.914  -0.616  1.00  0.00     0.036 C 
ENDBRANCH  36  37
ENDBRANCH   1  35
BRANCH   9  40
HETATM   40  C28 UNL     1      -3.977  -1.091  -2.343  1.00  0.00     0.121 C 
BRANCH  40  41
HETATM   41  C29 UNL     1      -4.213   0.265  -2.983  1.00  0.00     0.020 C 
BRANCH  41  42
HETATM   42  C30 UNL     1      -5.702   0.597  -2.977  1.00  0.00     0.003 C 
BRANCH  42  43
HETATM   43  C31 UNL     1      -5.956   1.948  -3.611  1.00  0.00     0.027 C 
BRANCH  43  44
HETATM   44  C32 UNL     1      -7.435   2.283  -3.607  1.00  0.00     0.229 C 
BRANCH  44  45
HETATM   45  N8  UNL     1      -8.217   1.322  -4.338  1.00  0.00    -0.079 N 
ATOM     46  H83 UNL     1      -7.868   1.211  -5.290  1.00  0.00     0.274 HD
ATOM     47  H82 UNL     1      -8.053   0.376  -3.993  1.00  0.00     0.274 HD
ATOM     48  H81 UNL     1      -9.212   1.547  -4.335  1.00  0.00     0.274 HD
ENDBRANCH  44  45
ENDBRANCH  43  44
ENDBRANCH  42  43
ENDBRANCH  41  42
ENDBRANCH  40  41
ENDBRANCH   9  40
TORSDOF 19
