REMARK  18 active torsions:
REMARK  status: ('A' for Active; 'I' for Inactive)
REMARK    1  A    between atoms: O1_2  and  C2_3 
REMARK    2  A    between atoms: C4_5  and  N1_6 
REMARK       I    between atoms: N1_6  and  C5_8 
REMARK    3  A    between atoms: C5_8  and  C6_10 
REMARK    4  A    between atoms: C6_10  and  N2_11 
REMARK    5  A    between atoms: N2_11  and  C7_12 
REMARK    6  A    between atoms: N2_11  and  C21_33 
REMARK    7  A    between atoms: C7_12  and  N3_14 
REMARK    8  A    between atoms: N3_14  and  C8_16 
REMARK    9  A    between atoms: C8_16  and  C9_17 
REMARK   10  A    between atoms: C9_17  and  C10_18 
REMARK   11  A    between atoms: C10_18  and  C11_19 
REMARK   12  A    between atoms: C11_19  and  C12_20 
REMARK       I    between atoms: C12_20  and  N4_22 
REMARK   13  A    between atoms: N4_22  and  C13_24 
REMARK   14  A    between atoms: C13_24  and  C14_25 
REMARK   15  A    between atoms: C14_25  and  C15_26 
REMARK   16  A    between atoms: C15_26  and  N5_27 
REMARK   17  A    between atoms: C27_39  and  O4_40 
REMARK   18  A    between atoms: C29_42  and  O5_43 
ROOT
HETATM    1  N2  UNL     1       2.202   1.559   1.199  1.00  0.00    -0.345 N 
ENDROOT
BRANCH   1   2
HETATM    2  C6  UNL     1       2.788   0.816   0.126  1.00  0.00     0.228 C 
BRANCH   2   3
HETATM    3  C5  UNL     1       4.236   0.552   0.171  1.00  0.00     0.240 C 
HETATM    4  N1  UNL     1       4.747  -0.298  -0.870  1.00  0.00    -0.326 N 
ATOM      5  H1  UNL     1       4.081  -0.665  -1.549  1.00  0.00     0.169 HD
HETATM    6  O2  UNL     1       5.042   0.991   1.016  1.00  0.00    -0.271 OA
BRANCH   4   7
HETATM    7  C4  UNL     1       6.095  -0.660  -1.021  1.00  0.00     0.040 A 
HETATM    8  C3  UNL     1       6.382  -1.893  -1.622  1.00  0.00     0.069 A 
HETATM    9  C2  UNL     1       7.662  -2.326  -1.837  1.00  0.00     0.106 A 
HETATM   10  C29 UNL     1       8.726  -1.534  -1.457  1.00  0.00     0.135 A 
HETATM   11  C27 UNL     1       8.498  -0.316  -0.865  1.00  0.00     0.106 A 
HETATM   12  C26 UNL     1       7.184   0.097  -0.658  1.00  0.00     0.069 A 
BRANCH   9  13
HETATM   13  O1  UNL     1       7.924  -3.552  -2.434  1.00  0.00    -0.353 OA
HETATM   14  C1  UNL     1       6.871  -4.392  -2.831  1.00  0.00     0.210 C 
ENDBRANCH   9  13
BRANCH  10  15
HETATM   15  O5  UNL     1      10.007  -2.011  -1.694  1.00  0.00    -0.351 OA
HETATM   16  C30 UNL     1      10.618  -1.689  -2.930  1.00  0.00     0.210 C 
ENDBRANCH  10  15
BRANCH  11  17
HETATM   17  O4  UNL     1       9.603   0.427  -0.511  1.00  0.00    -0.353 OA
HETATM   18  C28 UNL     1       9.433   1.698   0.095  1.00  0.00     0.210 C 
ENDBRANCH  11  17
ENDBRANCH   4   7
ENDBRANCH   2   3
ENDBRANCH   1   2
BRANCH   1  19
HETATM   19  C7  UNL     1       0.965   2.242   0.962  1.00  0.00     0.170 C 
HETATM   20  S1  UNL     1       0.265   3.154   2.117  1.00  0.00    -0.041 SA
BRANCH  19  21
HETATM   21  N3  UNL     1       0.270   2.221  -0.294  1.00  0.00    -0.367 N 
ATOM     22  H3  UNL     1       0.669   1.680  -1.061  1.00  0.00     0.161 HD
BRANCH  21  23
HETATM   23  C8  UNL     1      -0.953   2.921  -0.519  1.00  0.00     0.122 C 
BRANCH  23  24
HETATM   24  C9  UNL     1      -2.179   2.404   0.144  1.00  0.00     0.020 C 
BRANCH  24  25
HETATM   25  C10 UNL     1      -2.542   1.003  -0.306  1.00  0.00     0.011 C 
BRANCH  25  26
HETATM   26  C11 UNL     1      -3.821   0.544   0.399  1.00  0.00     0.103 C 
BRANCH  26  27
HETATM   27  C12 UNL     1      -4.196  -0.821  -0.100  1.00  0.00     0.217 C 
HETATM   28  O3  UNL     1      -3.490  -1.365  -0.980  1.00  0.00    -0.274 OA
HETATM   29  N4  UNL     1      -5.325  -1.491   0.401  1.00  0.00    -0.361 N 
ATOM     30  H4  UNL     1      -5.863  -1.020   1.128  1.00  0.00     0.162 HD
BRANCH  29  31
HETATM   31  C13 UNL     1      -5.787  -2.787  -0.026  1.00  0.00     0.124 C 
BRANCH  31  32
HETATM   32  C14 UNL     1      -6.174  -2.807  -1.469  1.00  0.00     0.050 C 
BRANCH  32  33
HETATM   33  C15 UNL     1      -7.218  -1.878  -1.905  1.00  0.00     0.274 C 
BRANCH  33  34
HETATM   34  N5  UNL     1      -8.540  -1.918  -1.423  1.00  0.00     0.088 N 
HETATM   35  C16 UNL     1      -9.328  -1.054  -2.358  1.00  0.00     0.272 C 
HETATM   36  C17 UNL     1     -10.441  -0.339  -1.672  1.00  0.00     0.030 C 
HETATM   37  C18 UNL     1      -9.929   0.687  -0.677  1.00  0.00     0.003 C 
HETATM   38  C19 UNL     1      -8.736   0.068   0.036  1.00  0.00     0.030 C 
HETATM   39  C20 UNL     1      -8.822  -1.452  -0.104  1.00  0.00     0.272 C 
ENDBRANCH  33  34
ENDBRANCH  32  33
ENDBRANCH  31  32
ENDBRANCH  29  31
ENDBRANCH  26  27
ENDBRANCH  25  26
ENDBRANCH  24  25
ENDBRANCH  23  24
ENDBRANCH  21  23
ENDBRANCH  19  21
ENDBRANCH   1  19
BRANCH   1  40
HETATM   40  C21 UNL     1       2.725   1.617   2.555  1.00  0.00     0.087 C 
HETATM   41  C22 UNL     1       3.043   2.964   3.062  1.00  0.00     0.025 C 
HETATM   42  C23 UNL     1       2.635   3.066   4.490  1.00  0.00     0.002 C 
HETATM   43  C24 UNL     1       1.805   1.862   4.744  1.00  0.00     0.002 C 
HETATM   44  C25 UNL     1       1.757   0.999   3.532  1.00  0.00     0.025 C 
ENDBRANCH   1  40
TORSDOF 18
