REMARK  15 active torsions:
REMARK  status: ('A' for Active; 'I' for Inactive)
REMARK    1  A    between atoms: C2_2  and  C3_3 
REMARK    2  A    between atoms: C2_2  and  C28_37 
REMARK    3  A    between atoms: C4_4  and  C5_5 
REMARK    4  A    between atoms: C6_6  and  O1_7 
REMARK    5  A    between atoms: C8_10  and  O2_11 
REMARK    6  A    between atoms: C14_18  and  O3_20 
REMARK    7  A    between atoms: O3_20  and  C16_21 
REMARK    8  A    between atoms: C16_21  and  C17_23 
REMARK    9  A    between atoms: C18_24  and  C19_25 
REMARK   10  A    between atoms: C19_25  and  C20_27 
REMARK   11  A    between atoms: C20_27  and  C21_28 
REMARK   12  A    between atoms: C21_28  and  C22_29 
REMARK   13  A    between atoms: C22_29  and  C23_30 
REMARK       I    between atoms: C23_30  and  N1_32 
REMARK   14  A    between atoms: C28_37  and  C30_39 
REMARK   15  A    between atoms: C30_39  and  O7_42 
ROOT
HETATM    1  C5  UNL     1      -4.036  -1.208  -0.554  1.00  0.00     0.042 C 
HETATM    2  C6  UNL     1      -4.555  -0.904  -1.911  1.00  0.00     0.128 C 
HETATM    3  C7  UNL     1      -3.580  -0.795  -3.039  1.00  0.00     0.065 C 
HETATM    4  C8  UNL     1      -2.262  -1.546  -2.785  1.00  0.00     0.132 C 
HETATM    5  C9  UNL     1      -1.723  -0.950  -1.581  1.00  0.00     0.018 C 
HETATM    6  C10 UNL     1      -1.690   0.576  -1.761  1.00  0.00     0.021 C 
HETATM    7  C11 UNL     1      -2.582  -1.331  -0.397  1.00  0.00     0.009 C 
HETATM    8  C12 UNL     1      -1.915  -0.463   0.633  1.00  0.00     0.009 C 
HETATM    9  C13 UNL     1      -0.449  -0.744   0.345  1.00  0.00     0.039 C 
HETATM   10  C14 UNL     1      -0.377  -1.296  -1.065  1.00  0.00     0.077 C 
HETATM   11  C15 UNL     1      -0.040  -2.739  -1.008  1.00  0.00     0.047 C 
ENDROOT
BRANCH  10  12
HETATM   12  O3  UNL     1       0.577  -0.635  -1.870  1.00  0.00    -0.306 OA
BRANCH  12  13
HETATM   13  C16 UNL     1       1.976  -0.720  -1.607  1.00  0.00     0.283 C 
HETATM   14  O4  UNL     1       2.212  -1.428  -0.597  1.00  0.00    -0.260 OA
BRANCH  13  15
HETATM   15  C17 UNL     1       2.922  -0.046  -2.443  1.00  0.00     0.086 C 
HETATM   16  C18 UNL     1       4.200  -0.005  -2.326  1.00  0.00     0.056 C 
BRANCH  16  17
HETATM   17  C19 UNL     1       5.113  -0.572  -1.383  1.00  0.00     0.149 C 
HETATM   18  O5  UNL     1       4.841  -1.280  -0.394  1.00  0.00    -0.293 OA
BRANCH  17  19
HETATM   19  C20 UNL     1       6.594  -0.309  -1.558  1.00  0.00     0.083 C 
BRANCH  19  20
HETATM   20  C21 UNL     1       7.175   0.206  -0.271  1.00  0.00     0.017 C 
BRANCH  20  21
HETATM   21  C22 UNL     1       8.635   0.467  -0.402  1.00  0.00     0.103 C 
BRANCH  21  22
HETATM   22  C23 UNL     1       9.157   1.014   0.874  1.00  0.00     0.219 C 
HETATM   23  O6  UNL     1       8.358   1.243   1.806  1.00  0.00    -0.273 OA
HETATM   24  N1  UNL     1      10.539   1.275   1.027  1.00  0.00    -0.352 N 
HETATM   25  C24 UNL     1      11.245   1.830   2.169  1.00  0.00     0.126 C 
HETATM   26  C27 UNL     1      11.590   1.020   0.037  1.00  0.00     0.126 C 
HETATM   27  C25 UNL     1      12.568   1.084   2.248  1.00  0.00     0.021 C 
HETATM   28  C26 UNL     1      12.650   0.355   0.921  1.00  0.00     0.021 C 
ENDBRANCH  21  22
ENDBRANCH  20  21
ENDBRANCH  19  20
ENDBRANCH  17  19
ENDBRANCH  16  17
ENDBRANCH  13  15
ENDBRANCH  12  13
ENDBRANCH  10  12
BRANCH   4  29
HETATM   29  O2  UNL     1      -2.606  -2.880  -2.767  1.00  0.00    -0.395 OA
ATOM     30  H2  UNL     1      -1.792  -3.344  -2.610  1.00  0.00     0.210 HD
ENDBRANCH   4  29
BRANCH   1  31
HETATM   31  C4  UNL     1      -4.713  -0.328   0.424  1.00  0.00    -0.023 C 
HETATM   32  C3  UNL     1      -5.643  -0.656   1.290  1.00  0.00    -0.025 C 
BRANCH  32  33
HETATM   33  C2  UNL     1      -6.278   0.273   2.247  1.00  0.00     0.010 C 
HETATM   34  C1  UNL     1      -5.942  -0.314   3.641  1.00  0.00     0.015 C 
BRANCH  33  35
HETATM   35  C28 UNL     1      -7.740   0.442   2.183  1.00  0.00     0.022 C 
HETATM   36  C29 UNL     1      -8.503  -0.868   2.351  1.00  0.00     0.014 C 
BRANCH  35  37
HETATM   37  C30 UNL     1      -8.288   1.249   1.043  1.00  0.00     0.054 C 
HETATM   38  C31 UNL     1      -7.723   2.666   1.035  1.00  0.00     0.045 C 
HETATM   39  C32 UNL     1      -9.806   1.480   1.252  1.00  0.00     0.045 C 
BRANCH  37  40
HETATM   40  O7  UNL     1      -8.048   0.674  -0.167  1.00  0.00    -0.390 OA
ATOM     41  H7  UNL     1      -8.395   1.185  -0.889  1.00  0.00     0.210 HD
ENDBRANCH  37  40
ENDBRANCH  35  37
ENDBRANCH  33  35
ENDBRANCH  32  33
ENDBRANCH   1  31
BRANCH   2  42
HETATM   42  O1  UNL     1      -5.312   0.284  -1.963  1.00  0.00    -0.395 OA
ATOM     43  H1  UNL     1      -5.644   0.479  -2.832  1.00  0.00     0.210 HD
ENDBRANCH   2  42
TORSDOF 15
