REMARK  12 active torsions:
REMARK  status: ('A' for Active; 'I' for Inactive)
REMARK    1  A    between atoms: C3_3  and  C4_4 
REMARK    2  A    between atoms: C7_8  and  C8_9 
REMARK    3  A    between atoms: C8_9  and  C9_10 
REMARK    4  A    between atoms: C14_17  and  C15_18 
REMARK    5  A    between atoms: C15_18  and  O3_20 
REMARK    6  A    between atoms: O3_20  and  C16_21 
REMARK    7  A    between atoms: C16_21  and  C17_22 
REMARK    8  A    between atoms: C22_27  and  O4_28 
REMARK    9  A    between atoms: C23_30  and  C24_31 
REMARK   10  A    between atoms: C24_31  and  C25_32 
REMARK   11  A    between atoms: C25_32  and  O5_33 
REMARK   12  A    between atoms: C26_35  and  O6_36 
ROOT
HETATM    1  C4  UNL     1      -1.297   1.678  -0.681  1.00  0.00     0.043 C 
HETATM    2 CL1  UNL     1      -1.785   3.059  -1.779  1.00  0.00    -0.084 Cl
HETATM    3  C5  UNL     1      -0.025   1.657  -0.445  1.00  0.00    -0.056 C 
HETATM    4  C6  UNL     1       0.844   2.732  -1.065  1.00  0.00     0.048 C 
HETATM    5  C7  UNL     1       1.919   3.074  -0.056  1.00  0.00     0.065 C 
HETATM    6  C13 UNL     1       2.781   1.874   0.057  1.00  0.00     0.145 C 
HETATM    7  O1  UNL     1       3.951   1.946   0.287  1.00  0.00    -0.297 OA
HETATM    8  C14 UNL     1       2.130   0.554  -0.128  1.00  0.00     0.159 C 
HETATM    9  C20 UNL     1       0.658   0.641   0.377  1.00  0.00     0.058 C 
ENDROOT
BRANCH   1  10
HETATM   10  C3  UNL     1      -2.423   0.856  -0.283  1.00  0.00    -0.026 C 
HETATM   11  C2  UNL     1      -2.376  -0.091   0.798  1.00  0.00    -0.030 C 
HETATM   12  C1  UNL     1      -2.132   0.239   2.060  1.00  0.00     0.022 C 
HETATM   13  C26 UNL     1      -2.670  -1.533   0.531  1.00  0.00     0.157 C 
HETATM   14  C23 UNL     1      -4.055  -1.664  -0.097  1.00  0.00     0.050 C 
HETATM   15  C22 UNL     1      -4.347  -0.485  -0.988  1.00  0.00     0.129 C 
HETATM   16  C21 UNL     1      -3.115   0.198  -1.480  1.00  0.00     0.073 C 
BRANCH  13  17
HETATM   17  O6  UNL     1      -1.769  -2.171  -0.272  1.00  0.00    -0.390 OA
ATOM     18  H6  UNL     1      -1.956  -3.087  -0.442  1.00  0.00     0.210 HD
ENDBRANCH  13  17
BRANCH  14  19
HETATM   19  C24 UNL     1      -4.035  -2.911  -0.938  1.00  0.00     0.036 C 
BRANCH  19  20
HETATM   20  C25 UNL     1      -5.309  -3.212  -1.654  1.00  0.00     0.164 C 
BRANCH  20  21
HETATM   21  O5  UNL     1      -6.322  -3.358  -0.692  1.00  0.00    -0.401 OA
ATOM     22  H5  UNL     1      -7.133  -3.550  -1.148  1.00  0.00     0.209 HD
ENDBRANCH  20  21
ENDBRANCH  19  20
ENDBRANCH  14  19
BRANCH  15  23
HETATM   23  O4  UNL     1      -5.039   0.454  -0.189  1.00  0.00    -0.395 OA
ATOM     24  H4  UNL     1      -5.823   0.019   0.124  1.00  0.00     0.210 HD
ENDBRANCH  15  23
ENDBRANCH   1  10
BRANCH   5  25
HETATM   25  C8  UNL     1       2.660   4.319  -0.398  1.00  0.00     0.058 C 
BRANCH  25  26
HETATM   26  C9  UNL     1       3.346   4.217  -1.735  1.00  0.00    -0.017 A 
HETATM   27  C10 UNL     1       2.815   4.561  -2.946  1.00  0.00     0.015 A 
HETATM   28  C11 UNL     1       3.582   4.401  -4.032  1.00  0.00     0.008 A 
HETATM   29  C12 UNL     1       4.847   3.902  -3.833  1.00  0.00     0.050 A 
HETATM   30  S1  UNL     1       4.908   3.679  -2.145  1.00  0.00    -0.106 SA
ENDBRANCH  25  26
ENDBRANCH   5  25
BRANCH   8  31
HETATM   31  C15 UNL     1       2.823  -0.554   0.566  1.00  0.00     0.270 C 
HETATM   32  O2  UNL     1       3.282  -1.516  -0.119  1.00  0.00    -0.264 OA
BRANCH  31  33
HETATM   33  O3  UNL     1       3.006  -0.611   1.927  1.00  0.00    -0.321 OA
BRANCH  33  34
HETATM   34  C16 UNL     1       3.646  -1.621   2.648  1.00  0.00     0.182 C 
BRANCH  34  35
HETATM   35  C17 UNL     1       2.993  -2.974   2.471  1.00  0.00     0.002 C 
HETATM   36  C18 UNL     1       1.570  -2.908   2.939  1.00  0.00     0.011 C 
HETATM   37  C19 UNL     1       3.736  -3.923   3.421  1.00  0.00     0.011 C 
ENDBRANCH  34  35
ENDBRANCH  33  34
ENDBRANCH  31  33
ENDBRANCH   8  31
TORSDOF 12
