REMARK  6 active torsions:
REMARK  status: ('A' for Active; 'I' for Inactive)
REMARK    1  A    between atoms: C1_2  and  C2_4 
REMARK    2  A    between atoms: C3_5  and  N2_6 
REMARK    3  A    between atoms: N2_6  and  N3_8 
REMARK    4  A    between atoms: N3_8  and  C4_10 
REMARK    5  A    between atoms: C6_12  and  C7_13 
REMARK    6  A    between atoms: C12_25  and  N7_26 
ROOT
HETATM    1  N3  UNL     1      -0.734  -0.198  -0.694  1.00  0.00    -0.300 N 
ATOM      2  H3  UNL     1      -0.816  -1.206  -0.825  1.00  0.00     0.187 HD
ENDROOT
BRANCH   1   3
HETATM    3  N2  UNL     1      -1.860   0.600  -0.625  1.00  0.00    -0.300 N 
ATOM      4  H2  UNL     1      -1.895   1.432  -1.214  1.00  0.00     0.186 HD
BRANCH   3   5
HETATM    5  C3  UNL     1      -2.979   0.329   0.222  1.00  0.00     0.089 C 
HETATM    6  C2  UNL     1      -4.205   0.163  -0.233  1.00  0.00     0.120 C 
HETATM    7  N8  UNL     1      -5.117  -0.106   0.856  1.00  0.00    -0.382 N 
HETATM    8  C13 UNL     1      -4.254  -0.652   1.918  1.00  0.00     0.159 C 
ATOM      9  H8  UNL     1      -6.125   0.047   0.883  1.00  0.00     0.160 HD
HETATM   10  C12 UNL     1      -3.025   0.193   1.686  1.00  0.00     0.254 C 
BRANCH   6  11
HETATM   11  C1  UNL     1      -4.651   0.219  -1.633  1.00  0.00     0.283 C 
HETATM   12  N1  UNL     1      -6.015   0.019  -1.988  1.00  0.00    -0.056 NA
HETATM   13  O1  UNL     1      -3.767   0.451  -2.496  1.00  0.00    -0.269 OA
ENDBRANCH   6  11
BRANCH  10  14
HETATM   14  N7  UNL     1      -1.835  -0.431   2.225  1.00  0.00    -0.068 N 
ATOM     15  H73 UNL     1      -1.659  -1.331   1.779  1.00  0.00     0.275 HD
ATOM     16  H72 UNL     1      -0.995   0.066   1.929  1.00  0.00     0.275 HD
ATOM     17  H71 UNL     1      -1.867  -0.525   3.240  1.00  0.00     0.275 HD
ENDBRANCH  10  14
ENDBRANCH   3   5
ENDBRANCH   1   3
BRANCH   1  18
HETATM   18  C4  UNL     1       0.552   0.423  -0.578  1.00  0.00     0.055 A 
HETATM   19  C5  UNL     1       1.719  -0.333  -0.641  1.00  0.00     0.064 A 
HETATM   20  C6  UNL     1       2.918   0.294  -0.526  1.00  0.00     0.081 A 
HETATM   21  N6  UNL     1       2.982   1.637  -0.353  1.00  0.00    -0.320 N 
HETATM   22  C10 UNL     1       1.895   2.417  -0.284  1.00  0.00     0.248 A 
ATOM     23  H6  UNL     1       3.900   2.074  -0.272  1.00  0.00     0.169 HD
HETATM   24  O2  UNL     1       1.956   3.663  -0.123  1.00  0.00    -0.268 OA
HETATM   25  C11 UNL     1       0.671   1.786  -0.400  1.00  0.00     0.105 A 
BRANCH  20  26
HETATM   26  C7  UNL     1       4.181  -0.477  -0.589  1.00  0.00     0.124 C 
HETATM   27  N4  UNL     1       4.248  -1.737  -0.749  1.00  0.00    -0.373 N 
HETATM   28  C8  UNL     1       5.642  -2.200  -0.768  1.00  0.00     0.141 C 
ATOM     29  H4  UNL     1       3.438  -2.348  -0.851  1.00  0.00     0.161 HD
HETATM   30  C9  UNL     1       6.390  -1.028  -0.141  1.00  0.00     0.141 C 
HETATM   31  N5  UNL     1       5.498   0.057  -0.483  1.00  0.00    -0.373 N 
ATOM     32  H5  UNL     1       5.764   1.032  -0.623  1.00  0.00     0.161 HD
ENDBRANCH  20  26
ENDBRANCH   1  18
TORSDOF 6
