REMARK  8 active torsions:
REMARK  status: ('A' for Active; 'I' for Inactive)
REMARK    1  A    between atoms: N1_1  and  C1_4 
REMARK    2  A    between atoms: C2_7  and  N3_8 
REMARK    3  A    between atoms: N4_11  and  C3_12 
REMARK    4  A    between atoms: C3_12  and  C4_13 
REMARK    5  A    between atoms: C4_13  and  C5_14 
REMARK    6  A    between atoms: C5_14  and  C6_15 
REMARK    7  A    between atoms: C8_20  and  C9_21 
REMARK    8  A    between atoms: C9_21  and  N6_22 
ROOT
HETATM    1  C4  UNL     1       0.802  -0.794   0.327  1.00  0.00     0.024 C 
ENDROOT
BRANCH   1   2
HETATM    2  C3  UNL     1       1.815  -0.800  -0.790  1.00  0.00     0.153 C 
BRANCH   2   3
HETATM    3  N4  UNL     1       3.025  -0.120  -0.364  1.00  0.00    -0.132 N 
HETATM    4  C2  UNL     1       3.208   1.203  -0.520  1.00  0.00     0.696 A 
HETATM    5  N2  UNL     1       4.347   1.846  -0.127  1.00  0.00    -0.022 N 
HETATM    6  C1  UNL     1       5.307   1.114   0.434  1.00  0.00     0.694 A 
ATOM      7  H2  UNL     1       4.458   2.851  -0.259  1.00  0.00     0.203 HD
HETATM    8  N8  UNL     1       5.162  -0.220   0.610  1.00  0.00    -0.140 N 
HETATM    9  C11 UNL     1       4.033  -0.821   0.214  1.00  0.00     0.355 A 
ATOM     10  H8  UNL     1       5.909  -0.764   1.042  1.00  0.00     0.189 HD
HETATM   11  O3  UNL     1       3.870  -2.055   0.363  1.00  0.00    -0.245 OA
BRANCH   4  12
HETATM   12  N3  UNL     1       2.304   1.950  -1.054  1.00  0.00    -0.234 N 
ATOM     13  H32 UNL     1       2.443   2.954  -1.172  1.00  0.00     0.174 HD
ATOM     14  H31 UNL     1       1.453   1.470  -1.348  1.00  0.00     0.174 HD
ENDBRANCH   4  12
BRANCH   6  15
HETATM   15  N1  UNL     1       6.418   1.644   0.835  1.00  0.00    -0.234 N 
ATOM     16  H12 UNL     1       6.527   2.649   0.702  1.00  0.00     0.174 HD
ATOM     17  H11 UNL     1       7.154   1.083   1.265  1.00  0.00     0.174 HD
ENDBRANCH   6  15
ENDBRANCH   2   3
ENDBRANCH   1   2
BRANCH   1  18
HETATM   18  C5  UNL     1      -0.459  -1.506  -0.127  1.00  0.00     0.036 C 
BRANCH  18  19
HETATM   19  C6  UNL     1      -1.443  -1.466   1.048  1.00  0.00     0.176 C 
HETATM   20  N5  UNL     1      -2.634  -2.156   0.577  1.00  0.00    -0.346 N 
HETATM   21  C7  UNL     1      -3.784  -1.461   0.150  1.00  0.00     0.242 C 
ATOM     22  H5  UNL     1      -2.637  -3.176   0.555  1.00  0.00     0.163 HD
HETATM   23  O1  UNL     1      -4.915  -2.018   0.023  1.00  0.00    -0.271 OA
HETATM   24  C8  UNL     1      -3.692  -0.032  -0.165  1.00  0.00     0.202 C 
HETATM   25  N7  UNL     1      -2.590   0.654   0.452  1.00  0.00    -0.344 N 
HETATM   26  C10 UNL     1      -1.726  -0.041   1.312  1.00  0.00     0.241 C 
ATOM     27  H7  UNL     1      -2.436   1.645   0.265  1.00  0.00     0.163 HD
HETATM   28  O2  UNL     1      -1.199   0.522   2.288  1.00  0.00    -0.271 OA
BRANCH  24  29
HETATM   29  C9  UNL     1      -4.961   0.694   0.312  1.00  0.00     0.264 C 
BRANCH  29  30
HETATM   30  N6  UNL     1      -4.838   2.105  -0.016  1.00  0.00    -0.077 N 
ATOM     31  H63 UNL     1      -3.985   2.521   0.359  1.00  0.00     0.274 HD
ATOM     32  H62 UNL     1      -4.647   2.261  -1.006  1.00  0.00     0.274 HD
ATOM     33  H61 UNL     1      -5.680   2.587   0.300  1.00  0.00     0.274 HD
ENDBRANCH  29  30
ENDBRANCH  24  29
ENDBRANCH  18  19
ENDBRANCH   1  18
TORSDOF 8
