REMARK  21 active torsions:
REMARK  status: ('A' for Active; 'I' for Inactive)
REMARK    1  A    between atoms: C2_2  and  N2_6 
REMARK    2  A    between atoms: C3_8  and  O1_10 
REMARK    3  A    between atoms: O1_10  and  C4_11 
REMARK    4  A    between atoms: C4_11  and  N4_12 
REMARK    5  A    between atoms: C4_11  and  C16_36 
REMARK    6  A    between atoms: N4_12  and  C5_14 
REMARK    7  A    between atoms: C5_14  and  C7_16 
REMARK       I    between atoms: C7_16  and  N5_18 
REMARK    8  A    between atoms: N5_18  and  C8_19 
REMARK    9  A    between atoms: C8_19  and  C9_20 
REMARK   10  A    between atoms: C8_19  and  C14_30 
REMARK   11  A    between atoms: C9_20  and  N6_21 
REMARK   12  A    between atoms: C14_30  and  O5_31 
REMARK   13  A    between atoms: C14_30  and  C15_33 
REMARK   14  A    between atoms: C15_33  and  O6_34 
REMARK   15  A    between atoms: C16_36  and  N8_37 
REMARK   16  A    between atoms: C16_36  and  C17_41 
REMARK   17  A    between atoms: C17_41  and  O7_42 
REMARK   18  A    between atoms: C17_41  and  C18_44 
REMARK   19  A    between atoms: C18_44  and  C19_46 
REMARK   20  A    between atoms: C19_46  and  O9_47 
REMARK   21  A    between atoms: C19_46  and  O10_49 
ROOT
HETATM    1  C4  UNL     1      -2.022  -0.285   0.340  1.00  0.00     0.260 C 
ENDROOT
BRANCH   1   2
HETATM    2  O1  UNL     1      -3.240   0.242  -0.173  1.00  0.00    -0.296 OA
BRANCH   2   3
HETATM    3  C3  UNL     1      -3.653   1.527  -0.124  1.00  0.00     0.234 C 
HETATM    4  N2  UNL     1      -3.063   2.352   0.676  1.00  0.00    -0.315 N 
ATOM      5  H2  UNL     1      -2.290   2.063   1.275  1.00  0.00     0.170 HD
HETATM    6  N3  UNL     1      -4.741   1.908  -0.975  1.00  0.00    -0.056 NA
BRANCH   4   7
HETATM    7  C2  UNL     1      -3.554   3.687   0.673  1.00  0.00     0.073 C 
HETATM    8  C1  UNL     1      -3.798   4.430  -0.586  1.00  0.00     0.088 C 
HETATM    9  N1  UNL     1      -3.806   4.272   1.778  1.00  0.00    -0.389 N 
ATOM     10  H12 UNL     1      -4.158   5.229   1.776  1.00  0.00     0.157 HD
ATOM     11  H11 UNL     1      -3.638   3.761   2.644  1.00  0.00     0.157 HD
ENDBRANCH   4   7
ENDBRANCH   2   3
ENDBRANCH   1   2
BRANCH   1  12
HETATM   12  N4  UNL     1      -0.942   0.346  -0.314  1.00  0.00    -0.381 N 
ATOM     13  H4  UNL     1      -1.095   1.099  -0.985  1.00  0.00     0.156 HD
BRANCH  12  14
HETATM   14  C5  UNL     1       0.380  -0.115   0.004  1.00  0.00     0.182 C 
HETATM   15  C6  UNL     1       0.714   0.116   1.467  1.00  0.00     0.043 C 
BRANCH  14  16
HETATM   16  C7  UNL     1       1.341   0.751  -0.785  1.00  0.00     0.313 C 
HETATM   17  O2  UNL     1       0.856   1.917  -1.093  1.00  0.00    -0.255 OA
HETATM   18  N5  UNL     1       2.551   0.437  -1.167  1.00  0.00    -0.373 NA
BRANCH  18  19
HETATM   19  C8  UNL     1       3.686   0.161  -1.468  1.00  0.00     0.115 C 
BRANCH  19  20
HETATM   20  C9  UNL     1       4.882   0.287  -0.607  1.00  0.00     0.204 C 
BRANCH  20  21
HETATM   21  N6  UNL     1       4.619   0.517   0.775  1.00  0.00    -0.303 N 
HETATM   22  C10 UNL     1       4.495   1.770   1.229  1.00  0.00     0.101 A 
HETATM   23  C11 UNL     1       4.243   2.012   2.588  1.00  0.00     0.092 A 
HETATM   24  C12 UNL     1       4.124   0.966   3.448  1.00  0.00     0.250 A 
HETATM   25  O3  UNL     1       3.898   1.193   4.662  1.00  0.00    -0.268 OA
HETATM   26  N7  UNL     1       4.254  -0.289   2.959  1.00  0.00    -0.275 N 
HETATM   27  C13 UNL     1       4.499  -0.495   1.632  1.00  0.00     0.329 A 
ATOM     28  H7  UNL     1       4.168  -1.088   3.587  1.00  0.00     0.173 HD
HETATM   29  O4  UNL     1       4.604  -1.680   1.266  1.00  0.00    -0.246 OA
ENDBRANCH  20  21
ENDBRANCH  19  20
BRANCH  19  30
HETATM   30  C14 UNL     1       3.915  -0.368  -2.863  1.00  0.00     0.203 C 
BRANCH  30  31
HETATM   31  O5  UNL     1       4.459  -1.646  -2.868  1.00  0.00    -0.386 OA
ATOM     32  H5  UNL     1       4.603  -1.979  -3.746  1.00  0.00     0.210 HD
ENDBRANCH  30  31
BRANCH  30  33
HETATM   33  C15 UNL     1       4.821   0.550  -3.619  1.00  0.00     0.203 C 
BRANCH  33  34
HETATM   34  O6  UNL     1       6.119   0.620  -3.165  1.00  0.00    -0.398 OA
ATOM     35  H6  UNL     1       6.695   1.203  -3.645  1.00  0.00     0.209 HD
ENDBRANCH  33  34
ENDBRANCH  30  33
ENDBRANCH  19  30
ENDBRANCH  18  19
ENDBRANCH  14  16
ENDBRANCH  12  14
ENDBRANCH   1  12
BRANCH   1  36
HETATM   36  C16 UNL     1      -2.115  -1.777   0.034  1.00  0.00     0.268 C 
BRANCH  36  37
HETATM   37  N8  UNL     1      -2.211  -1.961  -1.422  1.00  0.00    -0.068 N 
ATOM     38  H83 UNL     1      -2.981  -1.432  -1.831  1.00  0.00     0.275 HD
ATOM     39  H82 UNL     1      -1.446  -1.509  -1.922  1.00  0.00     0.275 HD
ATOM     40  H81 UNL     1      -2.273  -2.958  -1.627  1.00  0.00     0.275 HD
ENDBRANCH  36  37
BRANCH  36  41
HETATM   41  C17 UNL     1      -3.491  -2.201   0.553  1.00  0.00     0.227 C 
BRANCH  41  42
HETATM   42  O7  UNL     1      -3.578  -2.097   1.936  1.00  0.00    -0.386 OA
ATOM     43  H7  UNL     1      -4.432  -2.360   2.258  1.00  0.00     0.210 HD
ENDBRANCH  41  42
BRANCH  41  44
HETATM   44  C18 UNL     1      -3.871  -3.558   0.075  1.00  0.00     0.211 C 
HETATM   45  O8  UNL     1      -3.827  -3.897  -1.078  1.00  0.00    -0.290 OA
BRANCH  44  46
HETATM   46  C19 UNL     1      -4.339  -4.570   1.077  1.00  0.00     0.328 C 
BRANCH  46  47
HETATM   47  O9  UNL     1      -4.644  -5.784   0.499  1.00  0.00    -0.365 OA
ATOM     48  H9  UNL     1      -4.941  -6.425   1.134  1.00  0.00     0.213 HD
ENDBRANCH  46  47
BRANCH  46  49
HETATM   49  O10 UNL     1      -5.531  -4.083   1.653  1.00  0.00    -0.365 OA
ATOM     50  H10 UNL     1      -5.828  -4.724   2.288  1.00  0.00     0.213 HD
ENDBRANCH  46  49
ENDBRANCH  44  46
ENDBRANCH  41  44
ENDBRANCH  36  41
ENDBRANCH   1  36
TORSDOF 21
