REMARK  12 active torsions:
REMARK  status: ('A' for Active; 'I' for Inactive)
REMARK       I    between atoms: N1_2  and  C2_4 
REMARK    1  A    between atoms: N3_6  and  C3_8 
REMARK    2  A    between atoms: C3_8  and  C4_9 
REMARK       I    between atoms: C4_9  and  N4_11 
REMARK    3  A    between atoms: N4_11  and  C5_13 
REMARK    4  A    between atoms: C5_13  and  C7_15 
REMARK       I    between atoms: N5_16  and  C8_18 
REMARK    5  A    between atoms: C8_18  and  C9_20 
REMARK    6  A    between atoms: C14_25  and  C15_26 
REMARK       I    between atoms: C15_26  and  N6_28 
REMARK    7  A    between atoms: N6_28  and  C16_30 
REMARK    8  A    between atoms: C16_30  and  C17_31 
REMARK    9  A    between atoms: C16_30  and  C25_39 
REMARK   10  A    between atoms: C17_31  and  C18_32 
REMARK   11  A    between atoms: C18_32  and  C19_33 
REMARK       I    between atoms: C25_39  and  N7_41 
REMARK   12  A    between atoms: C29_45  and  C30_46 
REMARK       I    between atoms: C30_46  and  N8_48 
ROOT
HETATM    1  C15 UNL     1       0.003  -0.885  -1.699  1.00  0.00     0.223 C 
HETATM    2  O3  UNL     1      -0.713  -1.233  -2.666  1.00  0.00    -0.273 OA
HETATM    3  N6  UNL     1      -0.588  -0.653  -0.452  1.00  0.00    -0.347 N 
ATOM      4  H6  UNL     1      -0.023  -0.365   0.347  1.00  0.00     0.163 HD
ENDROOT
BRANCH   1   5
HETATM    5  C14 UNL     1       1.447  -0.729  -1.897  1.00  0.00     0.091 C 
HETATM    6  C9  UNL     1       1.967   0.665  -1.922  1.00  0.00     0.091 C 
HETATM    7  C10 UNL     1       3.401   0.627  -2.411  1.00  0.00     0.015 C 
HETATM    8  C11 UNL     1       4.012  -0.745  -2.388  1.00  0.00     0.001 C 
HETATM    9  C12 UNL     1       3.706  -1.555  -1.172  1.00  0.00     0.001 C 
HETATM   10  C13 UNL     1       2.242  -1.625  -0.946  1.00  0.00     0.015 C 
BRANCH   6  11
HETATM   11  C8  UNL     1       1.810   1.463  -0.713  1.00  0.00     0.226 C 
HETATM   12  N5  UNL     1       2.531   1.142   0.458  1.00  0.00    -0.338 N 
HETATM   13  C7  UNL     1       3.433   1.879   0.982  1.00  0.00     0.088 C 
ATOM     14  H5  UNL     1       2.316   0.258   0.919  1.00  0.00     0.167 HD
HETATM   15  O2  UNL     1       1.038   2.451  -0.676  1.00  0.00    -0.273 OA
BRANCH  13  16
HETATM   16  C5  UNL     1       4.136   1.451   2.222  1.00  0.00     0.119 C 
HETATM   17  C6  UNL     1       3.655   0.086   2.635  1.00  0.00     0.038 C 
BRANCH  16  18
HETATM   18  N4  UNL     1       5.567   1.481   1.970  1.00  0.00    -0.351 N 
HETATM   19  C4  UNL     1       6.451   2.344   2.639  1.00  0.00     0.235 C 
HETATM   20  O1  UNL     1       6.024   3.146   3.502  1.00  0.00    -0.272 OA
ATOM     21  H4  UNL     1       5.949   0.843   1.272  1.00  0.00     0.163 HD
BRANCH  19  22
HETATM   22  C3  UNL     1       7.905   2.321   2.336  1.00  0.00     0.225 C 
BRANCH  22  23
HETATM   23  N3  UNL     1       8.167   1.320   1.323  1.00  0.00    -0.356 N 
HETATM   24  C2  UNL     1       9.124   1.390   0.485  1.00  0.00     0.184 C 
HETATM   25  N1  UNL     1       9.289   0.352  -0.466  1.00  0.00    -0.369 N 
HETATM   26  N2  UNL     1      10.004   2.496   0.510  1.00  0.00    -0.064 NA
HETATM   27  C1  UNL     1       8.298   0.075  -1.469  1.00  0.00     0.148 C 
ATOM     28  H1  UNL     1      10.136  -0.215  -0.438  1.00  0.00     0.161 HD
ATOM     29  H3  UNL     1       7.548   0.510   1.278  1.00  0.00     0.162 HD
ENDBRANCH  22  23
ENDBRANCH  19  22
ENDBRANCH  16  18
ENDBRANCH  13  16
ENDBRANCH   6  11
ENDBRANCH   1   5
BRANCH   3  30
HETATM   30  C16 UNL     1      -2.049  -0.835  -0.318  1.00  0.00     0.176 C 
BRANCH  30  31
HETATM   31  C17 UNL     1      -2.276  -1.824   0.832  1.00  0.00     0.035 C 
BRANCH  31  32
HETATM   32  C18 UNL     1      -1.667  -3.162   0.607  1.00  0.00     0.007 C 
BRANCH  32  33
HETATM   33  C19 UNL     1      -2.186  -3.927  -0.563  1.00  0.00    -0.014 C 
HETATM   34  C20 UNL     1      -1.450  -5.251  -0.633  1.00  0.00     0.004 C 
HETATM   35  C21 UNL     1      -2.350  -6.384  -1.075  1.00  0.00     0.000 C 
HETATM   36  C22 UNL     1      -3.348  -6.660   0.028  1.00  0.00     0.000 C 
HETATM   37  C23 UNL     1      -3.867  -5.369   0.624  1.00  0.00     0.000 C 
HETATM   38  C24 UNL     1      -3.657  -4.280  -0.410  1.00  0.00     0.004 C 
ENDBRANCH  32  33
ENDBRANCH  31  32
ENDBRANCH  30  31
BRANCH  30  39
HETATM   39  C25 UNL     1      -2.678   0.431   0.120  1.00  0.00     0.243 C 
HETATM   40  O4  UNL     1      -1.888   1.333   0.568  1.00  0.00    -0.271 OA
HETATM   41  N7  UNL     1      -4.048   0.739   0.092  1.00  0.00    -0.337 N 
HETATM   42  C26 UNL     1      -5.132  -0.065  -0.415  1.00  0.00     0.127 C 
HETATM   43  C29 UNL     1      -4.696   1.967   0.590  1.00  0.00     0.179 C 
HETATM   44  C27 UNL     1      -6.301   0.232   0.469  1.00  0.00     0.022 C 
HETATM   45  C28 UNL     1      -5.882   1.415   1.296  1.00  0.00     0.037 C 
BRANCH  43  46
HETATM   46  C30 UNL     1      -4.963   2.881  -0.518  1.00  0.00     0.242 C 
HETATM   47  O5  UNL     1      -4.683   2.548  -1.696  1.00  0.00    -0.271 OA
HETATM   48  N8  UNL     1      -5.539   4.162  -0.325  1.00  0.00    -0.350 N 
HETATM   49  C31 UNL     1      -5.856   5.148  -1.349  1.00  0.00     0.126 C 
HETATM   50  C34 UNL     1      -5.954   4.827   0.910  1.00  0.00     0.126 C 
HETATM   51  C32 UNL     1      -7.177   5.724  -0.876  1.00  0.00     0.021 C 
HETATM   52  C33 UNL     1      -7.361   5.217   0.559  1.00  0.00     0.021 C 
ENDBRANCH  43  46
ENDBRANCH  30  39
ENDBRANCH   3  30
TORSDOF 12
