REMARK  6 active torsions:
REMARK  status: ('A' for Active; 'I' for Inactive)
REMARK    1  A    between atoms: N2_4  and  C1_6 
REMARK    2  A    between atoms: C1_6  and  C2_7 
REMARK    3  A    between atoms: C2_7  and  C3_8 
REMARK    4  A    between atoms: C3_8  and  N3_9 
REMARK    5  A    between atoms: N3_9  and  C4_11 
REMARK    6  A    between atoms: C6_14  and  C7_15 
ROOT
HETATM    1  C2  UNL     1      -0.517  -0.206  -0.267  1.00  0.00     0.004 A 
HETATM    2  C5  UNL     1      -0.830   0.659  -1.475  1.00  0.00     0.026 A 
HETATM    3  C6  UNL     1      -1.284   1.022  -0.086  1.00  0.00     0.060 A 
ENDROOT
BRANCH   1   4
HETATM    4  C1  UNL     1      -1.352  -1.499  -0.071  1.00  0.00     0.150 C 
BRANCH   4   5
HETATM    5  N2  UNL     1      -1.193  -1.987   1.254  1.00  0.00    -0.342 N 
HETATM    6  N1  UNL     1      -2.068  -1.794   2.140  1.00  0.00    -0.349 N 
ATOM      7  H12 UNL     1      -2.906  -1.272   1.883  1.00  0.00     0.176 HD
ATOM      8  H11 UNL     1      -1.954  -2.144   3.091  1.00  0.00     0.176 HD
ATOM      9  H2  UNL     1      -0.349  -2.507   1.494  1.00  0.00     0.179 HD
ENDBRANCH   4   5
ENDBRANCH   1   4
BRANCH   1  10
HETATM   10  C3  UNL     1       0.909  -0.465  -0.038  1.00  0.00     0.134 C 
BRANCH  10  11
HETATM   11  N3  UNL     1       1.869   0.561  -0.207  1.00  0.00    -0.367 N 
ATOM     12  H3  UNL     1       1.595   1.494  -0.514  1.00  0.00     0.161 HD
BRANCH  11  13
HETATM   13  C4  UNL     1       3.230   0.247   0.065  1.00  0.00     0.348 C 
HETATM   14  O1  UNL     1       3.536  -0.905   0.438  1.00  0.00    -0.284 OA
ENDBRANCH  11  13
ENDBRANCH  10  11
ENDBRANCH   1  10
BRANCH   3  15
HETATM   15  C7  UNL     1      -0.903   2.251   0.561  1.00  0.00     0.236 C 
HETATM   16  O2  UNL     1      -1.728   2.984   1.122  1.00  0.00    -0.306 OA
ENDBRANCH   3  15
TORSDOF 6
