REMARK  5 active torsions:
REMARK  status: ('A' for Active; 'I' for Inactive)
REMARK    1  A    between atoms: C4_7  and  C5_8 
REMARK    2  A    between atoms: C5_8  and  C6_9 
REMARK    3  A    between atoms: C6_9  and  N3_10 
REMARK    4  A    between atoms: C7_12  and  N4_13 
REMARK    5  A    between atoms: N4_13  and  N5_15 
ROOT
HETATM    1  N3  UNL     1       1.255   0.264  -0.822  1.00  0.00    -0.385 N 
ATOM      2  H3  UNL     1       1.083   1.268  -0.773  1.00  0.00     0.160 HD
HETATM    3  C7  UNL     1       2.071  -0.270   0.009  1.00  0.00     0.194 C 
ENDROOT
BRANCH   1   4
HETATM    4  C6  UNL     1       0.579  -0.510  -1.816  1.00  0.00     0.128 C 
BRANCH   4   5
HETATM    5  C5  UNL     1      -0.865  -0.111  -1.857  1.00  0.00     0.096 C 
BRANCH   5   6
HETATM    6  C4  UNL     1      -1.549  -0.330  -0.559  1.00  0.00     0.084 A 
HETATM    7  N1  UNL     1      -1.700   0.496   0.489  1.00  0.00    -0.350 N 
HETATM    8  C1  UNL     1      -1.185   1.857   0.550  1.00  0.00     0.156 C 
HETATM    9  C2  UNL     1      -2.402  -0.124   1.479  1.00  0.00     0.108 A 
HETATM   10  C3  UNL     1      -2.696  -1.389   1.016  1.00  0.00     0.106 A 
HETATM   11  N2  UNL     1      -2.173  -1.498  -0.219  1.00  0.00    -0.354 N 
ATOM     12  H2  UNL     1      -2.233  -2.326  -0.811  1.00  0.00     0.166 HD
ENDBRANCH   5   6
ENDBRANCH   4   5
ENDBRANCH   1   4
BRANCH   3  13
HETATM   13  N4  UNL     1       2.758   0.471   1.008  1.00  0.00    -0.283 N 
ATOM     14  H4  UNL     1       2.276   1.152   1.594  1.00  0.00     0.189 HD
BRANCH  13  15
HETATM   15  N5  UNL     1       4.128   0.221   1.149  1.00  0.00    -0.248 N 
HETATM   16  N6  UNL     1       4.990   1.068   0.792  1.00  0.00    -0.331 N 
ATOM     17  H62 UNL     1       4.666   1.949   0.394  1.00  0.00     0.178 HD
ATOM     18  H61 UNL     1       5.988   0.886   0.895  1.00  0.00     0.178 HD
ATOM     19  H5  UNL     1       4.435  -0.666   1.549  1.00  0.00     0.207 HD
ENDBRANCH  13  15
ENDBRANCH   3  13
TORSDOF 5
