REMARK  5 active torsions:
REMARK  status: ('A' for Active; 'I' for Inactive)
REMARK    1  A    between atoms: N2_4  and  C1_6 
REMARK    2  A    between atoms: C1_6  and  N3_7 
REMARK    3  A    between atoms: C2_9  and  N4_10 
REMARK    4  A    between atoms: N4_10  and  C3_12 
REMARK    5  A    between atoms: C3_12  and  C4_13 
ROOT
HETATM    1  N3  UNL     1      -1.904  -0.154   1.101  1.00  0.00    -0.369 N 
ATOM      2  H3  UNL     1      -2.431  -0.072   1.970  1.00  0.00     0.161 HD
HETATM    3  C2  UNL     1      -0.637  -0.239   1.170  1.00  0.00     0.172 C 
ENDROOT
BRANCH   3   4
HETATM    4  N4  UNL     1       0.144  -0.353  -0.000  1.00  0.00    -0.384 N 
ATOM      5  H4  UNL     1      -0.268  -0.070  -0.889  1.00  0.00     0.160 HD
BRANCH   4   6
HETATM    6  C3  UNL     1       1.505  -0.854   0.004  1.00  0.00     0.155 C 
BRANCH   6   7
HETATM    7  C4  UNL     1       2.458   0.066   0.689  1.00  0.00     0.194 A 
HETATM    8  N5  UNL     1       2.618   1.403   0.177  1.00  0.00    -0.344 N 
HETATM    9  C5  UNL     1       3.676   0.432  -0.071  1.00  0.00     0.242 A 
ATOM     10  H5  UNL     1       2.253   2.349   0.067  1.00  0.00     0.163 HD
HETATM   11  O1  UNL     1       4.792   0.333  -0.628  1.00  0.00    -0.271 OA
ENDBRANCH   6   7
ENDBRANCH   4   6
ENDBRANCH   3   4
BRANCH   1  12
HETATM   12  C1  UNL     1      -2.632  -0.167  -0.139  1.00  0.00     0.261 C 
BRANCH  12  13
HETATM   13  N2  UNL     1      -3.993   0.234   0.035  1.00  0.00    -0.325 N 
HETATM   14  N1  UNL     1      -4.285   1.409   0.242  1.00  0.00    -0.348 N 
ATOM     15  H12 UNL     1      -3.533   2.097   0.287  1.00  0.00     0.176 HD
ATOM     16  H11 UNL     1      -5.256   1.695   0.366  1.00  0.00     0.176 HD
ATOM     17  H2  UNL     1      -4.733  -0.466  -0.013  1.00  0.00     0.181 HD
ENDBRANCH  12  13
ENDBRANCH   1  12
TORSDOF 5
