REMARK  2 active torsions:
REMARK  status: ('A' for Active; 'I' for Inactive)
REMARK    1  A    between atoms: C2_2  and  C3_3 
REMARK    2  A    between atoms: C3_3  and  N1_4 
ROOT
HETATM    1  C3  UNL     1      -0.638  -0.079  -0.139  1.00  0.00     0.141 C 
HETATM    2  C4  UNL     1       0.040   0.857   0.825  1.00  0.00     0.043 C 
HETATM    3  C5  UNL     1       1.464   0.481   1.118  1.00  0.00     0.003 C 
HETATM    4  C6  UNL     1       2.236   0.152  -0.135  1.00  0.00     0.000 C 
HETATM    5  C7  UNL     1       1.519  -0.842  -0.999  1.00  0.00     0.003 C 
HETATM    6  C8  UNL     1       0.218  -1.312  -0.416  1.00  0.00     0.043 C 
ENDROOT
BRANCH   1   7
HETATM    7  C2  UNL     1      -1.982  -0.471   0.330  1.00  0.00     0.001 C 
HETATM    8  C1  UNL     1      -2.773   0.434   0.865  1.00  0.00     0.009 C 
ENDBRANCH   1   7
BRANCH   1   9
HETATM    9  N1  UNL     1      -0.825   0.559  -1.452  1.00  0.00    -0.067 N 
ATOM     10  H13 UNL     1      -1.331  -0.026  -2.117  1.00  0.00     0.275 HD
ATOM     11  H12 UNL     1      -1.489   1.333  -1.434  1.00  0.00     0.275 HD
ATOM     12  H11 UNL     1       0.103   0.830  -1.776  1.00  0.00     0.275 HD
ENDBRANCH   1   9
TORSDOF 2
