REMARK  2 active torsions:
REMARK  status: ('A' for Active; 'I' for Inactive)
REMARK    1  A    between atoms: N2_3  and  C2_5 
REMARK    2  A    between atoms: C3_9  and  N4_10 
ROOT
HETATM    1  C2  UNL     1      -0.503  -0.231  -0.038  1.00  0.00     0.345 A 
HETATM    2  N3  UNL     1      -0.915   1.047   0.537  1.00  0.00    -0.018 N 
ATOM      3  H31 UNL     1      -0.470   1.935   0.767  1.00  0.00     0.282 HD
ATOM      4  H32 UNL     1      -1.203   1.391   1.453  1.00  0.00     0.282 HD
HETATM    5  C3  UNL     1      -1.588   0.434  -0.669  1.00  0.00     0.432 A 
ENDROOT
BRANCH   1   6
HETATM    6  N2  UNL     1       0.867  -0.215  -0.512  1.00  0.00    -0.357 N 
HETATM    7  C1  UNL     1       1.805  -0.344   0.373  1.00  0.00     0.186 C 
HETATM    8  N1  UNL     1       3.179  -0.346   0.047  1.00  0.00    -0.097 NA
ATOM      9  H2  UNL     1       1.084  -0.107  -1.503  1.00  0.00     0.162 HD
ENDBRANCH   1   6
BRANCH   5  10
HETATM   10  N4  UNL     1      -2.942  -0.023  -0.374  1.00  0.00    -0.046 N 
ATOM     11  H43 UNL     1      -3.006  -1.022  -0.567  1.00  0.00     0.276 HD
ATOM     12  H42 UNL     1      -3.085  -0.010   0.636  1.00  0.00     0.276 HD
ATOM     13  H41 UNL     1      -3.721   0.455  -0.827  1.00  0.00     0.276 HD
ENDBRANCH   5  10
TORSDOF 2
