REMARK  1 active torsions:
REMARK  status: ('A' for Active; 'I' for Inactive)
REMARK    1  A    between atoms: N2_3  and  C2_5 
ROOT
HETATM    1  N1  UNL     1      -2.467  -0.051  -0.146  1.00  0.00    -0.097 NA
HETATM    2  C1  UNL     1      -1.296  -0.049   0.662  1.00  0.00     0.187 C 
HETATM    3  N2  UNL     1      -0.176   0.037   0.081  1.00  0.00    -0.355 N 
ATOM      4  H2  UNL     1      -0.140   0.102  -0.936  1.00  0.00     0.162 HD
ENDROOT
BRANCH   3   5
HETATM    5  C2  UNL     1       1.046   0.045   0.835  1.00  0.00     0.304 A 
HETATM    6  N3  UNL     1       2.125   0.772   0.216  1.00  0.00    -0.101 NA
HETATM    7  N4  UNL     1       2.201  -0.624   0.244  1.00  0.00    -0.101 NA
ENDBRANCH   3   5
TORSDOF 1
