REMARK  6 active torsions:
REMARK  status: ('A' for Active; 'I' for Inactive)
REMARK    1  A    between atoms: C2_2  and  C3_3 
REMARK    2  A    between atoms: C3_3  and  N1_4 
REMARK    3  A    between atoms: N1_4  and  C4_5 
REMARK    4  A    between atoms: N1_4  and  C10_16 
REMARK    5  A    between atoms: C4_5  and  C5_6 
REMARK    6  A    between atoms: C8_9  and  N2_10 
ROOT
HETATM    1  C5  UNL     1       0.558  -1.008   0.334  1.00  0.00     0.159 C 
HETATM    2  C6  UNL     1       1.562  -1.888  -0.372  1.00  0.00     0.039 C 
HETATM    3  C7  UNL     1       2.699  -0.948  -0.782  1.00  0.00     0.038 C 
HETATM    4  C8  UNL     1       3.420  -0.622   0.508  1.00  0.00     0.207 C 
HETATM    5  C9  UNL     1       2.398  -0.190   1.514  1.00  0.00     0.201 C 
HETATM    6  O1  UNL     1       1.138   0.018   1.027  1.00  0.00    -0.379 OA
ENDROOT
BRANCH   1   7
HETATM    7  C4  UNL     1      -0.368  -0.455  -0.742  1.00  0.00     0.090 C 
BRANCH   7   8
HETATM    8  N1  UNL     1      -1.440   0.326  -0.269  1.00  0.00    -0.383 N 
BRANCH   8   9
HETATM    9  C3  UNL     1      -2.463  -0.349   0.466  1.00  0.00     0.149 C 
BRANCH   9  10
HETATM   10  C2  UNL     1      -3.267  -1.272  -0.362  1.00  0.00    -0.018 C 
HETATM   11  C1  UNL     1      -4.567  -1.094  -0.478  1.00  0.00     0.008 C 
ENDBRANCH   9  10
ENDBRANCH   8   9
BRANCH   8  12
HETATM   12  C10 UNL     1      -1.172   1.633   0.216  1.00  0.00     0.084 A 
HETATM   13  C11 UNL     1      -2.280   2.678   0.159  1.00  0.00     0.027 A 
HETATM   14  C12 UNL     1      -0.958   2.816  -0.623  1.00  0.00     0.027 A 
ENDBRANCH   8  12
ENDBRANCH   7   8
ENDBRANCH   1   7
BRANCH   4  15
HETATM   15  N2  UNL     1       4.476   0.350   0.312  1.00  0.00    -0.073 N 
ATOM     16  H23 UNL     1       5.129   0.045  -0.410  1.00  0.00     0.274 HD
ATOM     17  H22 UNL     1       4.122   1.195  -0.137  1.00  0.00     0.274 HD
ATOM     18  H21 UNL     1       4.962   0.570   1.181  1.00  0.00     0.274 HD
ENDBRANCH   4  15
TORSDOF 6
