REMARK  18 active torsions:
REMARK  status: ('A' for Active; 'I' for Inactive)
REMARK    1  A    between atoms: C2_2  and  N1_3 
REMARK    2  A    between atoms: N1_3  and  C3_5 
REMARK    3  A    between atoms: N1_3  and  C16_28 
REMARK    4  A    between atoms: C3_5  and  C4_6 
REMARK    5  A    between atoms: C4_6  and  C5_7 
REMARK    6  A    between atoms: C5_7  and  C6_8 
REMARK    7  A    between atoms: C6_8  and  C8_10 
REMARK       I    between atoms: C8_10  and  N2_12 
REMARK    8  A    between atoms: N2_12  and  C9_14 
REMARK    9  A    between atoms: C9_14  and  C10_15 
REMARK   10  A    between atoms: C9_14  and  C14_23 
REMARK   11  A    between atoms: C10_15  and  C11_16 
REMARK   12  A    between atoms: C11_16  and  C12_17 
REMARK   13  A    between atoms: C12_17  and  C13_18 
REMARK   14  A    between atoms: C13_18  and  N3_19 
REMARK       I    between atoms: C14_23  and  N4_25 
REMARK   15  A    between atoms: C16_28  and  C17_29 
REMARK   16  A    between atoms: C21_33  and  C22_34 
REMARK   17  A    between atoms: C23_35  and  C24_36 
REMARK   18  A    between atoms: C29_41  and  O4_42 
ROOT
HETATM    1  N1  UNL     1      -0.061  -1.276   1.165  1.00  0.00     0.037 N 
HETATM    2  O1  UNL     1       0.685  -2.268   0.530  1.00  0.00    -0.060 OA
ENDROOT
BRANCH   1   3
HETATM    3  C2  UNL     1       0.348  -1.431   2.553  1.00  0.00     0.313 C 
HETATM    4  C1  UNL     1      -0.113  -2.794   3.020  1.00  0.00     0.044 C 
ENDBRANCH   1   3
BRANCH   1   5
HETATM    5  C3  UNL     1       0.379  -0.052   0.592  1.00  0.00     0.318 C 
BRANCH   5   6
HETATM    6  C4  UNL     1       1.765   0.398   0.824  1.00  0.00     0.038 C 
BRANCH   6   7
HETATM    7  C5  UNL     1       2.859  -0.456   0.306  1.00  0.00     0.016 C 
BRANCH   7   8
HETATM    8  C6  UNL     1       4.237   0.116   0.594  1.00  0.00     0.074 C 
HETATM    9  C7  UNL     1       4.543   0.284   2.044  1.00  0.00     0.020 C 
BRANCH   8  10
HETATM   10  C8  UNL     1       5.295  -0.658  -0.079  1.00  0.00     0.222 C 
HETATM   11  O2  UNL     1       4.964  -1.572  -0.905  1.00  0.00    -0.273 OA
HETATM   12  N2  UNL     1       6.677  -0.448   0.135  1.00  0.00    -0.347 N 
ATOM     13  H2  UNL     1       6.941   0.288   0.791  1.00  0.00     0.163 HD
BRANCH  12  14
HETATM   14  C9  UNL     1       7.743  -1.182  -0.492  1.00  0.00     0.176 C 
BRANCH  14  15
HETATM   15  C10 UNL     1       8.096  -0.795  -1.844  1.00  0.00     0.035 C 
BRANCH  15  16
HETATM   16  C11 UNL     1       8.562   0.578  -2.163  1.00  0.00     0.004 C 
BRANCH  16  17
HETATM   17  C12 UNL     1       7.588   1.661  -1.913  1.00  0.00     0.027 C 
BRANCH  17  18
HETATM   18  C13 UNL     1       8.231   3.003  -2.346  1.00  0.00     0.229 C 
BRANCH  18  19
HETATM   19  N3  UNL     1       7.300   4.066  -2.111  1.00  0.00    -0.079 N 
ATOM     20  H33 UNL     1       6.401   3.902  -2.565  1.00  0.00     0.274 HD
ATOM     21  H32 UNL     1       6.971   4.087  -1.146  1.00  0.00     0.274 HD
ATOM     22  H31 UNL     1       7.723   4.949  -2.396  1.00  0.00     0.274 HD
ENDBRANCH  18  19
ENDBRANCH  17  18
ENDBRANCH  16  17
ENDBRANCH  15  16
ENDBRANCH  14  15
BRANCH  14  23
HETATM   23  C14 UNL     1       7.404  -2.655  -0.449  1.00  0.00     0.240 C 
HETATM   24  O3  UNL     1       6.809  -3.046   0.610  1.00  0.00    -0.271 OA
HETATM   25  N4  UNL     1       7.693  -3.568  -1.463  1.00  0.00    -0.364 N 
HETATM   26  C15 UNL     1       7.301  -4.974  -1.278  1.00  0.00     0.149 C 
ATOM     27  H4  UNL     1       8.166  -3.267  -2.315  1.00  0.00     0.161 HD
ENDBRANCH  14  23
ENDBRANCH  12  14
ENDBRANCH   8  10
ENDBRANCH   7   8
ENDBRANCH   6   7
ENDBRANCH   5   6
ENDBRANCH   1   5
BRANCH   1  28
HETATM   28  C16 UNL     1      -1.385  -1.678   0.897  1.00  0.00     0.281 C 
BRANCH  28  29
HETATM   29  C17 UNL     1      -2.525  -0.828   1.210  1.00  0.00    -0.025 C 
HETATM   30  C18 UNL     1      -3.390  -0.438   0.258  1.00  0.00    -0.011 C 
HETATM   31  C19 UNL     1      -4.454   0.400   0.806  1.00  0.00     0.023 C 
HETATM   32  C20 UNL     1      -5.096   1.368  -0.107  1.00  0.00     0.020 C 
HETATM   33  C34 UNL     1      -3.850   0.930   2.053  1.00  0.00    -0.029 C 
HETATM   34  C21 UNL     1      -5.320   0.788  -1.461  1.00  0.00     0.070 C 
HETATM   35  C30 UNL     1      -4.430   2.700  -0.238  1.00  0.00    -0.013 C 
HETATM   36  C27 UNL     1      -6.135   1.758  -2.279  1.00  0.00     0.020 C 
HETATM   37  C28 UNL     1      -6.585   2.970  -1.490  1.00  0.00     0.034 C 
HETATM   38  C29 UNL     1      -5.452   3.667  -0.808  1.00  0.00     0.126 C 
HETATM   39  C31 UNL     1      -3.243   2.713  -1.143  1.00  0.00     0.018 C 
HETATM   40  C32 UNL     1      -3.992   3.211   1.126  1.00  0.00     0.013 C 
HETATM   41  C33 UNL     1      -3.060   2.179   1.735  1.00  0.00     0.011 C 
HETATM   42  C35 UNL     1      -4.898   1.255   3.113  1.00  0.00     0.016 C 
HETATM   43  C36 UNL     1      -3.007  -0.240   2.470  1.00  0.00     0.025 C 
HETATM   44  C37 UNL     1      -3.935  -1.207   3.211  1.00  0.00     0.016 C 
BRANCH  34  45
HETATM   45  C22 UNL     1      -6.081  -0.461  -1.370  1.00  0.00    -0.101 C 
HETATM   46  C23 UNL     1      -6.726  -1.482  -1.306  1.00  0.00    -0.101 C 
BRANCH  46  47
HETATM   47  C24 UNL     1      -7.526  -2.699  -1.230  1.00  0.00     0.065 A 
HETATM   48  C25 UNL     1      -7.720  -3.514  -2.476  1.00  0.00     0.018 A 
HETATM   49  C26 UNL     1      -6.834  -4.014  -1.339  1.00  0.00     0.018 A 
ENDBRANCH  46  47
ENDBRANCH  34  45
BRANCH  38  50
HETATM   50  O4  UNL     1      -5.969   4.499   0.191  1.00  0.00    -0.395 OA
ATOM     51  H4  UNL     1      -5.249   4.942   0.624  1.00  0.00     0.210 HD
ENDBRANCH  38  50
ENDBRANCH  28  29
ENDBRANCH   1  28
TORSDOF 18
