REMARK  8 active torsions:
REMARK  status: ('A' for Active; 'I' for Inactive)
REMARK    1  A    between atoms: C2_2  and  O1_3 
REMARK    2  A    between atoms: O1_3  and  C3_4 
REMARK    3  A    between atoms: C3_4  and  C4_5 
REMARK    4  A    between atoms: C4_5  and  C5_6 
REMARK    5  A    between atoms: C5_6  and  N1_7 
REMARK    6  A    between atoms: N1_7  and  C6_9 
REMARK    7  A    between atoms: C7_12  and  N3_13 
REMARK    8  A    between atoms: C8_18  and  N5_19 
ROOT
HETATM    1  C6  UNL     1       2.068   0.730  -0.017  1.00  0.00     0.707 A 
HETATM    2  N2  UNL     1       2.762   1.870  -0.250  1.00  0.00    -0.022 N 
ATOM      3  H2  UNL     1       2.270   2.727  -0.502  1.00  0.00     0.203 HD
HETATM    4  C7  UNL     1       4.100   1.867  -0.148  1.00  0.00     0.705 A 
HETATM    5  N4  UNL     1       4.706   0.715   0.187  1.00  0.00    -0.022 N 
ATOM      6  H4  UNL     1       5.723   0.698   0.269  1.00  0.00     0.203 HD
HETATM    7  C8  UNL     1       4.015  -0.420   0.419  1.00  0.00     0.705 A 
HETATM    8  N6  UNL     1       2.675  -0.420   0.317  1.00  0.00    -0.022 N 
ATOM      9  H6  UNL     1       2.135  -1.268   0.488  1.00  0.00     0.203 HD
ENDROOT
BRANCH   1  10
HETATM   10  N1  UNL     1       0.788   0.749  -0.119  1.00  0.00    -0.225 N 
ATOM     11  H1  UNL     1       0.314   1.616  -0.372  1.00  0.00     0.177 HD
BRANCH  10  12
HETATM   12  C5  UNL     1       0.024  -0.431   0.118  1.00  0.00     0.140 C 
BRANCH  12  13
HETATM   13  C4  UNL     1      -1.430  -0.142  -0.241  1.00  0.00     0.046 C 
BRANCH  13  14
HETATM   14  C3  UNL     1      -2.175  -1.418   0.031  1.00  0.00     0.169 C 
BRANCH  14  15
HETATM   15  O1  UNL     1      -3.487  -1.308  -0.275  1.00  0.00    -0.391 OA
BRANCH  15  16
HETATM   16  C2  UNL     1      -4.132  -0.342   0.443  1.00  0.00     0.163 C 
HETATM   17  C1  UNL     1      -5.611  -0.411  -0.013  1.00  0.00     0.033 C 
ENDBRANCH  15  16
ENDBRANCH  14  15
ENDBRANCH  13  14
ENDBRANCH  12  13
ENDBRANCH  10  12
ENDBRANCH   1  10
BRANCH   4  18
HETATM   18  N3  UNL     1       4.819   2.937  -0.361  1.00  0.00    -0.234 N 
ATOM     19  H32 UNL     1       4.359   3.811  -0.615  1.00  0.00     0.174 HD
ATOM     20  H31 UNL     1       5.836   2.935  -0.283  1.00  0.00     0.174 HD
ENDBRANCH   4  18
BRANCH   7  21
HETATM   21  N5  UNL     1       4.609  -1.503   0.735  1.00  0.00    -0.234 N 
ATOM     22  H52 UNL     1       5.626  -1.503   0.812  1.00  0.00     0.174 HD
ATOM     23  H51 UNL     1       4.086  -2.361   0.910  1.00  0.00     0.174 HD
ENDBRANCH   7  21
TORSDOF 8
