REMARK  12 active torsions:
REMARK  status: ('A' for Active; 'I' for Inactive)
REMARK    1  A    between atoms: C2_3  and  S1_4 
REMARK    2  A    between atoms: S1_4  and  C3_5 
REMARK    3  A    between atoms: C7_9  and  C8_10 
REMARK    4  A    between atoms: C8_10  and  O1_11 
REMARK    5  A    between atoms: O1_11  and  C9_12 
REMARK       I    between atoms: C9_12  and  N2_14 
REMARK    6  A    between atoms: N2_14  and  C10_16 
REMARK    7  A    between atoms: C10_16  and  C11_17 
REMARK    8  A    between atoms: C11_17  and  O3_18 
REMARK    9  A    between atoms: N3_20  and  O4_22 
REMARK   10  A    between atoms: C14_26  and  N4_27 
REMARK   11  A    between atoms: N4_27  and  N5_29 
REMARK   12  A    between atoms: N5_29  and  N6_30 
ROOT
HETATM    1  N1  UNL     1      -8.955   3.236  -0.194  1.00  0.00    -0.197 NA
HETATM    2  C1  UNL     1      -8.098   2.493   0.025  1.00  0.00     0.069 C 
HETATM    3  C2  UNL     1      -7.018   1.525   0.303  1.00  0.00     0.197 C 
ENDROOT
BRANCH   3   4
HETATM    4  S1  UNL     1      -5.906   1.539  -1.103  1.00  0.00    -0.150 SA
BRANCH   4   5
HETATM    5  C3  UNL     1      -4.569   0.386  -0.850  1.00  0.00     0.048 C 
HETATM    6  C4  UNL     1      -5.029  -1.057  -0.819  1.00  0.00     0.015 C 
HETATM    7  C5  UNL     1      -3.821  -1.956  -0.670  1.00  0.00     0.002 C 
HETATM    8  C6  UNL     1      -2.532  -1.179  -0.815  1.00  0.00     0.007 C 
HETATM    9  C7  UNL     1      -2.420  -0.050   0.189  1.00  0.00     0.011 C 
HETATM   10  C17 UNL     1      -3.763   0.625   0.408  1.00  0.00     0.022 C 
BRANCH   9  11
HETATM   11  C8  UNL     1      -1.830  -0.576   1.447  1.00  0.00     0.185 C 
BRANCH  11  12
HETATM   12  O1  UNL     1      -0.569  -1.113   1.230  1.00  0.00    -0.304 OA
BRANCH  12  13
HETATM   13  C9  UNL     1       0.527  -0.407   0.808  1.00  0.00     0.361 C 
HETATM   14  O2  UNL     1       0.417   0.828   0.601  1.00  0.00    -0.238 OA
HETATM   15  N2  UNL     1       1.800  -1.068   0.601  1.00  0.00    -0.320 N 
ATOM     16  H2  UNL     1       1.892  -2.070   0.769  1.00  0.00     0.166 HD
BRANCH  15  17
HETATM   17  C10 UNL     1       2.958  -0.282   0.147  1.00  0.00     0.101 C 
HETATM   18  C12 UNL     1       4.049  -1.313  -0.153  1.00  0.00     0.042 C 
HETATM   19  C13 UNL     1       5.313  -0.539  -0.445  1.00  0.00     0.030 C 
HETATM   20  C14 UNL     1       5.758   0.022   0.908  1.00  0.00     0.114 C 
HETATM   21  C15 UNL     1       4.758   1.028   1.359  1.00  0.00     0.030 C 
HETATM   22  C16 UNL     1       3.328   0.632   1.248  1.00  0.00     0.042 C 
BRANCH  17  23
HETATM   23  C11 UNL     1       2.638   0.333  -1.153  1.00  0.00     0.164 C 
HETATM   24  N3  UNL     1       2.602   1.537  -1.503  1.00  0.00    -0.249 N 
ATOM     25  H3  UNL     1       2.345   1.662  -2.482  1.00  0.00     0.196 HD
BRANCH  23  26
HETATM   26  O3  UNL     1       2.319  -0.601  -2.173  1.00  0.00    -0.346 OA
ATOM     27  H3  UNL     1       2.113  -0.204  -3.011  1.00  0.00     0.219 HD
ENDBRANCH  23  26
BRANCH  24  28
HETATM   28  O4  UNL     1       2.827   2.684  -0.872  1.00  0.00    -0.288 OA
ATOM     29  H4  UNL     1       2.800   3.596  -1.137  1.00  0.00     0.244 HD
ENDBRANCH  24  28
ENDBRANCH  17  23
BRANCH  20  30
HETATM   30  N4  UNL     1       7.040   0.680   0.731  1.00  0.00    -0.248 N 
ATOM     31  H4  UNL     1       7.085   1.697   0.674  1.00  0.00     0.197 HD
BRANCH  30  32
HETATM   32  N5  UNL     1       8.075   0.013   0.649  1.00  0.00    -0.248 NA
BRANCH  32  33
HETATM   33  N6  UNL     1       9.047  -0.747   0.760  1.00  0.00    -0.261 N 
ATOM     34  H62 UNL     1       8.653  -1.093   1.635  1.00  0.00     0.193 HD
ATOM     35  H61 UNL     1       9.902  -1.298   0.692  1.00  0.00     0.193 HD
ENDBRANCH  32  33
ENDBRANCH  30  32
ENDBRANCH  20  30
ENDBRANCH  15  17
ENDBRANCH  12  13
ENDBRANCH  11  12
ENDBRANCH   9  11
ENDBRANCH   4   5
ENDBRANCH   3   4
TORSDOF 12
