REMARK  6 active torsions:
REMARK  status: ('A' for Active; 'I' for Inactive)
REMARK    1  A    between atoms: N1_2  and  S1_4 
REMARK    2  A    between atoms: S1_4  and  C2_7 
REMARK    3  A    between atoms: C6_12  and  S2_13 
REMARK    4  A    between atoms: S2_13  and  N2_16 
REMARK    5  A    between atoms: N2_16  and  C8_18 
REMARK    6  A    between atoms: C8_18  and  C9_19 
ROOT
HETATM    1  S2  UNL     1       0.291   0.348  -0.808  1.00  0.00     0.243 S 
HETATM    2  O3  UNL     1       0.717   0.758  -2.198  1.00  0.00    -0.206 OA
HETATM    3  O4  UNL     1      -0.637   1.438  -0.291  1.00  0.00    -0.206 OA
ENDROOT
BRANCH   1   4
HETATM    4  C6  UNL     1       1.695   0.204   0.220  1.00  0.00     0.077 A 
HETATM    5  C5  UNL     1       1.604   0.463   1.559  1.00  0.00     0.044 A 
HETATM    6  C4  UNL     1       2.694   0.363   2.418  1.00  0.00     0.013 A 
HETATM    7  C3  UNL     1       3.918  -0.012   1.907  1.00  0.00     0.044 A 
HETATM    8 BR1  UNL     1       2.440   0.751   4.271  1.00  0.00    -0.051 Br
HETATM    9  C2  UNL     1       4.037  -0.279   0.558  1.00  0.00     0.082 A 
HETATM   10  C15 UNL     1       2.929  -0.169  -0.268  1.00  0.00     0.050 A 
BRANCH   9  11
HETATM   11  S1  UNL     1       5.588  -0.758  -0.112  1.00  0.00     0.258 S 
HETATM   12  O1  UNL     1       6.358  -1.475   0.968  1.00  0.00    -0.201 OA
HETATM   13  O2  UNL     1       5.369  -1.727  -1.223  1.00  0.00    -0.201 OA
BRANCH  11  14
HETATM   14  N1  UNL     1       6.513   0.583  -0.630  1.00  0.00    -0.320 N 
HETATM   15  C1  UNL     1       6.818   1.466   0.457  1.00  0.00     0.159 C 
ATOM     16  H1  UNL     1       6.811   0.736  -1.593  1.00  0.00     0.171 HD
ENDBRANCH  11  14
ENDBRANCH   9  11
ENDBRANCH   1   4
BRANCH   1  17
HETATM   17  N2  UNL     1      -0.591  -1.095  -0.934  1.00  0.00    -0.204 NA
HETATM   18  C7  UNL     1      -1.140  -1.599   0.281  1.00  0.00     0.130 C 
BRANCH  17  19
HETATM   19  C8  UNL     1      -1.599  -0.976  -1.950  1.00  0.00     0.183 C 
BRANCH  19  20
HETATM   20  C9  UNL     1      -2.921  -0.510  -1.414  1.00  0.00     0.096 A 
HETATM   21  N3  UNL     1      -3.293   0.780  -1.498  1.00  0.00    -0.349 N 
HETATM   22  C10 UNL     1      -4.479   1.200  -1.019  1.00  0.00     0.008 A 
ATOM     23  H3  UNL     1      -2.663   1.454  -1.934  1.00  0.00     0.167 HD
HETATM   24  C11 UNL     1      -4.927   2.617  -1.093  1.00  0.00     0.068 C 
HETATM   25  C12 UNL     1      -5.349   0.308  -0.423  1.00  0.00     0.049 A 
HETATM   26  C13 UNL     1      -4.974  -1.001  -0.336  1.00  0.00     0.008 A 
HETATM   27  C14 UNL     1      -5.897  -1.996   0.305  1.00  0.00     0.068 C 
HETATM   28  N4  UNL     1      -3.781  -1.363  -0.831  1.00  0.00    -0.349 N 
ATOM     29  H4  UNL     1      -3.510  -2.344  -0.761  1.00  0.00     0.167 HD
ENDBRANCH  19  20
ENDBRANCH  17  19
ENDBRANCH   1  17
TORSDOF 6
