REMARK  7 active torsions:
REMARK  status: ('A' for Active; 'I' for Inactive)
REMARK    1  A    between atoms: O1_2  and  C2_3 
REMARK    2  A    between atoms: C2_3  and  C3_4 
REMARK    3  A    between atoms: C3_4  and  C4_5 
REMARK    4  A    between atoms: C4_5  and  O2_6 
REMARK    5  A    between atoms: O2_6  and  C5_7 
REMARK    6  A    between atoms: C11_20  and  C12_21 
REMARK    7  A    between atoms: C12_21  and  C13_22 
ROOT
HETATM    1  C5  UNL     1       0.886   0.693  -0.863  1.00  0.00     0.167 A 
HETATM    2  N1  UNL     1       1.591   1.802  -0.468  1.00  0.00    -0.320 N 
ATOM      3  H1  UNL     1       2.603   1.725  -0.370  1.00  0.00     0.169 HD
HETATM    4  C6  UNL     1       1.021   2.964  -0.209  1.00  0.00     0.137 A 
HETATM    5  N2  UNL     1       1.805   3.988   0.172  1.00  0.00    -0.308 N 
ATOM      6  H2  UNL     1       2.811   3.842   0.251  1.00  0.00     0.170 HD
HETATM    7  C7  UNL     1       1.296   5.192   0.450  1.00  0.00     0.246 A 
HETATM    8  O3  UNL     1       2.036   6.164   0.812  1.00  0.00    -0.268 OA
HETATM    9  C8  UNL     1      -0.079   5.356   0.334  1.00  0.00     0.077 A 
HETATM   10  C9  UNL     1      -0.908   4.303  -0.061  1.00  0.00     0.039 A 
HETATM   11  C10 UNL     1      -0.342   3.077  -0.339  1.00  0.00     0.077 A 
HETATM   12  N3  UNL     1      -1.060   2.015  -0.722  1.00  0.00    -0.353 N 
ATOM     13  H3  UNL     1      -2.071   2.107  -0.817  1.00  0.00     0.166 HD
HETATM   14  C11 UNL     1      -0.473   0.808  -0.990  1.00  0.00     0.066 A 
ENDROOT
BRANCH  14  15
HETATM   15  C12 UNL     1      -1.351  -0.310  -1.337  1.00  0.00     0.106 C 
BRANCH  15  16
HETATM   16  C13 UNL     1      -1.924  -1.073  -0.186  1.00  0.00     0.028 A 
HETATM   17  C14 UNL     1      -3.255  -1.224   0.032  1.00  0.00     0.004 A 
HETATM   18  C15 UNL     1      -4.335  -0.755  -0.684  1.00  0.00     0.033 A 
HETATM   19  C19 UNL     1      -3.494  -1.966   1.143  1.00  0.00     0.046 A 
HETATM   20  C16 UNL     1      -5.629  -1.043  -0.268  1.00  0.00     0.011 A 
HETATM   21 BR1  UNL     1      -7.102  -0.385  -1.273  1.00  0.00    -0.051 Br
HETATM   22  C17 UNL     1      -5.873  -1.795   0.858  1.00  0.00     0.021 A 
HETATM   23  C18 UNL     1      -4.803  -2.264   1.574  1.00  0.00     0.032 A 
HETATM   24  N4  UNL     1      -2.379  -2.323   1.684  1.00  0.00    -0.322 N 
HETATM   25  C20 UNL     1      -1.289  -1.791   0.894  1.00  0.00     0.253 A 
ATOM     26  H4  UNL     1      -2.281  -2.887   2.528  1.00  0.00     0.169 HD
HETATM   27  O4  UNL     1      -0.090  -1.959   1.155  1.00  0.00    -0.268 OA
ENDBRANCH  15  16
ENDBRANCH  14  15
BRANCH   1  28
HETATM   28  O2  UNL     1       1.579  -0.483  -1.121  1.00  0.00    -0.334 OA
BRANCH  28  29
HETATM   29  C4  UNL     1       2.973  -0.494  -0.964  1.00  0.00     0.179 C 
BRANCH  29  30
HETATM   30  C3  UNL     1       3.645  -1.786  -1.254  1.00  0.00     0.053 C 
BRANCH  30  31
HETATM   31  C2  UNL     1       3.113  -2.843  -0.333  1.00  0.00     0.169 C 
BRANCH  31  32
HETATM   32  O1  UNL     1       3.293  -2.570   1.002  1.00  0.00    -0.396 OA
HETATM   33  C1  UNL     1       4.613  -2.419   1.382  1.00  0.00     0.201 C 
ENDBRANCH  31  32
ENDBRANCH  30  31
ENDBRANCH  29  30
ENDBRANCH  28  29
ENDBRANCH   1  28
TORSDOF 7
