REMARK  3 active torsions:
REMARK  status: ('A' for Active; 'I' for Inactive)
REMARK    1  A    between atoms: N4_8  and  C3_9 
REMARK    2  A    between atoms: C3_9  and  C4_10 
REMARK    3  A    between atoms: N5_17  and  O3_18 
ROOT
HETATM    1  N1  UNL     1      -4.943   2.657  -0.577  1.00  0.00    -0.171 NA
HETATM    2  C1  UNL     1      -3.832   2.361  -0.419  1.00  0.00     0.196 C 
HETATM    3  N2  UNL     1      -2.524   1.999  -0.237  1.00  0.00    -0.123 N 
ATOM      4  H2  UNL     1      -1.863   2.770  -0.142  1.00  0.00     0.197 HD
HETATM    5  C2  UNL     1      -2.020   0.830  -0.170  1.00  0.00     0.723 C 
HETATM    6  N3  UNL     1      -0.626   0.606   0.025  1.00  0.00    -0.149 N 
ATOM      7  H3  UNL     1      -0.034   1.374   0.342  1.00  0.00     0.199 HD
HETATM    8  N4  UNL     1      -0.053  -0.659  -0.213  1.00  0.00    -0.212 NA
HETATM    9  C7  UNL     1      -1.032  -1.660   0.297  1.00  0.00     0.137 C 
HETATM   10  C8  UNL     1      -2.293  -1.587  -0.524  1.00  0.00     0.191 C 
HETATM   11  N5  UNL     1      -2.901  -0.288  -0.298  1.00  0.00    -0.088 N 
ENDROOT
BRANCH  11  12
HETATM   12  O3  UNL     1      -4.239  -0.220  -0.219  1.00  0.00    -0.274 OA
ATOM     13  H3  UNL     1      -4.825  -0.963  -0.304  1.00  0.00     0.245 HD
ENDBRANCH  11  12
BRANCH   8  14
HETATM   14  C3  UNL     1       1.130  -0.889   0.583  1.00  0.00     0.149 C 
BRANCH  14  15
HETATM   15  C4  UNL     1       2.366  -0.343   0.008  1.00  0.00     0.177 C 
HETATM   16  C5  UNL     1       2.517   1.158   0.014  1.00  0.00     0.065 C 
HETATM   17  C6  UNL     1       4.025   1.176  -0.300  1.00  0.00     0.212 C 
HETATM   18  O1  UNL     1       4.489   0.039   0.345  1.00  0.00    -0.241 OA
HETATM   19  O2  UNL     1       3.493  -0.630   0.841  1.00  0.00    -0.234 OA
ENDBRANCH  14  15
ENDBRANCH   8  14
TORSDOF 3
