REMARK  5 active torsions:
REMARK  status: ('A' for Active; 'I' for Inactive)
REMARK    1  A    between atoms: S1_2  and  C2_3 
REMARK    2  A    between atoms: C4_7  and  C5_8 
REMARK    3  A    between atoms: C5_8  and  N3_13 
REMARK    4  A    between atoms: N2_9  and  O1_11 
REMARK    5  A    between atoms: N3_13  and  C6_15 
ROOT
HETATM    1  C5  UNL     1       0.690  -0.705  -0.406  1.00  0.00     0.159 C 
HETATM    2  N2  UNL     1       0.894  -1.242  -1.577  1.00  0.00    -0.251 N 
ATOM      3  H2  UNL     1       0.111  -1.695  -2.048  1.00  0.00     0.196 HD
ENDROOT
BRANCH   1   4
HETATM    4  C4  UNL     1       1.838  -0.065   0.238  1.00  0.00     0.139 A 
HETATM    5  C3  UNL     1       1.839   0.998   1.105  1.00  0.00     0.132 A 
HETATM    6  N1  UNL     1       3.106   1.262   1.454  1.00  0.00    -0.338 N 
HETATM    7  C2  UNL     1       3.867   0.362   0.800  1.00  0.00     0.187 A 
ATOM      8  H1  UNL     1       3.429   1.995   2.086  1.00  0.00     0.168 HD
HETATM    9  O3  UNL     1       3.090  -0.416   0.083  1.00  0.00    -0.282 OA
BRANCH   7  10
HETATM   10  S1  UNL     1       5.648   0.301   0.937  1.00  0.00    -0.091 SA
HETATM   11  C1  UNL     1       6.469   1.328  -0.281  1.00  0.00     0.099 C 
ENDBRANCH   7  10
ENDBRANCH   1   4
BRANCH   1  12
HETATM   12  N3  UNL     1      -0.583  -0.744   0.208  1.00  0.00    -0.345 N 
ATOM     13  H3  UNL     1      -0.680  -0.496   1.193  1.00  0.00     0.163 HD
BRANCH  12  14
HETATM   14  C6  UNL     1      -1.746  -1.133  -0.554  1.00  0.00     0.233 C 
HETATM   15  C7  UNL     1      -1.938  -0.192  -1.708  1.00  0.00     0.130 C 
HETATM   16  S2  UNL     1      -3.387   0.770  -1.112  1.00  0.00    -0.128 SA
HETATM   17  C8  UNL     1      -3.562  -0.215   0.430  1.00  0.00     0.104 C 
HETATM   18  C9  UNL     1      -5.046  -0.506   0.597  1.00  0.00     0.058 C 
HETATM   19  C10 UNL     1      -3.109   0.619   1.559  1.00  0.00     0.058 C 
HETATM   20  O2  UNL     1      -2.869  -1.322   0.138  1.00  0.00    -0.345 OA
ENDBRANCH  12  14
ENDBRANCH   1  12
BRANCH   2  21
HETATM   21  O1  UNL     1       2.094  -1.225  -2.194  1.00  0.00    -0.288 OA
ATOM     22  H1  UNL     1       2.243  -1.616  -3.047  1.00  0.00     0.244 HD
ENDBRANCH   2  21
TORSDOF 5
