REMARK  7 active torsions:
REMARK  status: ('A' for Active; 'I' for Inactive)
REMARK    1  A    between atoms: C2_9  and  N5_10 
REMARK    2  A    between atoms: N5_10  and  N6_12 
REMARK    3  A    between atoms: C3_14  and  C4_15 
REMARK    4  A    between atoms: C4_15  and  C5_17 
REMARK    5  A    between atoms: C6_19  and  N7_20 
REMARK    6  A    between atoms: N7_20  and  C7_22 
REMARK    7  A    between atoms: C12_32  and  O2_33 
ROOT
HETATM    1  C5  UNL     1       0.658  -0.308  -0.493  1.00  0.00     0.110 A 
HETATM    2  S1  UNL     1      -0.747   0.632  -0.142  1.00  0.00    -0.046 SA
HETATM    3  C6  UNL     1      -1.922  -0.589  -0.356  1.00  0.00     0.147 A 
HETATM    4  N9  UNL     1      -1.189  -1.647  -0.682  1.00  0.00    -0.316 N 
ATOM      5  H9  UNL     1      -1.634  -2.545  -0.872  1.00  0.00     0.170 HD
HETATM    6  C12 UNL     1       0.112  -1.524  -0.756  1.00  0.00     0.163 A 
ENDROOT
BRANCH   1   7
HETATM    7  C4  UNL     1       2.024   0.205  -0.472  1.00  0.00     0.210 C 
HETATM    8  O1  UNL     1       2.224   1.442  -0.176  1.00  0.00    -0.285 OA
BRANCH   7   9
HETATM    9  C3  UNL     1       3.174  -0.595  -0.766  1.00  0.00     0.164 C 
HETATM   10  N6  UNL     1       4.347  -0.042  -0.720  1.00  0.00    -0.294 N 
ATOM     11  H6  UNL     1       4.432   0.945  -0.477  1.00  0.00     0.186 HD
BRANCH  10  12
HETATM   12  N5  UNL     1       5.476  -0.775  -0.996  1.00  0.00    -0.129 N 
ATOM     13  H5  UNL     1       5.445  -1.479  -1.734  1.00  0.00     0.205 HD
BRANCH  12  14
HETATM   14  C2  UNL     1       6.574  -0.595  -0.345  1.00  0.00     0.730 A 
HETATM   15  N1  UNL     1       6.795   0.270   0.638  1.00  0.00    -0.110 N 
HETATM   16  C1  UNL     1       5.869   1.227   1.230  1.00  0.00     0.199 C 
HETATM   17  N2  UNL     1       8.057   0.159   1.058  1.00  0.00    -0.211 N 
HETATM   18  N3  UNL     1       8.615  -0.783   0.326  1.00  0.00    -0.213 N 
ATOM     19  H2  UNL     1       8.502   0.698   1.801  1.00  0.00     0.210 HD
HETATM   20  N4  UNL     1       7.749  -1.261  -0.532  1.00  0.00    -0.114 N 
ATOM     21  H3  UNL     1       9.582  -1.095   0.415  1.00  0.00     0.210 HD
ATOM     22  H4  UNL     1       7.922  -1.998  -1.216  1.00  0.00     0.207 HD
ENDBRANCH  12  14
ENDBRANCH  10  12
ENDBRANCH   7   9
ENDBRANCH   1   7
BRANCH   6  23
HETATM   23  O2  UNL     1       0.982  -2.609  -1.100  1.00  0.00    -0.345 OA
ATOM     24  H2  UNL     1       0.600  -3.459  -1.284  1.00  0.00     0.219 HD
ENDBRANCH   6  23
BRANCH   3  25
HETATM   25  N7  UNL     1      -3.233  -0.521  -0.234  1.00  0.00    -0.366 N 
ATOM     26  H7  UNL     1      -3.832  -1.332  -0.391  1.00  0.00     0.162 HD
BRANCH  25  27
HETATM   27  C7  UNL     1      -3.773   0.767   0.135  1.00  0.00     0.086 C 
HETATM   28  C8  UNL     1      -4.804   0.553   1.222  1.00  0.00     0.052 C 
HETATM   29  C9  UNL     1      -6.181   0.316   0.631  1.00  0.00     0.234 C 
HETATM   30  N8  UNL     1      -6.081  -0.415  -0.610  1.00  0.00    -0.075 N 
HETATM   31  C10 UNL     1      -5.382   0.281  -1.642  1.00  0.00     0.234 C 
ATOM     32  H82 UNL     1      -5.664  -1.332  -0.452  1.00  0.00     0.277 HD
ATOM     33  H81 UNL     1      -7.006  -0.699  -0.933  1.00  0.00     0.277 HD
HETATM   34  C11 UNL     1      -4.459   1.345  -1.097  1.00  0.00     0.052 C 
ENDBRANCH  25  27
ENDBRANCH   3  25
TORSDOF 7
