REMARK  8 active torsions:
REMARK  status: ('A' for Active; 'I' for Inactive)
REMARK       I    between atoms: C2_2  and  N1_4 
REMARK    1  A    between atoms: N1_4  and  S1_6 
REMARK    2  A    between atoms: S1_6  and  N2_9 
REMARK    3  A    between atoms: N2_9  and  C3_11 
REMARK    4  A    between atoms: C3_11  and  O6_23 
REMARK    5  A    between atoms: N3_12  and  N4_14 
REMARK    6  A    between atoms: O6_23  and  C7_24 
REMARK    7  A    between atoms: C7_24  and  C9_26 
REMARK    8  A    between atoms: C9_26  and  O7_30 
ROOT
HETATM    1  C3  UNL     1       0.010  -0.386  -0.445  1.00  0.00     0.250 C 
HETATM    2  N3  UNL     1      -1.006   0.010   0.264  1.00  0.00    -0.263 N 
ATOM      3  H3  UNL     1      -1.731  -0.637   0.574  1.00  0.00     0.190 HD
ENDROOT
BRANCH   1   4
HETATM    4  N2  UNL     1       1.018   0.513  -0.876  1.00  0.00    -0.231 N 
ATOM      5  H2  UNL     1       1.028   0.822  -1.848  1.00  0.00     0.184 HD
BRANCH   4   6
HETATM    6  S1  UNL     1       2.217   1.090   0.198  1.00  0.00     0.328 S 
HETATM    7  O2  UNL     1       1.749   0.987   1.626  1.00  0.00    -0.182 OA
HETATM    8  O3  UNL     1       2.609   2.518  -0.110  1.00  0.00    -0.182 OA
BRANCH   6   9
HETATM    9  N1  UNL     1       3.589   0.038   0.048  1.00  0.00    -0.237 N 
HETATM   10  C2  UNL     1       4.874   0.562  -0.262  1.00  0.00     0.228 C 
HETATM   11  C1  UNL     1       5.998  -0.398  -0.376  1.00  0.00     0.118 C 
HETATM   12  O1  UNL     1       5.022   1.789  -0.427  1.00  0.00    -0.273 OA
ATOM     13  H1  UNL     1       3.472  -0.966   0.184  1.00  0.00     0.183 HD
ENDBRANCH   6   9
ENDBRANCH   4   6
ENDBRANCH   1   4
BRANCH   1  14
HETATM   14  O6  UNL     1       0.064  -1.712  -0.758  1.00  0.00    -0.307 OA
BRANCH  14  15
HETATM   15  C7  UNL     1      -0.925  -2.668  -0.583  1.00  0.00     0.202 C 
HETATM   16  C8  UNL     1      -1.388  -2.888   0.831  1.00  0.00     0.049 C 
BRANCH  15  17
HETATM   17  C9  UNL     1      -2.090  -2.510  -1.463  1.00  0.00     0.139 C 
HETATM   18  N6  UNL     1      -2.258  -1.663  -2.391  1.00  0.00    -0.382 N 
ATOM     19  H62 UNL     1      -1.489  -1.010  -2.543  1.00  0.00     0.158 HD
ATOM     20  H61 UNL     1      -3.067  -1.553  -3.002  1.00  0.00     0.158 HD
BRANCH  17  21
HETATM   21  O7  UNL     1      -3.154  -3.413  -1.252  1.00  0.00    -0.348 OA
ATOM     22  H7  UNL     1      -3.908  -3.311  -1.821  1.00  0.00     0.219 HD
ENDBRANCH  17  21
ENDBRANCH  15  17
ENDBRANCH  14  15
ENDBRANCH   1  14
BRANCH   2  23
HETATM   23  N4  UNL     1      -1.049   1.359   0.575  1.00  0.00    -0.284 N 
HETATM   24  C4  UNL     1      -2.087   2.110   0.522  1.00  0.00     0.125 C 
HETATM   25  C5  UNL     1      -2.221   3.545   0.833  1.00  0.00     0.258 C 
HETATM   26  N5  UNL     1      -3.374   1.659   0.131  1.00  0.00    -0.289 N 
HETATM   27  O4  UNL     1      -3.331   3.944   0.059  1.00  0.00    -0.296 OA
HETATM   28  C6  UNL     1      -4.117   2.841  -0.149  1.00  0.00     0.366 C 
HETATM   29  O5  UNL     1      -5.322   2.859  -0.531  1.00  0.00    -0.238 OA
ATOM     30  H5  UNL     1      -3.698   0.694   0.065  1.00  0.00     0.172 HD
ATOM     31  H4  UNL     1      -0.176   1.794   0.873  1.00  0.00     0.188 HD
ENDBRANCH   2  23
TORSDOF 8
