REMARK  4 active torsions:
REMARK  status: ('A' for Active; 'I' for Inactive)
REMARK    1  A    between atoms: N3_8  and  C4_10 
REMARK    2  A    between atoms: C8_14  and  N4_15 
REMARK    3  A    between atoms: C10_19  and  C11_20 
REMARK    4  A    between atoms: C11_20  and  C13_23 
ROOT
HETATM    1  C11 UNL     1       0.927   0.308   0.208  1.00  0.00     0.104 C 
HETATM    2  C12 UNL     1       0.568   1.685   0.556  1.00  0.00     0.104 C 
HETATM    3  N5  UNL     1       0.320   2.793   0.838  1.00  0.00    -0.191 NA
ENDROOT
BRANCH   1   4
HETATM    4  C10 UNL     1      -0.019  -0.565  -0.016  1.00  0.00     0.061 A 
HETATM    5  C2  UNL     1       0.052  -1.892  -0.353  1.00  0.00     0.054 A 
HETATM    6  C1  UNL     1       1.122  -2.638  -0.540  1.00  0.00     0.045 C 
HETATM    7  N1  UNL     1      -1.235  -2.343  -0.471  1.00  0.00    -0.299 N 
HETATM    8  N2  UNL     1      -2.077  -1.381  -0.228  1.00  0.00    -0.284 N 
ATOM      9  H1  UNL     1      -1.497  -3.298  -0.715  1.00  0.00     0.187 HD
HETATM   10  C3  UNL     1      -1.392  -0.269   0.056  1.00  0.00     0.134 A 
ATOM     11  H2  UNL     1      -3.094  -1.462  -0.251  1.00  0.00     0.188 HD
HETATM   12  N3  UNL     1      -1.880   0.894   0.350  1.00  0.00    -0.341 N 
ATOM     13  H3  UNL     1      -1.255   1.675   0.550  1.00  0.00     0.167 HD
BRANCH  12  14
HETATM   14  C4  UNL     1      -3.294   1.082   0.394  1.00  0.00     0.035 A 
HETATM   15  C5  UNL     1      -3.968   1.250   1.597  1.00  0.00     0.029 A 
HETATM   16  C6  UNL     1      -5.329   1.430   1.630  1.00  0.00     0.005 A 
HETATM   17  C7  UNL     1      -6.065   1.450   0.478  1.00  0.00     0.036 A 
HETATM   18  C8  UNL     1      -5.434   1.286  -0.752  1.00  0.00     0.105 A 
HETATM   19  C9  UNL     1      -4.066   1.107  -0.748  1.00  0.00     0.065 A 
BRANCH  18  20
HETATM   20  N4  UNL     1      -6.153   1.299  -1.968  1.00  0.00    -0.116 N 
HETATM   21  O1  UNL     1      -7.379   1.460  -1.966  1.00  0.00    -0.532 OA
HETATM   22  O2  UNL     1      -5.488   1.134  -3.145  1.00  0.00    -0.532 OA
ENDBRANCH  18  20
ENDBRANCH  12  14
ENDBRANCH   1   4
BRANCH   1  23
HETATM   23  C13 UNL     1       2.356   0.105   0.159  1.00  0.00     0.128 A 
HETATM   24  N6  UNL     1       3.169  -0.254   1.191  1.00  0.00    -0.339 N 
HETATM   25  C14 UNL     1       4.435  -0.298   0.757  1.00  0.00     0.060 A 
ATOM     26  H6  UNL     1       2.862  -0.457   2.142  1.00  0.00     0.167 HD
HETATM   27  C15 UNL     1       5.616  -0.606   1.408  1.00  0.00     0.032 A 
HETATM   28  C19 UNL     1       4.454   0.035  -0.571  1.00  0.00     0.060 A 
HETATM   29  C16 UNL     1       6.836  -0.592   0.766  1.00  0.00     0.002 A 
HETATM   30  C17 UNL     1       6.861  -0.253  -0.585  1.00  0.00     0.002 A 
HETATM   31  C18 UNL     1       5.674   0.049  -1.213  1.00  0.00     0.032 A 
HETATM   32  N7  UNL     1       3.181   0.278  -0.920  1.00  0.00    -0.339 N 
ATOM     33  H7  UNL     1       2.873   0.552  -1.853  1.00  0.00     0.167 HD
ENDBRANCH   1  23
TORSDOF 4
