REMARK  11 active torsions:
REMARK  status: ('A' for Active; 'I' for Inactive)
REMARK    1  A    between atoms: C2_2  and  C3_3 
REMARK    2  A    between atoms: C2_2  and  C12_12 
REMARK    3  A    between atoms: C3_3  and  C4_4 
REMARK    4  A    between atoms: C4_4  and  C6_6 
REMARK    5  A    between atoms: C6_6  and  C8_8 
REMARK    6  A    between atoms: C12_12  and  O1_13 
REMARK    7  A    between atoms: C12_12  and  N1_15 
REMARK    8  A    between atoms: N1_15  and  C13_17 
REMARK    9  A    between atoms: C13_17  and  C14_18 
REMARK   10  A    between atoms: C16_22  and  C17_23 
REMARK   11  A    between atoms: C17_23  and  C18_25 
ROOT
HETATM    1  C13 UNL     1       1.958  -1.277  -0.989  1.00  0.00     0.125 C 
HETATM    2  C15 UNL     1       3.065  -0.256  -1.129  1.00  0.00     0.055 C 
HETATM    3  C16 UNL     1       3.873  -1.039  -0.169  1.00  0.00     0.067 C 
HETATM    4  C21 UNL     1       2.635  -1.769   0.266  1.00  0.00     0.032 C 
HETATM    5  C22 UNL     1       2.778  -3.271   0.359  1.00  0.00     0.014 C 
ENDROOT
BRANCH   1   6
HETATM    6  N1  UNL     1       0.642  -0.657  -0.731  1.00  0.00    -0.351 N 
ATOM      7  H1  UNL     1       0.157  -0.850   0.145  1.00  0.00     0.163 HD
BRANCH   6   8
HETATM    8  C12 UNL     1       0.061   0.182  -1.665  1.00  0.00     0.146 C 
BRANCH   8   9
HETATM    9  C2  UNL     1      -1.139   0.935  -1.787  1.00  0.00     0.005 C 
HETATM   10  C1  UNL     1      -1.181   1.612  -3.019  1.00  0.00     0.028 C 
BRANCH   9  11
HETATM   11  C3  UNL     1      -2.303   1.182  -1.028  1.00  0.00     0.017 C 
BRANCH  11  12
HETATM   12  C4  UNL     1      -2.842   0.892   0.119  1.00  0.00    -0.078 C 
HETATM   13  C5  UNL     1      -2.215   0.045   1.127  1.00  0.00     0.044 C 
BRANCH  12  14
HETATM   14  C6  UNL     1      -4.191   1.503   0.396  1.00  0.00     0.017 C 
HETATM   15  C7  UNL     1      -4.067   2.335   1.671  1.00  0.00     0.015 C 
BRANCH  14  16
HETATM   16  C8  UNL     1      -5.310   0.559   0.554  1.00  0.00    -0.044 C 
HETATM   17  C9  UNL     1      -6.577   1.398   0.814  1.00  0.00     0.015 C 
HETATM   18  C10 UNL     1      -5.626  -0.206  -0.732  1.00  0.00     0.015 C 
HETATM   19  C11 UNL     1      -5.205  -0.391   1.718  1.00  0.00     0.015 C 
ENDBRANCH  14  16
ENDBRANCH  12  14
ENDBRANCH  11  12
ENDBRANCH   9  11
ENDBRANCH   8   9
BRANCH   8  20
HETATM   20  O1  UNL     1       0.843   0.313  -2.739  1.00  0.00    -0.346 OA
ATOM     21  H1  UNL     1       1.645  -0.190  -2.657  1.00  0.00     0.219 HD
ENDBRANCH   8  20
ENDBRANCH   6   8
ENDBRANCH   1   6
BRANCH   1  22
HETATM   22  C14 UNL     1       1.974  -2.196  -2.140  1.00  0.00     0.203 C 
HETATM   23  O2  UNL     1       1.010  -2.504  -2.863  1.00  0.00    -0.646 OA
HETATM   24  O3  UNL     1       3.199  -2.795  -2.468  1.00  0.00    -0.646 OA
ENDBRANCH   1  22
BRANCH   3  25
HETATM   25  C17 UNL     1       4.578  -0.294   0.897  1.00  0.00     0.156 C 
HETATM   26  O4  UNL     1       4.285  -0.577   2.047  1.00  0.00    -0.295 OA
BRANCH  25  27
HETATM   27  C18 UNL     1       5.588   0.745   0.658  1.00  0.00     0.181 C 
HETATM   28  C19 UNL     1       6.847   0.116   0.052  1.00  0.00     0.213 C 
HETATM   29  O5  UNL     1       7.695  -0.197   1.141  1.00  0.00    -0.302 OA
HETATM   30  C20 UNL     1       7.365   0.704   2.171  1.00  0.00     0.361 C 
HETATM   31  O6  UNL     1       8.055   0.935   3.197  1.00  0.00    -0.238 OA
HETATM   32  N2  UNL     1       6.119   1.315   1.867  1.00  0.00    -0.323 N 
ATOM     33  H2  UNL     1       5.670   2.045   2.420  1.00  0.00     0.165 HD
ENDBRANCH  25  27
ENDBRANCH   3  25
TORSDOF 11
