REMARK  10 active torsions:
REMARK  status: ('A' for Active; 'I' for Inactive)
REMARK    1  A    between atoms: C4_4  and  O1_5 
REMARK    2  A    between atoms: O1_5  and  C5_6 
REMARK       I    between atoms: N1_11  and  C10_12 
REMARK    3  A    between atoms: C10_12  and  O3_14 
REMARK    4  A    between atoms: O3_14  and  C11_15 
REMARK    5  A    between atoms: C11_15  and  C12_16 
REMARK    6  A    between atoms: C20_29  and  N4_30 
REMARK    7  A    between atoms: N4_30  and  C21_32 
REMARK    8  A    between atoms: C21_32  and  C22_33 
REMARK    9  A    between atoms: C22_33  and  C23_34 
REMARK   10  A    between atoms: C23_34  and  N5_35 
ROOT
HETATM    1  C1  UNL     1      -0.768  -1.836   0.939  1.00  0.00     0.049 C 
HETATM    2  C2  UNL     1       0.099  -0.992   0.116  1.00  0.00    -0.044 A 
HETATM    3  C3  UNL     1       1.466  -1.214   0.013  1.00  0.00     0.044 A 
HETATM    4  C4  UNL     1       2.343  -0.476  -0.736  1.00  0.00     0.072 A 
HETATM    5  C15 UNL     1       1.835   0.575  -1.448  1.00  0.00     0.067 A 
HETATM    6  C16 UNL     1       0.467   0.851  -1.387  1.00  0.00     0.047 A 
HETATM    7  N2  UNL     1       0.036   1.910  -2.131  1.00  0.00    -0.364 N 
ATOM      8  H2  UNL     1       0.692   2.458  -2.687  1.00  0.00     0.165 HD
HETATM    9  C17 UNL     1      -1.259   2.213  -2.115  1.00  0.00     0.113 A 
HETATM   10  C18 UNL     1      -2.173   1.497  -1.378  1.00  0.00     0.087 A 
HETATM   11  C19 UNL     1      -3.569   1.874  -1.412  1.00  0.00     0.103 C 
HETATM   12  N3  UNL     1      -4.667   2.197  -1.463  1.00  0.00    -0.191 NA
HETATM   13  C20 UNL     1      -1.744   0.419  -0.619  1.00  0.00     0.067 A 
HETATM   14  C29 UNL     1      -0.375   0.094  -0.632  1.00  0.00     0.025 A 
ENDROOT
BRANCH  13  15
HETATM   15  N4  UNL     1      -2.485  -0.276   0.066  1.00  0.00    -0.367 N 
ATOM     16  H4  UNL     1      -1.891  -0.981   0.501  1.00  0.00     0.165 HD
BRANCH  15  17
HETATM   17  C21 UNL     1      -3.760  -0.526   0.507  1.00  0.00     0.066 C 
BRANCH  17  18
HETATM   18  C22 UNL     1      -4.468  -1.700  -0.149  1.00  0.00     0.089 C 
BRANCH  18  19
HETATM   19  C23 UNL     1      -5.867  -1.911   0.382  1.00  0.00     0.073 C 
BRANCH  19  20
HETATM   20  N5  UNL     1      -6.766  -0.850   0.166  1.00  0.00    -0.351 N 
HETATM   21  C24 UNL     1      -7.178  -0.615  -1.156  1.00  0.00     0.098 C 
HETATM   22  C25 UNL     1      -8.311   0.312  -1.382  1.00  0.00     0.317 C 
HETATM   23  N6  UNL     1      -9.074   0.680  -0.229  1.00  0.00     0.093 N 
HETATM   24  C26 UNL     1     -10.168  -0.229  -0.034  1.00  0.00     0.310 C 
HETATM   25  C27 UNL     1      -8.289   0.904   0.943  1.00  0.00     0.317 C 
HETATM   26  C28 UNL     1      -7.489  -0.319   1.241  1.00  0.00     0.098 C 
ENDBRANCH  19  20
ENDBRANCH  18  19
ENDBRANCH  17  18
ENDBRANCH  15  17
ENDBRANCH  13  15
BRANCH   4  27
HETATM   27  O1  UNL     1       3.715  -0.788  -0.773  1.00  0.00    -0.338 OA
BRANCH  27  28
HETATM   28  C5  UNL     1       4.672  -0.268   0.101  1.00  0.00     0.084 C 
HETATM   29  C6  UNL     1       4.809   1.224   0.068  1.00  0.00     0.041 C 
HETATM   30  C7  UNL     1       5.176   1.674   1.467  1.00  0.00     0.009 C 
HETATM   31  C8  UNL     1       5.238   0.415   2.282  1.00  0.00     0.007 C 
HETATM   32  C9  UNL     1       6.605  -0.210   2.200  1.00  0.00     0.133 C 
HETATM   33  C14 UNL     1       4.293  -0.513   1.540  1.00  0.00     0.046 C 
HETATM   34  N1  UNL     1       6.974  -0.284   0.791  1.00  0.00    -0.325 N 
HETATM   35  C10 UNL     1       8.230   0.219   0.380  1.00  0.00     0.363 C 
HETATM   36  C13 UNL     1       6.029  -0.880  -0.139  1.00  0.00     0.166 C 
HETATM   37  O2  UNL     1       8.991   0.722   1.240  1.00  0.00    -0.238 OA
BRANCH  35  38
HETATM   38  O3  UNL     1       8.660   0.181  -0.931  1.00  0.00    -0.298 OA
BRANCH  38  39
HETATM   39  C11 UNL     1       9.928   0.692  -1.332  1.00  0.00     0.251 C 
BRANCH  39  40
HETATM   40  C12 UNL     1      10.138   0.519  -2.801  1.00  0.00     0.377 C 
HETATM   41  F1  UNL     1      10.085  -0.832  -3.117  1.00  0.00    -0.212 F 
HETATM   42  F2  UNL     1       9.155   1.176  -3.508  1.00  0.00    -0.212 F 
ENDBRANCH  39  40
ENDBRANCH  38  39
ENDBRANCH  35  38
ENDBRANCH  27  28
ENDBRANCH   4  27
TORSDOF 10
