REMARK  16 active torsions:
REMARK  status: ('A' for Active; 'I' for Inactive)
REMARK    1  A    between atoms: C2_2  and  C16_44 
REMARK    2  A    between atoms: N1_3  and  N2_5 
REMARK    3  A    between atoms: N2_5  and  C3_7 
REMARK    4  A    between atoms: C4_10  and  N4_11 
REMARK       I    between atoms: N4_11  and  C5_13 
REMARK       I    between atoms: C5_13  and  N5_14 
REMARK       I    between atoms: C5_13  and  N6_18 
REMARK    5  A    between atoms: C7_23  and  N7_24 
REMARK    6  A    between atoms: C10_29  and  N9_30 
REMARK    7  A    between atoms: N9_30  and  C11_31 
REMARK    8  A    between atoms: N9_30  and  C13_35 
REMARK    9  A    between atoms: C11_31  and  C12_32 
REMARK   10  A    between atoms: C12_32  and  O1_33 
REMARK   11  A    between atoms: C13_35  and  C14_36 
REMARK   12  A    between atoms: C14_36  and  O2_37 
REMARK   13  A    between atoms: C19_47  and  C20_48 
REMARK   14  A    between atoms: N14_53  and  C21_54 
REMARK   15  A    between atoms: C26_62  and  C27_63 
REMARK   16  A    between atoms: N17_65  and  O4_67 
ROOT
HETATM    1  C3  UNL     1      -1.831   0.778   0.261  1.00  0.00     0.700 A 
HETATM    2  N3  UNL     1      -2.456   1.964   0.219  1.00  0.00    -0.174 N 
ATOM      3  H3  UNL     1      -1.888   2.809   0.160  1.00  0.00     0.186 HD
HETATM    4  C4  UNL     1      -3.815   2.097   0.251  1.00  0.00     0.137 A 
HETATM    5  C6  UNL     1      -4.545   0.926   0.329  1.00  0.00     0.098 A 
HETATM    6  C7  UNL     1      -5.893   0.939   0.374  1.00  0.00     0.136 A 
HETATM    7  N8  UNL     1      -6.602  -0.245   0.466  1.00  0.00    -0.175 N 
ATOM      8  H8  UNL     1      -7.621  -0.215   0.501  1.00  0.00     0.186 HD
HETATM    9  C10 UNL     1      -5.979  -1.429   0.510  1.00  0.00     0.687 A 
HETATM   10  N10 UNL     1      -4.647  -1.419   0.462  1.00  0.00    -0.175 N 
ATOM     11  H10 UNL     1      -4.163  -2.316   0.495  1.00  0.00     0.186 HD
HETATM   12  C15 UNL     1      -3.903  -0.312   0.373  1.00  0.00     0.154 A 
HETATM   13  N11 UNL     1      -2.568  -0.337   0.337  1.00  0.00    -0.173 N 
ATOM     14  H11 UNL     1      -2.093  -1.239   0.369  1.00  0.00     0.186 HD
ENDROOT
BRANCH   1  15
HETATM   15  N2  UNL     1      -0.522   0.727   0.220  1.00  0.00    -0.132 N 
ATOM     16  H2  UNL     1      -0.049  -0.176   0.252  1.00  0.00     0.205 HD
BRANCH  15  17
HETATM   17  N1  UNL     1       0.195   1.847   0.137  1.00  0.00    -0.289 N 
HETATM   18  C2  UNL     1       1.356   2.241   0.176  1.00  0.00     0.049 C 
HETATM   19  C1  UNL     1       1.572   3.735   0.012  1.00  0.00     0.072 C 
ATOM     20  H1  UNL     1      -0.429   2.641  -0.007  1.00  0.00     0.187 HD
BRANCH  18  21
HETATM   21  C16 UNL     1       2.547   1.421   0.333  1.00  0.00     0.056 A 
HETATM   22  C17 UNL     1       2.456   0.031   0.406  1.00  0.00     0.032 A 
HETATM   23  C18 UNL     1       3.599  -0.673   0.546  1.00  0.00     0.020 A 
HETATM   24  C19 UNL     1       4.890  -0.094   0.625  1.00  0.00     0.041 A 
HETATM   25  C26 UNL     1       4.938   1.259   0.558  1.00  0.00     0.090 A 
HETATM   26  N18 UNL     1       3.756   1.977   0.410  1.00  0.00    -0.351 N 
ATOM     27  H18 UNL     1       3.818   2.994   0.357  1.00  0.00     0.166 HD
BRANCH  24  28
HETATM   28  C20 UNL     1       6.005  -0.998   0.739  1.00  0.00     0.150 A 
HETATM   29  N12 UNL     1       5.874  -2.156   1.499  1.00  0.00    -0.268 N 
HETATM   30  N13 UNL     1       6.966  -2.858   1.340  1.00  0.00    -0.224 N 
ATOM     31  H12 UNL     1       5.072  -2.411   2.075  1.00  0.00     0.190 HD
HETATM   32  N14 UNL     1       7.802  -2.254   0.539  1.00  0.00    -0.213 N 
ATOM     33  H13 UNL     1       7.142  -3.759   1.784  1.00  0.00     0.210 HD
HETATM   34  N15 UNL     1       7.209  -1.137   0.185  1.00  0.00    -0.265 N 
ATOM     35  H15 UNL     1       7.625  -0.451  -0.445  1.00  0.00     0.190 HD
BRANCH  32  36
HETATM   36  C21 UNL     1       9.102  -2.699   0.117  1.00  0.00     0.132 C 
HETATM   37  C22 UNL     1      10.088  -1.541   0.039  1.00  0.00     0.055 C 
HETATM   38  C23 UNL     1      11.130  -1.889  -0.995  1.00  0.00     0.169 C 
HETATM   39  O3  UNL     1      11.377  -3.259  -0.954  1.00  0.00    -0.391 OA
HETATM   40  C24 UNL     1      10.352  -3.986  -1.550  1.00  0.00     0.169 C 
HETATM   41  C25 UNL     1       8.998  -3.413  -1.194  1.00  0.00     0.055 C 
ENDBRANCH  32  36
ENDBRANCH  24  28
BRANCH  25  42
HETATM   42  C27 UNL     1       6.125   2.068   0.700  1.00  0.00     0.163 C 
HETATM   43  N16 UNL     1       7.416   1.530   0.996  1.00  0.00    -0.078 NA
HETATM   44  N17 UNL     1       6.057   3.352   0.651  1.00  0.00    -0.253 N 
ATOM     45  H17 UNL     1       6.933   3.863   0.759  1.00  0.00     0.195 HD
BRANCH  44  46
HETATM   46  O4  UNL     1       4.969   4.070   0.475  1.00  0.00    -0.288 OA
ATOM     47  H4  UNL     1       4.919   5.018   0.439  1.00  0.00     0.244 HD
ENDBRANCH  44  46
ENDBRANCH  25  42
ENDBRANCH  18  21
ENDBRANCH  15  17
ENDBRANCH   1  15
BRANCH   4  48
HETATM   48  N4  UNL     1      -4.356   3.254   0.234  1.00  0.00    -0.326 N 
HETATM   49  C5  UNL     1      -3.597   4.466   0.182  1.00  0.00     0.481 C 
HETATM   50  N5  UNL     1      -3.063   4.766  -1.129  1.00  0.00    -0.033 N 
HETATM   51  N6  UNL     1      -4.465   5.621   0.523  1.00  0.00    -0.033 N 
ATOM     52  H53 UNL     1      -2.513   3.982  -1.480  1.00  0.00     0.278 HD
ATOM     53  H52 UNL     1      -3.808   4.779  -1.826  1.00  0.00     0.278 HD
ATOM     54  H51 UNL     1      -2.522   5.630  -1.166  1.00  0.00     0.278 HD
ATOM     55  H63 UNL     1      -5.295   5.664  -0.068  1.00  0.00     0.278 HD
ATOM     56  H62 UNL     1      -4.929   5.498   1.423  1.00  0.00     0.278 HD
ATOM     57  H61 UNL     1      -3.924   6.485   0.486  1.00  0.00     0.278 HD
ATOM     58  H4  UNL     1      -5.374   3.317   0.259  1.00  0.00     0.164 HD
ENDBRANCH   4  48
BRANCH   6  59
HETATM   59  N7  UNL     1      -6.663   2.123   0.275  1.00  0.00    -0.375 N 
HETATM   60  C8  UNL     1      -7.001   2.675  -1.007  1.00  0.00     0.150 C 
HETATM   61  C9  UNL     1      -7.141   2.759   1.470  1.00  0.00     0.150 C 
ENDBRANCH   6  59
BRANCH   9  62
HETATM   62  N9  UNL     1      -6.762  -2.643   0.605  1.00  0.00    -0.193 N 
BRANCH  62  63
HETATM   63  C11 UNL     1      -6.211  -3.931   0.670  1.00  0.00     0.108 C 
BRANCH  63  64
HETATM   64  C12 UNL     1      -4.718  -4.082   0.667  1.00  0.00     0.209 C 
BRANCH  64  65
HETATM   65  O1  UNL     1      -4.414  -5.484   0.755  1.00  0.00    -0.396 OA
ATOM     66  H1  UNL     1      -3.469  -5.580   0.753  1.00  0.00     0.209 HD
ENDBRANCH  64  65
ENDBRANCH  63  64
ENDBRANCH  62  63
BRANCH  62  67
HETATM   67  C13 UNL     1      -8.205  -2.456   0.639  1.00  0.00     0.172 C 
BRANCH  67  68
HETATM   68  C14 UNL     1      -8.906  -2.935  -0.582  1.00  0.00     0.185 C 
BRANCH  68  69
HETATM   69  O2  UNL     1      -8.772  -4.274  -0.862  1.00  0.00    -0.399 OA
ATOM     70  H2  UNL     1      -9.220  -4.580  -1.642  1.00  0.00     0.209 HD
ENDBRANCH  68  69
ENDBRANCH  67  68
ENDBRANCH  62  67
ENDBRANCH   9  62
TORSDOF 16
