REMARK  13 active torsions:
REMARK  status: ('A' for Active; 'I' for Inactive)
REMARK    1  A    between atoms: C3_3  and  C4_4 
REMARK    2  A    between atoms: C4_4  and  C5_5 
REMARK    3  A    between atoms: C5_5  and  N1_6 
REMARK    4  A    between atoms: C5_5  and  C20_31 
REMARK       I    between atoms: N1_6  and  C6_8 
REMARK    5  A    between atoms: C6_8  and  C7_10 
REMARK    6  A    between atoms: C7_10  and  N2_11 
REMARK    7  A    between atoms: C7_10  and  C8_15 
REMARK    8  A    between atoms: C8_15  and  N3_17 
REMARK    9  A    between atoms: N3_17  and  C10_19 
REMARK   10  A    between atoms: C10_19  and  C11_20 
REMARK   11  A    between atoms: C10_19  and  C15_24 
REMARK   12  A    between atoms: C11_20  and  C12_21 
REMARK       I    between atoms: C15_24  and  N4_26 
REMARK   13  A    between atoms: C20_31  and  C22_33 
ROOT
HETATM    1  C1  UNL     1      -5.512   3.531  -2.917  1.00  0.00     0.012 C 
HETATM    2  C2  UNL     1      -5.242   2.809  -1.980  1.00  0.00    -0.117 C 
HETATM    3  C3  UNL     1      -4.936   1.930  -0.834  1.00  0.00     0.095 C 
ENDROOT
BRANCH   3   4
HETATM    4  C4  UNL     1      -4.400   0.623  -1.356  1.00  0.00     0.037 C 
BRANCH   4   5
HETATM    5  C5  UNL     1      -4.058  -0.349  -0.285  1.00  0.00     0.089 C 
BRANCH   5   6
HETATM    6  N1  UNL     1      -3.036   0.220   0.584  1.00  0.00    -0.354 N 
HETATM    7  C6  UNL     1      -1.808  -0.439   0.827  1.00  0.00     0.250 C 
HETATM    8  O1  UNL     1      -1.651  -1.552   0.259  1.00  0.00    -0.271 OA
ATOM      9  H1  UNL     1      -3.211   1.120   1.030  1.00  0.00     0.162 HD
BRANCH   7  10
HETATM   10  C7  UNL     1      -0.770   0.139   1.700  1.00  0.00     0.296 C 
BRANCH  10  11
HETATM   11  N2  UNL     1      -0.088  -0.930   2.440  1.00  0.00    -0.065 N 
ATOM     12  H23 UNL     1      -0.743  -1.515   2.959  1.00  0.00     0.275 HD
ATOM     13  H22 UNL     1       0.289  -1.646   1.819  1.00  0.00     0.275 HD
ATOM     14  H21 UNL     1       0.630  -0.530   3.044  1.00  0.00     0.275 HD
ENDBRANCH  10  11
BRANCH  10  15
HETATM   15  C8  UNL     1       0.344   0.805   0.825  1.00  0.00     0.113 C 
HETATM   16  C9  UNL     1      -0.332   1.873   0.027  1.00  0.00     0.034 C 
BRANCH  15  17
HETATM   17  N3  UNL     1       1.001  -0.215   0.132  1.00  0.00    -0.403 N 
ATOM     18  H3  UNL     1       0.470  -1.031  -0.172  1.00  0.00     0.154 HD
BRANCH  17  19
HETATM   19  C10 UNL     1       2.408  -0.145  -0.165  1.00  0.00     0.170 C 
BRANCH  19  20
HETATM   20  C11 UNL     1       2.630   1.000  -1.074  1.00  0.00     0.038 C 
BRANCH  20  21
HETATM   21  C12 UNL     1       3.971   1.349  -1.569  1.00  0.00    -0.020 C 
HETATM   22  C13 UNL     1       4.974   1.764  -0.535  1.00  0.00     0.009 C 
HETATM   23  C14 UNL     1       3.890   2.475  -2.621  1.00  0.00     0.009 C 
ENDBRANCH  20  21
ENDBRANCH  19  20
BRANCH  19  24
HETATM   24  C15 UNL     1       3.282  -0.285   0.997  1.00  0.00     0.242 C 
HETATM   25  O2  UNL     1       3.101   0.334   2.096  1.00  0.00    -0.271 OA
HETATM   26  N4  UNL     1       4.435  -1.166   0.983  1.00  0.00    -0.350 N 
HETATM   27  C16 UNL     1       4.883  -2.026  -0.088  1.00  0.00     0.126 C 
HETATM   28  C19 UNL     1       5.366  -1.347   2.094  1.00  0.00     0.126 C 
HETATM   29  C17 UNL     1       6.381  -2.021   0.072  1.00  0.00     0.021 C 
HETATM   30  C18 UNL     1       6.526  -2.128   1.584  1.00  0.00     0.021 C 
ENDBRANCH  19  24
ENDBRANCH  17  19
ENDBRANCH  15  17
ENDBRANCH  10  15
ENDBRANCH   7  10
ENDBRANCH   5   6
BRANCH   5  31
HETATM   31  C20 UNL     1      -5.218  -0.701   0.616  1.00  0.00     0.004 C 
HETATM   32  C21 UNL     1      -4.751  -1.687   1.647  1.00  0.00     0.012 C 
BRANCH  31  33
HETATM   33  C22 UNL     1      -6.431  -1.154  -0.152  1.00  0.00     0.002 C 
HETATM   34  C23 UNL     1      -6.159  -2.380  -0.993  1.00  0.00     0.005 C 
ENDBRANCH  31  33
ENDBRANCH   5  31
ENDBRANCH   4   5
ENDBRANCH   3   4
TORSDOF 13
