REMARK  12 active torsions:
REMARK  status: ('A' for Active; 'I' for Inactive)
REMARK    1  A    between atoms: C2_2  and  C4_4 
REMARK    2  A    between atoms: C4_4  and  C5_5 
REMARK    3  A    between atoms: C5_5  and  N1_6 
REMARK    4  A    between atoms: C5_5  and  C22_29 
REMARK       I    between atoms: N1_6  and  C6_8 
REMARK    5  A    between atoms: C6_8  and  C7_10 
REMARK    6  A    between atoms: C7_10  and  N2_11 
REMARK    7  A    between atoms: C7_10  and  C19_26 
REMARK    8  A    between atoms: N2_11  and  C8_14 
REMARK    9  A    between atoms: C8_14  and  C9_15 
REMARK   10  A    between atoms: C8_14  and  C16_22 
REMARK   11  A    between atoms: C9_15  and  C10_16 
REMARK   12  A    between atoms: C16_22  and  N3_23 
ROOT
HETATM    1  C7  UNL     1      -0.168  -1.356   0.582  1.00  0.00     0.280 C 
ENDROOT
BRANCH   1   2
HETATM    2  C6  UNL     1      -1.109  -0.292   0.215  1.00  0.00     0.249 C 
HETATM    3  N1  UNL     1      -2.473  -0.415  -0.038  1.00  0.00    -0.346 N 
ATOM      4  H1  UNL     1      -2.894  -1.341   0.033  1.00  0.00     0.163 HD
HETATM    5  O1  UNL     1      -0.631   0.891   0.113  1.00  0.00    -0.271 OA
BRANCH   3   6
HETATM    6  C5  UNL     1      -3.350   0.727  -0.405  1.00  0.00     0.174 C 
BRANCH   6   7
HETATM    7  C4  UNL     1      -4.363   0.920   0.638  1.00  0.00     0.038 C 
BRANCH   7   8
HETATM    8  C2  UNL     1      -5.335   2.012   0.478  1.00  0.00    -0.020 C 
HETATM    9  C1  UNL     1      -6.245   1.920  -0.683  1.00  0.00     0.009 C 
HETATM   10  C3  UNL     1      -6.140   2.099   1.781  1.00  0.00     0.009 C 
ENDBRANCH   7   8
ENDBRANCH   6   7
BRANCH   6  11
HETATM   11  C22 UNL     1      -3.823   0.386  -1.750  1.00  0.00     0.254 C 
HETATM   12  N4  UNL     1      -3.895   1.337  -2.811  1.00  0.00    -0.060 NA
HETATM   13  O2  UNL     1      -4.196  -0.804  -2.054  1.00  0.00    -0.275 OA
ENDBRANCH   6  11
ENDBRANCH   3   6
ENDBRANCH   1   2
BRANCH   1  14
HETATM   14  N2  UNL     1       1.224  -0.929   0.642  1.00  0.00    -0.056 N 
ATOM     15  H22 UNL     1       1.344  -0.177   1.321  1.00  0.00     0.278 HD
ATOM     16  H21 UNL     1       1.805  -1.645   1.079  1.00  0.00     0.278 HD
BRANCH  14  17
HETATM   17  C8  UNL     1       1.749  -0.556  -0.621  1.00  0.00     0.215 C 
BRANCH  17  18
HETATM   18  C9  UNL     1       2.891   0.386  -0.643  1.00  0.00     0.039 C 
BRANCH  18  19
HETATM   19  C10 UNL     1       4.169   0.022  -0.020  1.00  0.00    -0.013 C 
HETATM   20  C11 UNL     1       4.222  -0.280   1.425  1.00  0.00     0.005 C 
HETATM   21  C12 UNL     1       4.589   0.902   2.306  1.00  0.00     0.000 C 
HETATM   22  C13 UNL     1       4.096   2.216   1.793  1.00  0.00     0.000 C 
HETATM   23  C14 UNL     1       4.660   2.443   0.415  1.00  0.00     0.000 C 
HETATM   24  C15 UNL     1       5.188   1.180  -0.236  1.00  0.00     0.005 C 
ENDBRANCH  18  19
ENDBRANCH  17  18
BRANCH  17  25
HETATM   25  C16 UNL     1       2.111  -1.860  -1.356  1.00  0.00     0.304 C 
BRANCH  25  26
HETATM   26  N3  UNL     1       2.661  -1.529  -2.676  1.00  0.00     0.082 N 
HETATM   27  C17 UNL     1       2.979  -2.801  -3.312  1.00  0.00     0.309 C 
HETATM   28  C18 UNL     1       1.596  -0.926  -3.481  1.00  0.00     0.309 C 
ENDBRANCH  25  26
ENDBRANCH  17  25
ENDBRANCH  14  17
ENDBRANCH   1  14
BRANCH   1  29
HETATM   29  C19 UNL     1      -0.543  -2.073   1.877  1.00  0.00     0.017 C 
HETATM   30  C20 UNL     1      -0.606  -1.145   3.056  1.00  0.00     0.012 C 
HETATM   31  C21 UNL     1      -1.782  -2.879   1.804  1.00  0.00     0.012 C 
ENDBRANCH   1  29
TORSDOF 12
