REMARK  18 active torsions:
REMARK  status: ('A' for Active; 'I' for Inactive)
REMARK    1  A    between atoms: C2_2  and  N1_3 
REMARK    2  A    between atoms: N1_3  and  C3_6 
REMARK    3  A    between atoms: C3_6  and  C4_7 
REMARK    4  A    between atoms: C4_7  and  C5_8 
REMARK    5  A    between atoms: C5_8  and  N2_9 
REMARK    6  A    between atoms: C6_10  and  O1_11 
REMARK    7  A    between atoms: C7_13  and  C8_14 
REMARK    8  A    between atoms: C8_14  and  C9_15 
REMARK    9  A    between atoms: C13_22  and  C14_23 
REMARK   10  A    between atoms: C14_23  and  C15_24 
REMARK   11  A    between atoms: C18_29  and  O3_30 
REMARK   12  A    between atoms: C19_32  and  C20_33 
REMARK   13  A    between atoms: C20_33  and  C22_35 
REMARK   14  A    between atoms: C25_39  and  O4_40 
REMARK   15  A    between atoms: C26_42  and  C27_43 
REMARK   16  A    between atoms: C27_43  and  C28_44 
REMARK   17  A    between atoms: C32_51  and  C33_52 
REMARK   18  A    between atoms: C33_52  and  C34_53 
ROOT
HETATM    1  N2  UNL     1       2.756  -0.183  -0.378  1.00  0.00    -0.350 N 
HETATM    2  C6  UNL     1       2.648   1.158  -0.814  1.00  0.00     0.137 C 
HETATM    3  C7  UNL     1       1.495   1.953  -1.233  1.00  0.00     0.159 C 
HETATM    4  N3  UNL     1       1.061   2.934  -0.221  1.00  0.00    -0.347 N 
ATOM      5  H3  UNL     1       1.464   3.871  -0.255  1.00  0.00     0.163 HD
HETATM    6  C12 UNL     1       0.110   2.647   0.802  1.00  0.00     0.241 C 
HETATM    7  O2  UNL     1       0.551   2.827   1.968  1.00  0.00    -0.271 OA
HETATM    8  C13 UNL     1      -1.277   2.167   0.553  1.00  0.00     0.176 C 
HETATM    9  N4  UNL     1      -1.266   0.825   0.025  1.00  0.00    -0.356 N 
ATOM     10  H4  UNL     1      -0.390   0.367   0.276  1.00  0.00     0.162 HD
HETATM   11  C18 UNL     1      -2.033  -0.029  -0.694  1.00  0.00     0.164 C 
HETATM   12  C19 UNL     1      -3.240  -0.870  -0.345  1.00  0.00     0.089 C 
HETATM   13  N5  UNL     1      -3.150  -1.373   1.007  1.00  0.00    -0.327 N 
HETATM   14  C24 UNL     1      -4.315  -1.243   1.861  1.00  0.00     0.159 C 
HETATM   15  C25 UNL     1      -1.960  -1.957   1.542  1.00  0.00     0.165 C 
HETATM   16  C26 UNL     1      -0.888  -2.784   1.031  1.00  0.00     0.063 C 
HETATM   17  N6  UNL     1       0.468  -2.268   1.223  1.00  0.00    -0.325 N 
ATOM     18  H6  UNL     1       0.611  -1.881   2.156  1.00  0.00     0.169 HD
HETATM   19  C31 UNL     1       1.580  -2.185   0.448  1.00  0.00     0.245 C 
HETATM   20  O5  UNL     1       2.564  -2.981   0.723  1.00  0.00    -0.271 OA
HETATM   21  C32 UNL     1       1.950  -1.312  -0.743  1.00  0.00     0.178 C 
ENDROOT
BRANCH   1  22
HETATM   22  C5  UNL     1       3.878  -0.356   0.589  1.00  0.00     0.127 C 
BRANCH  22  23
HETATM   23  C4  UNL     1       3.476  -0.084   1.999  1.00  0.00     0.047 C 
BRANCH  23  24
HETATM   24  C3  UNL     1       4.692  -0.297   2.917  1.00  0.00     0.234 C 
BRANCH  24  25
HETATM   25  N1  UNL     1       5.780   0.574   2.578  1.00  0.00    -0.075 N 
ATOM     26  H12 UNL     1       5.511   1.558   2.573  1.00  0.00     0.277 HD
ATOM     27  H11 UNL     1       6.053   0.502   1.598  1.00  0.00     0.277 HD
BRANCH  25  28
HETATM   28  C2  UNL     1       6.874   0.296   3.487  1.00  0.00     0.228 C 
HETATM   29  C1  UNL     1       6.468   0.739   4.868  1.00  0.00     0.034 C 
ENDBRANCH  25  28
ENDBRANCH  24  25
ENDBRANCH  23  24
ENDBRANCH  22  23
ENDBRANCH   1  22
BRANCH   2  30
HETATM   30  O1  UNL     1       3.764   1.827  -0.858  1.00  0.00    -0.348 OA
ATOM     31  H1  UNL     1       3.691   2.728  -1.151  1.00  0.00     0.219 HD
ENDBRANCH   2  30
BRANCH  21  32
HETATM   32  C33 UNL     1       2.492  -2.204  -1.799  1.00  0.00     0.039 C 
BRANCH  32  33
HETATM   33  C34 UNL     1       2.769  -1.758  -3.161  1.00  0.00    -0.020 C 
HETATM   34  C35 UNL     1       3.258  -3.020  -3.978  1.00  0.00     0.009 C 
HETATM   35  C36 UNL     1       3.967  -0.848  -3.258  1.00  0.00     0.009 C 
ENDBRANCH  32  33
ENDBRANCH  21  32
BRANCH   3  36
HETATM   36  C8  UNL     1       1.980   2.786  -2.437  1.00  0.00     0.037 C 
BRANCH  36  37
HETATM   37  C9  UNL     1       0.834   3.640  -2.914  1.00  0.00    -0.020 C 
HETATM   38  C10 UNL     1      -0.366   2.841  -3.355  1.00  0.00     0.009 C 
HETATM   39  C11 UNL     1       1.344   4.543  -4.020  1.00  0.00     0.009 C 
ENDBRANCH  36  37
ENDBRANCH   3  36
BRANCH  16  40
HETATM   40  C27 UNL     1      -1.076  -3.610  -0.181  1.00  0.00     0.065 C 
BRANCH  40  41
HETATM   41  C28 UNL     1      -2.171  -4.649  -0.074  1.00  0.00    -0.017 C 
HETATM   42  C29 UNL     1      -2.213  -5.390  -1.396  1.00  0.00     0.010 C 
HETATM   43  C30 UNL     1      -1.906  -5.657   1.011  1.00  0.00     0.010 C 
ENDBRANCH  40  41
ENDBRANCH  16  40
BRANCH   8  44
HETATM   44  C14 UNL     1      -2.140   2.257   1.749  1.00  0.00     0.038 C 
BRANCH  44  45
HETATM   45  C15 UNL     1      -2.532   3.559   2.310  1.00  0.00    -0.020 C 
HETATM   46  C16 UNL     1      -1.611   4.567   2.819  1.00  0.00     0.009 C 
HETATM   47  C17 UNL     1      -3.688   3.342   3.350  1.00  0.00     0.009 C 
ENDBRANCH  44  45
ENDBRANCH   8  44
BRANCH  15  48
HETATM   48  O4  UNL     1      -1.821  -1.661   2.803  1.00  0.00    -0.344 OA
ATOM     49  H4  UNL     1      -1.030  -2.049   3.159  1.00  0.00     0.219 HD
ENDBRANCH  15  48
BRANCH  11  50
HETATM   50  O3  UNL     1      -1.706  -0.204  -1.950  1.00  0.00    -0.345 OA
ATOM     51  H3  UNL     1      -2.244  -0.803  -2.454  1.00  0.00     0.219 HD
ENDBRANCH  11  50
BRANCH  12  52
HETATM   52  C20 UNL     1      -4.474  -0.365  -0.925  1.00  0.00    -0.053 C 
HETATM   53  C21 UNL     1      -5.735  -1.155  -0.666  1.00  0.00     0.046 C 
BRANCH  52  54
HETATM   54  C22 UNL     1      -4.823   1.087  -0.830  1.00  0.00     0.031 C 
HETATM   55  C23 UNL     1      -6.153   1.334  -1.523  1.00  0.00     0.010 C 
ENDBRANCH  52  54
ENDBRANCH  12  52
TORSDOF 18
