REMARK  17 active torsions:
REMARK  status: ('A' for Active; 'I' for Inactive)
REMARK    1  A    between atoms: C2_2  and  C3_3 
REMARK    2  A    between atoms: C3_3  and  N1_4 
REMARK    3  A    between atoms: N1_4  and  C4_6 
REMARK    4  A    between atoms: C4_6  and  C5_7 
REMARK    5  A    between atoms: C4_6  and  C31_47 
REMARK       I    between atoms: C5_7  and  N2_9 
REMARK    6  A    between atoms: N2_9  and  C6_11 
REMARK    7  A    between atoms: C6_11  and  C7_12 
REMARK    8  A    between atoms: C6_11  and  C15_22 
REMARK    9  A    between atoms: C7_12  and  C8_13 
REMARK   10  A    between atoms: C8_13  and  C9_14 
REMARK       I    between atoms: C9_14  and  N3_16 
REMARK   11  A    between atoms: N3_16  and  C10_17 
REMARK   12  A    between atoms: N3_16  and  C12_19 
REMARK   13  A    between atoms: C12_19  and  C13_20 
REMARK   14  A    between atoms: C15_22  and  O3_23 
REMARK   15  A    between atoms: C15_22  and  N4_25 
REMARK   16  A    between atoms: N7_41  and  C26_42 
REMARK   17  A    between atoms: C26_42  and  C27_43 
ROOT
HETATM    1  C6  UNL     1      -0.275  -0.080   0.446  1.00  0.00     0.159 C 
ENDROOT
BRANCH   1   2
HETATM    2  N2  UNL     1      -1.320  -1.045   0.596  1.00  0.00    -0.347 N 
HETATM    3  C5  UNL     1      -2.375  -1.344  -0.271  1.00  0.00     0.241 C 
HETATM    4  O1  UNL     1      -2.489  -0.727  -1.356  1.00  0.00    -0.271 OA
ATOM      5  H2  UNL     1      -1.291  -1.592   1.457  1.00  0.00     0.163 HD
BRANCH   3   6
HETATM    6  C4  UNL     1      -3.393  -2.383   0.031  1.00  0.00     0.173 C 
BRANCH   6   7
HETATM    7  N1  UNL     1      -4.328  -2.548  -1.032  1.00  0.00    -0.406 N 
ATOM      8  H1  UNL     1      -5.311  -2.300  -0.921  1.00  0.00     0.154 HD
BRANCH   7   9
HETATM    9  C3  UNL     1      -3.825  -3.077  -2.260  1.00  0.00     0.141 C 
BRANCH   9  10
HETATM   10  C2  UNL     1      -4.998  -3.184  -3.197  1.00  0.00    -0.018 C 
HETATM   11  C1  UNL     1      -5.361  -4.333  -3.698  1.00  0.00     0.008 C 
ENDBRANCH   9  10
ENDBRANCH   7   9
ENDBRANCH   6   7
BRANCH   6  12
HETATM   12  C31 UNL     1      -4.078  -2.221   1.350  1.00  0.00     0.017 C 
HETATM   13  C32 UNL     1      -4.897  -3.463   1.594  1.00  0.00     0.007 C 
HETATM   14  C33 UNL     1      -6.381  -3.235   1.519  1.00  0.00     0.000 C 
HETATM   15  C34 UNL     1      -6.880  -2.887   2.920  1.00  0.00     0.000 C 
HETATM   16  C35 UNL     1      -6.835  -1.368   3.027  1.00  0.00     0.000 C 
HETATM   17  C36 UNL     1      -5.387  -0.967   2.960  1.00  0.00     0.000 C 
HETATM   18  C37 UNL     1      -4.845  -0.957   1.527  1.00  0.00     0.007 C 
ENDBRANCH   6  12
ENDBRANCH   3   6
ENDBRANCH   1   2
BRANCH   1  19
HETATM   19  C7  UNL     1      -0.618   1.103  -0.413  1.00  0.00     0.043 C 
BRANCH  19  20
HETATM   20  C8  UNL     1      -1.763   1.951   0.132  1.00  0.00     0.105 C 
BRANCH  20  21
HETATM   21  C9  UNL     1      -1.986   3.050  -0.836  1.00  0.00     0.219 C 
HETATM   22  O2  UNL     1      -1.579   2.886  -2.037  1.00  0.00    -0.273 OA
HETATM   23  N3  UNL     1      -2.612   4.271  -0.532  1.00  0.00    -0.352 N 
BRANCH  23  24
HETATM   24  C10 UNL     1      -2.686   5.271  -1.614  1.00  0.00     0.121 C 
HETATM   25  C11 UNL     1      -1.484   6.174  -1.613  1.00  0.00     0.026 C 
ENDBRANCH  23  24
BRANCH  23  26
HETATM   26  C12 UNL     1      -3.182   4.519   0.740  1.00  0.00     0.125 C 
BRANCH  26  27
HETATM   27  C13 UNL     1      -4.629   4.316   0.934  1.00  0.00     0.015 C 
HETATM   28  C14 UNL     1      -5.190   2.957   0.683  1.00  0.00     0.006 C 
ENDBRANCH  26  27
ENDBRANCH  23  26
ENDBRANCH  20  21
ENDBRANCH  19  20
ENDBRANCH   1  19
BRANCH   1  29
HETATM   29  C15 UNL     1       0.991  -0.682   0.043  1.00  0.00     0.137 C 
BRANCH  29  30
HETATM   30  O3  UNL     1       0.921  -1.949  -0.242  1.00  0.00    -0.348 OA
ATOM     31  H3  UNL     1       1.746  -2.341  -0.504  1.00  0.00     0.219 HD
ENDBRANCH  29  30
BRANCH  29  32
HETATM   32  N4  UNL     1       2.270  -0.133  -0.086  1.00  0.00    -0.361 N 
HETATM   33  C16 UNL     1       2.659   1.230   0.166  1.00  0.00     0.128 C 
HETATM   34  C17 UNL     1       4.168   1.147   0.426  1.00  0.00     0.070 C 
HETATM   35  C18 UNL     1       4.601   0.130  -0.579  1.00  0.00     0.221 C 
HETATM   36  C19 UNL     1       3.471  -0.887  -0.496  1.00  0.00     0.173 C 
HETATM   37  C20 UNL     1       4.602   0.746  -1.919  1.00  0.00     0.077 A 
HETATM   38  N7  UNL     1       5.865  -0.512  -0.252  1.00  0.00     0.111 N 
HETATM   39  N5  UNL     1       3.641   0.810  -2.900  1.00  0.00    -0.308 N 
HETATM   40  C22 UNL     1       5.720   1.418  -2.353  1.00  0.00     0.041 A 
HETATM   41  C21 UNL     1       4.194   1.513  -3.893  1.00  0.00     0.325 A 
ATOM     42  H5  UNL     1       2.705   0.407  -2.875  1.00  0.00     0.170 HD
HETATM   43  O4  UNL     1       3.621   1.799  -5.000  1.00  0.00    -0.247 OA
HETATM   44  N6  UNL     1       5.457   1.888  -3.573  1.00  0.00    -0.310 N 
ATOM     45  H6  UNL     1       6.091   2.431  -4.159  1.00  0.00     0.170 HD
HETATM   46  C23 UNL     1       6.867   1.423  -1.408  1.00  0.00     0.094 C 
HETATM   47  C24 UNL     1       6.983  -0.061  -0.996  1.00  0.00     0.226 C 
HETATM   48  C25 UNL     1       7.152  -0.839  -2.289  1.00  0.00     0.043 C 
BRANCH  38  49
HETATM   49  C26 UNL     1       6.068  -0.571   1.170  1.00  0.00     0.279 C 
BRANCH  49  50
HETATM   50  C27 UNL     1       7.247  -1.435   1.504  1.00  0.00     0.014 C 
HETATM   51  C28 UNL     1       7.520  -1.530   3.008  1.00  0.00     0.006 C 
HETATM   52  C29 UNL     1       7.866  -2.992   2.777  1.00  0.00     0.001 C 
HETATM   53  C30 UNL     1       6.897  -2.932   1.587  1.00  0.00     0.006 C 
ENDBRANCH  49  50
ENDBRANCH  38  49
ENDBRANCH  29  32
ENDBRANCH   1  29
TORSDOF 17
