REMARK  3 active torsions:
REMARK  status: ('A' for Active; 'I' for Inactive)
REMARK    1  A    between atoms: N1_2  and  C2_4 
REMARK    2  A    between atoms: C3_9  and  N4_10 
REMARK       I    between atoms: N4_10  and  C4_12 
REMARK    3  A    between atoms: N7_17  and  N8_18 
ROOT
HETATM    1  C2  UNL     1      -1.526  -0.879   0.409  1.00  0.00     0.728 A 
HETATM    2  N2  UNL     1      -1.257  -1.642   1.516  1.00  0.00    -0.116 N 
ATOM      3  H2  UNL     1      -1.937  -2.224   2.005  1.00  0.00     0.206 HD
HETATM    4  N3  UNL     1       0.011  -1.511   1.854  1.00  0.00    -0.115 N 
ATOM      5  H3  UNL     1       0.463  -1.975   2.642  1.00  0.00     0.206 HD
HETATM    6  C3  UNL     1       0.615  -0.670   0.996  1.00  0.00     0.735 A 
HETATM    7  N7  UNL     1      -0.339  -0.298   0.124  1.00  0.00     0.086 N 
ENDROOT
BRANCH   6   8
HETATM    8  N4  UNL     1       1.848  -0.309   1.018  1.00  0.00    -0.160 N 
HETATM    9  C4  UNL     1       2.498   0.559   0.142  1.00  0.00     0.200 C 
HETATM   10  N5  UNL     1       3.060   0.223  -0.974  1.00  0.00    -0.373 N 
HETATM   11  N6  UNL     1       2.564   1.955   0.493  1.00  0.00    -0.063 NA
ATOM     12  H52 UNL     1       3.013  -0.765  -1.222  1.00  0.00     0.158 HD
ATOM     13  H51 UNL     1       3.536   0.858  -1.615  1.00  0.00     0.158 HD
ATOM     14  H4  UNL     1       2.419  -0.704   1.765  1.00  0.00     0.187 HD
ENDBRANCH   6   8
BRANCH   7  15
HETATM   15  N8  UNL     1      -0.097   0.583  -0.933  1.00  0.00    -0.309 N 
ATOM     16  H82 UNL     1      -0.821   0.865  -1.594  1.00  0.00     0.178 HD
ATOM     17  H81 UNL     1       0.799   1.021  -1.148  1.00  0.00     0.178 HD
ENDBRANCH   7  15
BRANCH   1  18
HETATM   18  N1  UNL     1      -2.667  -0.778  -0.181  1.00  0.00    -0.227 N 
HETATM   19  C1  UNL     1      -2.816   0.064  -1.343  1.00  0.00     0.165 C 
ATOM     20  H1  UNL     1      -3.470  -1.296   0.176  1.00  0.00     0.177 HD
ENDBRANCH   1  18
TORSDOF 3
