REMARK  4 active torsions:
REMARK  status: ('A' for Active; 'I' for Inactive)
REMARK    1  A    between atoms: C3_6  and  N2_7 
REMARK    2  A    between atoms: N2_7  and  N3_8 
REMARK    3  A    between atoms: N2_7  and  N4_11 
REMARK    4  A    between atoms: N4_11  and  S1_13 
ROOT
HETATM    1  N1  UNL     1      -3.000   1.614   0.811  1.00  0.00    -0.385 N 
ATOM      2  H11 UNL     1      -4.013   1.519   0.885  1.00  0.00     0.157 HD
ATOM      3  H12 UNL     1      -2.594   2.532   0.991  1.00  0.00     0.157 HD
HETATM    4  C1  UNL     1      -2.290   0.587   0.498  1.00  0.00     0.103 A 
HETATM    5  C2  UNL     1      -0.920   0.716   0.398  1.00  0.00     0.100 A 
HETATM    6  C3  UNL     1      -0.083  -0.332   0.068  1.00  0.00     0.149 A 
HETATM    7  N5  UNL     1      -0.706  -1.526  -0.158  1.00  0.00    -0.336 N 
ATOM      8  H5  UNL     1      -0.144  -2.340  -0.407  1.00  0.00     0.168 HD
HETATM    9  C4  UNL     1      -2.041  -1.656  -0.061  1.00  0.00     0.183 A 
HETATM   10  N6  UNL     1      -2.823  -0.620   0.261  1.00  0.00    -0.339 N 
ATOM     11  H6  UNL     1      -3.833  -0.749   0.327  1.00  0.00     0.168 HD
ENDROOT
BRANCH   6  12
HETATM   12  N2  UNL     1       1.324  -0.193  -0.034  1.00  0.00    -0.176 N 
BRANCH  12  13
HETATM   13  N3  UNL     1       2.073  -1.319  -0.374  1.00  0.00    -0.322 N 
ATOM     14  H32 UNL     1       1.667  -2.237  -0.554  1.00  0.00     0.179 HD
ATOM     15  H31 UNL     1       3.085  -1.219  -0.447  1.00  0.00     0.179 HD
ENDBRANCH  12  13
BRANCH  12  16
HETATM   16  N4  UNL     1       1.875   1.052   0.210  1.00  0.00    -0.190 N 
ATOM     17  H4  UNL     1       1.337   1.856   0.532  1.00  0.00     0.203 HD
BRANCH  16  18
HETATM   18  S1  UNL     1       3.572   1.094  -0.090  1.00  0.00     0.374 S 
HETATM   19  O1  UNL     1       4.300   0.026   0.993  1.00  0.00    -0.186 OA
HETATM   20  O2  UNL     1       4.084   2.681   0.197  1.00  0.00    -0.186 OA
ENDBRANCH  16  18
ENDBRANCH  12  16
ENDBRANCH   6  12
TORSDOF 4
