REMARK  2 active torsions:
REMARK  status: ('A' for Active; 'I' for Inactive)
REMARK    1  A    between atoms: N1_1  and  C1_4 
REMARK    2  A    between atoms: C5_17  and  N6_18 
ROOT
HETATM    1  C1  UNL     1      -1.369  -0.798  -0.107  1.00  0.00     0.152 A 
HETATM    2  N2  UNL     1      -0.124  -1.374  -0.144  1.00  0.00    -0.323 N 
ATOM      3  H2  UNL     1      -0.034  -2.389  -0.101  1.00  0.00     0.169 HD
HETATM    4  C2  UNL     1       0.957  -0.623  -0.235  1.00  0.00     0.154 A 
HETATM    5  N3  UNL     1       2.282  -0.939  -0.290  1.00  0.00    -0.281 N 
ATOM      6  H3  UNL     1       2.655  -1.888  -0.265  1.00  0.00     0.188 HD
HETATM    7  N4  UNL     1       3.001   0.135  -0.378  1.00  0.00    -0.263 N 
ATOM      8  H4  UNL     1       4.019   0.169  -0.433  1.00  0.00     0.190 HD
HETATM    9  C3  UNL     1       2.180   1.192  -0.384  1.00  0.00     0.290 A 
HETATM   10  O1  UNL     1       2.481   2.410  -0.456  1.00  0.00    -0.264 OA
HETATM   11  C4  UNL     1       0.879   0.750  -0.295  1.00  0.00     0.150 A 
HETATM   12  N5  UNL     1      -0.335   1.294  -0.258  1.00  0.00    -0.327 N 
ATOM     13  H5  UNL     1      -0.412   2.310  -0.302  1.00  0.00     0.168 HD
HETATM   14  C5  UNL     1      -1.486   0.557  -0.164  1.00  0.00     0.218 A 
ENDROOT
BRANCH   1  15
HETATM   15  N1  UNL     1      -2.372  -1.578  -0.029  1.00  0.00    -0.382 N 
ATOM     16  H12 UNL     1      -2.284  -2.593   0.014  1.00  0.00     0.157 HD
ATOM     17  H11 UNL     1      -3.297  -1.150  -0.001  1.00  0.00     0.157 HD
ENDBRANCH   1  15
BRANCH  14  18
HETATM   18  N6  UNL     1      -2.734   1.259  -0.135  1.00  0.00    -0.094 N 
HETATM   19  O2  UNL     1      -2.794   2.383  -0.728  1.00  0.00    -0.530 OA
HETATM   20  O3  UNL     1      -3.833   0.817   0.478  1.00  0.00    -0.530 OA
ENDBRANCH  14  18
TORSDOF 2
