REMARK  3 active torsions:
REMARK  status: ('A' for Active; 'I' for Inactive)
REMARK    1  A    between atoms: N1_1  and  N2_4 
REMARK       I    between atoms: N2_4  and  C1_6 
REMARK    2  A    between atoms: C1_6  and  C2_8 
REMARK    3  A    between atoms: N3_10  and  O2_11 
ROOT
HETATM    1  C2  UNL     1       0.004  -0.255   0.417  1.00  0.00     0.119 A 
HETATM    2  C3  UNL     1       1.126  -0.967   0.092  1.00  0.00     0.151 A 
HETATM    3  N3  UNL     1       2.312  -0.345  -0.113  1.00  0.00    -0.183 N 
HETATM    4  C4  UNL     1       2.372   0.974   0.010  1.00  0.00     0.353 A 
HETATM    5  O3  UNL     1       3.474   1.554  -0.182  1.00  0.00    -0.244 OA
HETATM    6  N4  UNL     1       1.289   1.734   0.334  1.00  0.00    -0.273 N 
ATOM      7  H4  UNL     1       1.374   2.747   0.423  1.00  0.00     0.173 HD
HETATM    8  C5  UNL     1       0.106   1.127   0.535  1.00  0.00     0.266 A 
HETATM    9  O4  UNL     1      -0.879   1.865   0.834  1.00  0.00    -0.267 OA
ENDROOT
BRANCH   1  10
HETATM   10  C1  UNL     1      -1.330  -0.835   0.584  1.00  0.00     0.276 C 
HETATM   11  N2  UNL     1      -2.463  -0.298  -0.009  1.00  0.00    -0.272 N 
ATOM     12  H2  UNL     1      -2.297   0.522  -0.593  1.00  0.00     0.189 HD
HETATM   13  O1  UNL     1      -1.428  -1.858   1.296  1.00  0.00    -0.266 OA
BRANCH  11  14
HETATM   14  N1  UNL     1      -3.770  -0.699   0.069  1.00  0.00    -0.342 N 
ATOM     15  H12 UNL     1      -3.915  -1.520   0.657  1.00  0.00     0.176 HD
ATOM     16  H11 UNL     1      -4.603  -0.304  -0.367  1.00  0.00     0.176 HD
ENDBRANCH  11  14
ENDBRANCH   1  10
BRANCH   3  17
HETATM   17  O2  UNL     1       3.396  -1.128  -0.470  1.00  0.00    -0.279 OA
ATOM     18  H2  UNL     1       4.228  -0.692  -0.614  1.00  0.00     0.245 HD
ENDBRANCH   3  17
TORSDOF 3
