REMARK  2 active torsions:
REMARK  status: ('A' for Active; 'I' for Inactive)
REMARK    1  A    between atoms: C6_8  and  C7_9 
REMARK    2  A    between atoms: N2_10  and  O1_12 
ROOT
HETATM    1  C1  UNL     1       1.868  -1.664   0.694  1.00  0.00     0.064 C 
HETATM    2  C2  UNL     1       0.520  -1.188   0.372  1.00  0.00    -0.008 C 
HETATM    3  N1  UNL     1      -0.527  -1.922   0.289  1.00  0.00    -0.391 N 
ATOM      4  H1  UNL     1      -0.494  -2.929   0.448  1.00  0.00     0.159 HD
HETATM    5  C3  UNL     1      -1.749  -1.245  -0.041  1.00  0.00     0.081 C 
HETATM    6  C4  UNL     1      -2.046  -0.069   0.858  1.00  0.00     0.026 C 
HETATM    7  C5  UNL     1      -0.765   0.659   1.181  1.00  0.00     0.023 C 
HETATM    8  C6  UNL     1       0.251   0.277   0.106  1.00  0.00     0.032 C 
HETATM    9  C8  UNL     1      -0.366   0.335  -1.274  1.00  0.00     0.023 C 
HETATM   10  C9  UNL     1      -1.507  -0.643  -1.428  1.00  0.00     0.026 C 
ENDROOT
BRANCH   8  11
HETATM   11  C7  UNL     1       1.465   1.079   0.190  1.00  0.00     0.102 C 
HETATM   12  N2  UNL     1       1.567   2.184  -0.446  1.00  0.00    -0.283 N 
ATOM     13  H2  UNL     1       0.764   2.469  -1.007  1.00  0.00     0.192 HD
BRANCH  12  14
HETATM   14  O1  UNL     1       2.637   3.009  -0.445  1.00  0.00    -0.291 OA
ATOM     15  H1  UNL     1       2.713   3.830  -0.917  1.00  0.00     0.244 HD
ENDBRANCH  12  14
ENDBRANCH   8  11
TORSDOF 2
