REMARK  7 active torsions:
REMARK  status: ('A' for Active; 'I' for Inactive)
REMARK    1  A    between atoms: C2_2  and  C8_13 
REMARK    2  A    between atoms: C3_3  and  C4_4 
REMARK    3  A    between atoms: C4_4  and  C5_6 
REMARK    4  A    between atoms: C5_6  and  O2_7 
REMARK    5  A    between atoms: C5_6  and  C6_9 
REMARK    6  A    between atoms: C6_9  and  O3_11 
REMARK    7  A    between atoms: C9_14  and  O4_15 
ROOT
HETATM    1  C8  UNL     1      -2.008  -0.304  -0.303  1.00  0.00     0.089 C 
HETATM    2  C9  UNL     1      -2.238   0.986   0.185  1.00  0.00     0.159 C 
HETATM    3  N1  UNL     1      -3.163   1.409   1.091  1.00  0.00    -0.301 N 
ATOM      4  H1  UNL     1      -2.884   2.179   1.699  1.00  0.00     0.171 HD
HETATM    5  C10 UNL     1      -4.398   0.924   1.271  1.00  0.00     0.285 C 
HETATM    6  O5  UNL     1      -5.124   1.428   2.171  1.00  0.00    -0.265 OA
HETATM    7  C11 UNL     1      -5.002  -0.109   0.558  1.00  0.00     0.172 C 
HETATM    8  S1  UNL     1      -6.628  -0.128   0.652  1.00  0.00    -0.054 SA
HETATM    9  N2  UNL     1      -4.387  -1.067  -0.181  1.00  0.00    -0.309 N 
ATOM     10  H2  UNL     1      -4.989  -1.712  -0.692  1.00  0.00     0.170 HD
HETATM   11  C12 UNL     1      -3.039  -1.250  -0.306  1.00  0.00     0.261 C 
HETATM   12  O6  UNL     1      -2.715  -2.443  -0.436  1.00  0.00    -0.267 OA
ENDROOT
BRANCH   1  13
HETATM   13  C2  UNL     1      -0.681  -0.677  -0.708  1.00  0.00    -0.038 C 
HETATM   14  C1  UNL     1      -0.497  -1.757  -1.725  1.00  0.00     0.049 C 
HETATM   15  C3  UNL     1       0.397  -0.049  -0.282  1.00  0.00     0.060 C 
BRANCH  15  16
HETATM   16  C4  UNL     1       1.755  -0.297  -0.699  1.00  0.00     0.180 C 
HETATM   17  O1  UNL     1       2.114  -1.173  -1.536  1.00  0.00    -0.290 OA
BRANCH  16  18
HETATM   18  C5  UNL     1       2.837   0.547  -0.097  1.00  0.00     0.220 C 
BRANCH  18  19
HETATM   19  O2  UNL     1       2.258   1.430   0.778  1.00  0.00    -0.385 OA
ATOM     20  H2  UNL     1       2.944   1.965   1.160  1.00  0.00     0.210 HD
ENDBRANCH  18  19
BRANCH  18  21
HETATM   21  C6  UNL     1       3.879  -0.307   0.588  1.00  0.00     0.150 C 
HETATM   22  C7  UNL     1       4.997   0.640   1.015  1.00  0.00     0.042 C 
BRANCH  21  23
HETATM   23  O3  UNL     1       4.446  -1.191  -0.326  1.00  0.00    -0.393 OA
ATOM     24  H3  UNL     1       5.101  -1.728   0.105  1.00  0.00     0.210 HD
ENDBRANCH  21  23
ENDBRANCH  18  21
ENDBRANCH  16  18
ENDBRANCH  15  16
ENDBRANCH   1  13
BRANCH   2  25
HETATM   25  O4  UNL     1      -1.412   1.964  -0.329  1.00  0.00    -0.345 OA
ATOM     26  H4  UNL     1      -1.568   2.840   0.003  1.00  0.00     0.219 HD
ENDBRANCH   2  25
TORSDOF 7
