REMARK  15 active torsions:
REMARK  status: ('A' for Active; 'I' for Inactive)
REMARK    1  A    between atoms: C4_6  and  N2_7 
REMARK    2  A    between atoms: N3_10  and  C5_11 
REMARK    3  A    between atoms: C5_11  and  C6_12 
REMARK    4  A    between atoms: C5_11  and  C7_19 
REMARK    5  A    between atoms: C6_12  and  N4_13 
REMARK    6  A    between atoms: C6_12  and  O3_17 
REMARK    7  A    between atoms: C7_19  and  O4_20 
REMARK    8  A    between atoms: C7_19  and  C8_22 
REMARK    9  A    between atoms: C8_22  and  C11_36 
REMARK       I    between atoms: N5_23  and  C9_25 
REMARK   10  A    between atoms: N7_27  and  C10_29 
REMARK   11  A    between atoms: C10_29  and  O5_30 
REMARK   12  A    between atoms: N8_32  and  O6_34 
REMARK       I    between atoms: C11_36  and  N9_38 
REMARK   13  A    between atoms: N9_38  and  S1_40 
REMARK   14  A    between atoms: S1_40  and  C12_43 
REMARK   15  A    between atoms: C15_46  and  O10_47 
ROOT
HETATM    1  C8  UNL     1      -0.582  -0.392   0.165  1.00  0.00     0.115 C 
HETATM    2  N5  UNL     1      -0.863   0.808   0.021  1.00  0.00    -0.327 N 
ATOM      3  H5  UNL     1      -1.849   1.034   0.152  1.00  0.00     0.168 HD
HETATM    4  C9  UNL     1      -0.057   1.891  -0.288  1.00  0.00     0.196 C 
HETATM    5  N6  UNL     1       0.284   2.276  -1.612  1.00  0.00    -0.063 NA
HETATM    6  N7  UNL     1       0.424   2.628   0.684  1.00  0.00    -0.295 N 
ATOM      7  H7  UNL     1       0.200   2.395   1.651  1.00  0.00     0.172 HD
ENDROOT
BRANCH   1   8
HETATM    8  C7  UNL     1      -1.512  -1.462   0.491  1.00  0.00     0.224 C 
BRANCH   8   9
HETATM    9  C5  UNL     1      -2.968  -1.298   0.540  1.00  0.00     0.087 C 
BRANCH   9  10
HETATM   10  N3  UNL     1      -3.644  -0.809  -0.644  1.00  0.00    -0.281 N 
HETATM   11  C2  UNL     1      -4.187   0.376  -0.924  1.00  0.00     0.085 A 
HETATM   12  C1  UNL     1      -4.366   1.537  -0.047  1.00  0.00     0.089 C 
HETATM   13  N1  UNL     1      -4.690   0.379  -2.199  1.00  0.00    -0.352 N 
HETATM   14  C3  UNL     1      -4.478  -0.808  -2.748  1.00  0.00     0.144 A 
ATOM     15  H1  UNL     1      -5.153   1.167  -2.652  1.00  0.00     0.166 HD
HETATM   16  C4  UNL     1      -3.822  -1.577  -1.779  1.00  0.00     0.197 A 
BRANCH  16  17
HETATM   17  N2  UNL     1      -3.521  -2.929  -2.049  1.00  0.00    -0.096 N 
HETATM   18  O1  UNL     1      -3.823  -3.372  -3.219  1.00  0.00    -0.530 OA
HETATM   19  O2  UNL     1      -2.942  -3.854  -1.230  1.00  0.00    -0.530 OA
ENDBRANCH  16  17
ENDBRANCH   9  10
BRANCH   9  20
HETATM   20  C6  UNL     1      -3.572  -0.779   1.819  1.00  0.00     0.366 C 
BRANCH  20  21
HETATM   21  N4  UNL     1      -2.869  -1.361   2.947  1.00  0.00    -0.048 N 
ATOM     22  H43 UNL     1      -2.855  -2.380   2.911  1.00  0.00     0.277 HD
ATOM     23  H42 UNL     1      -1.863  -1.201   2.901  1.00  0.00     0.277 HD
ATOM     24  H41 UNL     1      -3.278  -1.010   3.813  1.00  0.00     0.277 HD
ENDBRANCH  20  21
BRANCH  20  25
HETATM   25  O3  UNL     1      -4.888  -1.236   1.918  1.00  0.00    -0.365 OA
ATOM     26  H3  UNL     1      -5.269  -0.909   2.724  1.00  0.00     0.212 HD
ENDBRANCH  20  25
ENDBRANCH   9  20
ENDBRANCH   8   9
BRANCH   8  27
HETATM   27  O4  UNL     1      -1.070  -1.980   1.754  1.00  0.00    -0.383 OA
ATOM     28  H4  UNL     1      -0.126  -2.086   1.722  1.00  0.00     0.211 HD
ENDBRANCH   8  27
ENDBRANCH   1   8
BRANCH   1  29
HETATM   29  C11 UNL     1       0.831  -0.781   0.037  1.00  0.00     0.280 C 
HETATM   30  O7  UNL     1       1.706   0.087  -0.197  1.00  0.00    -0.265 OA
HETATM   31  N9  UNL     1       1.280  -2.101   0.162  1.00  0.00    -0.245 N 
ATOM     32  H9  UNL     1       0.579  -2.817   0.350  1.00  0.00     0.182 HD
BRANCH  31  33
HETATM   33  S1  UNL     1       2.919  -2.617   0.025  1.00  0.00     0.265 S 
HETATM   34  O8  UNL     1       2.997  -3.440  -1.254  1.00  0.00    -0.200 OA
HETATM   35  O9  UNL     1       3.256  -3.607   1.131  1.00  0.00    -0.200 OA
BRANCH  33  36
HETATM   36  C12 UNL     1       4.070  -1.323   0.025  1.00  0.00     0.080 A 
HETATM   37  C13 UNL     1       4.494  -0.754  -1.167  1.00  0.00     0.028 A 
HETATM   38  C14 UNL     1       5.413   0.270  -1.206  1.00  0.00     0.038 A 
HETATM   39  C15 UNL     1       5.950   0.770  -0.043  1.00  0.00     0.065 A 
HETATM   40  C16 UNL     1       5.549   0.227   1.151  1.00  0.00     0.038 A 
HETATM   41  C17 UNL     1       4.629  -0.796   1.167  1.00  0.00     0.028 A 
BRANCH  39  42
HETATM   42  O10 UNL     1       6.892   1.818  -0.072  1.00  0.00    -0.361 OA
ATOM     43  H10 UNL     1       7.263   2.163   0.731  1.00  0.00     0.217 HD
ENDBRANCH  39  42
ENDBRANCH  33  36
ENDBRANCH  31  33
ENDBRANCH   1  29
BRANCH   6  44
HETATM   44  C10 UNL     1       1.256   3.750   0.405  1.00  0.00     0.243 C 
HETATM   45  N8  UNL     1       2.460   3.836   0.814  1.00  0.00    -0.233 N 
ATOM     46  H8  UNL     1       2.851   3.072   1.366  1.00  0.00     0.198 HD
BRANCH  44  47
HETATM   47  O5  UNL     1       0.696   4.781  -0.353  1.00  0.00    -0.331 OA
ATOM     48  H5  UNL     1       1.251   5.529  -0.539  1.00  0.00     0.221 HD
ENDBRANCH  44  47
BRANCH  45  49
HETATM   49  O6  UNL     1       3.250   4.930   0.533  1.00  0.00    -0.287 OA
ATOM     50  H6  UNL     1       4.147   4.994   0.838  1.00  0.00     0.244 HD
ENDBRANCH  45  49
ENDBRANCH   6  44
TORSDOF 15
