REMARK  7 active torsions:
REMARK  status: ('A' for Active; 'I' for Inactive)
REMARK    1  A    between atoms: N3_4  and  N4_6 
REMARK    2  A    between atoms: N4_6  and  C2_8 
REMARK    3  A    between atoms: C2_8  and  C3_9 
REMARK    4  A    between atoms: C6_12  and  O1_13 
REMARK    5  A    between atoms: O1_13  and  S1_14 
REMARK    6  A    between atoms: S1_14  and  C7_17 
REMARK    7  A    between atoms: C8_18  and  C9_19 
ROOT
HETATM    1  C3  UNL     1       2.490   0.412   0.821  1.00  0.00    -0.039 A 
HETATM    2  C4  UNL     1       1.863  -0.545   1.616  1.00  0.00     0.011 A 
HETATM    3  C5  UNL     1       0.741  -1.226   1.192  1.00  0.00     0.039 A 
HETATM    4  C6  UNL     1       0.214  -0.959  -0.057  1.00  0.00     0.089 A 
HETATM    5  C13 UNL     1       0.841  -0.015  -0.829  1.00  0.00     0.039 A 
HETATM    6  C14 UNL     1       1.972   0.684  -0.426  1.00  0.00     0.011 A 
ENDROOT
BRANCH   4   7
HETATM    7  O1  UNL     1      -0.932  -1.641  -0.514  1.00  0.00    -0.230 OA
BRANCH   7   8
HETATM    8  S1  UNL     1      -2.445  -0.863  -0.119  1.00  0.00     0.293 S 
HETATM    9  O2  UNL     1      -2.318  -0.577   1.349  1.00  0.00    -0.194 OA
HETATM   10  O3  UNL     1      -2.509   0.396  -0.949  1.00  0.00    -0.194 OA
BRANCH   8  11
HETATM   11  C7  UNL     1      -3.765  -1.878  -0.540  1.00  0.00     0.141 C 
HETATM   12  C8  UNL     1      -5.049  -1.720  -0.407  1.00  0.00     0.043 C 
BRANCH  12  13
HETATM   13  C9  UNL     1      -5.830  -0.649   0.136  1.00  0.00     0.032 A 
HETATM   14  C10 UNL     1      -7.235  -0.704   0.176  1.00  0.00     0.031 A 
HETATM   15  C11 UNL     1      -7.708   0.452   0.744  1.00  0.00     0.019 A 
HETATM   16  C12 UNL     1      -6.620   1.220   1.057  1.00  0.00     0.088 A 
HETATM   17  N5  UNL     1      -5.518   0.508   0.669  1.00  0.00    -0.366 N 
ATOM     18  H5  UNL     1      -4.560   0.840   0.782  1.00  0.00     0.165 HD
ENDBRANCH  12  13
ENDBRANCH   8  11
ENDBRANCH   7   8
ENDBRANCH   4   7
BRANCH   1  19
HETATM   19  C2  UNL     1       3.684   1.146   1.271  1.00  0.00     0.177 C 
BRANCH  19  20
HETATM   20  N4  UNL     1       4.379   1.662   0.113  1.00  0.00    -0.330 N 
ATOM     21  H4  UNL     1       4.491   2.670   0.004  1.00  0.00     0.180 HD
BRANCH  20  22
HETATM   22  N3  UNL     1       4.895   0.812  -0.850  1.00  0.00    -0.280 N 
HETATM   23  C1  UNL     1       6.135   0.515  -0.835  1.00  0.00     0.215 C 
HETATM   24  N1  UNL     1       6.994   1.044   0.154  1.00  0.00    -0.065 NA
HETATM   25  N2  UNL     1       6.657  -0.353  -1.821  1.00  0.00    -0.065 NA
ATOM     26  H3  UNL     1       4.285   0.424  -1.570  1.00  0.00     0.189 HD
ENDBRANCH  20  22
ENDBRANCH  19  20
ENDBRANCH   1  19
TORSDOF 7
