REMARK  3 active torsions:
REMARK  status: ('A' for Active; 'I' for Inactive)
REMARK    1  A    between atoms: O1_2  and  C2_3 
REMARK    2  A    between atoms: C5_6  and  C6_7 
REMARK    3  A    between atoms: C8_13  and  N3_14 
REMARK       I    between atoms: N3_14  and  C9_16 
ROOT
HETATM    1  C2  UNL     1       0.185   1.343   0.359  1.00  0.00     0.095 A 
HETATM    2  C3  UNL     1      -1.061   1.797   0.682  1.00  0.00     0.040 A 
HETATM    3  C4  UNL     1      -2.123   0.901   0.583  1.00  0.00     0.018 A 
HETATM    4  C5  UNL     1      -1.942  -0.398   0.175  1.00  0.00     0.007 A 
HETATM    5  C7  UNL     1      -0.631  -0.791  -0.140  1.00  0.00     0.047 A 
HETATM    6  C8  UNL     1       0.455   0.037  -0.065  1.00  0.00     0.069 A 
ENDROOT
BRANCH   4   7
HETATM    7  C6  UNL     1      -3.031  -1.351   0.063  1.00  0.00     0.120 C 
HETATM    8  N1  UNL     1      -4.223  -1.017   0.344  1.00  0.00    -0.387 N 
ATOM      9  H12 UNL     1      -4.424  -0.066   0.653  1.00  0.00     0.157 HD
ATOM     10  H11 UNL     1      -4.988  -1.687   0.265  1.00  0.00     0.157 HD
HETATM   11  N2  UNL     1      -2.752  -2.669  -0.365  1.00  0.00    -0.082 NA
ENDBRANCH   4   7
BRANCH   6  12
HETATM   12  N3  UNL     1       1.757  -0.352  -0.378  1.00  0.00    -0.325 N 
HETATM   13  C9  UNL     1       2.233  -1.586  -0.811  1.00  0.00     0.218 C 
HETATM   14  C10 UNL     1       3.702  -1.753  -1.085  1.00  0.00     0.117 C 
HETATM   15  O2  UNL     1       1.555  -2.622  -1.010  1.00  0.00    -0.274 OA
ATOM     16  H3  UNL     1       2.465   0.375  -0.274  1.00  0.00     0.169 HD
ENDBRANCH   6  12
BRANCH   1  17
HETATM   17  O1  UNL     1       1.242   2.218   0.453  1.00  0.00    -0.354 OA
HETATM   18  C1  UNL     1       1.120   3.558   0.863  1.00  0.00     0.210 C 
ENDBRANCH   1  17
TORSDOF 3
