REMARK  5 active torsions:
REMARK  status: ('A' for Active; 'I' for Inactive)
REMARK    1  A    between atoms: C5_8  and  N3_9 
REMARK    2  A    between atoms: N3_9  and  C6_11 
REMARK    3  A    between atoms: C6_11  and  N4_13 
REMARK    4  A    between atoms: N4_13  and  C7_15 
REMARK    5  A    between atoms: C22_34  and  C23_35 
ROOT
HETATM    1  N1  UNL     1      -6.713  -0.276  -0.768  1.00  0.00    -0.062 NA
HETATM    2  C1  UNL     1      -5.433  -0.950  -0.797  1.00  0.00     0.206 A 
HETATM    3  N2  UNL     1      -4.985  -1.859  -0.027  1.00  0.00    -0.337 N 
ATOM      4  H2  UNL     1      -5.387  -2.331   0.783  1.00  0.00     0.164 HD
HETATM    5  C2  UNL     1      -3.755  -1.987  -0.673  1.00  0.00     0.243 A 
HETATM    6  C3  UNL     1      -2.500  -1.507  -0.081  1.00  0.00     0.010 A 
HETATM    7  C4  UNL     1      -1.842  -0.448  -0.601  1.00  0.00     0.023 A 
HETATM    8  C5  UNL     1      -0.613  -0.037  -0.036  1.00  0.00     0.117 A 
HETATM    9  N6  UNL     1      -0.104  -0.694   1.011  1.00  0.00    -0.341 N 
ATOM     10  H6  UNL     1       0.783  -0.391   1.412  1.00  0.00     0.167 HD
HETATM   11  C16 UNL     1      -0.742  -1.743   1.539  1.00  0.00     0.044 A 
HETATM   12  C17 UNL     1      -0.178  -2.394   2.619  1.00  0.00     0.030 A 
HETATM   13  C18 UNL     1      -0.839  -3.475   3.154  1.00  0.00     0.002 A 
HETATM   14  C19 UNL     1      -2.037  -3.921   2.644  1.00  0.00     0.001 A 
HETATM   15  C20 UNL     1      -2.581  -3.263   1.574  1.00  0.00     0.014 A 
HETATM   16  C21 UNL     1      -1.942  -2.175   1.016  1.00  0.00     0.001 A 
HETATM   17  C22 UNL     1      -2.333   0.320  -1.738  1.00  0.00     0.170 C 
HETATM   18  N7  UNL     1      -3.419  -0.342  -2.484  1.00  0.00    -0.119 NA
HETATM   19  N8  UNL     1      -4.273  -0.889  -1.503  1.00  0.00    -0.239 N 
ENDROOT
BRANCH   8  20
HETATM   20  N3  UNL     1       0.011   0.981  -0.561  1.00  0.00    -0.319 N 
ATOM     21  H3  UNL     1      -0.366   1.484  -1.364  1.00  0.00     0.170 HD
BRANCH  20  22
HETATM   22  C6  UNL     1       1.275   1.365   0.058  1.00  0.00     0.178 C 
HETATM   23  S1  UNL     1       1.311   2.569   1.115  1.00  0.00    -0.040 SA
BRANCH  22  24
HETATM   24  N4  UNL     1       2.389   0.620  -0.338  1.00  0.00    -0.319 N 
ATOM     25  H4  UNL     1       2.191  -0.113  -1.019  1.00  0.00     0.169 HD
BRANCH  24  26
HETATM   26  C7  UNL     1       3.729   0.714   0.046  1.00  0.00     0.107 A 
HETATM   27  C8  UNL     1       4.303   1.574   0.925  1.00  0.00     0.049 A 
HETATM   28  C9  UNL     1       5.669   1.573   1.232  1.00  0.00     0.017 A 
HETATM   29  C10 UNL     1       6.479   0.655   0.615  1.00  0.00    -0.009 A 
HETATM   30  C11 UNL     1       7.851   0.598   0.876  1.00  0.00     0.013 A 
HETATM   31  C15 UNL     1       5.907  -0.213  -0.269  1.00  0.00     0.043 A 
HETATM   32  C12 UNL     1       8.609  -0.338   0.233  1.00  0.00     0.001 A 
HETATM   33  C13 UNL     1       8.024  -1.213  -0.662  1.00  0.00     0.002 A 
HETATM   34  C14 UNL     1       6.687  -1.165  -0.921  1.00  0.00     0.030 A 
HETATM   35  N5  UNL     1       4.604  -0.181  -0.536  1.00  0.00    -0.342 N 
ATOM     36  H5  UNL     1       4.232  -0.854  -1.206  1.00  0.00     0.167 HD
ENDBRANCH  24  26
ENDBRANCH  22  24
ENDBRANCH  20  22
ENDBRANCH   8  20
BRANCH  17  37
HETATM   37  C23 UNL     1      -2.916   1.594  -1.296  1.00  0.00    -0.033 A 
HETATM   38  C24 UNL     1      -2.995   1.933   0.021  1.00  0.00     0.009 A 
HETATM   39  C25 UNL     1      -3.535   3.156   0.431  1.00  0.00     0.001 A 
HETATM   40  C26 UNL     1      -3.996   4.036  -0.497  1.00  0.00     0.000 A 
HETATM   41  C27 UNL     1      -3.931   3.722  -1.835  1.00  0.00     0.001 A 
HETATM   42  C28 UNL     1      -3.389   2.500  -2.222  1.00  0.00     0.009 A 
ENDBRANCH  17  37
TORSDOF 5
