REMARK  9 active torsions:
REMARK  status: ('A' for Active; 'I' for Inactive)
REMARK    1  A    between atoms: C2_2  and  N1_3 
REMARK    2  A    between atoms: N1_3  and  C3_5 
REMARK    3  A    between atoms: N5_18  and  C8_19 
REMARK    4  A    between atoms: C9_21  and  C10_22 
REMARK    5  A    between atoms: C10_22  and  C11_23 
REMARK    6  A    between atoms: C11_23  and  C12_24 
REMARK    7  A    between atoms: C12_24  and  C14_26 
REMARK    8  A    between atoms: C15_28  and  O3_29 
REMARK    9  A    between atoms: C16_31  and  O4_32 
ROOT
HETATM    1  C3  UNL     1      -3.011   0.131   0.588  1.00  0.00     0.687 A 
HETATM    2  N2  UNL     1      -4.351   0.024   0.454  1.00  0.00    -0.154 N 
ATOM      3  H2  UNL     1      -4.961   0.758   0.813  1.00  0.00     0.187 HD
HETATM    4  C4  UNL     1      -4.877  -1.052  -0.153  1.00  0.00     0.290 A 
HETATM    5  O1  UNL     1      -6.138  -1.157  -0.281  1.00  0.00    -0.265 OA
HETATM    6  C5  UNL     1      -4.050  -2.028  -0.629  1.00  0.00     0.149 A 
HETATM    7  N3  UNL     1      -4.281  -3.198  -1.269  1.00  0.00    -0.329 N 
ATOM      8  H3  UNL     1      -5.196  -3.571  -1.521  1.00  0.00     0.168 HD
HETATM    9  C6  UNL     1      -3.097  -3.784  -1.516  1.00  0.00     0.155 A 
HETATM   10 BR1  UNL     1      -2.883  -5.472  -2.408  1.00  0.00    -0.010 Br
HETATM   11  N4  UNL     1      -2.150  -2.981  -1.031  1.00  0.00    -0.320 N 
ATOM     12  H4  UNL     1      -1.149  -3.173  -1.077  1.00  0.00     0.169 HD
HETATM   13  C7  UNL     1      -2.695  -1.874  -0.468  1.00  0.00     0.161 A 
HETATM   14  N5  UNL     1      -2.130  -0.786   0.147  1.00  0.00    -0.136 N 
ENDROOT
BRANCH  14  15
HETATM   15  C8  UNL     1      -0.735  -0.764   0.239  1.00  0.00     0.279 C 
HETATM   16  O2  UNL     1      -0.027  -0.274  -0.869  1.00  0.00    -0.355 OA
HETATM   17  C9  UNL     1       1.274  -0.625  -0.513  1.00  0.00     0.155 C 
HETATM   18  C15 UNL     1       1.395  -0.496   0.994  1.00  0.00     0.180 C 
HETATM   19  C16 UNL     1      -0.049  -0.048   1.335  1.00  0.00     0.199 C 
BRANCH  17  20
HETATM   20  C10 UNL     1       2.305   0.206  -1.236  1.00  0.00     0.035 C 
BRANCH  20  21
HETATM   21  C11 UNL     1       3.708  -0.169  -0.856  1.00  0.00     0.007 C 
BRANCH  21  22
HETATM   22  C12 UNL     1       4.743   0.653  -1.572  1.00  0.00    -0.009 C 
HETATM   23  C13 UNL     1       4.560   2.128  -1.244  1.00  0.00     0.011 C 
BRANCH  22  24
HETATM   24  C14 UNL     1       6.148   0.253  -1.177  1.00  0.00     0.089 C 
HETATM   25 BR2  UNL     1       6.425   0.491   0.729  1.00  0.00    -0.096 Br
ENDBRANCH  22  24
ENDBRANCH  21  22
ENDBRANCH  20  21
ENDBRANCH  17  20
BRANCH  18  26
HETATM   26  O3  UNL     1       1.582  -1.745   1.590  1.00  0.00    -0.390 OA
ATOM     27  H3  UNL     1       1.658  -1.664   2.534  1.00  0.00     0.210 HD
ENDBRANCH  18  26
BRANCH  19  28
HETATM   28  O4  UNL     1      -0.390  -0.425   2.609  1.00  0.00    -0.388 OA
ATOM     29  H4  UNL     1       0.051   0.035   3.313  1.00  0.00     0.210 HD
ENDBRANCH  19  28
ENDBRANCH  14  15
BRANCH   1  30
HETATM   30  N1  UNL     1      -2.507   1.166   1.171  1.00  0.00    -0.226 N 
ATOM     31  H1  UNL     1      -1.491   1.211   1.253  1.00  0.00     0.177 HD
BRANCH  30  32
HETATM   32  C2  UNL     1      -3.258   2.252   1.709  1.00  0.00     0.133 C 
HETATM   33  C1  UNL     1      -3.785   3.193   0.650  1.00  0.00     0.027 C 
ENDBRANCH  30  32
ENDBRANCH   1  30
TORSDOF 9
