REMARK  2 active torsions:
REMARK  status: ('A' for Active; 'I' for Inactive)
REMARK    1  A    between atoms: C13_15  and  O3_16 
REMARK    2  A    between atoms: O3_16  and  O4_17 
ROOT
HETATM    1  C1  UNL     1       0.103  -2.557  -0.361  1.00  0.00     0.017 C 
HETATM    2  C2  UNL     1       0.234  -1.240   0.369  1.00  0.00     0.046 C 
HETATM    3  C3  UNL     1      -0.936  -0.356   0.010  1.00  0.00    -0.071 C 
HETATM    4  C4  UNL     1      -0.933   0.946  -0.241  1.00  0.00    -0.074 C 
HETATM    5  C5  UNL     1      -2.135   1.746  -0.590  1.00  0.00     0.034 C 
HETATM    6  C6  UNL     1      -3.369   0.963  -0.269  1.00  0.00     0.005 C 
HETATM    7  C7  UNL     1      -3.180  -0.405  -0.919  1.00  0.00     0.005 C 
HETATM    8  C8  UNL     1      -2.210  -1.155  -0.036  1.00  0.00     0.035 C 
HETATM    9  C9  UNL     1       0.295   1.809  -0.211  1.00  0.00     0.072 C 
HETATM   10  C10 UNL     1       1.061   1.587   1.035  1.00  0.00     0.204 C 
HETATM   11  O1  UNL     1       0.463   0.951   2.096  1.00  0.00    -0.231 OA
HETATM   12  O2  UNL     1       1.575   0.227   2.271  1.00  0.00    -0.224 OA
HETATM   13  C11 UNL     1       2.007   0.419   0.972  1.00  0.00     0.151 C 
HETATM   14  C12 UNL     1       3.409   0.870   0.755  1.00  0.00     0.055 C 
HETATM   15  C13 UNL     1       1.555  -0.638  -0.010  1.00  0.00     0.207 C 
ENDROOT
BRANCH  15  16
HETATM   16  O3  UNL     1       2.504  -1.677   0.110  1.00  0.00    -0.234 OA
BRANCH  16  17
HETATM   17  O4  UNL     1       3.107  -1.773  -1.044  1.00  0.00    -0.250 OA
ATOM     18  H4  UNL     1       3.745  -2.472  -0.963  1.00  0.00     0.253 HD
ENDBRANCH  16  17
ENDBRANCH  15  16
TORSDOF 2
