REMARK  9 active torsions:
REMARK  status: ('A' for Active; 'I' for Inactive)
REMARK    1  A    between atoms: N1_1  and  C1_4 
REMARK    2  A    between atoms: C4_12  and  N4_13 
REMARK    3  A    between atoms: N4_13  and  C5_15 
REMARK    4  A    between atoms: C5_15  and  C6_16 
REMARK    5  A    between atoms: C6_16  and  S1_17 
REMARK    6  A    between atoms: S1_17  and  C7_18 
REMARK    7  A    between atoms: C7_18  and  C8_19 
REMARK    8  A    between atoms: C8_19  and  C9_20 
REMARK    9  A    between atoms: N9_28  and  O2_29 
ROOT
HETATM    1  C1  UNL     1       6.008  -0.089  -0.524  1.00  0.00     0.680 A 
HETATM    2  N2  UNL     1       5.416  -0.612  -1.618  1.00  0.00    -0.154 N 
ATOM      3  H2  UNL     1       5.974  -0.984  -2.386  1.00  0.00     0.187 HD
HETATM    4  C2  UNL     1       4.074  -0.630  -1.670  1.00  0.00     0.290 A 
HETATM    5  O1  UNL     1       3.528  -1.119  -2.692  1.00  0.00    -0.265 OA
HETATM    6  C3  UNL     1       3.290  -0.137  -0.654  1.00  0.00     0.165 A 
HETATM    7  N3  UNL     1       1.961  -0.020  -0.422  1.00  0.00    -0.180 N 
ATOM      8  H3  UNL     1       1.235  -0.327  -1.070  1.00  0.00     0.184 HD
HETATM    9  C4  UNL     1       1.721   0.549   0.763  1.00  0.00     0.707 A 
HETATM   10  N9  UNL     1       2.946   0.802   1.300  1.00  0.00    -0.032 N 
HETATM   11  C10 UNL     1       3.906   0.392   0.454  1.00  0.00     0.199 A 
HETATM   12  N10 UNL     1       5.252   0.393   0.471  1.00  0.00    -0.171 N 
ATOM     13  H10 UNL     1       5.723   0.783   1.288  1.00  0.00     0.186 HD
ENDROOT
BRANCH   9  14
HETATM   14  N4  UNL     1       0.486   0.845   1.396  1.00  0.00    -0.223 N 
ATOM     15  H4  UNL     1       0.514   1.317   2.300  1.00  0.00     0.177 HD
BRANCH  14  16
HETATM   16  C5  UNL     1      -0.795   0.525   0.849  1.00  0.00     0.148 C 
BRANCH  16  17
HETATM   17  C6  UNL     1      -1.071  -0.949   0.748  1.00  0.00     0.094 C 
BRANCH  17  18
HETATM   18  S1  UNL     1      -2.709  -1.247   0.049  1.00  0.00    -0.167 SA
BRANCH  18  19
HETATM   19  C7  UNL     1      -3.964  -0.647   1.238  1.00  0.00     0.081 C 
BRANCH  19  20
HETATM   20  C8  UNL     1      -5.327  -0.915   0.619  1.00  0.00     0.089 C 
BRANCH  20  21
HETATM   21  C9  UNL     1      -5.385  -0.168  -0.651  1.00  0.00     0.110 A 
HETATM   22  N5  UNL     1      -5.019  -0.599  -1.860  1.00  0.00    -0.271 N 
HETATM   23  N6  UNL     1      -5.249   0.413  -2.695  1.00  0.00    -0.005 NA
ATOM     24  H5  UNL     1      -4.640  -1.516  -2.096  1.00  0.00     0.185 HD
HETATM   25  N7  UNL     1      -5.744   1.456  -2.052  1.00  0.00    -0.225 N 
HETATM   26  N8  UNL     1      -5.823   1.087  -0.795  1.00  0.00    -0.275 N 
ATOM     27  H7  UNL     1      -6.009   2.358  -2.449  1.00  0.00     0.205 HD
ATOM     28  H8  UNL     1      -6.169   1.674  -0.036  1.00  0.00     0.189 HD
ENDBRANCH  20  21
ENDBRANCH  19  20
ENDBRANCH  18  19
ENDBRANCH  17  18
ENDBRANCH  16  17
ENDBRANCH  14  16
ENDBRANCH   9  14
BRANCH  10  29
HETATM   29  O2  UNL     1       3.155   1.388   2.521  1.00  0.00    -0.268 OA
ATOM     30  H2  UNL     1       4.010   1.565   2.896  1.00  0.00     0.246 HD
ENDBRANCH  10  29
BRANCH   1  31
HETATM   31  N1  UNL     1       7.297  -0.090  -0.510  1.00  0.00    -0.234 N 
ATOM     32  H12 UNL     1       7.873  -0.457  -1.268  1.00  0.00     0.174 HD
ATOM     33  H11 UNL     1       7.744   0.305   0.317  1.00  0.00     0.174 HD
ENDBRANCH   1  31
TORSDOF 9
