REMARK  3 active torsions:
REMARK  status: ('A' for Active; 'I' for Inactive)
REMARK    1  A    between atoms: S1_2  and  C2_5 
REMARK    2  A    between atoms: C7_10  and  N1_11 
REMARK    3  A    between atoms: N1_11  and  C8_13 
ROOT
HETATM    1  C8  UNL     1       0.166  -0.467  -0.586  1.00  0.00     0.054 A 
HETATM    2  C9  UNL     1      -0.267   0.834  -0.378  1.00  0.00     0.001 A 
HETATM    3  C10 UNL     1      -1.528   1.054   0.072  1.00  0.00     0.052 A 
HETATM    4  N2  UNL     1      -2.427   0.057   0.342  1.00  0.00    -0.354 N 
ATOM      5  H2  UNL     1      -3.365   0.275   0.679  1.00  0.00     0.166 HD
HETATM    6  C11 UNL     1      -2.047  -1.198   0.154  1.00  0.00     0.056 A 
HETATM    7  C12 UNL     1      -0.783  -1.476  -0.298  1.00  0.00     0.019 A 
HETATM    8  C13 UNL     1      -0.408  -2.793  -0.487  1.00  0.00     0.017 A 
HETATM    9  C14 UNL     1      -1.267  -3.845  -0.234  1.00  0.00     0.013 A 
HETATM   10  C15 UNL     1      -2.538  -3.550   0.223  1.00  0.00    -0.024 A 
HETATM   11  C16 UNL     1      -3.396  -4.612   0.475  1.00  0.00     0.012 A 
HETATM   12  C17 UNL     1      -4.681  -4.365   0.934  1.00  0.00     0.001 A 
HETATM   13  C18 UNL     1      -5.090  -3.063   1.134  1.00  0.00     0.001 A 
HETATM   14  C19 UNL     1      -4.222  -2.016   0.877  1.00  0.00     0.014 A 
HETATM   15  C20 UNL     1      -2.947  -2.233   0.423  1.00  0.00     0.002 A 
HETATM   16  C21 UNL     1      -1.701   2.497   0.228  1.00  0.00    -0.002 A 
HETATM   17  C22 UNL     1      -2.794   3.223   0.672  1.00  0.00     0.014 A 
HETATM   18  C23 UNL     1      -2.692   4.585   0.745  1.00  0.00     0.001 A 
HETATM   19  C24 UNL     1      -1.539   5.242   0.391  1.00  0.00     0.001 A 
HETATM   20  C25 UNL     1      -0.446   4.528  -0.052  1.00  0.00     0.008 A 
HETATM   21  C26 UNL     1      -0.541   3.156  -0.129  1.00  0.00    -0.041 A 
HETATM   22  C27 UNL     1       0.445   2.132  -0.580  1.00  0.00     0.082 A 
ENDROOT
BRANCH   1  23
HETATM   23  N1  UNL     1       1.307  -0.832  -0.989  1.00  0.00    -0.354 N 
ATOM     24  H1  UNL     1       1.379  -1.847  -1.059  1.00  0.00     0.166 HD
BRANCH  23  25
HETATM   25  C7  UNL     1       2.474  -0.209  -1.356  1.00  0.00     0.054 A 
HETATM   26  C2  UNL     1       3.515  -0.070  -0.439  1.00  0.00     0.085 A 
HETATM   27  C3  UNL     1       4.697   0.535  -0.798  1.00  0.00     0.026 A 
HETATM   28  C4  UNL     1       4.850   1.007  -2.079  1.00  0.00     0.002 A 
HETATM   29  C5  UNL     1       3.850   0.893  -3.025  1.00  0.00     0.002 A 
HETATM   30  C6  UNL     1       2.683   0.290  -2.651  1.00  0.00     0.031 A 
BRANCH  26  31
HETATM   31  S1  UNL     1       3.346  -0.688   1.203  1.00  0.00     0.174 S 
HETATM   32  C1  UNL     1       4.886  -0.382   2.080  1.00  0.00     0.167 C 
HETATM   33  O1  UNL     1       3.160  -2.170   1.148  1.00  0.00    -0.223 OA
HETATM   34  O2  UNL     1       2.289  -0.002   1.978  1.00  0.00    -0.223 OA
ENDBRANCH  26  31
ENDBRANCH  23  25
ENDBRANCH   1  23
TORSDOF 3
