REMARK  6 active torsions:
REMARK  status: ('A' for Active; 'I' for Inactive)
REMARK    1  A    between atoms: C1_2  and  C2_4 
REMARK    2  A    between atoms: C2_4  and  C3_5 
REMARK    3  A    between atoms: C3_5  and  C4_6 
REMARK    4  A    between atoms: C4_6  and  N1_7 
REMARK    5  A    between atoms: C5_8  and  O3_9 
REMARK    6  A    between atoms: N2_14  and  N3_16 
ROOT
HETATM    1  N1  UNL     1       1.148  -1.642   0.508  1.00  0.00    -0.306 N 
HETATM    2  C5  UNL     1       1.468  -2.552  -0.392  1.00  0.00     0.150 A 
HETATM    3  C6  UNL     1       0.427  -3.196  -1.020  1.00  0.00     0.109 A 
HETATM    4  S1  UNL     1      -0.938  -2.479  -0.301  1.00  0.00    -0.060 SA
HETATM    5  C7  UNL     1      -0.139  -1.407   0.749  1.00  0.00     0.167 A 
HETATM    6  N2  UNL     1      -0.644  -0.535   1.603  1.00  0.00    -0.278 N 
ATOM      7  H2  UNL     1      -0.057   0.066   2.182  1.00  0.00     0.189 HD
ENDROOT
BRANCH   1   8
HETATM    8  C4  UNL     1       2.224  -0.901   1.231  1.00  0.00     0.134 C 
BRANCH   8   9
HETATM    9  C3  UNL     1       2.568   0.378   0.567  1.00  0.00     0.031 C 
BRANCH   9  10
HETATM   10  C2  UNL     1       3.036   0.277  -0.859  1.00  0.00     0.114 C 
BRANCH  10  11
HETATM   11  C1  UNL     1       3.376   1.640  -1.401  1.00  0.00     0.172 C 
HETATM   12  O1  UNL     1       4.200   2.376  -0.794  1.00  0.00    -0.648 OA
HETATM   13  O2  UNL     1       2.767   2.060  -2.567  1.00  0.00    -0.648 OA
ENDBRANCH  10  11
ENDBRANCH   9  10
ENDBRANCH   8   9
ENDBRANCH   1   8
BRANCH   6  14
HETATM   14  N3  UNL     1      -2.028  -0.494   1.657  1.00  0.00    -0.282 N 
HETATM   15  C8  UNL     1      -2.758   0.342   0.986  1.00  0.00     0.132 C 
HETATM   16  C9  UNL     1      -4.232   0.467   0.978  1.00  0.00     0.087 C 
HETATM   17  O4  UNL     1      -2.219   1.289   0.128  1.00  0.00    -0.338 OA
HETATM   18  C10 UNL     1      -4.431   1.850   0.362  1.00  0.00     0.035 C 
HETATM   19  C11 UNL     1      -3.258   1.933  -0.591  1.00  0.00     0.177 C 
ATOM     20  H3  UNL     1      -2.503  -1.164   2.263  1.00  0.00     0.189 HD
ENDBRANCH   6  14
BRANCH   2  21
HETATM   21  O3  UNL     1       2.796  -2.930  -0.773  1.00  0.00    -0.346 OA
ATOM     22  H3  UNL     1       3.026  -3.585  -1.421  1.00  0.00     0.219 HD
ENDBRANCH   2  21
TORSDOF 6
