REMARK  9 active torsions:
REMARK  status: ('A' for Active; 'I' for Inactive)
REMARK    1  A    between atoms: N1_2  and  C2_4 
REMARK    2  A    between atoms: C2_4  and  C3_5 
REMARK    3  A    between atoms: C3_5  and  O1_6 
REMARK    4  A    between atoms: C3_5  and  C4_8 
REMARK    5  A    between atoms: C4_8  and  N2_9 
REMARK    6  A    between atoms: C5_10  and  C6_11 
REMARK    7  A    between atoms: C10_15  and  C11_16 
REMARK    8  A    between atoms: C11_16  and  O2_17 
REMARK    9  A    between atoms: C11_16  and  N3_19 
ROOT
HETATM    1  N2  UNL     1      -1.203   0.614  -0.627  1.00  0.00    -0.299 N 
HETATM    2  C5  UNL     1      -0.143  -0.213  -0.426  1.00  0.00     0.040 A 
HETATM    3  C10 UNL     1       1.129   0.412  -0.435  1.00  0.00     0.092 A 
HETATM    4  C16 UNL     1       1.265   1.785  -0.650  1.00  0.00     0.262 A 
HETATM    5  O3  UNL     1       2.378   2.362  -0.671  1.00  0.00    -0.267 OA
HETATM    6  N4  UNL     1       0.202   2.547  -0.846  1.00  0.00    -0.275 N 
ATOM      7  H4  UNL     1       0.297   3.550  -1.003  1.00  0.00     0.173 HD
HETATM    8  C17 UNL     1      -0.993   1.967  -0.833  1.00  0.00     0.329 A 
HETATM    9  O4  UNL     1      -2.007   2.709  -1.023  1.00  0.00    -0.246 OA
ENDROOT
BRANCH   1  10
HETATM   10  C4  UNL     1      -2.544   0.161  -0.542  1.00  0.00     0.170 C 
BRANCH  10  11
HETATM   11  C3  UNL     1      -3.140   0.230   0.857  1.00  0.00     0.174 C 
BRANCH  11  12
HETATM   12  C2  UNL     1      -4.555  -0.251   0.963  1.00  0.00     0.088 C 
BRANCH  12  13
HETATM   13  N1  UNL     1      -5.587   0.474   0.373  1.00  0.00    -0.404 N 
HETATM   14  C1  UNL     1      -5.733   0.526  -1.040  1.00  0.00     0.145 C 
ATOM     15  H1  UNL     1      -6.249   0.976   0.964  1.00  0.00     0.158 HD
ENDBRANCH  12  13
ENDBRANCH  11  12
BRANCH  11  16
HETATM   16  O1  UNL     1      -2.960   1.512   1.365  1.00  0.00    -0.389 OA
ATOM     17  H1  UNL     1      -2.063   1.817   1.298  1.00  0.00     0.210 HD
ENDBRANCH  11  16
ENDBRANCH  10  11
ENDBRANCH   1  10
BRANCH   2  18
HETATM   18  C6  UNL     1      -0.240  -1.616  -0.267  1.00  0.00    -0.008 C 
HETATM   19  C7  UNL     1       0.682  -2.230  -1.375  1.00  0.00     0.021 C 
HETATM   20  C8  UNL     1      -1.536  -2.313  -0.814  1.00  0.00     0.021 C 
HETATM   21  C9  UNL     1      -0.090  -2.344   1.017  1.00  0.00     0.021 C 
ENDBRANCH   2  18
BRANCH   3  22
HETATM   22  C11 UNL     1       2.386  -0.244  -0.175  1.00  0.00     0.398 C 
BRANCH  22  23
HETATM   23  O2  UNL     1       2.362  -0.942   1.020  1.00  0.00    -0.364 OA
ATOM     24  H2  UNL     1       3.190  -1.374   1.191  1.00  0.00     0.212 HD
ENDBRANCH  22  23
BRANCH  22  25
HETATM   25  N3  UNL     1       3.467   0.736   0.061  1.00  0.00     0.121 N 
HETATM   26  C12 UNL     1       3.801   0.864   1.453  1.00  0.00     0.276 C 
HETATM   27  C13 UNL     1       5.171   1.533   1.475  1.00  0.00     0.032 C 
HETATM   28  C14 UNL     1       5.735   1.203   0.130  1.00  0.00     0.032 C 
HETATM   29  C15 UNL     1       4.737   0.284  -0.479  1.00  0.00     0.276 C 
ENDBRANCH  22  25
ENDBRANCH   3  22
TORSDOF 9
