REMARK  1 active torsions:
REMARK  status: ('A' for Active; 'I' for Inactive)
REMARK    1  A    between atoms: N1_1  and  N2_4 
ROOT
HETATM    1  N2  UNL     1       1.328  -0.161   0.503  1.00  0.00    -0.232 NA
HETATM    2  C1  UNL     1       0.892  -1.386  -0.166  1.00  0.00     0.141 C 
HETATM    3  C2  UNL     1      -0.391  -1.880   0.464  1.00  0.00     0.248 C 
HETATM    4  N3  UNL     1      -1.492  -1.909  -0.441  1.00  0.00    -0.072 N 
ATOM      5  H31 UNL     1      -2.037  -2.761  -0.312  1.00  0.00     0.277 HD
ATOM      6  H32 UNL     1      -1.165  -2.055  -1.396  1.00  0.00     0.277 HD
HETATM    7  C3  UNL     1      -2.347  -0.748  -0.373  1.00  0.00     0.253 C 
HETATM    8  C4  UNL     1      -1.636   0.541  -0.617  1.00  0.00     0.166 C 
HETATM    9  N4  UNL     1      -1.087   1.056   0.599  1.00  0.00    -0.335 N 
ATOM     10  H4  UNL     1      -1.351   0.667   1.504  1.00  0.00     0.180 HD
HETATM   11  N5  UNL     1      -0.215   2.067   0.507  1.00  0.00    -0.319 N 
ATOM     12  H5  UNL     1      -0.281   2.859   1.146  1.00  0.00     0.185 HD
HETATM   13  C5  UNL     1       0.789   2.034  -0.471  1.00  0.00     0.095 C 
HETATM   14  C6  UNL     1       1.708   0.853  -0.436  1.00  0.00     0.159 C 
ENDROOT
BRANCH   1  15
HETATM   15  N1  UNL     1       2.371  -0.504   1.370  1.00  0.00    -0.363 NA
ATOM     16  H12 UNL     1       2.101  -1.226   2.038  1.00  0.00     0.171 HD
ATOM     17  H11 UNL     1       2.675   0.350   1.837  1.00  0.00     0.171 HD
ENDBRANCH   1  15
TORSDOF 1
