REMARK  8 active torsions:
REMARK  status: ('A' for Active; 'I' for Inactive)
REMARK    1  A    between atoms: O1_2  and  C2_3 
REMARK    2  A    between atoms: C3_4  and  N1_5 
REMARK    3  A    between atoms: C4_9  and  O2_10 
REMARK    4  A    between atoms: C5_12  and  N2_13 
REMARK    5  A    between atoms: C8_16  and  N3_17 
REMARK    6  A    between atoms: N3_17  and  O3_19 
REMARK    7  A    between atoms: O3_19  and  C10_20 
REMARK    8  A    between atoms: C14_24  and  O4_25 
ROOT
HETATM    1  C2  UNL     1      -1.664   1.688   0.128  1.00  0.00     0.184 C 
HETATM    2  C3  UNL     1      -2.723   0.677  -0.328  1.00  0.00     0.245 C 
HETATM    3  C4  UNL     1      -2.375  -0.669   0.223  1.00  0.00     0.186 C 
HETATM    4  C5  UNL     1      -0.868  -0.875   0.209  1.00  0.00     0.279 C 
HETATM    5  C8  UNL     1      -0.240  -0.110  -0.892  1.00  0.00     0.175 C 
HETATM    6  C14 UNL     1      -0.445   1.401  -0.700  1.00  0.00     0.176 C 
ENDROOT
BRANCH   5   7
HETATM    7  N3  UNL     1       1.123  -0.319  -1.188  1.00  0.00    -0.288 N 
HETATM    8  C9  UNL     1       1.517  -1.553  -1.671  1.00  0.00     0.179 C 
BRANCH   7   9
HETATM    9  O3  UNL     1       1.999   0.564  -0.952  1.00  0.00    -0.273 OA
BRANCH   9  10
HETATM   10  C10 UNL     1       3.074   0.404  -0.159  1.00  0.00     0.078 C 
HETATM   11  C11 UNL     1       2.780   0.023   1.281  1.00  0.00     0.048 C 
HETATM   12  C12 UNL     1       3.724   1.816  -0.036  1.00  0.00     0.048 C 
HETATM   13  C13 UNL     1       4.189  -0.467  -0.647  1.00  0.00     0.048 C 
ENDBRANCH   9  10
ENDBRANCH   7   9
ENDBRANCH   5   7
BRANCH   4  14
HETATM   14  N2  UNL     1      -0.517  -2.250   0.338  1.00  0.00     0.089 N 
HETATM   15  C6  UNL     1      -0.918  -2.743   1.688  1.00  0.00     0.310 C 
HETATM   16  C7  UNL     1      -1.321  -3.106  -0.548  1.00  0.00     0.310 C 
ENDBRANCH   4  14
BRANCH   6  17
HETATM   17  O4  UNL     1      -0.623   2.024  -1.938  1.00  0.00    -0.391 OA
ATOM     18  H4  UNL     1       0.148   1.842  -2.462  1.00  0.00     0.210 HD
ENDBRANCH   6  17
BRANCH   3  19
HETATM   19  O2  UNL     1      -2.874  -0.714   1.537  1.00  0.00    -0.391 OA
ATOM     20  H2  UNL     1      -2.653  -1.569   1.887  1.00  0.00     0.210 HD
ENDBRANCH   3  19
BRANCH   1  21
HETATM   21  O1  UNL     1      -2.117   2.977  -0.139  1.00  0.00    -0.386 OA
HETATM   22  C1  UNL     1      -2.164   3.691   1.068  1.00  0.00     0.202 C 
ENDBRANCH   1  21
BRANCH   2  23
HETATM   23  N1  UNL     1      -4.027   1.153  -0.009  1.00  0.00    -0.070 N 
ATOM     24  H13 UNL     1      -4.118   1.380   0.981  1.00  0.00     0.274 HD
ATOM     25  H12 UNL     1      -4.198   2.083  -0.392  1.00  0.00     0.274 HD
ATOM     26  H11 UNL     1      -4.731   0.481  -0.312  1.00  0.00     0.274 HD
ENDBRANCH   2  23
TORSDOF 8
