REMARK  6 active torsions:
REMARK  status: ('A' for Active; 'I' for Inactive)
REMARK    1  A    between atoms: C2_2  and  C5_16 
REMARK    2  A    between atoms: N1_3  and  N2_5 
REMARK    3  A    between atoms: C3_8  and  N4_9 
REMARK    4  A    between atoms: C5_16  and  O2_17 
REMARK    5  A    between atoms: C5_16  and  N6_19 
REMARK    6  A    between atoms: C6_22  and  N8_23 
ROOT
HETATM    1  C5  UNL     1      -0.241  -0.169  -0.843  1.00  0.00     0.307 C 
ENDROOT
BRANCH   1   2
HETATM    2  C2  UNL     1       0.321   1.164  -0.561  1.00  0.00     0.052 C 
HETATM    3  C1  UNL     1      -0.412   2.405  -1.007  1.00  0.00     0.070 C 
HETATM    4  N1  UNL     1       1.417   1.351   0.050  1.00  0.00    -0.279 N 
ATOM      5  H1  UNL     1       1.678   2.330   0.170  1.00  0.00     0.188 HD
BRANCH   4   6
HETATM    6  N2  UNL     1       2.305   0.454   0.574  1.00  0.00    -0.127 N 
HETATM    7  N3  UNL     1       3.291  -0.073  -0.170  1.00  0.00    -0.106 N 
HETATM    8  C3  UNL     1       4.017  -0.912   0.587  1.00  0.00     0.696 A 
ATOM      9  H3  UNL     1       3.462   0.132  -1.155  1.00  0.00     0.208 HD
HETATM   10  N5  UNL     1       3.471  -0.898   1.805  1.00  0.00    -0.137 N 
HETATM   11  C4  UNL     1       2.431  -0.068   1.796  1.00  0.00     0.375 A 
ATOM     12  H5  UNL     1       3.797  -1.434   2.609  1.00  0.00     0.189 HD
HETATM   13  O1  UNL     1       1.649   0.228   2.739  1.00  0.00    -0.243 OA
BRANCH   8  14
HETATM   14  N4  UNL     1       5.058  -1.601   0.186  1.00  0.00    -0.233 N 
ATOM     15  H42 UNL     1       5.475  -1.612  -0.745  1.00  0.00     0.174 HD
ATOM     16  H41 UNL     1       5.609  -2.238   0.761  1.00  0.00     0.174 HD
ENDBRANCH   8  14
ENDBRANCH   4   6
ENDBRANCH   1   2
BRANCH   1  17
HETATM   17  O2  UNL     1       0.515  -1.215  -0.336  1.00  0.00    -0.369 OA
ATOM     18  H2  UNL     1       0.153  -2.074  -0.518  1.00  0.00     0.212 HD
ENDBRANCH   1  17
BRANCH   1  19
HETATM   19  N6  UNL     1      -1.621  -0.304  -0.400  1.00  0.00    -0.074 N 
HETATM   20  N7  UNL     1      -2.578  -0.980  -1.015  1.00  0.00    -0.113 N 
HETATM   21  C6  UNL     1      -3.725  -0.895  -0.334  1.00  0.00     0.705 A 
ATOM     22  H7  UNL     1      -2.457  -1.494  -1.887  1.00  0.00     0.206 HD
HETATM   23  N9  UNL     1      -3.490  -0.138   0.752  1.00  0.00    -0.020 N 
HETATM   24  C7  UNL     1      -2.179   0.230   0.711  1.00  0.00     0.710 A 
ATOM     25  H9  UNL     1      -4.167   0.114   1.472  1.00  0.00     0.203 HD
HETATM   26  N10 UNL     1      -1.627   0.963   1.609  1.00  0.00    -0.233 N 
ATOM     27 2H10 UNL     1      -0.645   1.239   1.578  1.00  0.00     0.174 HD
ATOM     28 1H10 UNL     1      -2.048   1.366   2.447  1.00  0.00     0.174 HD
BRANCH  21  29
HETATM   29  N8  UNL     1      -4.863  -1.424  -0.631  1.00  0.00    -0.233 N 
ATOM     30  H82 UNL     1      -5.041  -1.998  -1.455  1.00  0.00     0.174 HD
ATOM     31  H81 UNL     1      -5.738  -1.359  -0.111  1.00  0.00     0.174 HD
ENDBRANCH  21  29
ENDBRANCH   1  19
TORSDOF 6
