REMARK  1 active torsions:
REMARK  status: ('A' for Active; 'I' for Inactive)
REMARK    1  A    between atoms: C6_8  and  O1_9 
ROOT
HETATM    1  C1  UNL     1       2.804  -0.235   0.835  1.00  0.00     0.310 C 
HETATM    2  N1  UNL     1       1.333  -0.267   0.890  1.00  0.00     0.092 N 
HETATM    3  C2  UNL     1       0.828   1.056   0.915  1.00  0.00     0.308 C 
HETATM    4  C3  UNL     1      -0.300   1.369   0.022  1.00  0.00     0.256 C 
HETATM    5  C4  UNL     1      -1.662   1.311   0.695  1.00  0.00     0.058 C 
HETATM    6  C5  UNL     1      -2.295   0.029   0.231  1.00  0.00     0.126 C 
HETATM    7 BR1  UNL     1      -2.714  -1.098   1.732  1.00  0.00    -0.086 Br
HETATM    8  C6  UNL     1      -1.322  -0.580  -0.718  1.00  0.00     0.274 C 
HETATM    9  C7  UNL     1      -0.447  -1.632  -0.120  1.00  0.00     0.110 C 
HETATM   10  C8  UNL     1       0.920  -1.067  -0.222  1.00  0.00     0.255 C 
HETATM   11  C9  UNL     1       0.812  -0.138  -1.429  1.00  0.00     0.313 C 
HETATM   12  N2  UNL     1      -0.453   0.525  -1.119  1.00  0.00     0.133 N 
ENDROOT
BRANCH   8  13
HETATM   13  O1  UNL     1      -1.973  -1.043  -1.880  1.00  0.00    -0.362 OA
ATOM     14  H1  UNL     1      -1.352  -1.431  -2.485  1.00  0.00     0.212 HD
ENDBRANCH   8  13
TORSDOF 1
