REMARK  12 active torsions:
REMARK  status: ('A' for Active; 'I' for Inactive)
REMARK    1  A    between atoms: O1_2  and  C2_3 
REMARK    2  A    between atoms: C2_3  and  O2_4 
REMARK    3  A    between atoms: C2_3  and  C3_6 
REMARK    4  A    between atoms: C10_18  and  O4_19 
REMARK    5  A    between atoms: O4_19  and  C11_20 
REMARK    6  A    between atoms: C11_20  and  C12_21 
REMARK    7  A    between atoms: C12_21  and  N3_22 
REMARK    8  A    between atoms: C12_21  and  C13_26 
REMARK    9  A    between atoms: N7_39  and  C19_40 
REMARK   10  A    between atoms: C19_40  and  O6_41 
REMARK   11  A    between atoms: O6_41  and  C20_42 
REMARK   12  A    between atoms: C22_47  and  C23_48 
ROOT
HETATM    1  C3  UNL     1      -4.433   1.689   0.239  1.00  0.00     0.240 C 
HETATM    2  N1  UNL     1      -4.415   0.445  -0.493  1.00  0.00    -0.341 N 
ATOM      3  H1  UNL     1      -5.346   0.147  -0.783  1.00  0.00     0.163 HD
HETATM    4  C4  UNL     1      -3.407  -0.454  -0.900  1.00  0.00     0.241 C 
HETATM    5  O3  UNL     1      -3.915  -1.568  -1.142  1.00  0.00    -0.271 OA
HETATM    6  C5  UNL     1      -1.931  -0.469  -1.127  1.00  0.00     0.185 C 
HETATM    7  C6  UNL     1      -1.781   0.555  -2.261  1.00  0.00     0.036 C 
HETATM    8  C7  UNL     1      -0.446   0.874  -2.463  1.00  0.00     0.008 C 
HETATM    9  C8  UNL     1       0.554   1.682  -3.085  1.00  0.00     0.044 C 
HETATM   10  C9  UNL     1       1.792   1.869  -2.165  1.00  0.00     0.058 C 
HETATM   11  N2  UNL     1       2.708   0.858  -2.024  1.00  0.00    -0.377 N 
ATOM     12  H2  UNL     1       3.159   0.462  -2.849  1.00  0.00     0.161 HD
HETATM   13  C10 UNL     1       3.048   0.334  -0.664  1.00  0.00     0.222 C 
HETATM   14  C14 UNL     1       1.865  -0.289  -0.179  1.00  0.00     0.094 C 
HETATM   15  C15 UNL     1       1.222  -1.074   0.791  1.00  0.00     0.258 C 
HETATM   16  N5  UNL     1       2.066  -2.280   0.909  1.00  0.00    -0.062 N 
ATOM     17  H51 UNL     1       2.654  -2.399   0.084  1.00  0.00     0.278 HD
ATOM     18  H52 UNL     1       1.506  -3.129   0.834  1.00  0.00     0.278 HD
HETATM   19  C16 UNL     1       2.851  -2.285   2.106  1.00  0.00     0.253 C 
HETATM   20  C17 UNL     1       2.059  -3.120   3.124  1.00  0.00     0.148 C 
HETATM   21  N6  UNL     1       0.677  -2.822   2.888  1.00  0.00    -0.384 N 
ATOM     22  H6  UNL     1       0.174  -2.152   3.470  1.00  0.00     0.160 HD
HETATM   23  C18 UNL     1       0.045  -3.480   1.835  1.00  0.00     0.186 C 
HETATM   24  N7  UNL     1      -0.476  -2.810   0.711  1.00  0.00    -0.285 N 
HETATM   25  C21 UNL     1      -0.157  -1.583   0.225  1.00  0.00     0.126 C 
HETATM   26  N8  UNL     1      -1.131  -0.523   0.015  1.00  0.00    -0.295 N 
HETATM   27  C22 UNL     1      -1.512   0.198   1.153  1.00  0.00     0.233 C 
HETATM   28  O11 UNL     1      -1.932   1.540   0.902  1.00  0.00    -0.253 OA
HETATM   29  C24 UNL     1      -3.150   2.164   0.686  1.00  0.00     0.293 C 
HETATM   30  O12 UNL     1      -3.103   3.383   0.934  1.00  0.00    -0.262 OA
ENDROOT
BRANCH  13  31
HETATM   31  O4  UNL     1       3.575   1.399   0.012  1.00  0.00    -0.364 OA
BRANCH  31  32
HETATM   32  C11 UNL     1       4.936   1.189   0.205  1.00  0.00     0.212 C 
BRANCH  32  33
HETATM   33  C12 UNL     1       5.600   2.320   0.947  1.00  0.00     0.295 C 
BRANCH  33  34
HETATM   34  N3  UNL     1       7.005   1.984   1.083  1.00  0.00    -0.065 N 
ATOM     35  H33 UNL     1       7.157   1.076   1.522  1.00  0.00     0.275 HD
ATOM     36  H32 UNL     1       7.453   1.776   0.191  1.00  0.00     0.275 HD
ATOM     37  H31 UNL     1       7.454   2.750   1.585  1.00  0.00     0.275 HD
ENDBRANCH  33  34
BRANCH  33  38
HETATM   38  C13 UNL     1       5.520   3.526   0.088  1.00  0.00     0.263 C 
HETATM   39  N4  UNL     1       4.227   4.049  -0.191  1.00  0.00    -0.060 NA
HETATM   40  O5  UNL     1       6.509   4.110  -0.406  1.00  0.00    -0.274 OA
ENDBRANCH  33  38
ENDBRANCH  32  33
ENDBRANCH  31  32
ENDBRANCH  13  31
BRANCH  24  41
HETATM   41  C19 UNL     1      -1.345  -3.737   0.083  1.00  0.00     0.249 C 
BRANCH  41  42
HETATM   42  O6  UNL     1      -0.790  -5.014  -0.204  1.00  0.00    -0.248 OA
BRANCH  42  43
HETATM   43  C20 UNL     1       0.261  -5.292  -1.023  1.00  0.00     0.338 C 
HETATM   44  O7  UNL     1       0.855  -4.380  -1.628  1.00  0.00    -0.623 OA
HETATM   45  O8  UNL     1       0.677  -6.603  -1.185  1.00  0.00    -0.623 OA
ENDBRANCH  42  43
ENDBRANCH  41  42
ENDBRANCH  24  41
BRANCH  27  46
HETATM   46  C23 UNL     1      -2.367  -0.330   2.190  1.00  0.00     0.253 C 
HETATM   47  O9  UNL     1      -2.577  -1.463   2.620  1.00  0.00    -0.641 OA
HETATM   48  O10 UNL     1      -3.163   0.613   2.918  1.00  0.00    -0.641 OA
ENDBRANCH  27  46
BRANCH   1  49
HETATM   49  C2  UNL     1      -5.266   2.681  -0.552  1.00  0.00     0.288 C 
BRANCH  49  50
HETATM   50  O1  UNL     1      -6.585   2.189  -0.702  1.00  0.00    -0.364 OA
HETATM   51  C1  UNL     1      -7.525   3.047  -0.139  1.00  0.00     0.204 C 
ENDBRANCH  49  50
BRANCH  49  52
HETATM   52  O2  UNL     1      -4.809   2.890  -1.840  1.00  0.00    -0.369 OA
ATOM     53  H2  UNL     1      -3.924   3.220  -1.739  1.00  0.00     0.212 HD
ENDBRANCH  49  52
ENDBRANCH   1  49
TORSDOF 12
