REMARK  3 active torsions:
REMARK  status: ('A' for Active; 'I' for Inactive)
REMARK    1  A    between atoms: C2_2  and  S1_4 
REMARK    2  A    between atoms: S1_4  and  N1_7 
REMARK    3  A    between atoms: N1_7  and  C4_9 
ROOT
HETATM    1  C4  UNL     1       0.128  -0.332   0.617  1.00  0.00     0.196 C 
HETATM    2  C5  UNL     1      -1.223   0.008   1.245  1.00  0.00     0.077 C 
HETATM    3  C6  UNL     1      -2.331  -0.010   0.253  1.00  0.00     0.030 C 
HETATM    4  C7  UNL     1      -2.855   1.406   0.105  1.00  0.00     0.038 C 
HETATM    5  C8  UNL     1      -3.482  -0.809   0.884  1.00  0.00     0.038 C 
HETATM    6  N2  UNL     1      -2.042  -0.626  -1.005  1.00  0.00    -0.354 N 
HETATM    7  C9  UNL     1      -2.712  -0.227  -2.249  1.00  0.00     0.153 C 
HETATM    8  C10 UNL     1      -1.066  -1.662  -1.037  1.00  0.00     0.171 C 
HETATM    9  S2  UNL     1      -1.131  -2.825  -2.181  1.00  0.00    -0.041 SA
HETATM   10  N3  UNL     1      -0.059  -1.616  -0.033  1.00  0.00    -0.345 N 
ATOM     11  H3  UNL     1       0.497  -2.435   0.215  1.00  0.00     0.164 HD
ENDROOT
BRANCH   1  12
HETATM   12  N1  UNL     1       1.145  -0.392   1.610  1.00  0.00    -0.297 N 
ATOM     13  H1  UNL     1       1.168  -1.044   2.394  1.00  0.00     0.174 HD
BRANCH  12  14
HETATM   14  S1  UNL     1       2.333   0.812   1.279  1.00  0.00     0.231 S 
HETATM   15  O1  UNL     1       1.739   2.199   1.265  1.00  0.00    -0.206 OA
HETATM   16  O2  UNL     1       3.424   0.826   2.313  1.00  0.00    -0.206 OA
BRANCH  14  17
HETATM   17  C2  UNL     1       3.050   0.439  -0.327  1.00  0.00     0.121 C 
HETATM   18  C1  UNL     1       3.757  -0.882  -0.222  1.00  0.00     0.027 C 
HETATM   19  C3  UNL     1       4.027   1.550  -0.712  1.00  0.00     0.027 C 
ENDBRANCH  14  17
ENDBRANCH  12  14
ENDBRANCH   1  12
TORSDOF 3
