REMARK  5 active torsions:
REMARK  status: ('A' for Active; 'I' for Inactive)
REMARK    1  A    between atoms: C3_3  and  C4_4 
REMARK    2  A    between atoms: C4_4  and  N1_5 
REMARK    3  A    between atoms: N1_5  and  C6_7 
REMARK    4  A    between atoms: C6_7  and  N2_9 
REMARK       I    between atoms: C7_11  and  N3_12 
REMARK       I    between atoms: C7_11  and  N4_17 
REMARK       I    between atoms: N3_12  and  C8_14 
REMARK    5  A    between atoms: N4_17  and  C10_19 
ROOT
HETATM    1  C1  UNL     1       4.573  -1.720   2.463  1.00  0.00     0.012 C 
HETATM    2  C2  UNL     1       4.274  -1.204   1.413  1.00  0.00    -0.116 C 
HETATM    3  C3  UNL     1       3.917  -0.563   0.144  1.00  0.00     0.113 C 
ENDROOT
BRANCH   3   4
HETATM    4  C4  UNL     1       2.823   0.442   0.427  1.00  0.00     0.136 C 
BRANCH   4   5
HETATM    5  N1  UNL     1       2.401   1.132  -0.773  1.00  0.00    -0.361 N 
HETATM    6  C5  UNL     1       3.277   2.061  -1.459  1.00  0.00     0.152 C 
BRANCH   5   7
HETATM    7  C6  UNL     1       1.113   0.904  -1.297  1.00  0.00     0.188 C 
HETATM    8  S1  UNL     1       0.658   1.689  -2.646  1.00  0.00    -0.040 SA
BRANCH   7   9
HETATM    9  N2  UNL     1       0.245   0.013  -0.661  1.00  0.00    -0.166 N 
HETATM   10  C7  UNL     1      -0.810   0.333   0.019  1.00  0.00     0.683 C 
HETATM   11  N3  UNL     1      -1.202   1.670   0.192  1.00  0.00    -0.160 N 
HETATM   12  N4  UNL     1      -1.555  -0.715   0.589  1.00  0.00    -0.218 N 
HETATM   13  C8  UNL     1      -2.338   2.068   0.918  1.00  0.00     0.231 C 
ATOM     14  H3  UNL     1      -0.628   2.397  -0.235  1.00  0.00     0.187 HD
HETATM   15  C9  UNL     1      -2.719   3.511   1.078  1.00  0.00     0.118 C 
HETATM   16  O1  UNL     1      -3.081   1.225   1.463  1.00  0.00    -0.273 OA
ATOM     17  H4  UNL     1      -1.706  -0.720   1.598  1.00  0.00     0.178 HD
ATOM     18  H2  UNL     1       0.462  -0.981  -0.739  1.00  0.00     0.186 HD
BRANCH  12  19
HETATM   19  C10 UNL     1      -2.112  -1.782  -0.204  1.00  0.00     0.036 C 
HETATM   20  C11 UNL     1      -2.885  -2.699   0.720  1.00  0.00     0.038 C 
HETATM   21  C12 UNL     1      -2.965  -1.212  -1.292  1.00  0.00     0.038 C 
HETATM   22  C13 UNL     1      -0.930  -2.537  -0.819  1.00  0.00     0.038 C 
ENDBRANCH  12  19
ENDBRANCH   7   9
ENDBRANCH   5   7
ENDBRANCH   4   5
ENDBRANCH   3   4
TORSDOF 5
