REMARK  3 active torsions:
REMARK  status: ('A' for Active; 'I' for Inactive)
REMARK    1  A    between atoms: C1_2  and  C2_4 
REMARK    2  A    between atoms: C4_9  and  N2_10 
REMARK    3  A    between atoms: C16_33  and  C17_34 
REMARK       I    between atoms: C17_34  and  N7_36 
ROOT
HETATM    1  N2  UNL     1       0.415   0.339   0.223  1.00  0.00    -0.377 N 
HETATM    2  C5  UNL     1       1.658   0.809  -0.239  1.00  0.00     0.086 C 
HETATM    3  C6  UNL     1       1.654   1.928  -1.208  1.00  0.00     0.276 C 
HETATM    4  N3  UNL     1       3.004   2.517  -1.209  1.00  0.00    -0.069 N 
ATOM      5  H31 UNL     1       3.190   3.074  -0.375  1.00  0.00     0.277 HD
ATOM      6  H32 UNL     1       3.107   3.262  -1.898  1.00  0.00     0.277 HD
HETATM    7  C7  UNL     1       3.959   1.455  -1.392  1.00  0.00     0.251 C 
HETATM    8  C8  UNL     1       5.368   1.955  -1.528  1.00  0.00     0.141 C 
HETATM    9  N4  UNL     1       6.367   0.992  -1.235  1.00  0.00    -0.418 N 
ATOM     10  H4  UNL     1       7.319   1.267  -0.995  1.00  0.00     0.153 HD
HETATM   11  C9  UNL     1       5.977  -0.381  -1.292  1.00  0.00     0.141 C 
HETATM   12  C10 UNL     1       5.775  -1.035   0.042  1.00  0.00     0.251 C 
HETATM   13  N5  UNL     1       4.742  -2.070  -0.035  1.00  0.00    -0.072 N 
ATOM     14  H51 UNL     1       5.030  -2.856  -0.617  1.00  0.00     0.277 HD
ATOM     15  H52 UNL     1       3.937  -1.767  -0.583  1.00  0.00     0.277 HD
HETATM   16  C11 UNL     1       4.367  -2.489   1.294  1.00  0.00     0.259 C 
HETATM   17  C12 UNL     1       3.132  -3.322   1.302  1.00  0.00     0.259 C 
HETATM   18  N6  UNL     1       1.966  -2.596   1.836  1.00  0.00    -0.072 N 
ATOM     19  H61 UNL     1       2.053  -2.323   2.815  1.00  0.00     0.277 HD
ATOM     20  H62 UNL     1       1.132  -3.171   1.957  1.00  0.00     0.277 HD
HETATM   21  C13 UNL     1       1.796  -1.471   0.906  1.00  0.00     0.252 C 
HETATM   22  C14 UNL     1       0.583  -0.642   1.247  1.00  0.00     0.150 C 
ENDROOT
BRANCH   1  23
HETATM   23  C4  UNL     1      -0.662   1.213   0.303  1.00  0.00     0.176 C 
HETATM   24  C3  UNL     1      -0.530   2.363   1.230  1.00  0.00     0.241 C 
HETATM   25  N1  UNL     1      -1.742   3.133   1.370  1.00  0.00    -0.344 N 
HETATM   26  O3  UNL     1       0.490   2.679   1.848  1.00  0.00    -0.271 OA
HETATM   27  C2  UNL     1      -2.813   2.747   0.451  1.00  0.00     0.198 C 
ATOM     28  H1  UNL     1      -1.844   3.884   2.053  1.00  0.00     0.163 HD
HETATM   29  C16 UNL     1      -3.157   1.270   0.614  1.00  0.00     0.113 C 
HETATM   30  C15 UNL     1      -1.896   0.444   0.802  1.00  0.00     0.051 C 
BRANCH  27  31
HETATM   31  C1  UNL     1      -4.032   3.515   0.883  1.00  0.00     0.197 C 
HETATM   32  O1  UNL     1      -4.000   4.311   1.868  1.00  0.00    -0.646 OA
HETATM   33  O2  UNL     1      -5.186   3.312   0.156  1.00  0.00    -0.646 OA
ENDBRANCH  27  31
BRANCH  29  34
HETATM   34  C17 UNL     1      -3.792   0.775  -0.632  1.00  0.00     0.226 C 
HETATM   35  O4  UNL     1      -3.799   1.539  -1.630  1.00  0.00    -0.273 OA
HETATM   36  N7  UNL     1      -4.378  -0.521  -0.719  1.00  0.00    -0.352 N 
HETATM   37  C18 UNL     1      -4.422  -1.456   0.376  1.00  0.00     0.125 C 
HETATM   38  C22 UNL     1      -4.972  -0.949  -1.972  1.00  0.00     0.125 C 
HETATM   39  C19 UNL     1      -5.843  -1.967   0.608  1.00  0.00     0.020 C 
HETATM   40  C20 UNL     1      -6.349  -2.514  -0.711  1.00  0.00     0.003 C 
HETATM   41  C21 UNL     1      -6.418  -1.324  -1.674  1.00  0.00     0.020 C 
ENDBRANCH  29  34
ENDBRANCH   1  23
TORSDOF 3
