REMARK  9 active torsions:
REMARK  status: ('A' for Active; 'I' for Inactive)
REMARK    1  A    between atoms: N1_1  and  C1_4 
REMARK    2  A    between atoms: C2_7  and  C3_8 
REMARK    3  A    between atoms: C3_8  and  C4_9 
REMARK    4  A    between atoms: C4_9  and  C5_10 
REMARK    5  A    between atoms: C5_10  and  S1_11 
REMARK    6  A    between atoms: C6_17  and  N4_18 
REMARK    7  A    between atoms: N4_18  and  N5_20 
REMARK    8  A    between atoms: N5_20  and  C7_22 
REMARK    9  A    between atoms: N7_26  and  C9_27 
ROOT
HETATM    1  C1  UNL     1       2.258   0.179   2.397  1.00  0.00     0.691 A 
HETATM    2  N2  UNL     1       3.310   0.155   1.555  1.00  0.00    -0.180 N 
ATOM      3  H2  UNL     1       4.153  -0.351   1.827  1.00  0.00     0.185 HD
HETATM    4  C2  UNL     1       3.277   0.780   0.366  1.00  0.00     0.113 A 
HETATM    5  N3  UNL     1       2.160   1.443   0.016  1.00  0.00    -0.178 N 
ATOM      6  H3  UNL     1       2.104   1.926  -0.881  1.00  0.00     0.185 HD
HETATM    7  C6  UNL     1       1.113   1.459   0.872  1.00  0.00     0.712 A 
HETATM    8  N10 UNL     1       1.144   0.835   2.062  1.00  0.00    -0.021 N 
ATOM      9  H10 UNL     1       0.341   0.862   2.690  1.00  0.00     0.203 HD
ENDROOT
BRANCH   7  10
HETATM   10  N4  UNL     1       0.067   2.089   0.528  1.00  0.00    -0.130 N 
ATOM     11  H4  UNL     1       0.042   2.563  -0.375  1.00  0.00     0.205 HD
BRANCH  10  12
HETATM   12  N5  UNL     1      -1.046   2.145   1.359  1.00  0.00    -0.274 N 
ATOM     13  H5  UNL     1      -1.137   2.938   1.994  1.00  0.00     0.189 HD
BRANCH  12  14
HETATM   14  C7  UNL     1      -2.069   1.147   1.369  1.00  0.00     0.111 C 
HETATM   15  N6  UNL     1      -1.971   0.267   0.452  1.00  0.00    -0.361 N 
HETATM   16  C8  UNL     1      -2.797  -0.892   0.128  1.00  0.00     0.250 C 
ATOM     17  H6  UNL     1      -1.171   0.396  -0.167  1.00  0.00     0.162 HD
HETATM   18  N7  UNL     1      -4.177  -0.361   0.038  1.00  0.00    -0.335 N 
HETATM   19  C12 UNL     1      -4.871   0.229   1.106  1.00  0.00     0.188 C 
HETATM   20  N8  UNL     1      -6.274   0.034   1.085  1.00  0.00    -0.064 NA
HETATM   21  N9  UNL     1      -4.403   0.910   2.095  1.00  0.00    -0.357 N 
HETATM   22  C13 UNL     1      -3.072   1.283   2.434  1.00  0.00     0.199 C 
ATOM     23  H9  UNL     1      -5.112   1.240   2.750  1.00  0.00     0.162 HD
BRANCH  18  24
HETATM   24  C9  UNL     1      -4.761  -0.474  -1.242  1.00  0.00     0.088 A 
HETATM   25  C10 UNL     1      -6.069  -0.089  -1.729  1.00  0.00     0.027 A 
HETATM   26  C11 UNL     1      -5.676  -1.597  -1.625  1.00  0.00     0.027 A 
ENDBRANCH  18  24
ENDBRANCH  12  14
ENDBRANCH  10  12
ENDBRANCH   7  10
BRANCH   4  27
HETATM   27  C3  UNL     1       4.481   0.723  -0.539  1.00  0.00     0.079 C 
BRANCH  27  28
HETATM   28  C4  UNL     1       4.285  -0.495  -1.400  1.00  0.00     0.025 C 
BRANCH  28  29
HETATM   29  C5  UNL     1       5.377  -0.737  -2.384  1.00  0.00     0.165 C 
BRANCH  29  30
HETATM   30  S1  UNL     1       6.969  -0.976  -1.692  1.00  0.00     0.101 S 
HETATM   31  O1  UNL     1       7.050  -2.168  -0.804  1.00  0.00    -0.595 OA
HETATM   32  O2  UNL     1       7.481   0.277  -1.004  1.00  0.00    -0.595 OA
HETATM   33  O3  UNL     1       8.047  -1.239  -2.982  1.00  0.00    -0.595 OA
ENDBRANCH  29  30
ENDBRANCH  28  29
ENDBRANCH  27  28
ENDBRANCH   4  27
BRANCH   1  34
HETATM   34  N1  UNL     1       2.296  -0.426   3.544  1.00  0.00    -0.234 N 
ATOM     35  H12 UNL     1       3.147  -0.927   3.800  1.00  0.00     0.174 HD
ATOM     36  H11 UNL     1       1.500  -0.408   4.181  1.00  0.00     0.174 HD
ENDBRANCH   1  34
TORSDOF 9
