REMARK  8 active torsions:
REMARK  status: ('A' for Active; 'I' for Inactive)
REMARK    1  A    between atoms: N3_10  and  C6_11 
REMARK    2  A    between atoms: C6_11  and  C7_12 
REMARK       I    between atoms: C7_12  and  N4_14 
REMARK    3  A    between atoms: N4_14  and  C8_16 
REMARK    4  A    between atoms: C8_16  and  C9_17 
REMARK    5  A    between atoms: C9_17  and  N5_18 
REMARK    6  A    between atoms: N6_21  and  C12_22 
REMARK    7  A    between atoms: C13_25  and  N8_26 
REMARK    8  A    between atoms: C16_35  and  N11_36 
ROOT
HETATM    1  C7  UNL     1       1.518   0.821   0.060  1.00  0.00     0.236 C 
HETATM    2  O1  UNL     1       1.612  -0.173  -0.699  1.00  0.00    -0.272 OA
HETATM    3  N4  UNL     1       0.704   1.939  -0.229  1.00  0.00    -0.355 N 
ATOM      4  H4  UNL     1       0.684   2.703   0.447  1.00  0.00     0.162 HD
ENDROOT
BRANCH   3   5
HETATM    5  C8  UNL     1      -0.099   2.069  -1.417  1.00  0.00     0.167 C 
BRANCH   5   6
HETATM    6  C9  UNL     1      -1.113   0.939  -1.520  1.00  0.00     0.087 C 
BRANCH   6   7
HETATM    7  N5  UNL     1      -2.012   0.874  -0.442  1.00  0.00    -0.349 N 
HETATM    8  C10 UNL     1      -2.960   1.853  -0.290  1.00  0.00     0.088 C 
HETATM    9  C11 UNL     1      -4.357   1.382   0.029  1.00  0.00     0.186 C 
HETATM   10  N6  UNL     1      -4.400  -0.030   0.338  1.00  0.00    -0.206 N 
HETATM   11  C14 UNL     1      -3.286  -0.749   0.881  1.00  0.00     0.186 C 
HETATM   12  C15 UNL     1      -1.966  -0.302   0.288  1.00  0.00     0.088 C 
BRANCH  10  13
HETATM   13  C12 UNL     1      -5.610  -0.721   0.078  1.00  0.00     0.710 A 
HETATM   14  N7  UNL     1      -5.824  -2.043   0.344  1.00  0.00    -0.020 N 
HETATM   15  C13 UNL     1      -7.071  -2.391  -0.026  1.00  0.00     0.705 A 
ATOM     16  H7  UNL     1      -5.140  -2.674   0.762  1.00  0.00     0.203 HD
HETATM   17  N9  UNL     1      -7.622  -1.287  -0.516  1.00  0.00    -0.118 N 
HETATM   18  N10 UNL     1      -6.754  -0.292  -0.455  1.00  0.00    -0.117 N 
ATOM     19  H9  UNL     1      -8.571  -1.217  -0.884  1.00  0.00     0.206 HD
ATOM     20  H10 UNL     1      -6.933   0.662  -0.769  1.00  0.00     0.206 HD
BRANCH  15  21
HETATM   21  N8  UNL     1      -7.553  -3.586   0.110  1.00  0.00    -0.233 N 
ATOM     22  H82 UNL     1      -7.130  -4.434   0.486  1.00  0.00     0.174 HD
ATOM     23  H81 UNL     1      -8.498  -3.850  -0.170  1.00  0.00     0.174 HD
ENDBRANCH  15  21
ENDBRANCH  10  13
ENDBRANCH   6   7
ENDBRANCH   5   6
ENDBRANCH   3   5
BRANCH   1  24
HETATM   24  C6  UNL     1       2.330   0.751   1.311  1.00  0.00     0.234 C 
BRANCH  24  25
HETATM   25  N3  UNL     1       3.728   1.045   0.991  1.00  0.00    -0.318 N 
HETATM   26  C3  UNL     1       4.687   0.145   0.663  1.00  0.00     0.141 A 
HETATM   27  N1  UNL     1       4.657  -1.203   0.554  1.00  0.00    -0.330 N 
HETATM   28  C4  UNL     1       5.888   0.772   0.413  1.00  0.00     0.122 A 
HETATM   29  C2  UNL     1       5.771  -1.878   0.213  1.00  0.00     0.080 A 
ATOM     30  H1  UNL     1       3.789  -1.709   0.730  1.00  0.00     0.168 HD
HETATM   31  C1  UNL     1       5.730  -3.381   0.104  1.00  0.00     0.089 C 
HETATM   32  N12 UNL     1       6.947  -1.287  -0.034  1.00  0.00    -0.331 N 
HETATM   33  C16 UNL     1       7.011   0.049   0.066  1.00  0.00     0.131 A 
ATOM     34  H12 UNL     1       7.768  -1.835  -0.290  1.00  0.00     0.168 HD
HETATM   35  N2  UNL     1       5.630   2.085   0.598  1.00  0.00    -0.346 N 
HETATM   36  C5  UNL     1       4.342   2.245   0.943  1.00  0.00     0.185 A 
ATOM     37  H2  UNL     1       6.309   2.839   0.492  1.00  0.00     0.167 HD
BRANCH  33  38
HETATM   38  N11 UNL     1       8.124   0.664  -0.160  1.00  0.00    -0.383 N 
ATOM     39 2H11 UNL     1       8.173   1.680  -0.084  1.00  0.00     0.157 HD
ATOM     40 1H11 UNL     1       8.954   0.130  -0.416  1.00  0.00     0.157 HD
ENDBRANCH  33  38
ENDBRANCH  24  25
ENDBRANCH   1  24
TORSDOF 8
