REMARK  2 active torsions:
REMARK  status: ('A' for Active; 'I' for Inactive)
REMARK    1  A    between atoms: C3_3  and  N1_4 
REMARK    2  A    between atoms: C5_11  and  N3_12 
ROOT
HETATM    1  C1  UNL     1      -2.224  -0.935  -0.188  1.00  0.00     0.057 C 
HETATM    2  C2  UNL     1      -0.861  -0.455   0.073  1.00  0.00     0.045 C 
HETATM    3  C3  UNL     1      -0.699   0.900   0.018  1.00  0.00     0.182 C 
HETATM    4  C4  UNL     1       0.473   1.546  -0.339  1.00  0.00     0.293 C 
HETATM    5  O3  UNL     1       0.371   2.752  -0.607  1.00  0.00    -0.265 OA
HETATM    6  N2  UNL     1       1.741   1.049  -0.440  1.00  0.00    -0.154 N 
ATOM      7  H2  UNL     1       2.446   1.676  -0.827  1.00  0.00     0.187 HD
HETATM    8  C5  UNL     1       2.158  -0.173  -0.086  1.00  0.00     0.681 C 
HETATM    9  N4  UNL     1       1.475  -1.252   0.350  1.00  0.00    -0.156 N 
ATOM     10  H4  UNL     1       2.028  -2.026   0.719  1.00  0.00     0.187 HD
HETATM   11  C6  UNL     1       0.129  -1.412   0.347  1.00  0.00     0.268 C 
HETATM   12  O4  UNL     1      -0.320  -2.553   0.622  1.00  0.00    -0.267 OA
ENDROOT
BRANCH   3  13
HETATM   13  N1  UNL     1      -1.798   1.680   0.350  1.00  0.00    -0.109 N 
HETATM   14  O1  UNL     1      -2.910   1.330   0.698  1.00  0.00    -0.532 OA
HETATM   15  O2  UNL     1      -1.645   3.072   0.291  1.00  0.00    -0.532 OA
ENDBRANCH   3  13
BRANCH   8  16
HETATM   16  N3  UNL     1       3.437  -0.384  -0.165  1.00  0.00    -0.234 N 
ATOM     17  H32 UNL     1       3.953   0.432  -0.495  1.00  0.00     0.174 HD
ATOM     18  H31 UNL     1       3.755  -1.315   0.105  1.00  0.00     0.174 HD
ENDBRANCH   8  16
TORSDOF 2
