REMARK  5 active torsions:
REMARK  status: ('A' for Active; 'I' for Inactive)
REMARK    1  A    between atoms: N1_2  and  N2_3 
REMARK       I    between atoms: N1_2  and  C2_7 
REMARK    2  A    between atoms: N2_3  and  O1_5 
REMARK       I    between atoms: C2_7  and  N3_9 
REMARK    3  A    between atoms: N3_9  and  C3_11 
REMARK    4  A    between atoms: C6_16  and  O5_17 
REMARK    5  A    between atoms: O5_17  and  C7_18 
ROOT
HETATM    1  C3  UNL     1       0.366   0.575  -0.700  1.00  0.00     0.123 C 
HETATM    2  C4  UNL     1       0.499   1.428  -1.950  1.00  0.00     0.196 C 
HETATM    3  O3  UNL     1      -0.494   1.015  -2.821  1.00  0.00    -0.358 OA
HETATM    4  C5  UNL     1      -1.548   0.564  -2.063  1.00  0.00     0.273 C 
HETATM    5  O4  UNL     1      -2.109   1.575  -1.293  1.00  0.00    -0.330 OA
HETATM    6  C6  UNL     1      -2.039   0.776  -0.144  1.00  0.00     0.284 C 
HETATM    7  C8  UNL     1      -0.999  -0.045  -0.815  1.00  0.00     0.122 C 
ENDROOT
BRANCH   1   8
HETATM    8  N3  UNL     1       1.429  -0.354  -0.571  1.00  0.00    -0.334 N 
HETATM    9  C2  UNL     1       2.288  -0.292   0.558  1.00  0.00     0.338 C 
HETATM   10  N1  UNL     1       3.368  -1.189   0.747  1.00  0.00    -0.228 N 
HETATM   11  O2  UNL     1       2.125   0.589   1.468  1.00  0.00    -0.245 OA
HETATM   12  C1  UNL     1       4.222  -1.096   1.909  1.00  0.00     0.185 C 
ATOM     13  H3  UNL     1       1.576  -1.065  -1.287  1.00  0.00     0.164 HD
BRANCH  10  14
HETATM   14  N2  UNL     1       3.571  -2.172  -0.243  1.00  0.00    -0.204 N 
ATOM     15  H2  UNL     1       2.797  -2.782  -0.505  1.00  0.00     0.216 HD
BRANCH  14  16
HETATM   16  O1  UNL     1       4.667  -2.311  -0.801  1.00  0.00    -0.274 OA
ATOM     17  H1  UNL     1       4.804  -2.973  -1.468  1.00  0.00     0.246 HD
ENDBRANCH  14  16
ENDBRANCH  10  14
ENDBRANCH   1   8
BRANCH   6  18
HETATM   18  O5  UNL     1      -3.287   0.169   0.078  1.00  0.00    -0.274 OA
BRANCH  18  19
HETATM   19  C7  UNL     1      -4.015   0.259   1.240  1.00  0.00     0.375 C 
HETATM   20  N4  UNL     1      -5.273  -0.360   1.446  1.00  0.00    -0.032 NA
HETATM   21  O6  UNL     1      -3.516   0.946   2.186  1.00  0.00    -0.242 OA
ENDBRANCH  18  19
ENDBRANCH   6  18
TORSDOF 5
