REMARK  10 active torsions:
REMARK  status: ('A' for Active; 'I' for Inactive)
REMARK    1  A    between atoms: C2_2  and  C3_3 
REMARK    2  A    between atoms: C2_2  and  O3_29 
REMARK    3  A    between atoms: C3_3  and  C4_4 
REMARK    4  A    between atoms: C4_4  and  C5_5 
REMARK    5  A    between atoms: C5_5  and  C7_7 
REMARK    6  A    between atoms: C11_11  and  O1_12 
REMARK    7  A    between atoms: C12_14  and  C13_15 
REMARK    8  A    between atoms: O3_29  and  C26_30 
REMARK    9  A    between atoms: C28_33  and  O5_34 
REMARK   10  A    between atoms: C29_36  and  O6_37 
ROOT
HETATM    1  C7  UNL     1       0.397   0.078  -1.365  1.00  0.00    -0.002 C 
HETATM    2  C8  UNL     1       0.557  -1.254  -1.996  1.00  0.00     0.006 C 
HETATM    3  C9  UNL     1      -0.936  -1.526  -2.310  1.00  0.00     0.008 C 
HETATM    4  C10 UNL     1      -1.646  -1.023  -1.044  1.00  0.00     0.023 C 
HETATM    5  C11 UNL     1      -2.781  -0.140  -1.512  1.00  0.00     0.128 C 
HETATM    6  C12 UNL     1      -3.592   0.442  -0.431  1.00  0.00     0.023 C 
HETATM    7  C22 UNL     1      -2.656   0.889   0.678  1.00  0.00     0.009 C 
HETATM    8  C23 UNL     1      -1.241   1.079   0.132  1.00  0.00     0.010 C 
HETATM    9  C24 UNL     1      -0.605  -0.198  -0.287  1.00  0.00    -0.034 C 
HETATM   10  C25 UNL     1      -0.119  -1.001   0.852  1.00  0.00     0.016 C 
ENDROOT
BRANCH   1  11
HETATM   11  C5  UNL     1       1.538   0.908  -1.080  1.00  0.00    -0.014 C 
HETATM   12  C6  UNL     1       2.157   1.387  -2.407  1.00  0.00     0.010 C 
BRANCH  11  13
HETATM   13  C4  UNL     1       2.636   0.518  -0.198  1.00  0.00     0.007 C 
BRANCH  13  14
HETATM   14  C3  UNL     1       3.554  -0.562  -0.650  1.00  0.00     0.032 C 
BRANCH  14  15
HETATM   15  C2  UNL     1       4.650  -0.850   0.372  1.00  0.00     0.120 C 
HETATM   16  C1  UNL     1       4.068  -1.288   1.700  1.00  0.00     0.039 C 
BRANCH  15  17
HETATM   17  O3  UNL     1       5.431   0.273   0.607  1.00  0.00    -0.354 OA
BRANCH  17  18
HETATM   18  C26 UNL     1       6.774   0.055   0.337  1.00  0.00     0.291 C 
HETATM   19  O4  UNL     1       7.264   0.906  -0.646  1.00  0.00    -0.356 OA
HETATM   20  C27 UNL     1       8.647   0.635  -0.561  1.00  0.00     0.205 C 
HETATM   21  C28 UNL     1       8.943   0.783   0.919  1.00  0.00     0.175 C 
HETATM   22  C29 UNL     1       7.661   0.223   1.539  1.00  0.00     0.204 C 
BRANCH  21  23
HETATM   23  O5  UNL     1      10.025  -0.011   1.237  1.00  0.00    -0.391 OA
ATOM     24  H5  UNL     1      10.210   0.082   2.164  1.00  0.00     0.210 HD
ENDBRANCH  21  23
BRANCH  22  25
HETATM   25  O6  UNL     1       7.160   1.199   2.430  1.00  0.00    -0.388 OA
ATOM     26  H6  UNL     1       7.721   1.305   3.190  1.00  0.00     0.210 HD
ENDBRANCH  22  25
ENDBRANCH  17  18
ENDBRANCH  15  17
ENDBRANCH  14  15
ENDBRANCH  13  14
ENDBRANCH  11  13
ENDBRANCH   1  11
BRANCH   5  27
HETATM   27  O1  UNL     1      -3.439  -0.792  -2.522  1.00  0.00    -0.395 OA
ATOM     28  H1  UNL     1      -4.152  -0.237  -2.816  1.00  0.00     0.210 HD
ENDBRANCH   5  27
BRANCH   6  29
HETATM   29  C13 UNL     1      -4.748  -0.359   0.069  1.00  0.00    -0.034 C 
HETATM   30  C14 UNL     1      -4.363  -1.708   0.623  1.00  0.00     0.016 C 
HETATM   31  C15 UNL     1      -5.767  -0.607  -1.017  1.00  0.00     0.011 C 
HETATM   32  C16 UNL     1      -7.081  -0.863  -0.310  1.00  0.00     0.013 C 
HETATM   33  C17 UNL     1      -6.905  -0.370   1.088  1.00  0.00     0.060 C 
HETATM   34  C18 UNL     1      -7.914   0.673   1.353  1.00  0.00     0.131 C 
HETATM   35  C21 UNL     1      -5.550   0.329   1.121  1.00  0.00     0.006 C 
HETATM   36  O2  UNL     1      -9.097   0.457   1.535  1.00  0.00    -0.298 OA
HETATM   37  C19 UNL     1      -7.285   1.995   1.362  1.00  0.00     0.079 C 
HETATM   38  C20 UNL     1      -5.858   1.772   0.891  1.00  0.00     0.013 C 
ENDBRANCH   6  29
TORSDOF 10
