REMARK  4 active torsions:
REMARK  status: ('A' for Active; 'I' for Inactive)
REMARK    1  A    between atoms: C4_4  and  C5_5 
REMARK    2  A    between atoms: C5_5  and  O1_6 
REMARK    3  A    between atoms: O1_6  and  C6_7 
REMARK    4  A    between atoms: C10_11  and  C11_12 
ROOT
HETATM    1  C11 UNL     1      -1.813  -0.856  -0.689  1.00  0.00    -0.014 A 
HETATM    2  C12 UNL     1      -1.784  -2.255  -0.803  1.00  0.00     0.025 A 
HETATM    3  C13 UNL     1      -2.865  -3.028  -0.439  1.00  0.00    -0.025 A 
HETATM    4  C14 UNL     1      -2.862  -4.416  -0.541  1.00  0.00     0.012 A 
HETATM    5  C15 UNL     1      -3.948  -5.186  -0.175  1.00  0.00     0.001 A 
HETATM    6  C16 UNL     1      -5.071  -4.524   0.311  1.00  0.00     0.001 A 
HETATM    7  C17 UNL     1      -5.070  -3.141   0.411  1.00  0.00     0.012 A 
HETATM    8  C18 UNL     1      -3.980  -2.382   0.043  1.00  0.00    -0.025 A 
HETATM    9  C19 UNL     1      -4.027  -1.006   0.162  1.00  0.00     0.025 A 
HETATM   10  C20 UNL     1      -2.926  -0.216  -0.209  1.00  0.00    -0.014 A 
HETATM   11  C21 UNL     1      -2.978   1.223  -0.083  1.00  0.00    -0.025 A 
HETATM   12  C22 UNL     1      -2.133   1.904   0.757  1.00  0.00     0.012 A 
HETATM   13  C23 UNL     1      -2.189   3.297   0.879  1.00  0.00     0.001 A 
HETATM   14  C24 UNL     1      -3.105   3.989   0.145  1.00  0.00     0.000 A 
HETATM   15  C25 UNL     1      -3.976   3.342  -0.714  1.00  0.00     0.001 A 
HETATM   16  C26 UNL     1      -3.890   1.955  -0.809  1.00  0.00     0.012 A 
ENDROOT
BRANCH   1  17
HETATM   17  C10 UNL     1      -0.644  -0.074  -1.087  1.00  0.00    -0.022 A 
HETATM   18  C9  UNL     1      -0.697   0.821  -2.130  1.00  0.00     0.012 A 
HETATM   19  C8  UNL     1       0.445   1.523  -2.443  1.00  0.00     0.004 A 
HETATM   20  C7  UNL     1       1.619   1.352  -1.747  1.00  0.00     0.037 A 
HETATM   21  C6  UNL     1       1.704   0.462  -0.697  1.00  0.00     0.070 A 
HETATM   22  C27 UNL     1       0.560  -0.232  -0.394  1.00  0.00     0.049 A 
BRANCH  21  23
HETATM   23  O1  UNL     1       2.896   0.293   0.005  1.00  0.00    -0.347 OA
BRANCH  23  24
HETATM   24  C5  UNL     1       4.016   1.058  -0.379  1.00  0.00     0.214 C 
BRANCH  24  25
HETATM   25  C4  UNL     1       5.210   0.803   0.422  1.00  0.00    -0.034 A 
HETATM   26  C3  UNL     1       5.370  -0.408   1.051  1.00  0.00     0.009 A 
HETATM   27  C2  UNL     1       6.483  -0.702   1.825  1.00  0.00     0.001 A 
HETATM   28  C1  UNL     1       7.477   0.245   1.980  1.00  0.00     0.000 A 
HETATM   29  C29 UNL     1       7.318   1.455   1.352  1.00  0.00     0.001 A 
HETATM   30  C28 UNL     1       6.202   1.746   0.578  1.00  0.00     0.009 A 
ENDBRANCH  24  25
ENDBRANCH  23  24
ENDBRANCH  21  23
ENDBRANCH   1  17
TORSDOF 4
