REMARK  5 active torsions:
REMARK  status: ('A' for Active; 'I' for Inactive)
REMARK    1  A    between atoms: N2_6  and  C4_8 
REMARK    2  A    between atoms: C4_8  and  N3_10 
REMARK    3  A    between atoms: N3_10  and  C5_12 
REMARK    4  A    between atoms: C5_12  and  C6_13 
REMARK    5  A    between atoms: C9_17  and  C10_18 
ROOT
HETATM    1  C1  UNL     1      -2.595  -1.515  -1.570  1.00  0.00     0.069 C 
HETATM    2  C2  UNL     1      -1.464  -0.584  -1.105  1.00  0.00     0.024 A 
HETATM    3  N1  UNL     1      -0.267  -1.074  -0.836  1.00  0.00    -0.339 N 
ATOM      4  H1  UNL     1      -0.095  -2.078  -0.894  1.00  0.00     0.168 HD
HETATM    5  C3  UNL     1       0.710  -0.242  -0.489  1.00  0.00     0.151 A 
HETATM    6  N2  UNL     1       1.940  -0.451  -0.185  1.00  0.00    -0.313 N 
ATOM      7  H2  UNL     1       2.427   0.418   0.035  1.00  0.00     0.170 HD
HETATM    8  S2  UNL     1      -0.100   1.298  -0.543  1.00  0.00    -0.052 SA
HETATM    9  C9  UNL     1      -1.645   0.754  -1.011  1.00  0.00     0.032 A 
ENDROOT
BRANCH   6  10
HETATM   10  C4  UNL     1       2.756  -1.520  -0.081  1.00  0.00     0.177 C 
HETATM   11  S1  UNL     1       2.400  -2.929  -0.897  1.00  0.00    -0.040 SA
BRANCH  10  12
HETATM   12  N3  UNL     1       3.950  -1.537   0.678  1.00  0.00    -0.346 N 
ATOM     13  H3  UNL     1       4.461  -2.420   0.704  1.00  0.00     0.167 HD
BRANCH  12  14
HETATM   14  C5  UNL     1       4.507  -0.468   1.399  1.00  0.00     0.067 C 
BRANCH  14  15
HETATM   15  C6  UNL     1       5.240   0.611   0.725  1.00  0.00     0.016 C 
HETATM   16  C7  UNL     1       4.540   1.428  -0.296  1.00  0.00     0.015 C 
HETATM   17  C8  UNL     1       6.613   0.153   0.217  1.00  0.00     0.015 C 
ENDBRANCH  14  15
ENDBRANCH  12  14
ENDBRANCH  10  12
ENDBRANCH   6  10
BRANCH   9  18
HETATM   18  C10 UNL     1      -2.817   1.612  -1.194  1.00  0.00     0.045 C 
HETATM   19  C11 UNL     1      -3.957   1.519  -0.600  1.00  0.00     0.077 C 
HETATM   20  S3  UNL     1      -5.367   2.645  -0.908  1.00  0.00    -0.055 SA
HETATM   21  C14 UNL     1      -4.524   0.667   0.425  1.00  0.00     0.266 C 
HETATM   22  C12 UNL     1      -6.588   1.327  -0.572  1.00  0.00     0.148 C 
HETATM   23  S4  UNL     1      -8.013   1.164  -1.288  1.00  0.00    -0.052 SA
HETATM   24  N4  UNL     1      -5.930   0.570   0.429  1.00  0.00    -0.303 N 
HETATM   25  C13 UNL     1      -6.677  -0.271   1.401  1.00  0.00     0.161 C 
HETATM   26  O1  UNL     1      -3.795   0.040   1.285  1.00  0.00    -0.266 OA
ENDBRANCH   9  18
TORSDOF 5
