REMARK  15 active torsions:
REMARK  status: ('A' for Active; 'I' for Inactive)
REMARK    1  A    between atoms: C2_2  and  C20_30 
REMARK    2  A    between atoms: C3_3  and  C4_4 
REMARK    3  A    between atoms: C4_4  and  C5_5 
REMARK    4  A    between atoms: C6_6  and  C8_8 
REMARK    5  A    between atoms: C8_8  and  N1_9 
REMARK    6  A    between atoms: C8_8  and  C16_23 
REMARK    7  A    between atoms: N1_9  and  C9_11 
REMARK    8  A    between atoms: C9_11  and  O1_12 
REMARK    9  A    between atoms: C9_11  and  C10_14 
REMARK   10  A    between atoms: C10_14  and  C11_15 
REMARK   11  A    between atoms: C10_14  and  N3_19 
REMARK   12  A    between atoms: C11_15  and  C12_16 
REMARK       I    between atoms: C16_23  and  N4_25 
REMARK   13  A    between atoms: N4_25  and  C17_27 
REMARK   14  A    between atoms: C20_30  and  N5_31 
REMARK   15  A    between atoms: N5_31  and  N6_33 
ROOT
HETATM    1  C8  UNL     1       0.177  -0.987  -0.306  1.00  0.00     0.109 C 
ENDROOT
BRANCH   1   2
HETATM    2  C6  UNL     1       1.516  -0.388  -0.483  1.00  0.00    -0.022 C 
HETATM    3  C5  UNL     1       1.955   0.522   0.399  1.00  0.00     0.064 C 
HETATM    4  C7  UNL     1       2.369  -0.702  -1.640  1.00  0.00     0.051 C 
BRANCH   3   5
HETATM    5  C4  UNL     1       3.120   1.291   0.433  1.00  0.00    -0.127 C 
BRANCH   5   6
HETATM    6  C3  UNL     1       4.172   1.992   0.474  1.00  0.00     0.063 C 
HETATM    7  C2  UNL     1       5.288   2.082  -0.411  1.00  0.00    -0.038 C 
HETATM    8  C1  UNL     1       5.526   1.233  -1.609  1.00  0.00     0.050 C 
BRANCH   7   9
HETATM    9  C20 UNL     1       6.265   2.963  -0.141  1.00  0.00     0.113 C 
BRANCH   9  10
HETATM   10  N5  UNL     1       6.337   3.885   0.903  1.00  0.00    -0.318 N 
ATOM     11  H5  UNL     1       7.145   3.794   1.519  1.00  0.00     0.185 HD
BRANCH  10  12
HETATM   12  N6  UNL     1       5.545   4.804   1.181  1.00  0.00    -0.345 N 
ATOM     13  H62 UNL     1       4.744   4.878   0.553  1.00  0.00     0.176 HD
ATOM     14  H61 UNL     1       5.598   5.478   1.945  1.00  0.00     0.176 HD
ENDBRANCH  10  12
ENDBRANCH   9  10
ENDBRANCH   7   9
ENDBRANCH   5   6
ENDBRANCH   3   5
ENDBRANCH   1   2
BRANCH   1  15
HETATM   15  N1  UNL     1      -0.798   0.011  -0.016  1.00  0.00    -0.331 N 
ATOM     16  H1  UNL     1      -0.462   0.826   0.497  1.00  0.00     0.168 HD
BRANCH  15  17
HETATM   17  C9  UNL     1      -2.149   0.014  -0.344  1.00  0.00     0.172 C 
BRANCH  17  18
HETATM   18  O1  UNL     1      -2.609  -1.062  -0.935  1.00  0.00    -0.345 OA
ATOM     19  H1  UNL     1      -3.532  -1.060  -1.159  1.00  0.00     0.219 HD
ENDBRANCH  17  18
BRANCH  17  20
HETATM   20  C10 UNL     1      -3.105   1.093  -0.130  1.00  0.00     0.171 C 
BRANCH  20  21
HETATM   21  C11 UNL     1      -2.395   2.216   0.523  1.00  0.00     0.169 C 
BRANCH  21  22
HETATM   22  C12 UNL     1      -3.089   3.463   0.802  1.00  0.00     0.236 C 
HETATM   23  N2  UNL     1      -3.540   4.300  -0.305  1.00  0.00    -0.062 NA
HETATM   24  O2  UNL     1      -3.336   3.882   1.932  1.00  0.00    -0.277 OA
ENDBRANCH  21  22
ENDBRANCH  20  21
BRANCH  20  25
HETATM   25  N3  UNL     1      -4.442   0.774   0.131  1.00  0.00    -0.048 N 
HETATM   26  C13 UNL     1      -4.707  -0.665   0.365  1.00  0.00     0.278 C 
HETATM   27  C14 UNL     1      -5.073   1.438   1.264  1.00  0.00     0.278 C 
HETATM   28  C15 UNL     1      -5.331   1.104  -1.012  1.00  0.00     0.278 C 
ENDBRANCH  20  25
ENDBRANCH  17  20
ENDBRANCH  15  17
ENDBRANCH   1  15
BRANCH   1  29
HETATM   29  C16 UNL     1       0.056  -2.308   0.289  1.00  0.00     0.269 C 
HETATM   30  O3  UNL     1      -0.717  -2.422   1.296  1.00  0.00    -0.266 OA
HETATM   31  N4  UNL     1       0.741  -3.451  -0.200  1.00  0.00    -0.352 N 
ATOM     32  H4  UNL     1       1.361  -3.272  -0.990  1.00  0.00     0.163 HD
BRANCH  31  33
HETATM   33  C17 UNL     1       0.704  -4.802   0.231  1.00  0.00     0.076 C 
HETATM   34  C18 UNL     1       1.221  -5.026   1.658  1.00  0.00     0.032 C 
HETATM   35  C19 UNL     1       1.398  -5.764  -0.659  1.00  0.00     0.032 C 
ENDBRANCH  31  33
ENDBRANCH   1  29
TORSDOF 15
