REMARK  7 active torsions:
REMARK  status: ('A' for Active; 'I' for Inactive)
REMARK    1  A    between atoms: O1_2  and  C2_3 
REMARK    2  A    between atoms: C2_3  and  C5_6 
REMARK    3  A    between atoms: C5_6  and  N1_7 
REMARK    4  A    between atoms: C8_12  and  C9_13 
REMARK       I    between atoms: N3_17  and  C13_18 
REMARK       I    between atoms: C13_18  and  N4_20 
REMARK    5  A    between atoms: N4_20  and  C14_22 
REMARK       I    between atoms: N5_25  and  C17_26 
REMARK    6  A    between atoms: C17_26  and  C18_28 
REMARK    7  A    between atoms: C19_29  and  C20_30 
ROOT
HETATM    1  N1  UNL     1      -4.540   0.385   0.070  1.00  0.00    -0.292 N 
HETATM    2  N2  UNL     1      -3.540   0.031   0.936  1.00  0.00    -0.300 N 
ATOM      3  H2  UNL     1      -3.693  -0.184   1.921  1.00  0.00     0.187 HD
HETATM    4  C6  UNL     1      -2.353  -0.001   0.351  1.00  0.00     0.053 A 
HETATM    5  C7  UNL     1      -2.534   0.337  -0.924  1.00  0.00     0.010 A 
HETATM    6  C8  UNL     1      -3.937   0.579  -1.095  1.00  0.00     0.042 A 
HETATM    7  C12 UNL     1      -1.242   0.305  -1.650  1.00  0.00     0.170 C 
HETATM    8  N3  UNL     1      -0.270   0.031  -0.652  1.00  0.00    -0.324 N 
HETATM    9  C13 UNL     1       1.178   0.109  -0.742  1.00  0.00     0.319 C 
HETATM   10  O2  UNL     1       1.700   0.519  -1.756  1.00  0.00    -0.247 OA
HETATM   11  N4  UNL     1       1.914  -0.303   0.380  1.00  0.00    -0.338 N 
ATOM     12  H4  UNL     1       1.349  -0.640   1.159  1.00  0.00     0.164 HD
HETATM   13  C24 UNL     1      -0.913  -0.344   0.588  1.00  0.00     0.187 C 
ENDROOT
BRANCH  11  14
HETATM   14  C14 UNL     1       3.309  -0.328   0.610  1.00  0.00     0.089 C 
HETATM   15  C15 UNL     1       3.594  -0.422   2.064  1.00  0.00     0.045 C 
HETATM   16  C16 UNL     1       5.086  -0.592   2.307  1.00  0.00     0.127 C 
HETATM   17  N5  UNL     1       5.801  -0.349   1.062  1.00  0.00    -0.352 N 
HETATM   18  C17 UNL     1       6.692   0.717   0.975  1.00  0.00     0.228 C 
HETATM   19  C22 UNL     1       5.528  -1.241  -0.021  1.00  0.00     0.127 C 
HETATM   20  O3  UNL     1       6.895   1.386   2.066  1.00  0.00    -0.273 OA
HETATM   21  C23 UNL     1       4.007  -1.515  -0.075  1.00  0.00     0.045 C 
BRANCH  18  22
HETATM   22  C18 UNL     1       7.429   1.189  -0.203  1.00  0.00     0.135 A 
HETATM   23  C19 UNL     1       8.952   1.339  -0.035  1.00  0.00     0.142 A 
HETATM   24  C21 UNL     1       8.070   2.502  -0.254  1.00  0.00     0.140 A 
HETATM   25 CL1  UNL     1       7.990   3.666   1.078  1.00  0.00    -0.100 Cl
HETATM   26 CL2  UNL     1       8.195   3.275  -1.869  1.00  0.00    -0.100 Cl
BRANCH  23  27
HETATM   27  C20 UNL     1       9.741   0.784  -1.177  1.00  0.00     0.181 C 
HETATM   28  O4  UNL     1      10.817   0.189  -1.066  1.00  0.00    -0.648 OA
HETATM   29  O5  UNL     1       9.162   0.982  -2.455  1.00  0.00    -0.648 OA
ENDBRANCH  23  27
ENDBRANCH  18  22
ENDBRANCH  11  14
BRANCH   6  30
HETATM   30  C9  UNL     1      -4.406   1.082  -2.401  1.00  0.00     0.038 A 
HETATM   31  C10 UNL     1      -5.382   0.315  -3.219  1.00  0.00     0.011 A 
HETATM   32  C11 UNL     1      -5.783   1.639  -2.599  1.00  0.00     0.011 A 
ENDBRANCH   6  30
BRANCH   1  33
HETATM   33  C5  UNL     1      -5.856   0.432   0.613  1.00  0.00     0.186 C 
BRANCH  33  34
HETATM   34  C2  UNL     1      -6.533  -0.883   0.933  1.00  0.00     0.071 C 
HETATM   35  C3  UNL     1      -5.625  -1.626   1.937  1.00  0.00     0.047 C 
HETATM   36  C4  UNL     1      -7.850  -0.646   1.618  1.00  0.00     0.047 C 
BRANCH  34  37
HETATM   37  O1  UNL     1      -6.706  -1.651  -0.172  1.00  0.00    -0.384 OA
HETATM   38  C1  UNL     1      -7.819  -1.312  -0.898  1.00  0.00     0.202 C 
ENDBRANCH  34  37
ENDBRANCH  33  34
ENDBRANCH   1  33
TORSDOF 7
