REMARK  8 active torsions:
REMARK  status: ('A' for Active; 'I' for Inactive)
REMARK    1  A    between atoms: C2_2  and  C3_3 
REMARK    2  A    between atoms: C2_2  and  N1_10 
REMARK    3  A    between atoms: C3_3  and  O1_4 
REMARK    4  A    between atoms: C3_3  and  C4_6 
REMARK    5  A    between atoms: C9_14  and  C10_15 
REMARK       I    between atoms: C10_15  and  N2_17 
REMARK    6  A    between atoms: N2_17  and  C11_19 
REMARK    7  A    between atoms: C11_19  and  C12_20 
REMARK    8  A    between atoms: C12_20  and  O3_21 
ROOT
HETATM    1  N1  UNL     1       1.721  -1.042   0.025  1.00  0.00    -0.393 N 
HETATM    2  C6  UNL     1       1.654  -1.942  -1.092  1.00  0.00     0.118 C 
HETATM    3  C7  UNL     1       0.253  -2.579  -1.042  1.00  0.00     0.022 C 
HETATM    4  C8  UNL     1      -0.108  -2.398   0.392  1.00  0.00     0.036 C 
HETATM    5  C9  UNL     1       0.497  -1.000   0.676  1.00  0.00     0.172 C 
ENDROOT
BRANCH   5   6
HETATM    6  C10 UNL     1      -0.544  -0.074   0.115  1.00  0.00     0.241 C 
HETATM    7  O2  UNL     1      -0.239   0.520  -0.904  1.00  0.00    -0.271 OA
HETATM    8  N2  UNL     1      -1.744   0.011   0.811  1.00  0.00    -0.345 N 
ATOM      9  H2  UNL     1      -1.755  -0.585   1.639  1.00  0.00     0.163 HD
BRANCH   8  10
HETATM   10  C11 UNL     1      -2.956   0.727   0.647  1.00  0.00     0.091 A 
HETATM   11  C13 UNL     1      -3.723   0.568  -0.651  1.00  0.00     0.012 A 
HETATM   12  C14 UNL     1      -5.250   0.436  -0.588  1.00  0.00     0.020 C 
HETATM   13  C15 UNL     1      -3.114  -0.100  -1.848  1.00  0.00     0.020 C 
HETATM   14  C16 UNL     1      -3.246   1.905  -0.162  1.00  0.00     0.113 A 
HETATM   15 BR1  UNL     1      -2.070   2.816  -1.343  1.00  0.00    -0.069 Br
HETATM   16 BR2  UNL     1      -4.592   3.121   0.627  1.00  0.00    -0.069 Br
BRANCH  10  17
HETATM   17  C12 UNL     1      -3.971   0.499   1.829  1.00  0.00     0.198 C 
BRANCH  17  18
HETATM   18  O3  UNL     1      -3.441   0.905   3.020  1.00  0.00    -0.398 OA
ATOM     19  H3  UNL     1      -4.053   0.767   3.733  1.00  0.00     0.209 HD
ENDBRANCH  17  18
ENDBRANCH  10  17
ENDBRANCH   8  10
ENDBRANCH   5   6
BRANCH   1  20
HETATM   20  C2  UNL     1       2.448   0.181  -0.222  1.00  0.00     0.107 C 
HETATM   21  C1  UNL     1       2.274   1.080   0.969  1.00  0.00     0.034 C 
BRANCH  20  22
HETATM   22  C3  UNL     1       3.913  -0.184  -0.348  1.00  0.00     0.178 C 
BRANCH  22  23
HETATM   23  O1  UNL     1       4.061  -1.161  -1.379  1.00  0.00    -0.390 OA
ATOM     24  H1  UNL     1       4.980  -1.390  -1.458  1.00  0.00     0.210 HD
ENDBRANCH  22  23
BRANCH  22  25
HETATM   25  C4  UNL     1       4.844   0.896  -0.749  1.00  0.00     0.137 C 
HETATM   26  C5  UNL     1       4.989   2.096   0.119  1.00  0.00     0.053 C 
HETATM   27 CL1  UNL     1       6.502   0.159  -0.787  1.00  0.00    -0.099 Cl
HETATM   28 CL2  UNL     1       4.563   1.411  -2.447  1.00  0.00    -0.099 Cl
ENDBRANCH  22  25
ENDBRANCH  20  22
ENDBRANCH   1  20
TORSDOF 8
