REMARK  1 active torsions:
REMARK  status: ('A' for Active; 'I' for Inactive)
REMARK    1  A    between atoms: C1_2  and  C2_4 
ROOT
HETATM    1  C2  UNL     1      -1.679  -0.522  -0.500  1.00  0.00     0.003 C 
HETATM    2  C3  UNL     1      -0.794  -1.506  -1.011  1.00  0.00    -0.015 C 
HETATM    3  C4  UNL     1       0.307  -2.186  -0.184  1.00  0.00     0.028 C 
HETATM    4  C5  UNL     1       1.225  -1.101   0.049  1.00  0.00     0.004 C 
HETATM    5  C6  UNL     1       2.464  -0.909   0.739  1.00  0.00     0.000 C 
HETATM    6  C7  UNL     1       2.696   0.616   0.583  1.00  0.00     0.000 C 
HETATM    7  C8  UNL     1       1.477   1.488   0.629  1.00  0.00     0.000 C 
HETATM    8  C9  UNL     1       0.888   1.951  -0.642  1.00  0.00     0.000 C 
HETATM    9  C10 UNL     1      -0.513   1.691  -1.058  1.00  0.00     0.005 C 
HETATM   10  C11 UNL     1      -1.395   0.887  -0.180  1.00  0.00     0.043 C 
ENDROOT
BRANCH   1  11
HETATM   11  C1  UNL     1      -2.504  -1.042   0.663  1.00  0.00     0.260 C 
HETATM   12  N1  UNL     1      -3.448  -0.182   1.312  1.00  0.00    -0.058 NA
HETATM   13  O1  UNL     1      -2.415  -2.194   1.103  1.00  0.00    -0.271 OA
ENDBRANCH   1  11
TORSDOF 1
