REMARK  4 active torsions:
REMARK  status: ('A' for Active; 'I' for Inactive)
REMARK    1  A    between atoms: C2_2  and  C3_3 
REMARK    2  A    between atoms: C9_10  and  C10_11 
REMARK    3  A    between atoms: C10_11  and  C11_12 
REMARK    4  A    between atoms: C11_12  and  O2_14 
ROOT
HETATM    1  C3  UNL     1      -2.861  -0.019  -0.306  1.00  0.00     0.075 C 
HETATM    2  C4  UNL     1      -3.450  -1.379   0.074  1.00  0.00     0.050 C 
HETATM    3  C5  UNL     1      -2.370  -0.140  -1.734  1.00  0.00     0.045 C 
HETATM    4  C6  UNL     1      -0.965  -0.698  -1.458  1.00  0.00     0.044 C 
HETATM    5  C7  UNL     1      -0.628   0.046  -0.190  1.00  0.00     0.086 C 
HETATM    6  C8  UNL     1       0.108   1.315  -0.611  1.00  0.00     0.206 C 
HETATM    7  O1  UNL     1       1.373   0.776  -0.927  1.00  0.00    -0.383 OA
HETATM    8  C9  UNL     1       1.671   0.119   0.273  1.00  0.00     0.127 C 
HETATM    9  C13 UNL     1       0.417  -0.676   0.606  1.00  0.00     0.072 C 
HETATM   10  O3  UNL     1      -1.789   0.301   0.483  1.00  0.00    -0.363 OA
ENDROOT
BRANCH   8  11
HETATM   11  C10 UNL     1       2.812  -0.850   0.103  1.00  0.00     0.063 C 
BRANCH  11  12
HETATM   12  C11 UNL     1       4.073  -0.182  -0.349  1.00  0.00     0.116 C 
HETATM   13  C12 UNL     1       4.519   0.854   0.646  1.00  0.00     0.039 C 
BRANCH  12  14
HETATM   14  O2  UNL     1       5.056  -1.176  -0.467  1.00  0.00    -0.396 OA
ATOM     15  H2  UNL     1       5.856  -0.752  -0.754  1.00  0.00     0.210 HD
ENDBRANCH  12  14
ENDBRANCH  11  12
ENDBRANCH   8  11
BRANCH   1  16
HETATM   16  C2  UNL     1      -3.962   0.981  -0.228  1.00  0.00     0.000 C 
HETATM   17  C1  UNL     1      -4.241   1.675   0.845  1.00  0.00     0.010 C 
ENDBRANCH   1  16
TORSDOF 4
