REMARK  5 active torsions:
REMARK  status: ('A' for Active; 'I' for Inactive)
REMARK    1  A    between atoms: C2_2  and  N1_3 
REMARK       I    between atoms: N1_3  and  C3_5 
REMARK       I    between atoms: C3_5  and  N2_7 
REMARK    2  A    between atoms: C8_15  and  N5_16 
REMARK       I    between atoms: N5_16  and  C9_18 
REMARK    3  A    between atoms: C9_18  and  C10_20 
REMARK    4  A    between atoms: C10_20  and  C11_21 
REMARK    5  A    between atoms: C14_24  and  C15_25 
ROOT
HETATM    1  C15 UNL     1       1.913  -4.255  -0.220  1.00  0.00     0.136 C 
HETATM    2  C16 UNL     1       3.186  -4.899  -0.017  1.00  0.00     0.059 C 
HETATM    3  N6  UNL     1       4.185  -5.420   0.152  1.00  0.00    -0.197 NA
ENDROOT
BRANCH   1   4
HETATM    4  C14 UNL     1       1.924  -2.893   0.441  1.00  0.00     0.069 C 
HETATM    5  C6  UNL     1       0.603  -2.208   0.238  1.00  0.00     0.044 A 
HETATM    6  C5  UNL     1       0.502  -0.858   0.175  1.00  0.00     0.030 A 
HETATM    7  N3  UNL     1      -0.614  -2.700   0.088  1.00  0.00    -0.300 N 
HETATM    8  C4  UNL     1       1.647   0.030   0.305  1.00  0.00     0.172 C 
HETATM    9  C8  UNL     1      -0.876  -0.575  -0.027  1.00  0.00     0.134 A 
HETATM   10  N2  UNL     1       2.884  -0.645   0.012  1.00  0.00    -0.329 N 
HETATM   11  C3  UNL     1       4.038   0.157  -0.162  1.00  0.00     0.318 C 
HETATM   12  C17 UNL     1       3.038  -2.055  -0.114  1.00  0.00     0.139 C 
HETATM   13  N1  UNL     1       3.954   1.568  -0.042  1.00  0.00    -0.343 N 
HETATM   14  O1  UNL     1       5.138  -0.373  -0.421  1.00  0.00    -0.247 OA
ATOM     15  H1  UNL     1       3.049   1.988   0.171  1.00  0.00     0.164 HD
HETATM   16  N4  UNL     1      -1.534  -1.735  -0.074  1.00  0.00    -0.280 N 
HETATM   17  C7  UNL     1      -2.969  -1.976  -0.263  1.00  0.00     0.179 C 
ATOM     18  H3  UNL     1      -0.830  -3.697   0.094  1.00  0.00     0.187 HD
BRANCH  13  19
HETATM   19  C2  UNL     1       5.097   2.435  -0.209  1.00  0.00     0.120 C 
HETATM   20  C1  UNL     1       4.681   3.863  -0.021  1.00  0.00     0.026 C 
ENDBRANCH  13  19
BRANCH   9  21
HETATM   21  N5  UNL     1      -1.327   0.616  -0.133  1.00  0.00    -0.311 N 
HETATM   22  C9  UNL     1      -2.590   1.125  -0.326  1.00  0.00     0.223 C 
HETATM   23  O2  UNL     1      -2.980   1.350  -1.520  1.00  0.00    -0.273 OA
ATOM     24  H5  UNL     1      -0.605   1.333  -0.060  1.00  0.00     0.170 HD
BRANCH  22  25
HETATM   25  C10 UNL     1      -3.475   1.405   0.830  1.00  0.00     0.107 C 
BRANCH  25  26
HETATM   26  C11 UNL     1      -4.807   1.947   0.429  1.00  0.00    -0.014 C 
HETATM   27  C12 UNL     1      -4.714   3.243  -0.334  1.00  0.00     0.010 C 
HETATM   28  C13 UNL     1      -5.658   0.955  -0.316  1.00  0.00     0.010 C 
ENDBRANCH  25  26
ENDBRANCH  22  25
ENDBRANCH   9  21
ENDBRANCH   1   4
TORSDOF 5
