REMARK  4 active torsions:
REMARK  status: ('A' for Active; 'I' for Inactive)
REMARK    1  A    between atoms: C3_3  and  C4_4 
REMARK    2  A    between atoms: C4_4  and  N1_5 
REMARK       I    between atoms: N1_5  and  C5_7 
REMARK    3  A    between atoms: C5_7  and  C6_9 
REMARK       I    between atoms: N2_14  and  C11_15 
REMARK    4  A    between atoms: C11_15  and  C12_17 
ROOT
HETATM    1  C1  UNL     1       5.836   3.317  -3.454  1.00  0.00     0.012 C 
HETATM    2  C2  UNL     1       5.373   2.436  -2.775  1.00  0.00    -0.116 C 
HETATM    3  C3  UNL     1       4.784   1.358  -1.941  1.00  0.00     0.112 C 
ENDROOT
BRANCH   3   4
HETATM    4  C4  UNL     1       4.778   1.791  -0.480  1.00  0.00     0.134 C 
BRANCH   4   5
HETATM    5  N1  UNL     1       4.219   0.774   0.369  1.00  0.00    -0.358 N 
HETATM    6  C5  UNL     1       2.926   0.246   0.311  1.00  0.00     0.240 C 
HETATM    7  O1  UNL     1       2.128   0.685  -0.570  1.00  0.00    -0.271 OA
ATOM      8  H1  UNL     1       4.832   0.397   1.092  1.00  0.00     0.162 HD
BRANCH   6   9
HETATM    9  C6  UNL     1       2.412  -0.802   1.215  1.00  0.00     0.179 C 
HETATM   10  C7  UNL     1       3.265  -2.044   1.253  1.00  0.00     0.035 C 
HETATM   11  C8  UNL     1       3.076  -2.870   0.028  1.00  0.00     0.004 C 
HETATM   12  C9  UNL     1       1.637  -3.308  -0.055  1.00  0.00     0.020 C 
HETATM   13  C10 UNL     1       0.690  -2.120  -0.080  1.00  0.00     0.127 C 
HETATM   14  N2  UNL     1       1.024  -1.140   0.901  1.00  0.00    -0.338 N 
HETATM   15  C11 UNL     1       0.018  -0.461   1.626  1.00  0.00     0.224 C 
HETATM   16  O2  UNL     1       0.338   0.400   2.524  1.00  0.00    -0.273 OA
BRANCH  15  17
HETATM   17  C12 UNL     1      -1.422  -0.700   1.393  1.00  0.00     0.078 C 
HETATM   18  C13 UNL     1      -2.169  -0.073   2.564  1.00  0.00     0.016 C 
HETATM   19  C14 UNL     1      -3.623   0.130   2.324  1.00  0.00     0.034 C 
HETATM   20  C15 UNL     1      -3.832   0.926   1.031  1.00  0.00     0.190 C 
HETATM   21  N3  UNL     1      -5.219   1.302   0.863  1.00  0.00    -0.070 N 
HETATM   22  C19 UNL     1      -3.325   0.047  -0.062  1.00  0.00     0.017 C 
HETATM   23  C16 UNL     1      -5.330   1.982  -0.405  1.00  0.00     0.232 C 
ATOM     24  H32 UNL     1      -5.859   0.513   0.949  1.00  0.00     0.277 HD
ATOM     25  H31 UNL     1      -5.580   1.851   1.643  1.00  0.00     0.277 HD
HETATM   26  C17 UNL     1      -5.132   0.935  -1.495  1.00  0.00     0.028 C 
HETATM   27  C18 UNL     1      -3.685   0.491  -1.434  1.00  0.00     0.008 C 
HETATM   28  C20 UNL     1      -1.801  -0.020   0.097  1.00  0.00     0.020 C 
ENDBRANCH  15  17
ENDBRANCH   6   9
ENDBRANCH   4   5
ENDBRANCH   3   4
TORSDOF 4
