REMARK  4 active torsions:
REMARK  status: ('A' for Active; 'I' for Inactive)
REMARK       I    between atoms: N1_4  and  C4_5 
REMARK    1  A    between atoms: C4_5  and  C5_7 
REMARK    2  A    between atoms: C5_7  and  C6_8 
REMARK    3  A    between atoms: C6_8  and  C7_9 
REMARK       I    between atoms: C7_9  and  N2_11 
REMARK    4  A    between atoms: N2_11  and  C8_13 
ROOT
HETATM    1  C7  UNL     1      -0.191  -0.701   0.194  1.00  0.00     0.218 C 
HETATM    2  O2  UNL     1       0.064   0.335   0.867  1.00  0.00    -0.274 OA
HETATM    3  N2  UNL     1      -1.548  -0.932  -0.162  1.00  0.00    -0.356 N 
ATOM      4  H2  UNL     1      -1.782  -1.762  -0.707  1.00  0.00     0.162 HD
ENDROOT
BRANCH   1   5
HETATM    5  C6  UNL     1       0.873  -1.627  -0.205  1.00  0.00     0.112 C 
BRANCH   5   6
HETATM    6  C5  UNL     1       2.258  -1.197   0.170  1.00  0.00     0.112 C 
BRANCH   6   7
HETATM    7  C4  UNL     1       2.558   0.085  -0.519  1.00  0.00     0.220 C 
HETATM    8  N1  UNL     1       3.758   0.754  -0.177  1.00  0.00    -0.349 N 
HETATM    9  C3  UNL     1       4.655   0.211   0.803  1.00  0.00     0.158 C 
HETATM   10  C18 UNL     1       4.075   1.998  -0.828  1.00  0.00     0.153 C 
HETATM   11  C2  UNL     1       6.050   0.217   0.162  1.00  0.00     0.199 C 
HETATM   12  C1  UNL     1       7.064  -0.468   1.037  1.00  0.00     0.041 C 
HETATM   13  N3  UNL     1       6.373   1.609  -0.068  1.00  0.00    -0.068 N 
HETATM   14  C19 UNL     1       5.555   2.118  -1.126  1.00  0.00     0.252 C 
ATOM     15  H32 UNL     1       6.297   2.168   0.782  1.00  0.00     0.277 HD
ATOM     16  H31 UNL     1       7.367   1.750  -0.247  1.00  0.00     0.277 HD
HETATM   17  O1  UNL     1       1.762   0.558  -1.384  1.00  0.00    -0.273 OA
ENDBRANCH   6   7
ENDBRANCH   5   6
ENDBRANCH   1   5
BRANCH   3  18
HETATM   18  C8  UNL     1      -2.608  -0.024   0.226  1.00  0.00     0.092 C 
HETATM   19  C9  UNL     1      -3.625  -0.727   1.074  1.00  0.00     0.009 C 
HETATM   20  C10 UNL     1      -4.281  -1.851   0.315  1.00  0.00     0.011 C 
HETATM   21  C14 UNL     1      -4.720   0.250   1.458  1.00  0.00     0.011 C 
HETATM   22  C11 UNL     1      -4.918  -1.275  -0.918  1.00  0.00    -0.013 C 
HETATM   23  C12 UNL     1      -5.997  -0.307  -0.537  1.00  0.00     0.009 C 
HETATM   24  C17 UNL     1      -3.937  -0.577  -1.814  1.00  0.00     0.011 C 
HETATM   25  C13 UNL     1      -5.341   0.845   0.209  1.00  0.00    -0.013 C 
HETATM   26  C15 UNL     1      -4.307   1.532  -0.629  1.00  0.00     0.011 C 
HETATM   27  C16 UNL     1      -3.255   0.515  -1.017  1.00  0.00     0.009 C 
ENDBRANCH   3  18
TORSDOF 4
