REMARK  3 active torsions:
REMARK  status: ('A' for Active; 'I' for Inactive)
REMARK    1  A    between atoms: C2_2  and  C4_4 
REMARK    2  A    between atoms: C14_14  and  C15_15 
REMARK    3  A    between atoms: C16_18  and  C17_19 
ROOT
HETATM    1  C4  UNL     1       1.682  -0.020   0.096  1.00  0.00    -0.065 C 
HETATM    2  C5  UNL     1       1.634   0.978   1.224  1.00  0.00     0.036 C 
HETATM    3  C6  UNL     1       0.418   1.749   1.452  1.00  0.00     0.009 C 
HETATM    4  C7  UNL     1      -0.847   0.894   1.492  1.00  0.00    -0.006 C 
HETATM    5  C8  UNL     1      -0.502  -0.392   2.155  1.00  0.00     0.006 C 
HETATM    6  C9  UNL     1       0.226  -1.384   1.338  1.00  0.00     0.015 C 
HETATM    7  C10 UNL     1       0.522  -0.876  -0.116  1.00  0.00    -0.006 C 
HETATM    8  C11 UNL     1       0.990  -2.170  -0.791  1.00  0.00     0.021 C 
HETATM    9  C12 UNL     1      -0.742  -0.400  -0.683  1.00  0.00     0.026 C 
HETATM   10  C13 UNL     1      -0.696   0.132  -2.102  1.00  0.00     0.024 C 
HETATM   11  C14 UNL     1      -1.948  -1.246  -0.592  1.00  0.00     0.095 C 
HETATM   12  O2  UNL     1      -2.728  -0.782   0.510  1.00  0.00    -0.335 OA
HETATM   13  C16 UNL     1      -2.775   0.565   0.072  1.00  0.00     0.234 C 
HETATM   14  C18 UNL     1      -1.271   0.821   0.091  1.00  0.00     0.045 C 
ENDROOT
BRANCH   1  15
HETATM   15  C2  UNL     1       2.650   0.334  -0.954  1.00  0.00    -0.068 C 
HETATM   16  C1  UNL     1       2.740  -0.016  -2.206  1.00  0.00     0.018 C 
HETATM   17  C3  UNL     1       3.783   1.294  -0.571  1.00  0.00     0.047 C 
ENDBRANCH   1  15
BRANCH  11  18
HETATM   18  C15 UNL     1      -1.933  -2.669  -0.703  1.00  0.00     0.291 C 
HETATM   19  O1  UNL     1      -2.580  -3.351   0.114  1.00  0.00    -0.300 OA
ENDBRANCH  11  18
BRANCH  13  20
HETATM   20  C17 UNL     1      -3.501   1.423   0.997  1.00  0.00     0.204 C 
HETATM   21  O3  UNL     1      -4.019   0.993   2.050  1.00  0.00    -0.646 OA
HETATM   22  O4  UNL     1      -3.628   2.770   0.705  1.00  0.00    -0.646 OA
ENDBRANCH  13  20
TORSDOF 3
