REMARK  7 active torsions:
REMARK  status: ('A' for Active; 'I' for Inactive)
REMARK    1  A    between atoms: C3_3  and  C4_4 
REMARK    2  A    between atoms: C5_5  and  N1_6 
REMARK    3  A    between atoms: N1_6  and  C6_8 
REMARK    4  A    between atoms: C7_9  and  O1_10 
REMARK    5  A    between atoms: C8_12  and  C9_13 
REMARK    6  A    between atoms: C14_26  and  N6_27 
REMARK    7  A    between atoms: N6_27  and  C15_29 
ROOT
HETATM    1  C9  UNL     1       3.082   2.634   1.197  1.00  0.00     0.126 C 
HETATM    2  C10 UNL     1       3.722   2.905   2.518  1.00  0.00     0.031 C 
HETATM    3  C11 UNL     1       3.847   3.119   0.069  1.00  0.00     0.068 C 
HETATM    4  N2  UNL     1       4.470   3.492  -0.823  1.00  0.00    -0.197 NA
ENDROOT
BRANCH   1   5
HETATM    5  C8  UNL     1       2.721   1.234   1.074  1.00  0.00     0.010 A 
HETATM    6  C7  UNL     1       2.124   0.678  -0.035  1.00  0.00     0.105 A 
HETATM    7  C6  UNL     1       1.828  -0.644  -0.044  1.00  0.00     0.112 A 
HETATM    8  C13 UNL     1       2.104  -1.458   1.021  1.00  0.00     0.129 A 
HETATM    9  N3  UNL     1       2.687  -0.915   2.104  1.00  0.00    -0.350 N 
HETATM   10  N4  UNL     1       1.838  -2.714   1.047  1.00  0.00    -0.384 N 
HETATM   11  C12 UNL     1       2.983   0.383   2.127  1.00  0.00     0.101 A 
ATOM     12  H3  UNL     1       2.903  -1.500   2.911  1.00  0.00     0.166 HD
ATOM     13  H42 UNL     1       1.396  -3.126   0.225  1.00  0.00     0.157 HD
ATOM     14  H41 UNL     1       2.044  -3.321   1.841  1.00  0.00     0.157 HD
BRANCH   6  15
HETATM   15  O1  UNL     1       1.849   1.485  -1.095  1.00  0.00    -0.358 OA
ATOM     16  H1  UNL     1       2.057   2.412  -1.089  1.00  0.00     0.217 HD
ENDBRANCH   6  15
BRANCH   7  17
HETATM   17  N1  UNL     1       1.205  -1.236  -1.196  1.00  0.00    -0.336 N 
ATOM     18  H1  UNL     1       1.787  -1.619  -1.941  1.00  0.00     0.168 HD
BRANCH  17  19
HETATM   19  C5  UNL     1      -0.199  -1.295  -1.311  1.00  0.00     0.137 A 
HETATM   20  C4  UNL     1      -0.825  -1.861  -2.411  1.00  0.00     0.077 A 
HETATM   21  C20 UNL     1      -2.214  -1.856  -2.401  1.00  0.00     0.273 A 
HETATM   22  N7  UNL     1      -2.904  -1.316  -1.353  1.00  0.00    -0.155 N 
HETATM   23  O2  UNL     1      -2.879  -2.339  -3.340  1.00  0.00    -0.267 OA
HETATM   24  C14 UNL     1      -2.275  -0.779  -0.310  1.00  0.00     0.682 A 
ATOM     25  H7  UNL     1      -3.924  -1.324  -1.370  1.00  0.00     0.187 HD
HETATM   26  N5  UNL     1      -0.953  -0.784  -0.319  1.00  0.00    -0.176 N 
ATOM     27  H5  UNL     1      -0.471  -0.373   0.480  1.00  0.00     0.186 HD
BRANCH  20  28
HETATM   28  C3  UNL     1      -0.088  -2.427  -3.508  1.00  0.00     0.016 C 
HETATM   29  C2  UNL     1      -0.490  -2.990  -4.602  1.00  0.00    -0.030 C 
HETATM   30  C1  UNL     1       0.477  -3.520  -5.630  1.00  0.00     0.036 C 
ENDBRANCH  20  28
BRANCH  24  31
HETATM   31  N6  UNL     1      -3.014  -0.291   0.640  1.00  0.00    -0.221 N 
ATOM     32  H6  UNL     1      -4.031  -0.327   0.569  1.00  0.00     0.178 HD
BRANCH  31  33
HETATM   33  C15 UNL     1      -2.397   0.295   1.781  1.00  0.00     0.099 C 
HETATM   34  C16 UNL     1      -3.410   0.528   2.890  1.00  0.00     0.026 C 
HETATM   35  C17 UNL     1      -3.626   2.024   2.970  1.00  0.00     0.002 C 
HETATM   36  C18 UNL     1      -3.204   2.499   1.614  1.00  0.00     0.002 C 
HETATM   37  C19 UNL     1      -1.922   1.697   1.397  1.00  0.00     0.026 C 
ENDBRANCH  31  33
ENDBRANCH  24  31
ENDBRANCH  17  19
ENDBRANCH   7  17
ENDBRANCH   1   5
TORSDOF 7
