REMARK  6 active torsions:
REMARK  status: ('A' for Active; 'I' for Inactive)
REMARK    1  A    between atoms: O1_2  and  C2_3 
REMARK    2  A    between atoms: C3_6  and  N2_7 
REMARK    3  A    between atoms: C7_15  and  O2_16 
REMARK    4  A    between atoms: O2_16  and  C8_17 
REMARK    5  A    between atoms: C8_17  and  N6_21 
REMARK    6  A    between atoms: N6_21  and  N7_23 
ROOT
HETATM    1  C2  UNL     1      -0.603   1.079  -0.603  1.00  0.00     0.194 A 
HETATM    2  N1  UNL     1      -1.935   0.975  -0.825  1.00  0.00    -0.168 N 
ATOM      3  H1  UNL     1      -2.400   1.692  -1.382  1.00  0.00     0.186 HD
HETATM    4  C3  UNL     1      -2.663  -0.040  -0.337  1.00  0.00     0.680 A 
HETATM    5  N3  UNL     1      -2.114  -1.015   0.403  1.00  0.00    -0.175 N 
HETATM    6  C4  UNL     1      -2.894  -2.121   0.939  1.00  0.00     0.176 C 
HETATM    7  C5  UNL     1      -0.779  -0.919   0.631  1.00  0.00     0.170 A 
HETATM    8  C6  UNL     1      -0.160  -1.936   1.413  1.00  0.00     0.121 C 
HETATM    9  N4  UNL     1       0.354  -2.744   2.049  1.00  0.00    -0.190 NA
HETATM   10  C7  UNL     1       0.002   0.098   0.153  1.00  0.00     0.168 A 
ENDROOT
BRANCH  10  11
HETATM   11  O2  UNL     1       1.371   0.192   0.390  1.00  0.00    -0.271 OA
BRANCH  11  12
HETATM   12  C8  UNL     1       2.316  -0.376  -0.452  1.00  0.00     0.237 C 
HETATM   13  N5  UNL     1       2.020  -0.418  -1.705  1.00  0.00    -0.364 N 
ATOM     14  H52 UNL     1       1.140  -0.058  -2.075  1.00  0.00     0.159 HD
ATOM     15  H51 UNL     1       2.715  -0.836  -2.324  1.00  0.00     0.159 HD
BRANCH  12  16
HETATM   16  N6  UNL     1       3.542  -0.878   0.063  1.00  0.00    -0.272 N 
ATOM     17  H6  UNL     1       3.730  -1.876  -0.036  1.00  0.00     0.190 HD
BRANCH  16  18
HETATM   18  N7  UNL     1       4.500  -0.094   0.693  1.00  0.00    -0.342 N 
ATOM     19  H72 UNL     1       4.295   0.901   0.783  1.00  0.00     0.176 HD
ATOM     20  H71 UNL     1       5.380  -0.454   1.063  1.00  0.00     0.176 HD
ENDBRANCH  16  18
ENDBRANCH  12  16
ENDBRANCH  11  12
ENDBRANCH  10  11
BRANCH   4  21
HETATM   21  N2  UNL     1      -3.926  -0.081  -0.583  1.00  0.00    -0.234 N 
ATOM     22  H22 UNL     1      -4.343   0.660  -1.146  1.00  0.00     0.174 HD
ATOM     23  H21 UNL     1      -4.480  -0.853  -0.212  1.00  0.00     0.174 HD
ENDBRANCH   4  21
BRANCH   1  24
HETATM   24  O1  UNL     1       0.107   2.145  -1.129  1.00  0.00    -0.338 OA
HETATM   25  C1  UNL     1       0.195   3.401  -0.481  1.00  0.00     0.211 C 
ENDBRANCH   1  24
TORSDOF 6
