REMARK  11 active torsions:
REMARK  status: ('A' for Active; 'I' for Inactive)
REMARK    1  A    between atoms: C2_2  and  O2_4 
REMARK    2  A    between atoms: O2_4  and  C3_5 
REMARK    3  A    between atoms: C5_7  and  O3_8 
REMARK    4  A    between atoms: O3_8  and  C6_9 
REMARK    5  A    between atoms: C6_9  and  O4_11 
REMARK    6  A    between atoms: C6_9  and  C8_13 
REMARK    7  A    between atoms: C9_14  and  C10_15 
REMARK    8  A    between atoms: C10_15  and  N1_16 
REMARK    9  A    between atoms: C14_20  and  C15_21 
REMARK   10  A    between atoms: C15_21  and  O5_22 
REMARK   11  A    between atoms: O5_22  and  C16_23 
ROOT
HETATM    1  C3  UNL     1      -2.702  -1.588   1.456  1.00  0.00     0.171 C 
HETATM    2  C4  UNL     1      -1.565  -0.970   2.251  1.00  0.00     0.074 C 
HETATM    3  C5  UNL     1      -0.744  -0.329   1.070  1.00  0.00     0.162 C 
HETATM    4  C13 UNL     1      -1.864   0.271   0.328  1.00  0.00    -0.009 A 
HETATM    5  C14 UNL     1      -1.914   1.416  -0.494  1.00  0.00    -0.022 A 
HETATM    6  C17 UNL     1      -3.095   1.791  -1.104  1.00  0.00     0.049 A 
HETATM    7  C18 UNL     1      -4.230   1.043  -0.907  1.00  0.00     0.106 A 
HETATM    8  C19 UNL     1      -4.179  -0.077  -0.101  1.00  0.00     0.114 A 
HETATM    9  C20 UNL     1      -3.015  -0.474   0.521  1.00  0.00     0.017 A 
HETATM   10  O7  UNL     1      -5.469  -0.624  -0.091  1.00  0.00    -0.322 OA
HETATM   11  C21 UNL     1      -6.124  -0.097  -1.229  1.00  0.00     0.352 C 
HETATM   12  O8  UNL     1      -5.523   1.174  -1.379  1.00  0.00    -0.323 OA
ENDROOT
BRANCH   3  13
HETATM   13  O3  UNL     1      -0.179  -1.352   0.367  1.00  0.00    -0.342 OA
BRANCH  13  14
HETATM   14  C6  UNL     1       1.158  -1.543   0.423  1.00  0.00     0.177 C 
HETATM   15  C7  UNL     1       1.561  -2.781  -0.396  1.00  0.00     0.083 C 
BRANCH  14  16
HETATM   16  O4  UNL     1       1.488  -1.780   1.773  1.00  0.00    -0.362 OA
ATOM     17  H4  UNL     1       2.428  -1.914   1.812  1.00  0.00     0.213 HD
ENDBRANCH  14  16
BRANCH  14  18
HETATM   18  C8  UNL     1       1.951  -0.432  -0.116  1.00  0.00     0.038 C 
HETATM   19  C9  UNL     1       2.935   0.146   0.561  1.00  0.00     0.004 C 
BRANCH  19  20
HETATM   20  C10 UNL     1       3.738   1.263   0.031  1.00  0.00     0.298 C 
BRANCH  20  21
HETATM   21  N1  UNL     1       5.155   0.902  -0.038  1.00  0.00     0.083 N 
HETATM   22  C11 UNL     1       5.923   2.004  -0.559  1.00  0.00     0.309 C 
HETATM   23  C12 UNL     1       5.662   0.551   1.259  1.00  0.00     0.309 C 
ENDBRANCH  20  21
ENDBRANCH  19  20
ENDBRANCH  14  18
ENDBRANCH  13  14
ENDBRANCH   3  13
BRANCH   1  24
HETATM   24  O2  UNL     1      -2.374  -2.784   0.848  1.00  0.00    -0.311 OA
BRANCH  24  25
HETATM   25  C2  UNL     1      -3.037  -3.984   1.028  1.00  0.00     0.255 C 
HETATM   26  C1  UNL     1      -2.621  -5.221   0.338  1.00  0.00     0.126 C 
HETATM   27  O1  UNL     1      -4.010  -4.010   1.796  1.00  0.00    -0.266 OA
ENDBRANCH  24  25
ENDBRANCH   1  24
BRANCH   5  28
HETATM   28  C15 UNL     1      -0.723   2.263  -0.738  1.00  0.00     0.219 C 
BRANCH  28  29
HETATM   29  O5  UNL     1      -1.073   3.370  -1.587  1.00  0.00    -0.302 OA
BRANCH  29  30
HETATM   30  C16 UNL     1      -0.008   4.233  -1.876  1.00  0.00     0.372 C 
HETATM   31  N2  UNL     1      -0.220   5.364  -2.703  1.00  0.00    -0.032 NA
HETATM   32  O6  UNL     1       1.147   4.038  -1.421  1.00  0.00    -0.242 OA
ENDBRANCH  29  30
ENDBRANCH  28  29
ENDBRANCH   5  28
TORSDOF 11
