REMARK  4 active torsions:
REMARK  status: ('A' for Active; 'I' for Inactive)
REMARK    1  A    between atoms: C4_8  and  C5_9 
REMARK    2  A    between atoms: C5_9  and  N2_10 
REMARK    3  A    between atoms: N2_10  and  O3_12 
REMARK    4  A    between atoms: C7_17  and  O4_18 
ROOT
HETATM    1  O1  UNL     1      -3.699   1.880  -0.173  1.00  0.00    -0.266 OA
HETATM    2  C1  UNL     1      -2.487   1.537  -0.167  1.00  0.00     0.277 A 
HETATM    3  N1  UNL     1      -1.521   2.467  -0.247  1.00  0.00    -0.287 N 
ATOM      4  H1  UNL     1      -1.785   3.450  -0.313  1.00  0.00     0.172 HD
HETATM    5  C2  UNL     1      -0.232   2.146  -0.243  1.00  0.00     0.275 A 
HETATM    6  O2  UNL     1       0.625   3.082  -0.322  1.00  0.00    -0.266 OA
HETATM    7  C3  UNL     1       0.157   0.820  -0.154  1.00  0.00     0.103 A 
HETATM    8  C4  UNL     1       1.454   0.542  -0.153  1.00  0.00     0.054 C 
HETATM    9  N3  UNL     1      -0.785  -0.135  -0.072  1.00  0.00    -0.346 N 
ATOM     10  H3  UNL     1      -0.517  -1.117  -0.006  1.00  0.00     0.166 HD
HETATM   11  C6  UNL     1      -2.097   0.217  -0.078  1.00  0.00     0.123 A 
HETATM   12  C7  UNL     1      -3.018  -0.745   0.004  1.00  0.00     0.166 C 
ENDROOT
BRANCH   8  13
HETATM   13  C5  UNL     1       2.023  -0.784  -0.067  1.00  0.00     0.117 C 
BRANCH  13  14
HETATM   14  N2  UNL     1       3.296  -0.938  -0.074  1.00  0.00    -0.264 N 
ATOM     15  H2  UNL     1       3.883  -0.107  -0.141  1.00  0.00     0.194 HD
BRANCH  14  16
HETATM   16  O3  UNL     1       3.910  -2.164   0.004  1.00  0.00    -0.191 OA
HETATM   17  S1  UNL     1       5.553  -2.333   0.534  1.00  0.00     0.125 SA
ENDBRANCH  14  16
ENDBRANCH  13  14
ENDBRANCH   8  13
BRANCH  12  18
HETATM   18  O4  UNL     1      -2.655  -2.063   0.093  1.00  0.00    -0.370 OA
ATOM     19  H4  UNL     1      -3.311  -2.748   0.151  1.00  0.00     0.216 HD
ENDBRANCH  12  18
TORSDOF 4
