REMARK  5 active torsions:
REMARK  status: ('A' for Active; 'I' for Inactive)
REMARK    1  A    between atoms: O1_2  and  C2_3 
REMARK    2  A    between atoms: C3_6  and  N2_7 
REMARK    3  A    between atoms: C4_12  and  S1_13 
REMARK    4  A    between atoms: S1_13  and  N4_14 
REMARK    5  A    between atoms: N5_19  and  N6_20 
ROOT
HETATM    1  C2  UNL     1      -1.117   0.559  -0.451  1.00  0.00     0.261 A 
HETATM    2  N1  UNL     1      -0.832   1.865  -0.221  1.00  0.00    -0.153 N 
ATOM      3  H1  UNL     1      -1.602   2.534  -0.203  1.00  0.00     0.188 HD
HETATM    4  C3  UNL     1       0.410   2.318  -0.016  1.00  0.00     0.681 A 
HETATM    5  N3  UNL     1       1.419   1.438  -0.039  1.00  0.00    -0.163 N 
ATOM      6  H3  UNL     1       2.373   1.765   0.114  1.00  0.00     0.186 HD
HETATM    7  C4  UNL     1       1.197   0.128  -0.261  1.00  0.00     0.262 A 
HETATM    8  N5  UNL     1      -0.068  -0.294  -0.465  1.00  0.00    -0.196 N 
ENDROOT
BRANCH   7   9
HETATM    9  S1  UNL     1       2.525  -0.992  -0.285  1.00  0.00     0.291 S 
HETATM   10  O2  UNL     1       3.787  -0.366  -0.839  1.00  0.00    -0.198 OA
HETATM   11  O3  UNL     1       2.240  -2.190  -1.154  1.00  0.00    -0.198 OA
BRANCH   9  12
HETATM   12  N4  UNL     1       2.756  -1.579   1.319  1.00  0.00    -0.322 N 
ATOM     13  H42 UNL     1       2.201  -1.307   2.131  1.00  0.00     0.169 HD
ATOM     14  H41 UNL     1       3.536  -2.237   1.305  1.00  0.00     0.169 HD
ENDBRANCH   9  12
ENDBRANCH   7   9
BRANCH   8  15
HETATM   15  N6  UNL     1      -0.236  -1.667  -0.691  1.00  0.00    -0.333 N 
ATOM     16  H62 UNL     1      -1.192  -1.986  -0.845  1.00  0.00     0.177 HD
ATOM     17  H61 UNL     1       0.555  -2.310  -0.702  1.00  0.00     0.177 HD
ENDBRANCH   8  15
BRANCH   4  18
HETATM   18  N2  UNL     1       0.636   3.590   0.202  1.00  0.00    -0.234 N 
ATOM     19  H22 UNL     1      -0.133   4.260   0.220  1.00  0.00     0.174 HD
ATOM     20  H21 UNL     1       1.583   3.935   0.358  1.00  0.00     0.174 HD
ENDBRANCH   4  18
BRANCH   1  21
HETATM   21  O1  UNL     1      -2.383   0.083  -0.662  1.00  0.00    -0.325 OA
HETATM   22  C1  UNL     1      -3.316  -0.276   0.312  1.00  0.00     0.213 C 
ENDBRANCH   1  21
TORSDOF 5
