REMARK  4 active torsions:
REMARK  status: ('A' for Active; 'I' for Inactive)
REMARK    1  A    between atoms: N1_1  and  C1_5 
REMARK    2  A    between atoms: C1_5  and  C2_6 
REMARK    3  A    between atoms: C10_14  and  C11_15 
REMARK    4  A    between atoms: C11_15  and  C12_16 
ROOT
HETATM    1  C2  UNL     1      -0.651  -0.949  -0.496  1.00  0.00     0.064 A 
HETATM    2  C3  UNL     1      -1.832  -0.199  -0.969  1.00  0.00    -0.004 A 
HETATM    3  C4  UNL     1      -1.840   0.958  -0.327  1.00  0.00    -0.029 A 
HETATM    4  C5  UNL     1      -2.764   1.985  -0.449  1.00  0.00     0.012 A 
HETATM    5  C6  UNL     1      -2.593   3.118   0.315  1.00  0.00     0.001 A 
HETATM    6  C7  UNL     1      -1.514   3.201   1.179  1.00  0.00     0.001 A 
HETATM    7  C8  UNL     1      -0.599   2.187   1.302  1.00  0.00     0.012 A 
HETATM    8  C9  UNL     1      -0.766   1.044   0.535  1.00  0.00    -0.023 A 
HETATM    9  C10 UNL     1      -0.026  -0.031   0.492  1.00  0.00    -0.054 A 
ENDROOT
BRANCH   9  10
HETATM   10  C11 UNL     1       1.218  -0.371   1.242  1.00  0.00     0.094 C 
BRANCH  10  11
HETATM   11  C12 UNL     1       2.358  -0.617   0.315  1.00  0.00     0.029 A 
HETATM   12  C13 UNL     1       3.265   0.305  -0.164  1.00  0.00     0.114 A 
HETATM   13  N2  UNL     1       4.159  -0.299  -0.985  1.00  0.00    -0.360 N 
HETATM   14  C14 UNL     1       3.820  -1.590  -1.025  1.00  0.00     0.180 A 
ATOM     15  H2  UNL     1       4.936   0.145  -1.475  1.00  0.00     0.166 HD
HETATM   16  N3  UNL     1       2.733  -1.796  -0.244  1.00  0.00    -0.354 N 
ATOM     17  H3  UNL     1       2.270  -2.693  -0.099  1.00  0.00     0.166 HD
ENDBRANCH  10  11
ENDBRANCH   9  10
BRANCH   1  18
HETATM   18  C1  UNL     1      -1.115  -2.211   0.197  1.00  0.00     0.242 C 
BRANCH  18  19
HETATM   19  N1  UNL     1      -1.868  -3.015  -0.747  1.00  0.00    -0.078 N 
ATOM     20  H13 UNL     1      -2.638  -2.498  -1.171  1.00  0.00     0.274 HD
ATOM     21  H12 UNL     1      -1.342  -3.210  -1.599  1.00  0.00     0.274 HD
ATOM     22  H11 UNL     1      -2.181  -3.866  -0.280  1.00  0.00     0.274 HD
ENDBRANCH  18  19
ENDBRANCH   1  18
TORSDOF 4
