REMARK  6 active torsions:
REMARK  status: ('A' for Active; 'I' for Inactive)
REMARK    1  A    between atoms: C1_2  and  C2_3 
REMARK       I    between atoms: C1_2  and  N3_25 
REMARK    2  A    between atoms: C2_3  and  C3_4 
REMARK    3  A    between atoms: N1_6  and  C5_7 
REMARK    4  A    between atoms: C5_7  and  C6_8 
REMARK       I    between atoms: C6_8  and  N2_10 
REMARK    5  A    between atoms: C11_19  and  C12_20 
REMARK    6  A    between atoms: N3_25  and  C17_27 
ROOT
HETATM    1  C3  UNL     1       0.114   1.569   0.258  1.00  0.00     0.029 C 
HETATM    2  C4  UNL     1       0.551   0.636   1.342  1.00  0.00     0.114 C 
HETATM    3  N1  UNL     1       1.973   0.441   1.323  1.00  0.00    -0.201 NA
HETATM    4  S1  UNL     1       2.564   1.977   0.818  1.00  0.00     0.217 S 
HETATM    5  O4  UNL     1       3.813   1.865   0.003  1.00  0.00    -0.211 OA
HETATM    6  O5  UNL     1       2.701   2.866   1.988  1.00  0.00    -0.211 OA
HETATM    7  C11 UNL     1       1.205   2.377  -0.252  1.00  0.00     0.134 C 
ENDROOT
BRANCH   1   8
HETATM    8  C2  UNL     1      -0.652   0.734  -0.747  1.00  0.00     0.110 C 
BRANCH   8   9
HETATM    9  C1  UNL     1      -1.848   0.134  -0.050  1.00  0.00     0.218 C 
HETATM   10  O1  UNL     1      -2.127   0.404   1.145  1.00  0.00    -0.274 OA
HETATM   11  N3  UNL     1      -2.696  -0.757  -0.731  1.00  0.00    -0.356 N 
ATOM     12  H3  UNL     1      -2.498  -0.997  -1.703  1.00  0.00     0.162 HD
BRANCH  11  13
HETATM   13  C17 UNL     1      -3.834  -1.333  -0.079  1.00  0.00     0.084 C 
HETATM   14  C18 UNL     1      -3.822  -2.828  -0.026  1.00  0.00     0.025 C 
HETATM   15  C19 UNL     1      -5.252  -3.297   0.137  1.00  0.00     0.002 C 
HETATM   16  C20 UNL     1      -6.085  -2.300   0.930  1.00  0.00     0.000 C 
HETATM   17  C21 UNL     1      -6.224  -0.981   0.206  1.00  0.00     0.002 C 
HETATM   18  C22 UNL     1      -5.111  -0.925  -0.824  1.00  0.00     0.025 C 
ENDBRANCH  11  13
ENDBRANCH   8   9
ENDBRANCH   1   8
BRANCH   7  19
HETATM   19  C12 UNL     1       1.091   3.848  -0.361  1.00  0.00     0.006 C 
HETATM   20  C13 UNL     1      -0.005   4.323  -1.272  1.00  0.00     0.006 C 
HETATM   21  C14 UNL     1      -0.942   5.137  -0.360  1.00  0.00     0.000 C 
HETATM   22  C15 UNL     1       0.120   5.806   0.517  1.00  0.00     0.000 C 
HETATM   23  C16 UNL     1       0.960   4.606   0.898  1.00  0.00     0.006 C 
ENDBRANCH   7  19
BRANCH   3  24
HETATM   24  C5  UNL     1       2.405  -0.583   0.409  1.00  0.00     0.210 C 
BRANCH  24  25
HETATM   25  C6  UNL     1       3.700  -1.122   0.860  1.00  0.00     0.234 C 
HETATM   26  O2  UNL     1       4.207  -0.631   1.922  1.00  0.00    -0.272 OA
HETATM   27  N2  UNL     1       4.401  -2.144   0.184  1.00  0.00    -0.347 N 
HETATM   28  C7  UNL     1       3.851  -2.712  -1.013  1.00  0.00     0.152 C 
HETATM   29  C10 UNL     1       5.657  -2.622   0.678  1.00  0.00     0.152 C 
HETATM   30  C8  UNL     1       4.020  -4.216  -0.926  1.00  0.00     0.187 C 
HETATM   31  O3  UNL     1       5.383  -4.460  -0.767  1.00  0.00    -0.388 OA
HETATM   32  C9  UNL     1       5.762  -4.115   0.528  1.00  0.00     0.187 C 
ENDBRANCH  24  25
ENDBRANCH   3  24
TORSDOF 6
