REMARK  10 active torsions:
REMARK  status: ('A' for Active; 'I' for Inactive)
REMARK    1  A    between atoms: N1_2  and  C2_3 
REMARK    2  A    between atoms: N1_2  and  C9_11 
REMARK    3  A    between atoms: C2_3  and  C3_4 
REMARK    4  A    between atoms: C9_11  and  O1_12 
REMARK    5  A    between atoms: C9_11  and  C10_14 
REMARK    6  A    between atoms: C13_17  and  S1_18 
REMARK    7  A    between atoms: S1_18  and  C14_21 
REMARK    8  A    between atoms: C17_24  and  S2_25 
REMARK    9  A    between atoms: S2_25  and  N2_26 
REMARK   10  A    between atoms: N3_34  and  O6_35 
ROOT
HETATM    1  C10 UNL     1      -1.146  -0.501   1.123  1.00  0.00     0.112 A 
HETATM    2  C11 UNL     1      -0.984   0.193  -0.046  1.00  0.00     0.038 A 
HETATM    3  C12 UNL     1       0.006   1.178  -0.175  1.00  0.00     0.028 A 
HETATM    4  C13 UNL     1       0.844   1.481   0.864  1.00  0.00     0.082 A 
HETATM    5  C20 UNL     1       0.663   0.773   2.027  1.00  0.00     0.147 A 
HETATM    6  N3  UNL     1      -0.281  -0.165   2.144  1.00  0.00    -0.230 N 
ENDROOT
BRANCH   4   7
HETATM    7  S1  UNL     1       2.088   2.704   0.738  1.00  0.00     0.208 S 
HETATM    8  O2  UNL     1       1.648   3.745  -0.258  1.00  0.00    -0.217 OA
HETATM    9  O3  UNL     1       2.298   3.323   2.100  1.00  0.00    -0.217 OA
BRANCH   7  10
HETATM   10  C14 UNL     1       3.541   1.943   0.171  1.00  0.00     0.064 A 
HETATM   11  C15 UNL     1       3.785   1.861  -1.173  1.00  0.00     0.025 A 
HETATM   12  C16 UNL     1       4.924   1.266  -1.674  1.00  0.00     0.027 A 
HETATM   13  C17 UNL     1       5.824   0.749  -0.766  1.00  0.00     0.079 A 
HETATM   14  C18 UNL     1       5.573   0.836   0.584  1.00  0.00     0.027 A 
HETATM   15  C19 UNL     1       4.437   1.429   1.068  1.00  0.00     0.025 A 
BRANCH  13  16
HETATM   16  S2  UNL     1       7.311  -0.030  -1.310  1.00  0.00     0.256 S 
HETATM   17  O4  UNL     1       7.697   0.602  -2.622  1.00  0.00    -0.201 OA
HETATM   18  O5  UNL     1       8.369   0.166  -0.277  1.00  0.00    -0.201 OA
BRANCH  16  19
HETATM   19  N2  UNL     1       6.964  -1.707  -1.520  1.00  0.00    -0.324 N 
ATOM     20  H22 UNL     1       6.061  -2.151  -1.356  1.00  0.00     0.169 HD
ATOM     21  H21 UNL     1       7.824  -2.157  -1.834  1.00  0.00     0.169 HD
ENDBRANCH  16  19
ENDBRANCH  13  16
ENDBRANCH   7  10
ENDBRANCH   4   7
BRANCH   6  22
HETATM   22  O6  UNL     1      -0.429  -0.851   3.326  1.00  0.00    -0.283 OA
ATOM     23  H6  UNL     1       0.167  -0.620   4.029  1.00  0.00     0.245 HD
ENDBRANCH   6  22
BRANCH   1  24
HETATM   24  C9  UNL     1      -2.117  -1.531   1.342  1.00  0.00     0.168 C 
BRANCH  24  25
HETATM   25  N1  UNL     1      -3.084  -2.124   0.533  1.00  0.00    -0.360 N 
HETATM   26  C1  UNL     1      -3.945  -3.199   1.177  1.00  0.00     0.152 C 
BRANCH  25  27
HETATM   27  C2  UNL     1      -3.441  -1.929  -0.838  1.00  0.00     0.163 C 
BRANCH  27  28
HETATM   28  C3  UNL     1      -4.500  -0.865  -0.944  1.00  0.00    -0.040 A 
HETATM   29  C4  UNL     1      -4.986  -0.267   0.198  1.00  0.00     0.012 A 
HETATM   30  C5  UNL     1      -5.951   0.702   0.085  1.00  0.00     0.043 A 
HETATM   31  C6  UNL     1      -6.423   1.067  -1.140  1.00  0.00     0.116 A 
HETATM   32  F1  UNL     1      -7.385   2.027  -1.304  1.00  0.00    -0.206 F 
HETATM   33  C7  UNL     1      -5.951   0.483  -2.286  1.00  0.00     0.043 A 
HETATM   34  C8  UNL     1      -4.983  -0.491  -2.191  1.00  0.00     0.012 A 
ENDBRANCH  27  28
ENDBRANCH  25  27
ENDBRANCH  24  25
BRANCH  24  35
HETATM   35  O1  UNL     1      -2.109  -2.035   2.560  1.00  0.00    -0.344 OA
ATOM     36  H1  UNL     1      -1.450  -1.631   3.112  1.00  0.00     0.219 HD
ENDBRANCH  24  35
ENDBRANCH   1  24
TORSDOF 10
