REMARK  6 active torsions:
REMARK  status: ('A' for Active; 'I' for Inactive)
REMARK    1  A    between atoms: C2_2  and  C3_3 
REMARK    2  A    between atoms: C2_2  and  C5_6 
REMARK    3  A    between atoms: C5_6  and  N1_7 
REMARK    4  A    between atoms: C8_10  and  N2_11 
REMARK       I    between atoms: N2_11  and  C9_13 
REMARK    5  A    between atoms: C9_13  and  C10_15 
REMARK       I    between atoms: N3_18  and  C13_19 
REMARK       I    between atoms: C13_19  and  N4_21 
REMARK    6  A    between atoms: N4_21  and  C14_23 
ROOT
HETATM    1  C3  UNL     1       9.179   0.021   1.486  1.00  0.00    -0.035 C 
HETATM    2  C4  UNL     1       9.194  -0.157   2.694  1.00  0.00     0.111 C 
HETATM    3  F1  UNL     1       9.201  -0.330   4.014  1.00  0.00    -0.143 F 
ENDROOT
BRANCH   1   4
HETATM    4  C2  UNL     1       9.198   0.239   0.048  1.00  0.00     0.017 C 
HETATM    5  C1  UNL     1      10.051   1.172  -0.379  1.00  0.00     0.030 C 
BRANCH   4   6
HETATM    6  C5  UNL     1       8.354  -0.525  -0.890  1.00  0.00     0.319 C 
BRANCH   6   7
HETATM    7  N1  UNL     1       6.951  -0.383  -0.729  1.00  0.00     0.096 N 
HETATM    8  C6  UNL     1       6.213  -1.162  -1.739  1.00  0.00     0.275 C 
HETATM    9  C7  UNL     1       4.836  -0.582  -1.958  1.00  0.00     0.058 C 
HETATM   10  C8  UNL     1       4.366  -0.049  -0.627  1.00  0.00     0.121 C 
HETATM   11  C26 UNL     1       4.926  -0.965   0.432  1.00  0.00     0.221 C 
HETATM   12  F2  UNL     1       4.301  -0.775   1.649  1.00  0.00    -0.245 F 
HETATM   13  C27 UNL     1       6.418  -0.684   0.562  1.00  0.00     0.311 C 
BRANCH  10  14
HETATM   14  N2  UNL     1       2.962   0.159  -0.534  1.00  0.00    -0.353 N 
HETATM   15  C9  UNL     1       2.344   1.417  -0.308  1.00  0.00     0.222 C 
HETATM   16  O1  UNL     1       3.066   2.427  -0.180  1.00  0.00    -0.273 OA
ATOM     17  H2  UNL     1       2.355  -0.654  -0.637  1.00  0.00     0.163 HD
BRANCH  15  18
HETATM   18  C10 UNL     1       0.874   1.570  -0.220  1.00  0.00     0.081 C 
HETATM   19  C11 UNL     1       0.421   0.713   0.927  1.00  0.00     0.034 C 
HETATM   20  C12 UNL     1      -1.041   0.448   0.960  1.00  0.00     0.128 C 
HETATM   21  N3  UNL     1      -1.555   0.109  -0.327  1.00  0.00    -0.334 N 
HETATM   22  C13 UNL     1      -2.940  -0.116  -0.510  1.00  0.00     0.318 C 
HETATM   23  C24 UNL     1      -0.658  -0.003  -1.436  1.00  0.00     0.128 C 
HETATM   24  O2  UNL     1      -3.372  -0.416  -1.666  1.00  0.00    -0.247 OA
HETATM   25  N4  UNL     1      -3.813  -0.006   0.584  1.00  0.00    -0.334 N 
ATOM     26  H4  UNL     1      -3.425   0.236   1.496  1.00  0.00     0.165 HD
HETATM   27  C25 UNL     1       0.289   1.167  -1.541  1.00  0.00     0.034 C 
BRANCH  25  28
HETATM   28  C14 UNL     1      -5.221  -0.219   0.475  1.00  0.00     0.035 C 
HETATM   29  C15 UNL     1      -5.843   0.736  -0.488  1.00  0.00     0.035 C 
HETATM   30  C16 UNL     1      -7.370   0.609  -0.458  1.00  0.00    -0.012 C 
HETATM   31  C17 UNL     1      -7.879   0.890   0.928  1.00  0.00     0.009 C 
HETATM   32  C21 UNL     1      -7.709  -0.773  -0.949  1.00  0.00     0.009 C 
HETATM   33  C18 UNL     1      -7.269  -0.155   1.839  1.00  0.00    -0.012 C 
HETATM   34  C19 UNL     1      -7.628  -1.534   1.380  1.00  0.00     0.009 C 
HETATM   35  C23 UNL     1      -5.799   0.063   1.867  1.00  0.00     0.035 C 
HETATM   36  C20 UNL     1      -7.080  -1.773  -0.020  1.00  0.00    -0.012 C 
HETATM   37  C22 UNL     1      -5.583  -1.632   0.061  1.00  0.00     0.035 C 
ENDBRANCH  25  28
ENDBRANCH  15  18
ENDBRANCH  10  14
ENDBRANCH   6   7
ENDBRANCH   4   6
ENDBRANCH   1   4
TORSDOF 6
