REMARK  10 active torsions:
REMARK  status: ('A' for Active; 'I' for Inactive)
REMARK    1  A    between atoms: N1_1  and  C1_5 
REMARK    2  A    between atoms: C1_5  and  C2_6 
REMARK    3  A    between atoms: C4_8  and  C5_9 
REMARK    4  A    between atoms: C5_9  and  O1_10 
REMARK    5  A    between atoms: C6_12  and  N2_13 
REMARK    6  A    between atoms: C7_17  and  O2_18 
REMARK    7  A    between atoms: O2_18  and  C8_19 
REMARK    8  A    between atoms: C9_20  and  N3_21 
REMARK    9  A    between atoms: C11_26  and  N4_27 
REMARK   10  A    between atoms: C13_32  and  N5_33 
ROOT
HETATM    1  C8  UNL     1       1.099   0.097  -0.011  1.00  0.00     0.182 C 
HETATM    2  C9  UNL     1       1.927  -0.451   1.109  1.00  0.00     0.216 C 
HETATM    3  C10 UNL     1       3.360  -0.698   0.745  1.00  0.00     0.068 C 
HETATM    4  C11 UNL     1       3.976   0.413  -0.046  1.00  0.00     0.187 C 
HETATM    5  C12 UNL     1       3.122   0.877  -1.192  1.00  0.00     0.068 C 
HETATM    6  C13 UNL     1       1.838   0.116  -1.328  1.00  0.00     0.216 C 
ENDROOT
BRANCH   1   7
HETATM    7  O2  UNL     1      -0.101  -0.560  -0.082  1.00  0.00    -0.374 OA
BRANCH   7   8
HETATM    8  C7  UNL     1      -1.210   0.224   0.138  1.00  0.00     0.158 C 
HETATM    9  C2  UNL     1      -2.041  -0.201   1.313  1.00  0.00     0.043 C 
HETATM   10  C3  UNL     1      -3.488  -0.109   0.903  1.00  0.00     0.017 C 
HETATM   11  C4  UNL     1      -3.456   0.654  -0.404  1.00  0.00     0.043 C 
HETATM   12  C6  UNL     1      -2.166   0.179  -1.005  1.00  0.00     0.218 C 
BRANCH   9  13
HETATM   13  C1  UNL     1      -1.791  -1.643   1.712  1.00  0.00     0.236 C 
BRANCH  13  14
HETATM   14  N1  UNL     1      -2.044  -2.554   0.631  1.00  0.00    -0.079 N 
ATOM     15  H13 UNL     1      -2.985  -2.432   0.257  1.00  0.00     0.274 HD
ATOM     16  H12 UNL     1      -1.507  -2.302  -0.199  1.00  0.00     0.274 HD
ATOM     17  H11 UNL     1      -1.876  -3.524   0.899  1.00  0.00     0.274 HD
ENDBRANCH  13  14
ENDBRANCH   9  13
BRANCH  11  18
HETATM   18  C5  UNL     1      -3.433   2.124  -0.060  1.00  0.00     0.170 C 
BRANCH  18  19
HETATM   19  O1  UNL     1      -3.403   2.950  -1.154  1.00  0.00    -0.400 OA
ATOM     20  H1  UNL     1      -3.389   3.875  -0.938  1.00  0.00     0.209 HD
ENDBRANCH  18  19
ENDBRANCH  11  18
BRANCH  12  21
HETATM   21  N2  UNL     1      -1.830   1.031  -2.103  1.00  0.00    -0.072 N 
ATOM     22  H23 UNL     1      -2.580   1.095  -2.791  1.00  0.00     0.274 HD
ATOM     23  H22 UNL     1      -1.797   2.015  -1.837  1.00  0.00     0.274 HD
ATOM     24  H21 UNL     1      -0.953   0.708  -2.512  1.00  0.00     0.274 HD
ENDBRANCH  12  21
ENDBRANCH   7   8
ENDBRANCH   1   7
BRANCH   2  25
HETATM   25  N3  UNL     1       1.892   0.394   2.272  1.00  0.00    -0.072 N 
ATOM     26  H33 UNL     1       2.166   1.349   2.043  1.00  0.00     0.274 HD
ATOM     27  H32 UNL     1       0.933   0.569   2.573  1.00  0.00     0.274 HD
ATOM     28  H31 UNL     1       2.456   0.021   3.035  1.00  0.00     0.274 HD
ENDBRANCH   2  25
BRANCH   6  29
HETATM   29  N5  UNL     1       1.992  -1.184  -1.914  1.00  0.00    -0.072 N 
ATOM     30  H53 UNL     1       2.438  -1.826  -1.258  1.00  0.00     0.274 HD
ATOM     31  H52 UNL     1       1.088  -1.645  -2.013  1.00  0.00     0.274 HD
ATOM     32  H51 UNL     1       2.491  -1.171  -2.803  1.00  0.00     0.274 HD
ENDBRANCH   6  29
BRANCH   4  33
HETATM   33  N4  UNL     1       5.229  -0.073  -0.599  1.00  0.00    -0.075 N 
ATOM     34  H43 UNL     1       5.857  -0.446   0.113  1.00  0.00     0.274 HD
ATOM     35  H42 UNL     1       5.115  -0.929  -1.142  1.00  0.00     0.274 HD
ATOM     36  H41 UNL     1       5.649   0.684  -1.138  1.00  0.00     0.274 HD
ENDBRANCH   4  33
TORSDOF 10
