REMARK  8 active torsions:
REMARK  status: ('A' for Active; 'I' for Inactive)
REMARK    1  A    between atoms: N1_1  and  C1_5 
REMARK    2  A    between atoms: C1_5  and  C2_6 
REMARK    3  A    between atoms: C2_6  and  C3_7 
REMARK    4  A    between atoms: C4_10  and  N3_11 
REMARK    5  A    between atoms: C6_16  and  N4_17 
REMARK    6  A    between atoms: C8_22  and  O1_23 
REMARK    7  A    between atoms: O1_23  and  C9_24 
REMARK    8  A    between atoms: C11_29  and  N8_30 
ROOT
HETATM    1  C3  UNL     1      -1.535   1.302   0.132  1.00  0.00     0.111 C 
HETATM    2  N2  UNL     1      -2.807   0.670   0.079  1.00  0.00    -0.389 N 
ATOM      3  H2  UNL     1      -3.529   0.831   0.782  1.00  0.00     0.155 HD
HETATM    4  C4  UNL     1      -2.999  -0.210  -1.036  1.00  0.00     0.280 C 
HETATM    5  C5  UNL     1      -2.021  -1.325  -1.114  1.00  0.00     0.081 C 
HETATM    6  C6  UNL     1      -0.818  -0.999  -0.258  1.00  0.00     0.118 C 
HETATM    7  C8  UNL     1      -0.406   0.465  -0.399  1.00  0.00     0.169 C 
ENDROOT
BRANCH   7   8
HETATM    8  O1  UNL     1       0.705   0.649   0.395  1.00  0.00    -0.355 OA
BRANCH   8   9
HETATM    9  C9  UNL     1       1.833   1.051  -0.238  1.00  0.00     0.256 C 
HETATM   10  N7  UNL     1       2.545   2.185   0.261  1.00  0.00    -0.330 N 
HETATM   11  C10 UNL     1       3.738   1.582  -0.204  1.00  0.00     0.246 C 
ATOM     12  H7  UNL     1       2.300   3.051   0.742  1.00  0.00     0.165 HD
HETATM   13  O2  UNL     1       4.835   2.022  -0.590  1.00  0.00    -0.271 OA
HETATM   14  C11 UNL     1       3.089   0.268  -0.020  1.00  0.00     0.225 C 
BRANCH  14  15
HETATM   15  N8  UNL     1       3.389  -0.726  -1.023  1.00  0.00    -0.350 N 
HETATM   16  C12 UNL     1       4.481  -1.399  -0.890  1.00  0.00     0.197 C 
HETATM   17  N9  UNL     1       5.381  -1.197   0.192  1.00  0.00    -0.067 NA
HETATM   18  N10 UNL     1       4.813  -2.386  -1.855  1.00  0.00    -0.067 NA
ATOM     19  H8  UNL     1       2.760  -0.890  -1.809  1.00  0.00     0.162 HD
ENDBRANCH  14  15
ENDBRANCH   8   9
ENDBRANCH   7   8
BRANCH   1  20
HETATM   20  C2  UNL     1      -1.605   2.627  -0.589  1.00  0.00     0.054 C 
BRANCH  20  21
HETATM   21  C1  UNL     1      -2.615   3.557   0.024  1.00  0.00     0.231 C 
BRANCH  21  22
HETATM   22  N1  UNL     1      -2.374   3.888   1.381  1.00  0.00    -0.079 N 
ATOM     23  H13 UNL     1      -2.289   3.040   1.941  1.00  0.00     0.274 HD
ATOM     24  H12 UNL     1      -1.433   4.267   1.490  1.00  0.00     0.274 HD
ATOM     25  H11 UNL     1      -3.059   4.519   1.797  1.00  0.00     0.274 HD
ENDBRANCH  21  22
ENDBRANCH  20  21
ENDBRANCH   1  20
BRANCH   6  26
HETATM   26  N4  UNL     1      -1.048  -1.290   1.135  1.00  0.00    -0.360 N 
HETATM   27  C7  UNL     1      -1.004  -2.436   1.661  1.00  0.00     0.197 C 
HETATM   28  N5  UNL     1      -0.709  -3.575   0.875  1.00  0.00    -0.067 NA
HETATM   29  N6  UNL     1      -1.248  -2.600   3.045  1.00  0.00    -0.067 NA
ATOM     30  H4  UNL     1      -1.265  -0.503   1.747  1.00  0.00     0.162 HD
ENDBRANCH   6  26
BRANCH   4  31
HETATM   31  N3  UNL     1      -4.337  -0.737  -1.042  1.00  0.00    -0.059 N 
ATOM     32  H33 UNL     1      -4.569  -1.190  -0.158  1.00  0.00     0.276 HD
ATOM     33  H32 UNL     1      -5.036   0.005  -1.021  1.00  0.00     0.276 HD
ATOM     34  H31 UNL     1      -4.474  -1.363  -1.835  1.00  0.00     0.276 HD
ENDBRANCH   4  31
TORSDOF 8
