REMARK  10 active torsions:
REMARK  status: ('A' for Active; 'I' for Inactive)
REMARK    1  A    between atoms: N1_1  and  C1_4 
REMARK    2  A    between atoms: C3_8  and  C4_9 
REMARK    3  A    between atoms: C4_9  and  N3_10 
REMARK       I    between atoms: N3_10  and  C5_12 
REMARK    4  A    between atoms: C5_12  and  C6_14 
REMARK       I    between atoms: C6_14  and  N4_16 
REMARK    5  A    between atoms: N4_16  and  C7_18 
REMARK    6  A    between atoms: C7_18  and  C8_19 
REMARK       I    between atoms: C8_19  and  N5_21 
REMARK    7  A    between atoms: N5_21  and  C9_23 
REMARK    8  A    between atoms: C9_23  and  C10_24 
REMARK       I    between atoms: C10_24  and  N6_26 
REMARK    9  A    between atoms: C11_28  and  N7_29 
REMARK   10  A    between atoms: N7_29  and  N8_31 
ROOT
HETATM    1  C6  UNL     1      -1.722  -0.702  -1.505  1.00  0.00     0.309 C 
HETATM    2  O2  UNL     1      -1.522  -0.598  -2.730  1.00  0.00    -0.262 OA
HETATM    3  N4  UNL     1      -0.639  -0.678  -0.602  1.00  0.00    -0.344 N 
ATOM      4  H4  UNL     1      -0.795  -0.762   0.403  1.00  0.00     0.163 HD
ENDROOT
BRANCH   3   5
HETATM    5  C7  UNL     1       0.693  -0.532  -1.132  1.00  0.00     0.225 C 
BRANCH   5   6
HETATM    6  C8  UNL     1       1.720  -0.525  -0.064  1.00  0.00     0.235 C 
HETATM    7  O3  UNL     1       1.322  -0.642   1.120  1.00  0.00    -0.272 OA
HETATM    8  N5  UNL     1       3.069  -0.388  -0.436  1.00  0.00    -0.351 N 
ATOM      9  H5  UNL     1       3.323  -0.296  -1.420  1.00  0.00     0.163 HD
BRANCH   8  10
HETATM   10  C9  UNL     1       4.085  -0.378   0.575  1.00  0.00     0.225 C 
BRANCH  10  11
HETATM   11  C10 UNL     1       5.449  -0.228   0.032  1.00  0.00     0.240 C 
HETATM   12  O4  UNL     1       5.601  -0.127  -1.210  1.00  0.00    -0.271 OA
HETATM   13  N6  UNL     1       6.554  -0.200   0.897  1.00  0.00    -0.321 N 
HETATM   14  C11 UNL     1       7.757   0.020   0.481  1.00  0.00     0.199 C 
ATOM     15  H6  UNL     1       6.401  -0.360   1.893  1.00  0.00     0.169 HD
BRANCH  14  16
HETATM   16  N7  UNL     1       8.801   0.027   1.442  1.00  0.00    -0.303 N 
ATOM     17  H7  UNL     1       9.764  -0.117   1.138  1.00  0.00     0.187 HD
BRANCH  16  18
HETATM   18  N8  UNL     1       8.530   0.228   2.801  1.00  0.00    -0.344 N 
ATOM     19  H82 UNL     1       7.562   0.370   3.088  1.00  0.00     0.176 HD
ATOM     20  H81 UNL     1       9.280   0.233   3.492  1.00  0.00     0.176 HD
ENDBRANCH  16  18
ENDBRANCH  14  16
ENDBRANCH  10  11
ENDBRANCH   8  10
ENDBRANCH   5   6
ENDBRANCH   3   5
BRANCH   1  21
HETATM   21  C5  UNL     1      -3.066  -0.851  -0.959  1.00  0.00     0.309 C 
HETATM   22  N3  UNL     1      -4.171  -0.877  -1.851  1.00  0.00    -0.347 N 
ATOM     23  H3  UNL     1      -3.996  -0.794  -2.852  1.00  0.00     0.163 HD
HETATM   24  O1  UNL     1      -3.261  -0.955   0.276  1.00  0.00    -0.262 OA
BRANCH  22  25
HETATM   25  C4  UNL     1      -5.523  -1.016  -1.396  1.00  0.00     0.182 C 
BRANCH  25  26
HETATM   26  C3  UNL     1      -5.907   0.114  -0.528  1.00  0.00     0.060 A 
HETATM   27  C2  UNL     1      -5.275   1.305  -0.241  1.00  0.00     0.133 A 
HETATM   28  N2  UNL     1      -6.052   1.993   0.616  1.00  0.00    -0.200 N 
HETATM   29  C1  UNL     1      -7.155   1.287   0.888  1.00  0.00     0.676 A 
ATOM     30  H2  UNL     1      -5.833   2.912   1.000  1.00  0.00     0.183 HD
HETATM   31  N9  UNL     1      -7.055   0.151   0.188  1.00  0.00    -0.193 N 
ATOM     32  H9  UNL     1      -7.754  -0.592   0.193  1.00  0.00     0.184 HD
BRANCH  29  33
HETATM   33  N1  UNL     1      -8.149   1.590   1.660  1.00  0.00    -0.234 N 
ATOM     34  H12 UNL     1      -8.225   2.456   2.194  1.00  0.00     0.174 HD
ATOM     35  H11 UNL     1      -8.990   1.052   1.867  1.00  0.00     0.174 HD
ENDBRANCH  29  33
ENDBRANCH  25  26
ENDBRANCH  22  25
ENDBRANCH   1  21
TORSDOF 10
