REMARK  6 active torsions:
REMARK  status: ('A' for Active; 'I' for Inactive)
REMARK    1  A    between atoms: C3_3  and  N1_5 
REMARK    2  A    between atoms: C3_3  and  O1_9 
REMARK    3  A    between atoms: O1_9  and  C5_10 
REMARK    4  A    between atoms: C5_10  and  O3_12 
REMARK    5  A    between atoms: O3_12  and  C6_13 
REMARK    6  A    between atoms: C6_13  and  S1_14 
ROOT
HETATM    1  C1  UNL     1      -2.959   1.544  -1.373  1.00  0.00     0.017 C 
HETATM    2  C2  UNL     1      -2.616   0.625  -0.660  1.00  0.00    -0.050 C 
HETATM    3  C3  UNL     1      -2.197  -0.456   0.198  1.00  0.00     0.293 C 
HETATM    4  C4  UNL     1      -3.231  -0.800   1.214  1.00  0.00     0.094 C 
ENDROOT
BRANCH   3   5
HETATM    5  N1  UNL     1      -1.977  -1.657  -0.621  1.00  0.00    -0.035 N 
ATOM      6  H13 UNL     1      -2.793  -1.900  -1.182  1.00  0.00     0.279 HD
ATOM      7  H12 UNL     1      -1.323  -1.492  -1.386  1.00  0.00     0.279 HD
ATOM      8  H11 UNL     1      -1.681  -2.421  -0.014  1.00  0.00     0.279 HD
ENDBRANCH   3   5
BRANCH   3   9
HETATM    9  O1  UNL     1      -0.922  -0.189   0.800  1.00  0.00    -0.247 OA
BRANCH   9  10
HETATM   10  C5  UNL     1       0.155   0.003  -0.071  1.00  0.00     0.410 C 
HETATM   11  O2  UNL     1      -0.036  -0.064  -1.316  1.00  0.00    -0.229 OA
BRANCH  10  12
HETATM   12  O3  UNL     1       1.434   0.267   0.383  1.00  0.00    -0.280 OA
BRANCH  12  13
HETATM   13  C6  UNL     1       2.471   0.450  -0.567  1.00  0.00     0.345 C 
BRANCH  13  14
HETATM   14  S1  UNL     1       4.025   0.775   0.178  1.00  0.00     0.126 S 
HETATM   15  O4  UNL     1       3.957   2.106   0.911  1.00  0.00    -0.593 OA
HETATM   16  O5  UNL     1       4.461  -0.319   1.099  1.00  0.00    -0.593 OA
HETATM   17  O6  UNL     1       5.159   0.970  -1.049  1.00  0.00    -0.593 OA
ENDBRANCH  13  14
ENDBRANCH  12  13
ENDBRANCH  10  12
ENDBRANCH   9  10
ENDBRANCH   3   9
TORSDOF 6
