REMARK  4 active torsions:
REMARK  status: ('A' for Active; 'I' for Inactive)
REMARK    1  A    between atoms: C1_2  and  C2_4 
REMARK    2  A    between atoms: C2_4  and  N2_5 
REMARK    3  A    between atoms: C2_4  and  C3_9 
REMARK    4  A    between atoms: C3_9  and  N3_10 
ROOT
HETATM    1  N3  UNL     1      -0.143  -0.075  -0.826  1.00  0.00    -0.282 N 
HETATM    2  C4  UNL     1      -0.489  -0.896  -1.834  1.00  0.00     0.331 A 
HETATM    3  O2  UNL     1       0.374  -1.306  -2.658  1.00  0.00    -0.246 OA
HETATM    4  N4  UNL     1      -1.755  -1.332  -2.033  1.00  0.00    -0.274 N 
ATOM      5  H4  UNL     1      -1.953  -1.955  -2.816  1.00  0.00     0.173 HD
HETATM    6  C5  UNL     1      -2.752  -0.961  -1.221  1.00  0.00     0.269 A 
HETATM    7  O3  UNL     1      -3.951  -1.366  -1.400  1.00  0.00    -0.267 OA
HETATM    8  C6  UNL     1      -2.443  -0.123  -0.178  1.00  0.00     0.144 A 
HETATM    9  C7  UNL     1      -3.469   0.259   0.659  1.00  0.00     0.269 A 
HETATM   10  O4  UNL     1      -4.641  -0.153   0.463  1.00  0.00    -0.267 OA
HETATM   11  N5  UNL     1      -3.139   1.081   1.676  1.00  0.00    -0.275 N 
ATOM     12  H5  UNL     1      -3.871   1.386   2.318  1.00  0.00     0.173 HD
HETATM   13  C8  UNL     1      -1.885   1.513   1.875  1.00  0.00     0.328 A 
HETATM   14  O5  UNL     1      -1.572   2.284   2.827  1.00  0.00    -0.247 OA
HETATM   15  N6  UNL     1      -0.889   1.126   1.038  1.00  0.00    -0.293 N 
ATOM     16  H6  UNL     1       0.060   1.462   1.200  1.00  0.00     0.172 HD
HETATM   17  C9  UNL     1      -1.131   0.309   0.002  1.00  0.00     0.137 A 
ENDROOT
BRANCH   1  18
HETATM   18  C3  UNL     1       1.207   0.350  -0.663  1.00  0.00     0.177 C 
BRANCH  18  19
HETATM   19  C2  UNL     1       2.030  -0.573   0.244  1.00  0.00     0.290 C 
BRANCH  19  20
HETATM   20  C1  UNL     1       3.375   0.021   0.290  1.00  0.00     0.263 C 
HETATM   21  N1  UNL     1       3.556   1.338   0.740  1.00  0.00    -0.060 NA
HETATM   22  O1  UNL     1       4.346  -0.660  -0.074  1.00  0.00    -0.275 OA
ENDBRANCH  19  20
BRANCH  19  23
HETATM   23  N2  UNL     1       2.059  -1.932  -0.247  1.00  0.00    -0.065 N 
ATOM     24  H23 UNL     1       2.521  -1.989  -1.155  1.00  0.00     0.275 HD
ATOM     25  H22 UNL     1       2.701  -2.509   0.296  1.00  0.00     0.275 HD
ATOM     26  H21 UNL     1       1.126  -2.344  -0.279  1.00  0.00     0.275 HD
ENDBRANCH  19  23
ENDBRANCH  18  19
ENDBRANCH   1  18
TORSDOF 4
