REMARK  6 active torsions:
REMARK  status: ('A' for Active; 'I' for Inactive)
REMARK    1  A    between atoms: C2_2  and  N1_3 
REMARK    2  A    between atoms: C2_2  and  C3_8 
REMARK    3  A    between atoms: N1_3  and  O1_4 
REMARK    4  A    between atoms: O1_4  and  N2_5 
REMARK    5  A    between atoms: C3_8  and  N3_9 
REMARK    6  A    between atoms: C3_8  and  C8_22 
ROOT
HETATM    1  N3  UNL     1       0.382   0.096   0.426  1.00  0.00    -0.357 N 
ATOM      2  H3  UNL     1      -0.078  -0.253   1.267  1.00  0.00     0.162 HD
HETATM    3  C4  UNL     1       1.610  -0.156   0.400  1.00  0.00     0.174 A 
HETATM    4  N4  UNL     1       2.192  -0.877   1.515  1.00  0.00    -0.300 N 
ATOM      5  H4  UNL     1       1.591  -1.160   2.289  1.00  0.00     0.171 HD
HETATM    6  C5  UNL     1       3.573  -1.200   1.561  1.00  0.00     0.315 A 
HETATM    7  O2  UNL     1       4.038  -1.827   2.548  1.00  0.00    -0.262 OA
HETATM    8  C6  UNL     1       4.471  -0.831   0.505  1.00  0.00     0.316 A 
HETATM    9  O3  UNL     1       5.692  -1.122   0.557  1.00  0.00    -0.262 OA
HETATM   10  N5  UNL     1       3.936  -0.123  -0.604  1.00  0.00    -0.283 N 
ATOM     11  H5  UNL     1       4.551   0.153  -1.370  1.00  0.00     0.172 HD
HETATM   12  C7  UNL     1       2.530   0.211  -0.660  1.00  0.00     0.292 A 
HETATM   13  O4  UNL     1       2.089   0.841  -1.663  1.00  0.00    -0.264 OA
ENDROOT
BRANCH   1  14
HETATM   14  C3  UNL     1      -0.500   0.752  -0.447  1.00  0.00     0.194 C 
BRANCH  14  15
HETATM   15  C2  UNL     1      -1.903   0.219  -0.173  1.00  0.00     0.136 C 
HETATM   16  C1  UNL     1      -2.350   0.458   1.231  1.00  0.00     0.033 C 
BRANCH  15  17
HETATM   17  N1  UNL     1      -1.956  -1.217  -0.415  1.00  0.00    -0.067 NA
BRANCH  17  18
HETATM   18  O1  UNL     1      -3.188  -1.709  -0.262  1.00  0.00    -0.172 OA
BRANCH  18  19
HETATM   19  N2  UNL     1      -3.537  -2.415  -1.360  1.00  0.00    -0.290 N 
ATOM     20  H22 UNL     1      -2.938  -2.544  -2.175  1.00  0.00     0.186 HD
ATOM     21  H21 UNL     1      -4.478  -2.791  -1.243  1.00  0.00     0.186 HD
ENDBRANCH  18  19
ENDBRANCH  17  18
ENDBRANCH  15  17
ENDBRANCH  14  15
BRANCH  14  22
HETATM   22  C8  UNL     1      -0.465   2.222  -0.381  1.00  0.00     0.255 C 
HETATM   23  N6  UNL     1      -1.247   3.066  -1.209  1.00  0.00    -0.060 NA
HETATM   24  O5  UNL     1       0.296   2.771   0.451  1.00  0.00    -0.275 OA
ENDBRANCH  14  22
ENDBRANCH   1  14
TORSDOF 6
