REMARK  7 active torsions:
REMARK  status: ('A' for Active; 'I' for Inactive)
REMARK    1  A    between atoms: S1_2  and  N1_5 
REMARK    2  A    between atoms: N1_5  and  C2_7 
REMARK    3  A    between atoms: C8_18  and  C9_19 
REMARK    4  A    between atoms: C9_19  and  C10_21 
REMARK       I    between atoms: C10_21  and  N3_23 
REMARK    5  A    between atoms: N3_23  and  C11_25 
REMARK    6  A    between atoms: N5_35  and  C18_36 
REMARK    7  A    between atoms: C23_41  and  O7_42 
ROOT
HETATM    1  C2  UNL     1      -4.988   0.625  -0.907  1.00  0.00     0.043 A 
HETATM    2  C3  UNL     1      -4.698  -0.724  -1.067  1.00  0.00     0.032 A 
HETATM    3  C4  UNL     1      -3.426  -1.247  -0.835  1.00  0.00     0.034 A 
HETATM    4  C5  UNL     1      -2.406  -0.401  -0.429  1.00  0.00     0.065 A 
HETATM    5  C6  UNL     1      -2.702   0.925  -0.276  1.00  0.00     0.109 A 
HETATM    6  C7  UNL     1      -3.968   1.425  -0.510  1.00  0.00     0.057 A 
HETATM    7  S2  UNL     1      -1.424   2.017   0.196  1.00  0.00     0.266 S 
HETATM    8  O3  UNL     1      -1.756   2.675   1.524  1.00  0.00    -0.200 OA
HETATM    9  O4  UNL     1      -1.217   3.095  -0.833  1.00  0.00    -0.200 OA
HETATM   10  N2  UNL     1      -0.032   1.083   0.431  1.00  0.00    -0.262 N 
ATOM     11  H2  UNL     1       0.821   1.542   0.750  1.00  0.00     0.180 HD
HETATM   12  C8  UNL     1      -0.012  -0.200   0.219  1.00  0.00     0.179 A 
HETATM   13  N5  UNL     1      -1.100  -0.978  -0.194  1.00  0.00    -0.290 N 
ENDROOT
BRANCH  12  14
HETATM   14  C9  UNL     1       1.286  -0.810   0.486  1.00  0.00     0.284 C 
HETATM   15  O5  UNL     1       1.545  -2.012   0.380  1.00  0.00    -0.278 OA
BRANCH  14  16
HETATM   16  C10 UNL     1       2.403   0.042   0.918  1.00  0.00     0.301 C 
HETATM   17  O6  UNL     1       2.274   1.277   1.064  1.00  0.00    -0.264 OA
HETATM   18  N3  UNL     1       3.694  -0.488   1.195  1.00  0.00    -0.300 N 
ATOM     19  H3  UNL     1       3.805  -1.388   1.663  1.00  0.00     0.171 HD
BRANCH  18  20
HETATM   20  C11 UNL     1       4.744   0.223   0.827  1.00  0.00     0.152 A 
HETATM   21  N4  UNL     1       6.026  -0.089   0.991  1.00  0.00    -0.335 N 
HETATM   22  C12 UNL     1       6.938   0.753   0.554  1.00  0.00     0.051 A 
ATOM     23  H4  UNL     1       6.296  -0.961   1.445  1.00  0.00     0.168 HD
HETATM   24  C13 UNL     1       8.341   0.593   0.639  1.00  0.00     0.031 A 
HETATM   25  C17 UNL     1       6.506   1.902  -0.043  1.00  0.00     0.035 A 
HETATM   26  C14 UNL     1       9.191   1.536   0.150  1.00  0.00     0.002 A 
HETATM   27  C15 UNL     1       8.761   2.697  -0.454  1.00  0.00     0.002 A 
HETATM   28  C16 UNL     1       7.395   2.868  -0.544  1.00  0.00     0.021 A 
HETATM   29  S3  UNL     1       4.808   1.734   0.042  1.00  0.00    -0.052 SA
ENDBRANCH  18  20
ENDBRANCH  14  16
ENDBRANCH  12  14
BRANCH  13  30
HETATM   30  C18 UNL     1      -1.008  -2.412  -0.364  1.00  0.00     0.074 A 
HETATM   31  C19 UNL     1      -0.378  -3.020  -1.414  1.00  0.00     0.033 A 
HETATM   32  C20 UNL     1      -0.283  -4.398  -1.533  1.00  0.00     0.002 A 
HETATM   33  C21 UNL     1      -0.847  -5.173  -0.554  1.00  0.00     0.003 A 
HETATM   34  C22 UNL     1      -1.488  -4.615   0.516  1.00  0.00     0.039 A 
HETATM   35  C23 UNL     1      -1.568  -3.249   0.611  1.00  0.00     0.092 A 
BRANCH  35  36
HETATM   36  O7  UNL     1      -2.221  -2.652   1.702  1.00  0.00    -0.358 OA
ATOM     37  H7  UNL     1      -2.601  -3.219   2.363  1.00  0.00     0.217 HD
ENDBRANCH  35  36
ENDBRANCH  13  30
BRANCH   1  38
HETATM   38  N1  UNL     1      -6.322   1.018  -1.173  1.00  0.00    -0.285 N 
ATOM     39  H1  UNL     1      -6.750   0.656  -2.025  1.00  0.00     0.178 HD
BRANCH  38  40
HETATM   40  S1  UNL     1      -7.279   2.041  -0.199  1.00  0.00     0.227 S 
HETATM   41  C1  UNL     1      -6.518   3.631  -0.094  1.00  0.00     0.186 C 
HETATM   42  O1  UNL     1      -8.619   2.240  -0.875  1.00  0.00    -0.206 OA
HETATM   43  O2  UNL     1      -7.526   1.453   1.166  1.00  0.00    -0.206 OA
ENDBRANCH  38  40
ENDBRANCH   1  38
TORSDOF 7
