REMARK  3 active torsions:
REMARK  status: ('A' for Active; 'I' for Inactive)
REMARK    1  A    between atoms: C2_7  and  O1_8 
REMARK    2  A    between atoms: O1_8  and  C3_9 
REMARK    3  A    between atoms: N4_15  and  N5_16 
ROOT
HETATM    1  N1  UNL     1      -3.519   1.364   1.365  1.00  0.00    -0.234 N 
ATOM      2  H11 UNL     1      -4.505   1.372   1.628  1.00  0.00     0.174 HD
ATOM      3  H12 UNL     1      -2.958   2.182   1.602  1.00  0.00     0.174 HD
HETATM    4  C1  UNL     1      -3.034   0.332   0.753  1.00  0.00     0.683 A 
HETATM    5  N2  UNL     1      -1.713   0.321   0.401  1.00  0.00    -0.155 N 
ATOM      6  H2  UNL     1      -1.142   1.134   0.633  1.00  0.00     0.188 HD
HETATM    7  C2  UNL     1      -1.135  -0.704  -0.232  1.00  0.00     0.244 A 
HETATM    8  N6  UNL     1      -1.930  -1.778  -0.528  1.00  0.00    -0.273 N 
ATOM      9  H6  UNL     1      -1.525  -2.580  -1.011  1.00  0.00     0.174 HD
HETATM   10  C6  UNL     1      -3.232  -1.800  -0.196  1.00  0.00     0.341 A 
HETATM   11  O3  UNL     1      -4.000  -2.759  -0.445  1.00  0.00    -0.246 OA
HETATM   12  N7  UNL     1      -3.765  -0.735   0.444  1.00  0.00    -0.141 N 
ATOM     13  H7  UNL     1      -4.753  -0.750   0.696  1.00  0.00     0.189 HD
ENDROOT
BRANCH   7  14
HETATM   14  O1  UNL     1       0.187  -0.711  -0.583  1.00  0.00    -0.292 OA
BRANCH  14  15
HETATM   15  C3  UNL     1       1.108   0.280  -0.359  1.00  0.00     0.275 C 
HETATM   16  C4  UNL     1       1.762   0.786  -1.655  1.00  0.00     0.180 C 
HETATM   17  N3  UNL     1       2.907   1.493  -1.124  1.00  0.00    -0.337 N 
HETATM   18  C5  UNL     1       3.288   0.804   0.058  1.00  0.00     0.339 C 
ATOM     19  H3  UNL     1       3.352   2.321  -1.520  1.00  0.00     0.164 HD
HETATM   20  O2  UNL     1       4.313   1.024   0.782  1.00  0.00    -0.245 OA
HETATM   21  N4  UNL     1       2.318  -0.212   0.331  1.00  0.00    -0.217 N 
BRANCH  21  22
HETATM   22  N5  UNL     1       2.472  -1.386   1.070  1.00  0.00    -0.337 N 
ATOM     23  H52 UNL     1       1.781  -2.110   1.265  1.00  0.00     0.177 HD
ATOM     24  H51 UNL     1       3.307  -1.726   1.546  1.00  0.00     0.177 HD
ENDBRANCH  21  22
ENDBRANCH  14  15
ENDBRANCH   7  14
TORSDOF 3
