REMARK  10 active torsions:
REMARK  status: ('A' for Active; 'I' for Inactive)
REMARK    1  A    between atoms: O1_2  and  C2_3 
REMARK    2  A    between atoms: C2_3  and  C3_5 
REMARK    3  A    between atoms: C7_9  and  C8_10 
REMARK    4  A    between atoms: C8_10  and  C9_11 
REMARK    5  A    between atoms: C9_11  and  C10_12 
REMARK    6  A    between atoms: C11_13  and  C13_16 
REMARK    7  A    between atoms: C13_16  and  C14_17 
REMARK    8  A    between atoms: C14_17  and  C15_18 
REMARK    9  A    between atoms: C18_21  and  O3_22 
REMARK   10  A    between atoms: C22_27  and  O4_28 
ROOT
HETATM    1  C10 UNL     1      -0.238   0.110  -1.190  1.00  0.00     0.069 C 
HETATM    2  C11 UNL     1      -1.028  -0.677  -0.467  1.00  0.00     0.029 C 
HETATM    3  C12 UNL     1      -0.530  -1.529   0.534  1.00  0.00     0.095 C 
HETATM    4  N1  UNL     1      -0.143  -2.253   1.379  1.00  0.00    -0.192 NA
ENDROOT
BRANCH   2   5
HETATM    5  C13 UNL     1      -2.481  -0.638  -0.762  1.00  0.00     0.055 C 
BRANCH   5   6
HETATM    6  C14 UNL     1      -3.265  -0.200   0.457  1.00  0.00     0.040 C 
BRANCH   6   7
HETATM    7  C15 UNL     1      -4.718  -0.179   0.018  1.00  0.00    -0.075 C 
HETATM    8  C16 UNL     1      -5.445   0.905   0.068  1.00  0.00    -0.053 C 
HETATM    9  C17 UNL     1      -4.843   2.194   0.580  1.00  0.00     0.046 C 
HETATM   10  C18 UNL     1      -6.858   0.936  -0.397  1.00  0.00     0.147 C 
HETATM   11  C19 UNL     1      -7.500  -0.377  -0.619  1.00  0.00     0.036 C 
HETATM   12  C20 UNL     1      -6.744  -1.462   0.093  1.00  0.00     0.007 C 
HETATM   13  C21 UNL     1      -5.327  -1.448  -0.471  1.00  0.00     0.034 C 
BRANCH  10  14
HETATM   14  O3  UNL     1      -7.659   1.764   0.391  1.00  0.00    -0.391 OA
ATOM     15  H3  UNL     1      -8.561   1.784   0.094  1.00  0.00     0.210 HD
ENDBRANCH  10  14
ENDBRANCH   6   7
ENDBRANCH   5   6
ENDBRANCH   2   5
BRANCH   1  16
HETATM   16  C9  UNL     1       1.138   0.163  -1.028  1.00  0.00    -0.154 C 
BRANCH  16  17
HETATM   17  C8  UNL     1       2.364   0.211  -0.884  1.00  0.00     0.092 C 
BRANCH  17  18
HETATM   18  C7  UNL     1       3.225  -0.596   0.102  1.00  0.00     0.026 C 
HETATM   19  C6  UNL     1       4.042  -1.482  -0.745  1.00  0.00     0.008 C 
HETATM   20  C5  UNL     1       5.462  -1.683  -0.333  1.00  0.00     0.001 C 
HETATM   21  C4  UNL     1       5.795  -1.134   1.007  1.00  0.00     0.017 C 
HETATM   22  C3  UNL     1       5.394   0.323   1.048  1.00  0.00     0.114 C 
HETATM   23  C22 UNL     1       3.910   0.391   0.971  1.00  0.00     0.136 C 
BRANCH  22  24
HETATM   24  C2  UNL     1       6.114   1.138   0.074  1.00  0.00     0.265 C 
HETATM   25  O2  UNL     1       5.484   1.950  -0.644  1.00  0.00    -0.265 OA
BRANCH  24  26
HETATM   26  O1  UNL     1       7.489   1.071  -0.110  1.00  0.00    -0.326 OA
HETATM   27  C1  UNL     1       8.127   1.907  -1.095  1.00  0.00     0.213 C 
ENDBRANCH  24  26
ENDBRANCH  22  24
BRANCH  23  28
HETATM   28  O4  UNL     1       3.439   0.228   2.301  1.00  0.00    -0.394 OA
ATOM     29  H4  UNL     1       2.491   0.271   2.252  1.00  0.00     0.210 HD
ENDBRANCH  23  28
ENDBRANCH  17  18
ENDBRANCH  16  17
ENDBRANCH   1  16
TORSDOF 10
