REMARK  2 active torsions:
REMARK  status: ('A' for Active; 'I' for Inactive)
REMARK       I    between atoms: N1_2  and  C2_4 
REMARK       I    between atoms: C2_4  and  N2_6 
REMARK       I    between atoms: N2_6  and  C3_8 
REMARK       I    between atoms: C3_8  and  N3_10 
REMARK    1  A    between atoms: N3_10  and  C4_12 
REMARK    2  A    between atoms: C4_12  and  C6_14 
ROOT
HETATM    1  C1  UNL     1       4.549   1.259   0.687  1.00  0.00     0.151 C 
HETATM    2  N1  UNL     1       3.151   0.657   0.450  1.00  0.00    -0.347 N 
ATOM      3  H1  UNL     1       2.336   1.014   0.949  1.00  0.00     0.163 HD
HETATM    4  C2  UNL     1       3.037  -0.312  -0.397  1.00  0.00     0.323 C 
HETATM    5  O1  UNL     1       4.010  -0.788  -1.035  1.00  0.00    -0.247 OA
HETATM    6  N2  UNL     1       1.638  -1.148  -0.848  1.00  0.00    -0.261 N 
ATOM      7  H2  UNL     1       1.498  -1.915  -1.506  1.00  0.00     0.175 HD
HETATM    8  C3  UNL     1       0.730  -0.456  -0.034  1.00  0.00     0.324 C 
HETATM    9  O2  UNL     1       0.801   0.446   0.743  1.00  0.00    -0.247 OA
HETATM   10  N3  UNL     1      -0.682  -0.951  -0.151  1.00  0.00    -0.338 N 
ATOM     11  H3  UNL     1      -0.908  -1.723  -0.778  1.00  0.00     0.164 HD
ENDROOT
BRANCH  10  12
HETATM   12  C4  UNL     1      -1.690  -0.338   0.613  1.00  0.00     0.086 C 
HETATM   13  C5  UNL     1      -2.268  -1.376   1.584  1.00  0.00     0.032 C 
BRANCH  12  14
HETATM   14  C6  UNL     1      -2.824   0.267  -0.175  1.00  0.00     0.008 A 
HETATM   15  C7  UNL     1      -2.486   1.371  -1.166  1.00  0.00     0.007 A 
HETATM   16  C8  UNL     1      -3.007   0.012  -1.621  1.00  0.00     0.007 A 
ENDBRANCH  12  14
ENDBRANCH  10  12
TORSDOF 2
