REMARK  8 active torsions:
REMARK  status: ('A' for Active; 'I' for Inactive)
REMARK    1  A    between atoms: N1_1  and  C1_4 
REMARK    2  A    between atoms: N5_14  and  C4_15 
REMARK    3  A    between atoms: C5_17  and  C6_18 
REMARK       I    between atoms: C6_18  and  N6_20 
REMARK    4  A    between atoms: N6_20  and  C7_22 
REMARK    5  A    between atoms: C7_22  and  C8_23 
REMARK    6  A    between atoms: C8_23  and  O4_24 
REMARK    7  A    between atoms: C8_23  and  O5_26 
REMARK    8  A    between atoms: C9_30  and  O6_31 
ROOT
HETATM    1  C4  UNL     1      -1.042  -0.575   0.673  1.00  0.00     0.304 C 
HETATM    2  O2  UNL     1       0.076   0.277   0.134  1.00  0.00    -0.299 OA
HETATM    3  C5  UNL     1       1.109  -0.361   0.619  1.00  0.00     0.212 C 
HETATM    4  N7  UNL     1       0.853  -1.748   0.055  1.00  0.00    -0.336 N 
ATOM      5  H7  UNL     1       1.417  -2.336  -0.558  1.00  0.00     0.164 HD
HETATM    6  C9  UNL     1      -0.450  -1.975   0.664  1.00  0.00     0.271 C 
ENDROOT
BRANCH   1   7
HETATM    7  N5  UNL     1      -2.150  -0.529  -0.233  1.00  0.00    -0.225 N 
HETATM    8  N4  UNL     1      -2.280  -1.116  -1.415  1.00  0.00    -0.236 N 
HETATM    9  N3  UNL     1      -3.461  -0.768  -1.883  1.00  0.00    -0.278 N 
ATOM     10  H4  UNL     1      -1.598  -1.720  -1.873  1.00  0.00     0.208 HD
HETATM   11  C3  UNL     1      -4.104   0.031  -1.034  1.00  0.00     0.164 A 
ATOM     12  H3  UNL     1      -3.835  -1.072  -2.782  1.00  0.00     0.189 HD
HETATM   13  C2  UNL     1      -5.321   0.670  -1.023  1.00  0.00     0.291 A 
HETATM   14  C10 UNL     1      -3.256   0.200   0.066  1.00  0.00     0.175 A 
HETATM   15  N2  UNL     1      -5.681   1.440   0.023  1.00  0.00    -0.154 N 
HETATM   16  O1  UNL     1      -6.093   0.524  -2.014  1.00  0.00    -0.265 OA
HETATM   17  C1  UNL     1      -4.862   1.607   1.084  1.00  0.00     0.680 A 
ATOM     18  H2  UNL     1      -6.589   1.905   0.013  1.00  0.00     0.187 HD
HETATM   19  N8  UNL     1      -3.664   0.971   1.074  1.00  0.00    -0.173 N 
ATOM     20  H8  UNL     1      -3.045   1.088   1.877  1.00  0.00     0.186 HD
BRANCH  17  21
HETATM   21  N1  UNL     1      -5.272   2.360   2.037  1.00  0.00    -0.234 N 
ATOM     22  H12 UNL     1      -6.173   2.838   2.045  1.00  0.00     0.174 HD
ATOM     23  H11 UNL     1      -4.654   2.486   2.838  1.00  0.00     0.174 HD
ENDBRANCH  17  21
ENDBRANCH   1   7
BRANCH   6  24
HETATM   24  O6  UNL     1      -0.249  -2.446   1.991  1.00  0.00    -0.372 OA
ATOM     25  H6  UNL     1       0.121  -3.321   1.985  1.00  0.00     0.212 HD
ENDBRANCH   6  24
BRANCH   3  26
HETATM   26  C6  UNL     1       2.504  -0.161   0.699  1.00  0.00     0.292 C 
HETATM   27  O3  UNL     1       3.129   0.183   1.711  1.00  0.00    -0.264 OA
HETATM   28  N6  UNL     1       3.286  -0.415  -0.506  1.00  0.00    -0.349 N 
ATOM     29  H6  UNL     1       2.784  -0.689  -1.350  1.00  0.00     0.163 HD
BRANCH  28  30
HETATM   30  C7  UNL     1       4.690  -0.307  -0.582  1.00  0.00     0.183 C 
BRANCH  30  31
HETATM   31  C8  UNL     1       5.370   1.005  -0.517  1.00  0.00     0.271 C 
BRANCH  31  32
HETATM   32  O4  UNL     1       6.780   0.719  -0.643  1.00  0.00    -0.370 OA
ATOM     33  H4  UNL     1       7.217   1.562  -0.601  1.00  0.00     0.212 HD
ENDBRANCH  31  32
BRANCH  31  34
HETATM   34  O5  UNL     1       5.268   1.712   0.639  1.00  0.00    -0.370 OA
ATOM     35  H5  UNL     1       5.705   2.555   0.681  1.00  0.00     0.212 HD
ENDBRANCH  31  34
ENDBRANCH  30  31
ENDBRANCH  28  30
ENDBRANCH   3  26
TORSDOF 8
