REMARK  6 active torsions:
REMARK  status: ('A' for Active; 'I' for Inactive)
REMARK    1  A    between atoms: N1_1  and  C1_4 
REMARK    2  A    between atoms: C2_9  and  C3_10 
REMARK    3  A    between atoms: C3_10  and  C4_11 
REMARK    4  A    between atoms: C4_11  and  C5_12 
REMARK    5  A    between atoms: C5_12  and  N4_13 
REMARK    6  A    between atoms: C5_12  and  N5_17 
ROOT
HETATM    1  C3  UNL     1      -0.181  -0.325   1.212  1.00  0.00     0.066 C 
ENDROOT
BRANCH   1   2
HETATM    2  C2  UNL     1      -1.207   0.577   0.664  1.00  0.00     0.076 A 
HETATM    3  C1  UNL     1      -2.411   0.240   0.084  1.00  0.00     0.185 A 
HETATM    4  O1  UNL     1      -3.031   1.357  -0.272  1.00  0.00    -0.204 OA
HETATM    5  N2  UNL     1      -2.275   2.362   0.057  1.00  0.00     0.028 NA
HETATM    6  N3  UNL     1      -1.158   1.919   0.629  1.00  0.00    -0.278 N 
ATOM      7  H3  UNL     1      -0.396   2.499   0.980  1.00  0.00     0.184 HD
BRANCH   3   8
HETATM    8  N1  UNL     1      -2.829  -0.957  -0.071  1.00  0.00    -0.377 N 
ATOM      9  H12 UNL     1      -3.720  -1.206  -0.500  1.00  0.00     0.158 HD
ATOM     10  H11 UNL     1      -2.352  -1.816   0.203  1.00  0.00     0.158 HD
ENDBRANCH   3   8
ENDBRANCH   1   2
BRANCH   1  11
HETATM   11  C4  UNL     1       0.646  -1.009   0.168  1.00  0.00     0.068 C 
BRANCH  11  12
HETATM   12  C5  UNL     1       1.404  -0.085  -0.726  1.00  0.00     0.378 C 
BRANCH  12  13
HETATM   13  N4  UNL     1       2.336   0.765  -0.054  1.00  0.00    -0.051 N 
ATOM     14  H43 UNL     1       1.867   1.291   0.683  1.00  0.00     0.276 HD
ATOM     15  H42 UNL     1       2.980   0.209   0.509  1.00  0.00     0.276 HD
ATOM     16  H41 UNL     1       2.854   1.396  -0.665  1.00  0.00     0.276 HD
ENDBRANCH  12  13
BRANCH  12  17
HETATM   17  N5  UNL     1       2.039  -0.926  -1.748  1.00  0.00    -0.051 N 
ATOM     18  H53 UNL     1       2.613  -1.673  -1.358  1.00  0.00     0.276 HD
ATOM     19  H52 UNL     1       1.380  -1.522  -2.248  1.00  0.00     0.276 HD
ATOM     20  H51 UNL     1       2.557  -0.295  -2.359  1.00  0.00     0.276 HD
ENDBRANCH  12  17
ENDBRANCH  11  12
ENDBRANCH   1  11
TORSDOF 6
