REMARK  5 active torsions:
REMARK  status: ('A' for Active; 'I' for Inactive)
REMARK    1  A    between atoms: C2_2  and  C3_3 
REMARK       I    between atoms: C3_3  and  N1_5 
REMARK    2  A    between atoms: N1_5  and  N2_6 
REMARK    3  A    between atoms: N2_6  and  C4_8 
REMARK    4  A    between atoms: C4_8  and  N3_10 
REMARK    5  A    between atoms: N3_10  and  C5_12 
ROOT
HETATM    1  C4  UNL     1       0.321  -1.040   1.152  1.00  0.00     0.197 C 
HETATM    2  S1  UNL     1      -0.677  -1.620   2.302  1.00  0.00    -0.039 SA
ENDROOT
BRANCH   1   3
HETATM    3  N2  UNL     1       1.708  -1.424   1.179  1.00  0.00    -0.205 N 
ATOM      4  H2  UNL     1       2.007  -2.054   1.924  1.00  0.00     0.204 HD
BRANCH   3   5
HETATM    5  N1  UNL     1       2.614  -1.029   0.324  1.00  0.00    -0.280 NA
HETATM    6  C3  UNL     1       3.552  -0.623  -0.561  1.00  0.00     0.335 C 
HETATM    7  O1  UNL     1       3.932  -1.210  -1.612  1.00  0.00    -0.250 OA
BRANCH   6   8
HETATM    8  C2  UNL     1       4.251   0.646  -0.325  1.00  0.00     0.082 C 
HETATM    9  C1  UNL     1       5.172   1.193  -1.045  1.00  0.00     0.018 C 
ENDBRANCH   6   8
ENDBRANCH   3   5
ENDBRANCH   1   3
BRANCH   1  10
HETATM   10  N3  UNL     1      -0.194  -0.165   0.176  1.00  0.00    -0.361 N 
ATOM     11  H3  UNL     1       0.475   0.186  -0.510  1.00  0.00     0.162 HD
BRANCH  10  12
HETATM   12  C5  UNL     1      -1.497   0.276   0.035  1.00  0.00     0.083 C 
HETATM   13  C6  UNL     1      -2.518   0.080   1.114  1.00  0.00     0.025 C 
HETATM   14  C7  UNL     1      -3.701   0.844   0.466  1.00  0.00     0.002 C 
HETATM   15  C8  UNL     1      -3.524   0.617  -1.044  1.00  0.00     0.002 C 
HETATM   16  C9  UNL     1      -2.302  -0.313  -1.143  1.00  0.00     0.025 C 
ENDBRANCH  10  12
ENDBRANCH   1  10
TORSDOF 5
