REMARK  12 active torsions:
REMARK  status: ('A' for Active; 'I' for Inactive)
REMARK    1  A    between atoms: C2_2  and  C4_4 
REMARK       I    between atoms: C4_4  and  N1_6 
REMARK    2  A    between atoms: N1_6  and  C5_8 
REMARK    3  A    between atoms: C5_8  and  C6_9 
REMARK    4  A    between atoms: C6_9  and  N2_10 
REMARK    5  A    between atoms: C8_13  and  O3_15 
REMARK    6  A    between atoms: C10_17  and  C11_18 
REMARK    7  A    between atoms: C14_21  and  O4_22 
REMARK    8  A    between atoms: N5_34  and  C23_35 
REMARK    9  A    between atoms: C23_35  and  C24_36 
REMARK   10  A    between atoms: C24_36  and  N6_37 
REMARK   11  A    between atoms: N6_37  and  C25_38 
REMARK   12  A    between atoms: N6_37  and  C27_40 
ROOT
HETATM    1  N2  UNL     1       0.936   1.193  -0.757  1.00  0.00    -0.307 N 
HETATM    2  C7  UNL     1       2.229   1.124  -1.369  1.00  0.00     0.261 C 
HETATM    3  O2  UNL     1       2.488   2.180  -2.045  1.00  0.00    -0.269 OA
HETATM    4  C8  UNL     1       3.356   0.159  -1.432  1.00  0.00     0.159 C 
HETATM    5  C9  UNL     1       3.426  -0.255  -2.862  1.00  0.00     0.059 C 
HETATM    6  C10 UNL     1       3.239  -0.906  -0.414  1.00  0.00     0.162 C 
HETATM    7  N4  UNL     1       2.050  -1.748  -0.639  1.00  0.00    -0.370 N 
HETATM    8  C17 UNL     1       2.103  -3.020  -1.230  1.00  0.00     0.150 C 
HETATM    9  C18 UNL     1       0.720  -1.341  -0.350  1.00  0.00     0.071 A 
HETATM   10  C19 UNL     1      -0.056  -2.414  -0.003  1.00  0.00    -0.011 A 
HETATM   11  C20 UNL     1       0.503  -3.726   0.133  1.00  0.00     0.052 C 
HETATM   12  C21 UNL     1      -1.408  -2.084   0.247  1.00  0.00     0.019 A 
HETATM   13  C22 UNL     1      -2.271  -3.211   0.621  1.00  0.00     0.069 C 
HETATM   14  N5  UNL     1      -1.898  -0.843   0.160  1.00  0.00    -0.315 N 
HETATM   15  C29 UNL     1      -1.086   0.205  -0.188  1.00  0.00     0.277 A 
HETATM   16  O5  UNL     1      -1.548   1.355  -0.267  1.00  0.00    -0.265 OA
HETATM   17  C30 UNL     1       0.210  -0.016  -0.444  1.00  0.00     0.133 A 
ENDROOT
BRANCH   1  18
HETATM   18  C6  UNL     1       0.362   2.446  -0.427  1.00  0.00     0.152 C 
BRANCH  18  19
HETATM   19  C5  UNL     1       0.655   2.969   0.958  1.00  0.00     0.143 C 
BRANCH  19  20
HETATM   20  N1  UNL     1       0.067   4.240   1.250  1.00  0.00    -0.356 N 
HETATM   21  C4  UNL     1       0.208   4.921   2.483  1.00  0.00     0.246 C 
HETATM   22  O1  UNL     1       0.899   4.353   3.368  1.00  0.00    -0.268 OA
ATOM     23  H1  UNL     1      -0.491   4.685   0.521  1.00  0.00     0.162 HD
BRANCH  21  24
HETATM   24  C2  UNL     1      -0.407   6.213   2.741  1.00  0.00    -0.004 C 
HETATM   25  C1  UNL     1      -0.245   6.796   3.897  1.00  0.00     0.024 C 
HETATM   26  C3  UNL     1      -1.222   6.873   1.685  1.00  0.00     0.053 C 
ENDBRANCH  21  24
ENDBRANCH  19  20
ENDBRANCH  18  19
ENDBRANCH   1  18
BRANCH   4  27
HETATM   27  O3  UNL     1       4.484   0.940  -1.061  1.00  0.00    -0.378 OA
ATOM     28  H3  UNL     1       5.205   0.323  -1.101  1.00  0.00     0.211 HD
ENDBRANCH   4  27
BRANCH   6  29
HETATM   29  C11 UNL     1       4.377  -1.725  -0.083  1.00  0.00    -0.016 A 
HETATM   30  C12 UNL     1       5.617  -1.742  -0.636  1.00  0.00     0.015 A 
HETATM   31  C13 UNL     1       6.635  -2.566  -0.209  1.00  0.00     0.057 A 
HETATM   32  C14 UNL     1       6.374  -3.421   0.839  1.00  0.00     0.141 A 
HETATM   33  N3  UNL     1       5.172  -3.419   1.390  1.00  0.00    -0.346 N 
HETATM   34  C16 UNL     1       4.199  -2.627   0.979  1.00  0.00     0.099 A 
ATOM     35  H3  UNL     1       4.989  -4.056   2.165  1.00  0.00     0.167 HD
BRANCH  32  36
HETATM   36  O4  UNL     1       7.397  -4.271   1.290  1.00  0.00    -0.341 OA
HETATM   37  C15 UNL     1       7.088  -5.131   2.366  1.00  0.00     0.211 C 
ENDBRANCH  32  36
ENDBRANCH   6  29
BRANCH  14  38
HETATM   38  C23 UNL     1      -3.284  -0.508   0.413  1.00  0.00     0.151 C 
BRANCH  38  39
HETATM   39  C24 UNL     1      -4.119  -0.590  -0.845  1.00  0.00     0.137 C 
BRANCH  39  40
HETATM   40  N6  UNL     1      -5.481  -0.273  -0.654  1.00  0.00    -0.412 N 
BRANCH  40  41
HETATM   41  C25 UNL     1      -5.763   1.097  -0.334  1.00  0.00     0.112 C 
HETATM   42  C26 UNL     1      -7.221   1.379  -0.148  1.00  0.00     0.026 C 
ENDBRANCH  40  41
BRANCH  40  43
HETATM   43  C27 UNL     1      -6.397  -0.874  -1.557  1.00  0.00     0.112 C 
HETATM   44  C28 UNL     1      -6.177  -0.284  -2.945  1.00  0.00     0.026 C 
ENDBRANCH  40  43
ENDBRANCH  39  40
ENDBRANCH  38  39
ENDBRANCH  14  38
TORSDOF 12
