REMARK  1 active torsions:
REMARK  status: ('A' for Active; 'I' for Inactive)
REMARK    1  A    between atoms: C8_11  and  O1_13 
ROOT
HETATM    1  C1  UNL     1       1.383  -1.067   1.327  1.00  0.00     0.020 C 
HETATM    2  C2  UNL     1       0.439  -0.655   0.197  1.00  0.00     0.010 C 
HETATM    3  C3  UNL     1       0.908  -1.419  -1.039  1.00  0.00     0.020 C 
HETATM    4  C4  UNL     1      -0.930  -1.099   0.548  1.00  0.00     0.020 C 
HETATM    5  C5  UNL     1      -1.967  -0.031   0.561  1.00  0.00     0.019 A 
HETATM    6  C6  UNL     1      -2.742   0.129  -0.775  1.00  0.00     0.040 A 
HETATM    7  C7  UNL     1      -1.759   1.121  -0.290  1.00  0.00     0.194 A 
HETATM    8  N1  UNL     1      -0.475   1.275  -0.894  1.00  0.00    -0.038 N 
ATOM      9  H11 UNL     1      -0.316   2.229  -1.217  1.00  0.00     0.281 HD
ATOM     10  H12 UNL     1      -0.416   0.801  -1.795  1.00  0.00     0.281 HD
HETATM   11  C8  UNL     1       0.569   0.826   0.033  1.00  0.00     0.228 C 
HETATM   12  C9  UNL     1       1.882   1.208  -0.588  1.00  0.00     0.079 C 
ENDROOT
BRANCH  11  13
HETATM   13  O1  UNL     1       0.459   1.423   1.272  1.00  0.00    -0.365 OA
ATOM     14  H1  UNL     1       0.542   2.364   1.168  1.00  0.00     0.212 HD
ENDBRANCH  11  13
TORSDOF 1
