REMARK  10 active torsions:
REMARK  status: ('A' for Active; 'I' for Inactive)
REMARK    1  A    between atoms: C1_2  and  C2_3 
REMARK       I    between atoms: C1_2  and  N4_24 
REMARK    2  A    between atoms: C2_3  and  N1_4 
REMARK    3  A    between atoms: C4_6  and  C5_7 
REMARK    4  A    between atoms: C6_8  and  C7_9 
REMARK    5  A    between atoms: C7_9  and  C8_10 
REMARK    6  A    between atoms: C8_10  and  C9_11 
REMARK    7  A    between atoms: C9_11  and  N2_12 
REMARK    8  A    between atoms: C15_20  and  C16_21 
REMARK    9  A    between atoms: C16_21  and  O2_22 
REMARK   10  A    between atoms: N4_24  and  C17_26 
ROOT
HETATM    1  N1  UNL     1       2.118  -0.916  -0.128  1.00  0.00    -0.333 N 
HETATM    2  C3  UNL     1       1.015  -1.351   0.554  1.00  0.00     0.132 A 
HETATM    3  C4  UNL     1      -0.137  -0.964  -0.096  1.00  0.00     0.103 A 
HETATM    4  N3  UNL     1       0.269  -0.287  -1.183  1.00  0.00    -0.336 N 
ATOM      5  H3  UNL     1      -0.341   0.137  -1.882  1.00  0.00     0.168 HD
HETATM    6  C15 UNL     1       1.634  -0.262  -1.196  1.00  0.00     0.108 A 
ENDROOT
BRANCH   1   7
HETATM    7  C2  UNL     1       3.482  -1.163   0.299  1.00  0.00     0.232 C 
BRANCH   7   8
HETATM    8  C1  UNL     1       3.991  -0.096   1.187  1.00  0.00     0.241 C 
HETATM    9  O1  UNL     1       3.226   0.885   1.404  1.00  0.00    -0.271 OA
HETATM   10  N4  UNL     1       5.252  -0.104   1.798  1.00  0.00    -0.311 N 
ATOM     11  H4  UNL     1       5.327  -0.407   2.769  1.00  0.00     0.170 HD
BRANCH  10  12
HETATM   12  C17 UNL     1       6.316   0.257   1.178  1.00  0.00     0.123 A 
HETATM   13  C18 UNL     1       7.561   0.244   1.795  1.00  0.00     0.136 A 
HETATM   14  N5  UNL     1       8.660   0.624   1.134  1.00  0.00    -0.371 N 
HETATM   15  C19 UNL     1       8.607   1.033  -0.154  1.00  0.00     0.104 A 
ATOM     16  H5  UNL     1       9.560   0.605   1.613  1.00  0.00     0.164 HD
HETATM   17  C20 UNL     1       7.376   1.056  -0.795  1.00  0.00     0.106 A 
HETATM   18  N6  UNL     1       6.300   0.671  -0.108  1.00  0.00    -0.350 N 
ATOM     19  H6  UNL     1       5.400   0.690  -0.588  1.00  0.00     0.166 HD
ENDBRANCH  10  12
ENDBRANCH   7   8
ENDBRANCH   1   7
BRANCH   6  20
HETATM   20  C16 UNL     1       2.452   0.397  -2.247  1.00  0.00     0.240 C 
BRANCH  20  21
HETATM   21  O2  UNL     1       2.714  -0.587  -3.216  1.00  0.00    -0.393 OA
ATOM     22  H2  UNL     1       3.237  -0.166  -3.888  1.00  0.00     0.209 HD
ENDBRANCH  20  21
ENDBRANCH   6  20
BRANCH   3  23
HETATM   23  C5  UNL     1      -1.506  -1.234   0.311  1.00  0.00    -0.047 C 
HETATM   24  C6  UNL     1      -2.639  -1.478   0.641  1.00  0.00    -0.100 C 
BRANCH  24  25
HETATM   25  C7  UNL     1      -4.022  -1.804   1.045  1.00  0.00     0.096 C 
BRANCH  25  26
HETATM   26  C8  UNL     1      -4.425  -0.863   2.123  1.00  0.00     0.032 C 
BRANCH  26  27
HETATM   27  C9  UNL     1      -4.453   0.573   1.695  1.00  0.00     0.128 C 
BRANCH  27  28
HETATM   28  N2  UNL     1      -5.436   0.779   0.649  1.00  0.00    -0.366 N 
HETATM   29  C10 UNL     1      -5.159   0.723  -0.659  1.00  0.00     0.090 A 
HETATM   30  C11 UNL     1      -6.194   0.920  -1.580  1.00  0.00     0.017 A 
HETATM   31  C12 UNL     1      -7.481   1.170  -1.174  1.00  0.00     0.003 A 
HETATM   32  C13 UNL     1      -7.760   1.227   0.166  1.00  0.00     0.017 A 
HETATM   33  C14 UNL     1      -6.718   1.028   1.035  1.00  0.00     0.090 A 
ENDBRANCH  27  28
ENDBRANCH  26  27
ENDBRANCH  25  26
ENDBRANCH  24  25
ENDBRANCH   3  23
TORSDOF 10
