REMARK  10 active torsions:
REMARK  status: ('A' for Active; 'I' for Inactive)
REMARK    1  A    between atoms: C3_3  and  C4_4 
REMARK    2  A    between atoms: C5_5  and  C6_6 
REMARK    3  A    between atoms: C6_6  and  C7_7 
REMARK    4  A    between atoms: C7_7  and  C8_8 
REMARK    5  A    between atoms: C8_8  and  N1_9 
REMARK    6  A    between atoms: N2_14  and  C13_15 
REMARK    7  A    between atoms: C13_15  and  C14_16 
REMARK    8  A    between atoms: C14_16  and  O1_17 
REMARK    9  A    between atoms: N3_20  and  O2_21 
REMARK   10  A    between atoms: C18_27  and  O3_28 
ROOT
HETATM    1  C4  UNL     1      -1.401   0.618   0.492  1.00  0.00     0.085 A 
HETATM    2  C5  UNL     1      -0.477   1.329  -0.196  1.00  0.00    -0.012 A 
HETATM    3  C12 UNL     1      -0.687   2.696  -0.337  1.00  0.00     0.101 A 
HETATM    4  N2  UNL     1      -1.728   3.333   0.166  1.00  0.00    -0.348 N 
HETATM    5  C15 UNL     1      -2.650   2.618   0.858  1.00  0.00     0.216 A 
HETATM    6  N3  UNL     1      -2.474   1.305   1.004  1.00  0.00    -0.219 N 
ENDROOT
BRANCH   1   7
HETATM    7  C3  UNL     1      -1.408  -0.829   0.610  1.00  0.00     0.038 A 
HETATM    8  C2  UNL     1      -1.680  -1.672  -0.376  1.00  0.00    -0.020 A 
HETATM    9  C1  UNL     1      -2.036  -1.363  -1.782  1.00  0.00     0.049 C 
HETATM   10  C18 UNL     1      -1.566  -3.093   0.093  1.00  0.00     0.251 A 
HETATM   11  N4  UNL     1      -1.296  -3.011   1.493  1.00  0.00    -0.345 N 
HETATM   12  C16 UNL     1      -1.162  -1.625   1.801  1.00  0.00     0.113 A 
HETATM   13  C17 UNL     1      -1.191  -4.145   2.376  1.00  0.00     0.153 C 
HETATM   14  S1  UNL     1      -0.780  -1.073   3.306  1.00  0.00    -0.059 SA
BRANCH  10  15
HETATM   15  O3  UNL     1      -2.794  -3.704  -0.208  1.00  0.00    -0.373 OA
ATOM     16  H3  UNL     1      -2.722  -4.604   0.089  1.00  0.00     0.212 HD
ENDBRANCH  10  15
ENDBRANCH   1   7
BRANCH   2  17
HETATM   17  C6  UNL     1       0.795   0.723  -0.663  1.00  0.00     0.044 C 
BRANCH  17  18
HETATM   18  C7  UNL     1       1.853   0.774   0.397  1.00  0.00     0.032 C 
BRANCH  18  19
HETATM   19  C8  UNL     1       3.149   0.192  -0.034  1.00  0.00     0.236 C 
BRANCH  19  20
HETATM   20  N1  UNL     1       3.247  -1.182  -0.328  1.00  0.00    -0.079 N 
HETATM   21  C9  UNL     1       2.765  -2.023   0.777  1.00  0.00     0.271 C 
HETATM   22  C10 UNL     1       2.728  -1.688  -1.543  1.00  0.00     0.271 C 
HETATM   23  C11 UNL     1       4.701  -1.497  -0.353  1.00  0.00     0.271 C 
ENDBRANCH  19  20
ENDBRANCH  18  19
ENDBRANCH  17  18
ENDBRANCH   2  17
BRANCH   6  24
HETATM   24  O2  UNL     1      -3.438   0.590   1.717  1.00  0.00    -0.282 OA
ATOM     25  H2  UNL     1      -4.180   1.065   2.071  1.00  0.00     0.245 HD
ENDBRANCH   6  24
BRANCH   4  26
HETATM   26  C13 UNL     1      -1.925   4.757  -0.010  1.00  0.00     0.155 C 
BRANCH  26  27
HETATM   27  C14 UNL     1      -2.745   5.096  -1.222  1.00  0.00     0.184 C 
BRANCH  27  28
HETATM   28  O1  UNL     1      -2.840   6.488  -1.285  1.00  0.00    -0.399 OA
ATOM     29  H1  UNL     1      -3.359   6.702  -2.052  1.00  0.00     0.209 HD
ENDBRANCH  27  28
ENDBRANCH  26  27
ENDBRANCH   4  26
TORSDOF 10
