REMARK  10 active torsions:
REMARK  status: ('A' for Active; 'I' for Inactive)
REMARK    1  A    between atoms: N1_7  and  C7_8 
REMARK    2  A    between atoms: C7_8  and  C8_9 
REMARK    3  A    between atoms: C8_9  and  C9_10 
REMARK    4  A    between atoms: C9_10  and  C10_11 
REMARK    5  A    between atoms: C10_11  and  C11_12 
REMARK    6  A    between atoms: C11_12  and  C12_13 
REMARK    7  A    between atoms: C12_13  and  N2_14 
REMARK    8  A    between atoms: N3_21  and  O1_22 
REMARK    9  A    between atoms: C19_26  and  N5_27 
REMARK   10  A    between atoms: N6_30  and  O2_31 
ROOT
HETATM    1  N2  UNL     1       2.794   0.450   0.471  1.00  0.00    -0.358 N 
HETATM    2  C13 UNL     1       3.697  -0.549   0.333  1.00  0.00     0.126 A 
HETATM    3  C14 UNL     1       4.867  -0.416  -0.377  1.00  0.00     0.127 A 
HETATM    4  C15 UNL     1       5.160   0.788  -0.990  1.00  0.00     0.114 A 
HETATM    5  C16 UNL     1       4.241   1.804  -0.849  1.00  0.00     0.061 A 
HETATM    6  C17 UNL     1       3.060   1.628  -0.118  1.00  0.00     0.009 A 
HETATM    7  C18 UNL     1       2.141   2.791  -0.028  1.00  0.00     0.068 C 
HETATM    8  N3  UNL     1       6.306   0.956  -1.698  1.00  0.00    -0.147 N 
HETATM    9  N4  UNL     1       7.168  -0.020  -1.822  1.00  0.00    -0.103 N 
ATOM     10  H4  UNL     1       8.029   0.103  -2.354  1.00  0.00     0.208 HD
HETATM   11  C19 UNL     1       6.883  -1.188  -1.227  1.00  0.00     0.719 A 
HETATM   12  N6  UNL     1       5.762  -1.404  -0.514  1.00  0.00    -0.048 N 
ENDROOT
BRANCH   1  13
HETATM   13  C12 UNL     1       1.578   0.317   1.203  1.00  0.00     0.128 C 
BRANCH  13  14
HETATM   14  C11 UNL     1       0.407  -0.167   0.413  1.00  0.00     0.020 C 
BRANCH  14  15
HETATM   15  C10 UNL     1      -0.785  -0.245   1.344  1.00  0.00     0.002 C 
BRANCH  15  16
HETATM   16  C9  UNL     1      -2.026  -0.734   0.607  1.00  0.00     0.002 C 
BRANCH  16  17
HETATM   17  C8  UNL     1      -3.127  -0.771   1.615  1.00  0.00     0.020 C 
BRANCH  17  18
HETATM   18  C7  UNL     1      -4.463  -1.203   1.146  1.00  0.00     0.128 C 
BRANCH  18  19
HETATM   19  N1  UNL     1      -5.061  -0.395   0.111  1.00  0.00    -0.360 N 
HETATM   20  C2  UNL     1      -4.973  -0.665  -1.180  1.00  0.00     0.007 A 
HETATM   21  C1  UNL     1      -4.292  -1.885  -1.701  1.00  0.00     0.068 C 
HETATM   22  C3  UNL     1      -5.547   0.180  -2.126  1.00  0.00     0.025 A 
HETATM   23  C4  UNL     1      -6.213   1.303  -1.740  1.00  0.00     0.003 A 
HETATM   24  C5  UNL     1      -6.282   1.546  -0.388  1.00  0.00     0.017 A 
HETATM   25  C6  UNL     1      -5.715   0.712   0.533  1.00  0.00     0.091 A 
ENDBRANCH  18  19
ENDBRANCH  17  18
ENDBRANCH  16  17
ENDBRANCH  15  16
ENDBRANCH  14  15
ENDBRANCH  13  14
ENDBRANCH   1  13
BRANCH  12  26
HETATM   26  O2  UNL     1       5.497  -2.618   0.087  1.00  0.00    -0.269 OA
ATOM     27  H2  UNL     1       6.131  -3.318  -0.010  1.00  0.00     0.245 HD
ENDBRANCH  12  26
BRANCH   8  28
HETATM   28  O1  UNL     1       6.535   2.184  -2.284  1.00  0.00    -0.267 OA
ATOM     29  H1  UNL     1       7.337   2.302  -2.779  1.00  0.00     0.247 HD
ENDBRANCH   8  28
BRANCH  11  30
HETATM   30  N5  UNL     1       7.750  -2.149  -1.358  1.00  0.00    -0.231 N 
ATOM     31  H52 UNL     1       8.600  -1.985  -1.898  1.00  0.00     0.174 HD
ATOM     32  H51 UNL     1       7.533  -3.037  -0.906  1.00  0.00     0.174 HD
ENDBRANCH  11  30
TORSDOF 10
