REMARK  9 active torsions:
REMARK  status: ('A' for Active; 'I' for Inactive)
REMARK    1  A    between atoms: C5_5  and  C6_6 
REMARK    2  A    between atoms: C6_6  and  C7_7 
REMARK    3  A    between atoms: C10_12  and  C11_13 
REMARK    4  A    between atoms: C11_13  and  C12_14 
REMARK    5  A    between atoms: C12_14  and  N2_15 
REMARK    6  A    between atoms: N2_15  and  C13_17 
REMARK    7  A    between atoms: C13_17  and  C14_18 
REMARK    8  A    between atoms: C14_18  and  N3_19 
REMARK    9  A    between atoms: N3_19  and  C16_21 
ROOT
HETATM    1  C7  UNL     1       3.199  -0.707  -1.632  1.00  0.00     0.063 A 
HETATM    2  C8  UNL     1       1.881  -0.794  -2.048  1.00  0.00     0.075 A 
HETATM    3  N1  UNL     1       0.623  -0.546  -1.638  1.00  0.00    -0.354 N 
ATOM      4  H1  UNL     1       0.388  -0.169  -0.720  1.00  0.00     0.166 HD
HETATM    5  C9  UNL     1      -0.284  -0.851  -2.574  1.00  0.00     0.029 A 
HETATM    6  C10 UNL     1      -1.598  -0.729  -2.476  1.00  0.00     0.004 C 
HETATM    7  C18 UNL     1       0.424  -1.321  -3.643  1.00  0.00     0.048 A 
HETATM    8  C19 UNL     1       1.787  -1.277  -3.292  1.00  0.00     0.063 A 
HETATM    9  C20 UNL     1       3.093  -1.544  -3.776  1.00  0.00     0.258 A 
HETATM   10  O1  UNL     1       3.467  -1.998  -4.875  1.00  0.00    -0.267 OA
HETATM   11  N4  UNL     1       3.988  -1.174  -2.704  1.00  0.00    -0.321 N 
ATOM     12  H4  UNL     1       5.006  -1.239  -2.719  1.00  0.00     0.169 HD
ENDROOT
BRANCH   6  13
HETATM   13  C11 UNL     1      -2.248  -0.221  -1.267  1.00  0.00     0.048 C 
BRANCH  13  14
HETATM   14  C12 UNL     1      -3.559  -0.941  -1.104  1.00  0.00     0.118 C 
BRANCH  14  15
HETATM   15  N2  UNL     1      -4.218  -0.483   0.080  1.00  0.00    -0.417 N 
ATOM     16  H2  UNL     1      -4.342  -1.073   0.902  1.00  0.00     0.153 HD
BRANCH  15  17
HETATM   17  C13 UNL     1      -4.691   0.871   0.022  1.00  0.00     0.158 C 
BRANCH  17  18
HETATM   18  C14 UNL     1      -5.422   1.192   1.307  1.00  0.00     0.076 C 
BRANCH  18  19
HETATM   19  N3  UNL     1      -6.527   0.353   1.481  1.00  0.00    -0.396 N 
HETATM   20  C15 UNL     1      -6.374  -1.012   1.759  1.00  0.00     0.148 C 
BRANCH  19  21
HETATM   21  C16 UNL     1      -7.831   0.893   1.391  1.00  0.00     0.117 C 
HETATM   22  C17 UNL     1      -8.234   1.831   2.488  1.00  0.00     0.026 C 
ENDBRANCH  19  21
ENDBRANCH  18  19
ENDBRANCH  17  18
ENDBRANCH  15  17
ENDBRANCH  14  15
ENDBRANCH  13  14
ENDBRANCH   6  13
BRANCH   1  23
HETATM   23  C6  UNL     1       3.490  -0.193  -0.341  1.00  0.00     0.044 C 
BRANCH  23  24
HETATM   24  C5  UNL     1       4.386   0.083   0.525  1.00  0.00    -0.028 A 
HETATM   25  C4  UNL     1       3.892   0.651   1.736  1.00  0.00     0.013 A 
HETATM   26  C3  UNL     1       4.660   1.026   2.792  1.00  0.00     0.012 A 
HETATM   27  C2  UNL     1       6.007   0.855   2.704  1.00  0.00    -0.039 A 
HETATM   28  C1  UNL     1       6.722   1.228   3.754  1.00  0.00     0.024 C 
HETATM   29  C23 UNL     1       6.578   0.324   1.599  1.00  0.00    -0.046 A 
HETATM   30  C21 UNL     1       5.747  -0.050   0.536  1.00  0.00    -0.045 A 
HETATM   31  C24 UNL     1       8.041   0.151   1.475  1.00  0.00     0.049 C 
HETATM   32  C22 UNL     1       6.426  -0.695  -0.600  1.00  0.00     0.049 C 
ENDBRANCH  23  24
ENDBRANCH   1  23
TORSDOF 9
