REMARK  9 active torsions:
REMARK  status: ('A' for Active; 'I' for Inactive)
REMARK    1  A    between atoms: C2_2  and  C3_3 
REMARK    2  A    between atoms: C3_3  and  C4_4 
REMARK    3  A    between atoms: C4_4  and  C5_5 
REMARK    4  A    between atoms: C5_5  and  C6_6 
REMARK    5  A    between atoms: C6_6  and  C7_7 
REMARK    6  A    between atoms: N1_10  and  N2_12 
REMARK    7  A    between atoms: N4_17  and  C10_18 
REMARK    8  A    between atoms: C10_18  and  C13_21 
REMARK    9  A    between atoms: C14_22  and  C15_23 
ROOT
HETATM    1  C7  UNL     1       1.816  -1.153  -0.260  1.00  0.00     0.085 C 
HETATM    2  C8  UNL     1       1.919  -2.646  -0.034  1.00  0.00     0.092 C 
HETATM    3  C9  UNL     1       0.474  -2.970   0.180  1.00  0.00     0.104 C 
HETATM    4  N1  UNL     1      -0.064  -3.805   0.991  1.00  0.00    -0.275 N 
ATOM      5  H1  UNL     1      -1.082  -3.875   0.981  1.00  0.00     0.189 HD
HETATM    6  N4  UNL     1      -0.243  -2.144  -0.718  1.00  0.00    -0.285 N 
HETATM    7  C20 UNL     1       0.612  -1.054  -1.122  1.00  0.00     0.231 C 
HETATM    8  O1  UNL     1       0.412  -0.197  -2.000  1.00  0.00    -0.273 OA
ENDROOT
BRANCH   6   9
HETATM    9  C10 UNL     1      -1.586  -2.328  -1.172  1.00  0.00     0.098 C 
HETATM   10  C11 UNL     1      -2.257  -3.543  -0.607  1.00  0.00     0.053 C 
HETATM   11  C12 UNL     1      -1.656  -2.463  -2.695  1.00  0.00     0.053 C 
BRANCH   9  12
HETATM   12  C13 UNL     1      -2.333  -1.110  -0.770  1.00  0.00    -0.068 C 
HETATM   13  C14 UNL     1      -2.953  -0.131  -0.431  1.00  0.00    -0.045 C 
BRANCH  13  14
HETATM   14  C15 UNL     1      -3.704   1.021  -0.012  1.00  0.00     0.103 A 
HETATM   15  C16 UNL     1      -3.334   2.342  -0.161  1.00  0.00     0.130 A 
HETATM   16  N5  UNL     1      -4.308   3.142   0.362  1.00  0.00    -0.348 N 
HETATM   17  C17 UNL     1      -4.315   4.579   0.408  1.00  0.00     0.157 C 
HETATM   18  C18 UNL     1      -5.269   2.335   0.829  1.00  0.00     0.079 A 
HETATM   19  C19 UNL     1      -6.508   2.812   1.478  1.00  0.00     0.089 C 
HETATM   20  N6  UNL     1      -4.908   1.057   0.606  1.00  0.00    -0.338 N 
ATOM     21  H6  UNL     1      -5.459   0.239   0.864  1.00  0.00     0.168 HD
ENDBRANCH  13  14
ENDBRANCH   9  12
ENDBRANCH   6   9
BRANCH   4  22
HETATM   22  N2  UNL     1       0.615  -4.615   1.874  1.00  0.00    -0.248 N 
HETATM   23  N3  UNL     1       0.382  -4.462   3.123  1.00  0.00    -0.331 N 
ATOM     24  H32 UNL     1      -0.287  -3.759   3.438  1.00  0.00     0.178 HD
ATOM     25  H31 UNL     1       0.885  -5.062   3.777  1.00  0.00     0.178 HD
ATOM     26  H2  UNL     1       1.281  -5.313   1.544  1.00  0.00     0.207 HD
ENDBRANCH   4  22
BRANCH   1  27
HETATM   27  C6  UNL     1       3.042  -0.593  -0.932  1.00  0.00     0.014 C 
BRANCH  27  28
HETATM   28  C5  UNL     1       4.291  -0.808  -0.143  1.00  0.00     0.001 C 
BRANCH  28  29
HETATM   29  C4  UNL     1       4.263  -0.176   1.215  1.00  0.00     0.000 C 
BRANCH  29  30
HETATM   30  C3  UNL     1       4.077   1.309   1.199  1.00  0.00    -0.000 C 
BRANCH  30  31
HETATM   31  C2  UNL     1       5.196   1.999   0.443  1.00  0.00    -0.005 C 
HETATM   32  C1  UNL     1       4.998   3.493   0.434  1.00  0.00     0.005 C 
ENDBRANCH  30  31
ENDBRANCH  29  30
ENDBRANCH  28  29
ENDBRANCH  27  28
ENDBRANCH   1  27
TORSDOF 9
