REMARK  10 active torsions:
REMARK  status: ('A' for Active; 'I' for Inactive)
REMARK    1  A    between atoms: C4_4  and  C5_5 
REMARK    2  A    between atoms: C5_5  and  C6_6 
REMARK    3  A    between atoms: C6_6  and  C7_7 
REMARK    4  A    between atoms: C6_6  and  C14_15 
REMARK    5  A    between atoms: C9_9  and  C10_10 
REMARK    6  A    between atoms: C11_11  and  C13_13 
REMARK    7  A    between atoms: C18_21  and  C19_22 
REMARK    8  A    between atoms: C19_22  and  C20_23 
REMARK    9  A    between atoms: C20_23  and  C21_24 
REMARK   10  A    between atoms: C29_33  and  O4_35 
ROOT
HETATM    1  C14 UNL     1      -2.030  -0.241  -0.674  1.00  0.00     0.097 C 
HETATM    2  C15 UNL     1      -2.146  -0.618   0.742  1.00  0.00     0.033 C 
HETATM    3  C16 UNL     1      -1.361   1.116  -0.808  1.00  0.00     0.216 C 
HETATM    4  O2  UNL     1      -1.842   2.095  -1.405  1.00  0.00    -0.288 OA
HETATM    5  C17 UNL     1      -0.032   1.278  -0.184  1.00  0.00     0.229 C 
HETATM    6  O3  UNL     1       0.180   2.417   0.250  1.00  0.00    -0.283 OA
HETATM    7  C18 UNL     1       0.869   0.155  -0.128  1.00  0.00     0.025 C 
HETATM    8  C31 UNL     1       0.399  -1.007  -0.670  1.00  0.00    -0.001 C 
HETATM    9  C32 UNL     1       1.273  -2.212  -0.647  1.00  0.00     0.053 C 
HETATM   10  C33 UNL     1      -0.935  -1.120  -1.242  1.00  0.00     0.173 C 
HETATM   11  O5  UNL     1      -1.167  -1.884  -2.140  1.00  0.00    -0.291 OA
ENDROOT
BRANCH   1  12
HETATM   12  C6  UNL     1      -3.217  -0.233  -1.516  1.00  0.00     0.041 C 
BRANCH  12  13
HETATM   13  C5  UNL     1      -3.934  -1.564  -1.684  1.00  0.00     0.038 C 
BRANCH  13  14
HETATM   14  C4  UNL     1      -4.616  -2.069  -0.490  1.00  0.00    -0.024 C 
HETATM   15  C2  UNL     1      -4.382  -3.233   0.053  1.00  0.00    -0.091 C 
HETATM   16  C1  UNL     1      -5.146  -3.651   1.286  1.00  0.00     0.042 C 
HETATM   17  C3  UNL     1      -3.394  -4.211  -0.464  1.00  0.00     0.042 C 
ENDBRANCH  13  14
ENDBRANCH  12  13
BRANCH  12  18
HETATM   18  C7  UNL     1      -4.310   0.704  -1.135  1.00  0.00    -0.078 C 
HETATM   19  C8  UNL     1      -5.442   0.772  -2.135  1.00  0.00     0.044 C 
HETATM   20  C9  UNL     1      -4.418   1.486  -0.105  1.00  0.00     0.003 C 
BRANCH  20  21
HETATM   21  C10 UNL     1      -5.555   2.362   0.152  1.00  0.00     0.010 C 
HETATM   22  C11 UNL     1      -5.554   3.116   1.232  1.00  0.00    -0.024 C 
HETATM   23  C12 UNL     1      -4.420   3.102   2.207  1.00  0.00     0.051 C 
BRANCH  22  24
HETATM   24  C13 UNL     1      -6.664   3.993   1.514  1.00  0.00     0.265 C 
HETATM   25  O1  UNL     1      -6.715   4.733   2.528  1.00  0.00    -0.302 OA
ENDBRANCH  22  24
ENDBRANCH  20  21
ENDBRANCH  12  18
ENDBRANCH   1  12
BRANCH   7  26
HETATM   26  C19 UNL     1       2.194   0.147   0.405  1.00  0.00     0.003 C 
BRANCH  26  27
HETATM   27  C20 UNL     1       3.334   0.990   0.181  1.00  0.00     0.025 C 
HETATM   28  C22 UNL     1       4.438   0.551   1.189  1.00  0.00     0.023 C 
HETATM   29  C23 UNL     1       5.137  -0.694   0.868  1.00  0.00    -0.010 C 
HETATM   30  C24 UNL     1       5.688  -1.238   2.192  1.00  0.00     0.010 C 
HETATM   31  C25 UNL     1       6.360  -0.356   0.027  1.00  0.00     0.007 C 
HETATM   32  C26 UNL     1       7.649  -0.558   0.784  1.00  0.00     0.014 C 
HETATM   33  C27 UNL     1       6.317   1.039  -0.459  1.00  0.00    -0.023 C 
HETATM   34  C28 UNL     1       5.312   1.720  -0.980  1.00  0.00     0.008 C 
HETATM   35  C29 UNL     1       3.929   1.134  -1.183  1.00  0.00     0.084 C 
HETATM   36  C30 UNL     1       4.014   0.049  -2.128  1.00  0.00     0.051 C 
BRANCH  27  37
HETATM   37  C21 UNL     1       3.210   2.442   0.625  1.00  0.00     0.131 C 
HETATM   38 CL1  UNL     1       2.912   2.588   2.380  1.00  0.00    -0.129 Cl
ENDBRANCH  27  37
BRANCH  35  39
HETATM   39  O4  UNL     1       3.206   2.173  -1.835  1.00  0.00    -0.385 OA
ATOM     40  H4  UNL     1       3.584   2.265  -2.702  1.00  0.00     0.211 HD
ENDBRANCH  35  39
ENDBRANCH  26  27
ENDBRANCH   7  26
TORSDOF 10
