REMARK  3 active torsions:
REMARK  status: ('A' for Active; 'I' for Inactive)
REMARK    1  A    between atoms: C2_2  and  N1_3 
REMARK    2  A    between atoms: C2_2  and  C5_11 
REMARK       I    between atoms: N1_3  and  C3_5 
REMARK       I    between atoms: C3_5  and  N2_7 
REMARK       I    between atoms: C5_11  and  N4_13 
REMARK    3  A    between atoms: N4_13  and  C6_15 
ROOT
HETATM    1  N1  UNL     1       4.039  -0.211  -0.730  1.00  0.00    -0.329 N 
ATOM      2  H1  UNL     1       4.111   0.747  -1.072  1.00  0.00     0.165 HD
HETATM    3  C3  UNL     1       4.788  -1.226  -1.363  1.00  0.00     0.329 C 
HETATM    4  O1  UNL     1       4.727  -2.433  -0.967  1.00  0.00    -0.246 OA
HETATM    5  N2  UNL     1       5.634  -0.939  -2.459  1.00  0.00    -0.245 N 
ATOM      6  H2  UNL     1       5.695   0.024  -2.789  1.00  0.00     0.183 HD
HETATM    7  C4  UNL     1       6.382  -1.907  -3.103  1.00  0.00     0.185 C 
HETATM    8  N3  UNL     1       7.020  -2.715  -3.632  1.00  0.00    -0.172 NA
ENDROOT
BRANCH   1   9
HETATM    9  C2  UNL     1       3.169  -0.498   0.396  1.00  0.00     0.174 C 
HETATM   10  C1  UNL     1       3.756   0.241   1.595  1.00  0.00     0.042 C 
BRANCH   9  11
HETATM   11  C5  UNL     1       1.792  -0.054   0.105  1.00  0.00     0.240 C 
HETATM   12  O2  UNL     1       1.536   0.486  -1.001  1.00  0.00    -0.271 OA
HETATM   13  N4  UNL     1       0.779  -0.248   1.092  1.00  0.00    -0.355 N 
ATOM     14  H4  UNL     1       1.016  -0.688   1.981  1.00  0.00     0.162 HD
BRANCH  13  15
HETATM   15  C6  UNL     1      -0.603   0.182   0.837  1.00  0.00     0.086 C 
HETATM   16  C7  UNL     1      -1.509  -0.935   1.157  1.00  0.00     0.025 C 
HETATM   17  C8  UNL     1      -1.824  -1.880   0.059  1.00  0.00     0.004 C 
HETATM   18  C9  UNL     1      -1.921  -1.326  -1.309  1.00  0.00     0.020 C 
HETATM   19  C10 UNL     1      -3.196  -0.600  -1.634  1.00  0.00     0.122 C 
HETATM   20  N5  UNL     1      -4.018  -0.297  -0.484  1.00  0.00    -0.360 N 
HETATM   21  C11 UNL     1      -4.495   0.998  -0.148  1.00  0.00     0.243 C 
ATOM     22  H5  UNL     1      -4.274  -1.069   0.131  1.00  0.00     0.162 HD
HETATM   23  O3  UNL     1      -5.656   1.163   0.313  1.00  0.00    -0.272 OA
HETATM   24  C12 UNL     1      -3.671   2.230  -0.314  1.00  0.00     0.334 C 
HETATM   25  N6  UNL     1      -2.289   1.987   0.051  1.00  0.00    -0.067 N 
HETATM   26  C13 UNL     1      -2.064   2.135   1.469  1.00  0.00     0.235 C 
ATOM     27  H62 UNL     1      -1.976   1.074  -0.279  1.00  0.00     0.277 HD
ATOM     28  H61 UNL     1      -1.656   2.580  -0.486  1.00  0.00     0.277 HD
HETATM   29  C14 UNL     1      -0.843   1.322   1.835  1.00  0.00     0.052 C 
ENDBRANCH  13  15
ENDBRANCH   9  11
ENDBRANCH   1   9
TORSDOF 3
