REMARK  4 active torsions:
REMARK  status: ('A' for Active; 'I' for Inactive)
REMARK    1  A    between atoms: C3_3  and  C4_4 
REMARK    2  A    between atoms: N4_16  and  C9_17 
REMARK    3  A    between atoms: C9_17  and  C10_18 
REMARK    4  A    between atoms: C12_21  and  N5_22 
ROOT
HETATM    1  C1  UNL     1      -0.352  -2.385   2.510  1.00  0.00     0.032 C 
HETATM    2  C2  UNL     1       0.080  -1.285   1.884  1.00  0.00     0.052 A 
HETATM    3  C3  UNL     1      -0.715  -0.408   1.177  1.00  0.00     0.064 A 
HETATM    4  N3  UNL     1       0.104   0.542   0.717  1.00  0.00    -0.294 N 
ATOM      5  H3  UNL     1      -0.201   1.335   0.152  1.00  0.00     0.187 HD
HETATM    6  N4  UNL     1       1.358   0.331   1.082  1.00  0.00    -0.251 N 
HETATM    7  C13 UNL     1       1.373  -0.811   1.817  1.00  0.00     0.274 A 
HETATM    8  O2  UNL     1       2.359  -1.376   2.359  1.00  0.00    -0.266 OA
ENDROOT
BRANCH   3   9
HETATM    9  C4  UNL     1      -2.041  -0.515   1.003  1.00  0.00     0.051 C 
HETATM   10  C5  UNL     1      -2.807   0.444   0.248  1.00  0.00     0.059 A 
HETATM   11  C6  UNL     1      -3.443   0.166  -0.933  1.00  0.00     0.037 A 
HETATM   12  C8  UNL     1      -3.038   1.759   0.549  1.00  0.00     0.272 A 
HETATM   13  C7  UNL     1      -3.471  -1.160  -1.662  1.00  0.00     0.070 C 
HETATM   14  N1  UNL     1      -4.041   1.303  -1.322  1.00  0.00    -0.301 N 
HETATM   15  N2  UNL     1      -3.799   2.250  -0.439  1.00  0.00    -0.266 N 
ATOM     16  H1  UNL     1      -4.597   1.416  -2.170  1.00  0.00     0.186 HD
ATOM     17  H2  UNL     1      -4.139   3.210  -0.498  1.00  0.00     0.190 HD
HETATM   18  O1  UNL     1      -2.612   2.404   1.577  1.00  0.00    -0.266 OA
ENDBRANCH   3   9
BRANCH   6  19
HETATM   19  C9  UNL     1       2.507   1.156   0.763  1.00  0.00     0.210 C 
BRANCH  19  20
HETATM   20  C10 UNL     1       3.145   0.694  -0.544  1.00  0.00     0.037 A 
HETATM   21  C11 UNL     1       2.699   1.237  -1.724  1.00  0.00     0.080 A 
HETATM   22  S1  UNL     1       3.676   0.445  -2.878  1.00  0.00    -0.064 SA
HETATM   23  C12 UNL     1       4.586  -0.522  -1.808  1.00  0.00     0.142 A 
HETATM   24  N6  UNL     1       4.098  -0.191  -0.615  1.00  0.00    -0.338 N 
ATOM     25  H6  UNL     1       4.465  -0.624   0.232  1.00  0.00     0.168 HD
BRANCH  23  26
HETATM   26  N5  UNL     1       5.543  -1.389  -2.075  1.00  0.00    -0.380 N 
ATOM     27  H52 UNL     1       5.917  -1.643  -2.989  1.00  0.00     0.158 HD
ATOM     28  H51 UNL     1       6.087  -1.967  -1.435  1.00  0.00     0.158 HD
ENDBRANCH  23  26
ENDBRANCH  19  20
ENDBRANCH   6  19
TORSDOF 4
