REMARK  3 active torsions:
REMARK  status: ('A' for Active; 'I' for Inactive)
REMARK    1  A    between atoms: C2_3  and  N2_4 
REMARK    2  A    between atoms: N2_4  and  N3_6 
REMARK    3  A    between atoms: C3_11  and  N5_12 
ROOT
HETATM    1  C1  UNL     1      -1.731  -1.674  -0.781  1.00  0.00     0.179 C 
HETATM    2  N1  UNL     1      -1.058  -0.516  -0.214  1.00  0.00    -0.145 N 
HETATM    3  C2  UNL     1       0.269  -0.647  -0.072  1.00  0.00     0.715 C 
HETATM    4  N4  UNL     1       1.162   0.347   0.160  1.00  0.00    -0.021 N 
ATOM      5  H4  UNL     1       2.138   0.053   0.180  1.00  0.00     0.203 HD
HETATM    6  C3  UNL     1       0.961   1.658   0.367  1.00  0.00     0.693 C 
HETATM    7  N6  UNL     1      -0.207   2.283   0.606  1.00  0.00    -0.151 N 
ATOM      8  H6  UNL     1      -0.144   3.254   0.913  1.00  0.00     0.188 HD
HETATM    9  C4  UNL     1      -1.465   1.771   0.486  1.00  0.00     0.328 C 
HETATM   10  O1  UNL     1      -2.397   2.556   0.788  1.00  0.00    -0.261 OA
HETATM   11  C5  UNL     1      -1.874   0.519   0.084  1.00  0.00     0.330 C 
HETATM   12  O2  UNL     1      -3.114   0.338  -0.011  1.00  0.00    -0.261 OA
ENDROOT
BRANCH   3  13
HETATM   13  N2  UNL     1       0.740  -1.862  -0.168  1.00  0.00    -0.138 N 
ATOM     14  H2  UNL     1       0.111  -2.646  -0.341  1.00  0.00     0.205 HD
BRANCH  13  15
HETATM   15  N3  UNL     1       2.115  -2.075  -0.031  1.00  0.00    -0.331 N 
ATOM     16  H32 UNL     1       2.730  -1.280   0.142  1.00  0.00     0.177 HD
ATOM     17  H31 UNL     1       2.483  -3.023  -0.106  1.00  0.00     0.177 HD
ENDBRANCH  13  15
ENDBRANCH   3  13
BRANCH   6  18
HETATM   18  N5  UNL     1       2.018   2.389   0.330  1.00  0.00    -0.234 N 
ATOM     19  H52 UNL     1       2.903   1.915   0.149  1.00  0.00     0.174 HD
ATOM     20  H51 UNL     1       1.865   3.385   0.487  1.00  0.00     0.174 HD
ENDBRANCH   6  18
TORSDOF 3
