REMARK  18 active torsions:
REMARK  status: ('A' for Active; 'I' for Inactive)
REMARK    1  A    between atoms: C5_5  and  O1_6 
REMARK    2  A    between atoms: O1_6  and  C6_7 
REMARK    3  A    between atoms: C6_7  and  C7_8 
REMARK    4  A    between atoms: C6_7  and  C12_18 
REMARK       I    between atoms: C7_8  and  N1_10 
REMARK    5  A    between atoms: N1_10  and  C8_12 
REMARK    6  A    between atoms: C8_12  and  C9_13 
REMARK    7  A    between atoms: C9_13  and  C10_14 
REMARK    8  A    between atoms: C10_14  and  O4_16 
REMARK    9  A    between atoms: C12_18  and  O5_19 
REMARK   10  A    between atoms: C12_18  and  O6_21 
REMARK   11  A    between atoms: N2_25  and  O8_26 
REMARK   12  A    between atoms: C14_28  and  C15_29 
REMARK   13  A    between atoms: C15_29  and  O9_30 
REMARK   14  A    between atoms: C15_29  and  N3_32 
REMARK   15  A    between atoms: N3_32  and  N4_34 
REMARK   16  A    between atoms: C16_37  and  C17_38 
REMARK   17  A    between atoms: C17_38  and  O12_39 
REMARK   18  A    between atoms: C17_38  and  O13_41 
ROOT
HETATM    1  C1  UNL     1      -0.901   2.300  -2.384  1.00  0.00     0.036 C 
HETATM    2  C2  UNL     1      -2.159   1.881  -1.709  1.00  0.00    -0.023 C 
HETATM    3  C3  UNL     1      -2.196   0.953  -0.777  1.00  0.00    -0.046 C 
HETATM    4  C4  UNL     1      -0.872   0.389  -0.491  1.00  0.00     0.080 C 
HETATM    5  C5  UNL     1      -0.816  -0.840   0.347  1.00  0.00     0.221 C 
HETATM    6  C13 UNL     1      -1.836  -1.835  -0.032  1.00  0.00     0.277 C 
HETATM    7  O7  UNL     1      -1.455  -2.951  -0.535  1.00  0.00    -0.268 OA
HETATM    8  N2  UNL     1      -3.230  -1.736   0.079  1.00  0.00    -0.184 N 
HETATM    9  C14 UNL     1      -4.009  -0.478   0.158  1.00  0.00     0.130 C 
HETATM   10  C16 UNL     1      -3.557   0.698  -0.213  1.00  0.00     0.036 C 
ENDROOT
BRANCH   5  11
HETATM   11  O1  UNL     1       0.438  -1.429   0.111  1.00  0.00    -0.356 OA
BRANCH  11  12
HETATM   12  C6  UNL     1       1.252  -1.518   1.197  1.00  0.00     0.268 C 
BRANCH  12  13
HETATM   13  C7  UNL     1       2.518  -0.775   0.926  1.00  0.00     0.251 C 
HETATM   14  O2  UNL     1       3.405  -0.778   1.867  1.00  0.00    -0.270 OA
HETATM   15  N1  UNL     1       2.817  -0.087  -0.242  1.00  0.00    -0.358 N 
ATOM     16  H1  UNL     1       2.128  -0.069  -0.994  1.00  0.00     0.162 HD
BRANCH  15  17
HETATM   17  C8  UNL     1       4.062   0.598  -0.425  1.00  0.00     0.132 C 
BRANCH  17  18
HETATM   18  C9  UNL     1       5.281  -0.308  -0.406  1.00  0.00     0.130 C 
BRANCH  18  19
HETATM   19  C10 UNL     1       6.483   0.530  -0.601  1.00  0.00     0.259 C 
HETATM   20  O3  UNL     1       6.642   1.109  -1.699  1.00  0.00    -0.265 OA
BRANCH  19  21
HETATM   21  O4  UNL     1       7.446   0.702   0.377  1.00  0.00    -0.326 OA
HETATM   22  C11 UNL     1       8.598   1.498   0.197  1.00  0.00     0.213 C 
ENDBRANCH  19  21
ENDBRANCH  18  19
ENDBRANCH  17  18
ENDBRANCH  15  17
ENDBRANCH  12  13
BRANCH  12  23
HETATM   23  C12 UNL     1       1.698  -2.925   1.563  1.00  0.00     0.292 C 
BRANCH  23  24
HETATM   24  O5  UNL     1       0.674  -3.773   1.901  1.00  0.00    -0.368 OA
ATOM     25  H5  UNL     1       0.953  -4.652   2.130  1.00  0.00     0.212 HD
ENDBRANCH  23  24
BRANCH  23  26
HETATM   26  O6  UNL     1       2.437  -3.481   0.487  1.00  0.00    -0.368 OA
ATOM     27  H6  UNL     1       2.716  -4.360   0.716  1.00  0.00     0.212 HD
ENDBRANCH  23  26
ENDBRANCH  12  23
ENDBRANCH  11  12
ENDBRANCH   5  11
BRANCH   8  28
HETATM   28  O8  UNL     1      -3.951  -2.885   0.110  1.00  0.00    -0.280 OA
ATOM     29  H8  UNL     1      -4.896  -2.818   0.185  1.00  0.00     0.245 HD
ENDBRANCH   8  28
BRANCH  10  30
HETATM   30  C17 UNL     1      -4.374   1.892  -0.038  1.00  0.00     0.291 C 
BRANCH  30  31
HETATM   31  O12 UNL     1      -3.511   3.021   0.265  1.00  0.00    -0.367 OA
ATOM     32  H12 UNL     1      -4.044   3.799   0.379  1.00  0.00     0.213 HD
ENDBRANCH  30  31
BRANCH  30  33
HETATM   33  O13 UNL     1      -5.133   2.296  -1.086  1.00  0.00    -0.367 OA
ATOM     34  H13 UNL     1      -5.666   3.074  -0.972  1.00  0.00     0.213 HD
ENDBRANCH  30  33
ENDBRANCH  10  30
BRANCH   9  35
HETATM   35  C15 UNL     1      -5.328  -0.711   0.591  1.00  0.00     0.190 C 
BRANCH  35  36
HETATM   36  O9  UNL     1      -5.560  -1.975   1.002  1.00  0.00    -0.343 OA
ATOM     37  H9  UNL     1      -6.450  -2.132   1.294  1.00  0.00     0.219 HD
ENDBRANCH  35  36
BRANCH  35  38
HETATM   38  N3  UNL     1      -6.495   0.015   0.711  1.00  0.00    -0.218 N 
ATOM     39  H3  UNL     1      -6.509   0.997   0.435  1.00  0.00     0.195 HD
BRANCH  38  40
HETATM   40  N4  UNL     1      -7.709  -0.606   1.228  1.00  0.00    -0.037 N 
HETATM   41  O10 UNL     1      -7.612  -1.726   1.705  1.00  0.00    -0.516 OA
HETATM   42  O11 UNL     1      -8.907   0.043   1.181  1.00  0.00    -0.516 OA
ENDBRANCH  38  40
ENDBRANCH  35  38
ENDBRANCH   9  35
TORSDOF 18
