REMARK  12 active torsions:
REMARK  status: ('A' for Active; 'I' for Inactive)
REMARK    1  A    between atoms: C2_2  and  C3_3 
REMARK    2  A    between atoms: C4_6  and  N2_7 
REMARK       I    between atoms: N2_7  and  C5_9 
REMARK    3  A    between atoms: C5_9  and  C6_11 
REMARK    4  A    between atoms: C9_14  and  N3_15 
REMARK    5  A    between atoms: N5_22  and  C12_23 
REMARK    6  A    between atoms: C12_23  and  C13_24 
REMARK       I    between atoms: C13_24  and  N6_26 
REMARK    7  A    between atoms: N6_26  and  N7_28 
REMARK       I    between atoms: N7_28  and  C14_30 
REMARK    8  A    between atoms: C14_30  and  C15_32 
REMARK    9  A    between atoms: N10_36  and  C16_37 
REMARK   10  A    between atoms: C17_43  and  N13_44 
REMARK   11  A    between atoms: C18_47  and  N14_48 
REMARK   12  A    between atoms: N14_48  and  O5_50 
ROOT
HETATM    1  C13 UNL     1      -1.094   1.186   1.561  1.00  0.00     0.275 C 
HETATM    2  O2  UNL     1      -2.137   1.709   2.036  1.00  0.00    -0.265 OA
HETATM    3  N6  UNL     1      -1.209   0.626   0.261  1.00  0.00    -0.262 N 
ATOM      4  H6  UNL     1      -0.385   0.191  -0.154  1.00  0.00     0.190 HD
ENDROOT
BRANCH   3   5
HETATM    5  N7  UNL     1      -2.394   0.642  -0.477  1.00  0.00    -0.262 N 
HETATM    6  C14 UNL     1      -3.564  -0.047  -0.063  1.00  0.00     0.291 C 
HETATM    7  O3  UNL     1      -3.500  -0.698   1.022  1.00  0.00    -0.264 OA
ATOM      8  H7  UNL     1      -2.420   1.170  -1.349  1.00  0.00     0.190 HD
BRANCH   6   9
HETATM    9  C15 UNL     1      -4.779   0.004  -0.863  1.00  0.00     0.163 A 
HETATM   10  N8  UNL     1      -4.911   0.694  -2.009  1.00  0.00    -0.275 N 
HETATM   11  N9  UNL     1      -6.138   0.525  -2.467  1.00  0.00    -0.011 NA
ATOM     12  H8  UNL     1      -4.184   1.255  -2.452  1.00  0.00     0.184 HD
HETATM   13  N10 UNL     1      -6.849  -0.259  -1.669  1.00  0.00    -0.198 N 
HETATM   14  C18 UNL     1      -6.007  -0.587  -0.667  1.00  0.00     0.181 A 
BRANCH  13  15
HETATM   15  C16 UNL     1      -8.205  -0.636  -1.878  1.00  0.00     0.195 A 
HETATM   16  N11 UNL     1      -8.722  -1.592  -2.670  1.00  0.00    -0.220 N 
HETATM   17  O4  UNL     1     -10.037  -1.604  -2.562  1.00  0.00    -0.153 OA
ATOM     18  H11 UNL     1      -8.178  -2.216  -3.266  1.00  0.00     0.198 HD
HETATM   19  N12 UNL     1     -10.421  -0.684  -1.721  1.00  0.00    -0.222 N 
HETATM   20  C17 UNL     1      -9.324  -0.055  -1.268  1.00  0.00     0.169 A 
ATOM     21  H12 UNL     1     -11.384  -0.479  -1.454  1.00  0.00     0.198 HD
BRANCH  20  22
HETATM   22  N13 UNL     1      -9.334   0.918  -0.413  1.00  0.00    -0.381 N 
ATOM     23 2H13 UNL     1      -8.501   1.396  -0.069  1.00  0.00     0.157 HD
ATOM     24 1H13 UNL     1     -10.149   1.341   0.031  1.00  0.00     0.157 HD
ENDBRANCH  20  22
ENDBRANCH  13  15
BRANCH  14  25
HETATM   25  N14 UNL     1      -6.323  -1.418   0.430  1.00  0.00    -0.249 N 
ATOM     26  H14 UNL     1      -5.912  -1.248   1.348  1.00  0.00     0.196 HD
BRANCH  25  27
HETATM   27  O5  UNL     1      -7.115  -2.364   0.254  1.00  0.00    -0.288 OA
ATOM     28  H5  UNL     1      -7.328  -2.923   0.992  1.00  0.00     0.244 HD
ENDBRANCH  25  27
ENDBRANCH  14  25
ENDBRANCH   6   9
ENDBRANCH   3   5
BRANCH   1  29
HETATM   29  C12 UNL     1       0.102   1.192   2.342  1.00  0.00     0.173 C 
BRANCH  29  30
HETATM   30  N5  UNL     1       1.297   0.614   1.884  1.00  0.00    -0.313 N 
HETATM   31  C3  UNL     1       1.780  -0.641   2.057  1.00  0.00     0.088 A 
HETATM   32  N1  UNL     1       2.967  -0.703   1.429  1.00  0.00    -0.331 N 
HETATM   33  C4  UNL     1       3.253   0.471   0.860  1.00  0.00     0.125 A 
ATOM     34  H1  UNL     1       3.564  -1.529   1.392  1.00  0.00     0.168 HD
HETATM   35  C11 UNL     1       2.201   1.298   1.148  1.00  0.00     0.146 A 
BRANCH  31  36
HETATM   36  C2  UNL     1       1.087  -1.681   2.804  1.00  0.00     0.072 C 
HETATM   37  C1  UNL     1       0.161  -2.518   1.929  1.00  0.00     0.013 C 
ENDBRANCH  31  36
BRANCH  33  38
HETATM   38  N2  UNL     1       4.427   0.837   0.112  1.00  0.00    -0.308 N 
HETATM   39  C5  UNL     1       5.452  -0.129  -0.025  1.00  0.00     0.258 C 
HETATM   40  O1  UNL     1       5.335  -1.255   0.499  1.00  0.00    -0.267 OA
ATOM     41  H2  UNL     1       4.517   1.763  -0.306  1.00  0.00     0.170 HD
BRANCH  39  42
HETATM   42  C6  UNL     1       6.641   0.215  -0.785  1.00  0.00     0.047 A 
HETATM   43  C7  UNL     1       6.584   1.168  -1.778  1.00  0.00     0.022 A 
HETATM   44  C8  UNL     1       7.699   1.499  -2.484  1.00  0.00     0.049 A 
HETATM   45  C9  UNL     1       8.929   0.889  -2.230  1.00  0.00     0.098 A 
HETATM   46  N4  UNL     1       8.924  -0.030  -1.253  1.00  0.00    -0.352 N 
HETATM   47  C10 UNL     1       7.867  -0.393  -0.531  1.00  0.00     0.106 A 
ATOM     48  H4  UNL     1       9.809  -0.492  -1.045  1.00  0.00     0.166 HD
BRANCH  45  49
HETATM   49  N3  UNL     1       9.987   1.187  -2.894  1.00  0.00    -0.385 N 
ATOM     50  H32 UNL     1       9.991   1.886  -3.637  1.00  0.00     0.157 HD
ATOM     51  H31 UNL     1      10.886   0.741  -2.708  1.00  0.00     0.157 HD
ENDBRANCH  45  49
ENDBRANCH  39  42
ENDBRANCH  33  38
ENDBRANCH  29  30
ENDBRANCH   1  29
TORSDOF 12
