REMARK  7 active torsions:
REMARK  status: ('A' for Active; 'I' for Inactive)
REMARK    1  A    between atoms: C3_7  and  C4_8 
REMARK       I    between atoms: C4_8  and  N4_10 
REMARK    2  A    between atoms: N4_10  and  S1_12 
REMARK    3  A    between atoms: S1_12  and  C5_15 
REMARK    4  A    between atoms: C6_18  and  O4_19 
REMARK    5  A    between atoms: C7_21  and  C8_22 
REMARK    6  A    between atoms: C8_22  and  O5_23 
REMARK    7  A    between atoms: C8_22  and  O6_25 
ROOT
HETATM    1  S1  UNL     1       0.152  -1.573  -0.849  1.00  0.00     0.276 S 
HETATM    2  O2  UNL     1       0.811  -1.445  -2.193  1.00  0.00    -0.201 OA
HETATM    3  O3  UNL     1      -0.161  -2.990  -0.542  1.00  0.00    -0.201 OA
ENDROOT
BRANCH   1   4
HETATM    4  N4  UNL     1      -1.241  -0.559  -0.824  1.00  0.00    -0.250 N 
HETATM    5  C4  UNL     1      -2.509  -1.134  -0.582  1.00  0.00     0.243 C 
HETATM    6  O1  UNL     1      -2.604  -2.368  -0.389  1.00  0.00    -0.272 OA
ATOM      7  H4  UNL     1      -1.151   0.445  -0.982  1.00  0.00     0.181 HD
BRANCH   5   8
HETATM    8  C3  UNL     1      -3.695  -0.238  -0.565  1.00  0.00     0.160 C 
HETATM    9  C1  UNL     1      -3.590   0.808   0.485  1.00  0.00     0.119 C 
HETATM   10  N1  UNL     1      -2.750   1.942   0.468  1.00  0.00    -0.086 NA
HETATM   11  N2  UNL     1      -4.398   0.515   1.428  1.00  0.00    -0.294 N 
HETATM   12  N3  UNL     1      -5.109  -0.649   1.205  1.00  0.00    -0.139 NA
ATOM     13  H2  UNL     1      -4.509   1.085   2.266  1.00  0.00     0.183 HD
HETATM   14  C2  UNL     1      -4.897  -1.036  -0.175  1.00  0.00     0.156 C 
ENDBRANCH   5   8
ENDBRANCH   1   4
BRANCH   1  15
HETATM   15  C5  UNL     1       1.230  -0.963   0.439  1.00  0.00     0.375 C 
HETATM   16  N5  UNL     1       2.425  -1.747   0.564  1.00  0.00    -0.096 NA
HETATM   17  N6  UNL     1       3.418  -1.316  -0.305  1.00  0.00    -0.110 NA
HETATM   18  C6  UNL     1       3.813   0.027   0.139  1.00  0.00     0.261 C 
HETATM   19  C7  UNL     1       2.653   0.706   0.843  1.00  0.00     0.225 C 
HETATM   20  O7  UNL     1       1.510   0.365   0.121  1.00  0.00    -0.340 OA
BRANCH  18  21
HETATM   21  O4  UNL     1       4.836  -0.125   1.072  1.00  0.00    -0.376 OA
ATOM     22  H4  UNL     1       5.092   0.744   1.359  1.00  0.00     0.211 HD
ENDBRANCH  18  21
BRANCH  19  23
HETATM   23  C8  UNL     1       2.778   2.209   0.829  1.00  0.00     0.286 C 
BRANCH  23  24
HETATM   24  O5  UNL     1       2.888   2.660  -0.484  1.00  0.00    -0.369 OA
ATOM     25  H5  UNL     1       2.967   3.607  -0.493  1.00  0.00     0.212 HD
ENDBRANCH  23  24
BRANCH  23  26
HETATM   26  O6  UNL     1       3.879   2.648   1.561  1.00  0.00    -0.369 OA
ATOM     27  H6  UNL     1       3.958   3.595   1.552  1.00  0.00     0.212 HD
ENDBRANCH  23  26
ENDBRANCH  19  23
ENDBRANCH   1  15
TORSDOF 7
