REMARK  2 active torsions:
REMARK  status: ('A' for Active; 'I' for Inactive)
REMARK    1  A    between atoms: C2_2  and  N1_3 
REMARK    2  A    between atoms: C5_11  and  C6_12 
ROOT
HETATM    1  C1  UNL     1       2.429  -1.670   1.556  1.00  0.00     0.039 C 
HETATM    2  C2  UNL     1       2.049  -0.687   0.486  1.00  0.00     0.046 C 
HETATM    3  C9  UNL     1       2.546  -1.210  -0.859  1.00  0.00     0.034 C 
HETATM    4  C10 UNL     1       2.709   0.071  -1.660  1.00  0.00     0.042 C 
HETATM    5  C11 UNL     1       3.165   1.112  -0.677  1.00  0.00     0.140 C 
HETATM    6  C12 UNL     1       2.512   2.405  -0.886  1.00  0.00     0.084 C 
HETATM    7  N5  UNL     1       1.978   3.427  -1.037  1.00  0.00    -0.195 NA
HETATM    8  C13 UNL     1       4.618   1.371  -0.836  1.00  0.00     0.084 C 
HETATM    9  N6  UNL     1       5.749   1.560  -0.956  1.00  0.00    -0.195 NA
HETATM   10  C14 UNL     1       2.918   0.568   0.718  1.00  0.00     0.071 C 
ENDROOT
BRANCH   2  11
HETATM   11  N1  UNL     1       0.715  -0.258   0.455  1.00  0.00    -0.217 N 
HETATM   12  C3  UNL     1      -0.400  -0.792   0.572  1.00  0.00     0.680 A 
HETATM   13  N2  UNL     1      -0.629  -2.092   0.789  1.00  0.00    -0.188 N 
HETATM   14  N4  UNL     1      -1.501   0.000   0.428  1.00  0.00    -0.179 N 
HETATM   15  C4  UNL     1      -1.885  -2.595   0.861  1.00  0.00     0.199 A 
ATOM     16  H2  UNL     1       0.165  -2.723   0.904  1.00  0.00     0.185 HD
HETATM   17  N3  UNL     1      -2.949  -1.800   0.716  1.00  0.00    -0.340 N 
HETATM   18  C5  UNL     1      -2.759  -0.465   0.493  1.00  0.00     0.121 A 
ATOM     19  H3  UNL     1      -3.892  -2.185   0.771  1.00  0.00     0.168 HD
ATOM     20  H4  UNL     1      -1.362   0.997   0.262  1.00  0.00     0.185 HD
ATOM     21  H1  UNL     1       0.641   0.747   0.296  1.00  0.00     0.178 HD
BRANCH  18  22
HETATM   22  C6  UNL     1      -3.950   0.388   0.314  1.00  0.00     0.088 C 
HETATM   23  C7  UNL     1      -4.310   1.176   1.543  1.00  0.00     0.041 C 
HETATM   24  C8  UNL     1      -3.815   1.331  -0.867  1.00  0.00     0.041 C 
HETATM   25 CL1  UNL     1      -5.368  -0.649  -0.075  1.00  0.00    -0.112 Cl
ENDBRANCH  18  22
ENDBRANCH   2  11
TORSDOF 2
