REMARK  2 active torsions:
REMARK  status: ('A' for Active; 'I' for Inactive)
REMARK    1  A    between atoms: C2_2  and  C4_4 
REMARK    2  A    between atoms: C8_9  and  N1_10 
ROOT
HETATM    1  C4  UNL     1       1.991  -0.209  -0.102  1.00  0.00     0.128 C 
HETATM    2  C5  UNL     1       2.141   1.187  -0.663  1.00  0.00     0.035 C 
HETATM    3  C6  UNL     1       0.954   1.984  -0.236  1.00  0.00     0.040 C 
HETATM    4  C7  UNL     1      -0.358   1.259  -0.533  1.00  0.00     0.191 C 
HETATM    5  O1  UNL     1      -1.341   2.047   0.020  1.00  0.00    -0.312 OA
HETATM    6  C8  UNL     1      -2.672   2.113   0.359  1.00  0.00     0.230 C 
HETATM    7  N2  UNL     1      -3.550   1.201   0.379  1.00  0.00    -0.353 N 
ATOM      8  H2  UNL     1      -4.450   1.576   0.679  1.00  0.00     0.163 HD
HETATM    9  C9  UNL     1      -3.655  -0.192   0.107  1.00  0.00     0.159 C 
HETATM   10  C10 UNL     1      -2.476  -0.807  -0.556  1.00  0.00     0.244 C 
HETATM   11  C11 UNL     1      -2.819  -2.254  -0.844  1.00  0.00     0.039 C 
HETATM   12  C12 UNL     1      -2.325  -2.925   0.445  1.00  0.00     0.033 C 
HETATM   13  C13 UNL     1      -0.992  -2.188   0.592  1.00  0.00     0.276 C 
HETATM   14  N3  UNL     1      -1.378  -0.804   0.372  1.00  0.00     0.126 N 
HETATM   15  C14 UNL     1      -0.239  -0.142  -0.183  1.00  0.00     0.389 C 
HETATM   16  O2  UNL     1       0.864  -0.317   0.686  1.00  0.00    -0.349 OA
ENDROOT
BRANCH   1  17
HETATM   17  C2  UNL     1       3.268  -0.538   0.631  1.00  0.00     0.006 C 
HETATM   18  C1  UNL     1       4.385  -0.456  -0.394  1.00  0.00     0.012 C 
HETATM   19  C3  UNL     1       3.587   0.414   1.734  1.00  0.00     0.012 C 
ENDBRANCH   1  17
BRANCH   6  20
HETATM   20  N1  UNL     1      -3.132   3.402   0.747  1.00  0.00    -0.264 N 
HETATM   21 CL1  UNL     1      -2.509   4.832  -0.029  1.00  0.00     0.014 Cl
ATOM     22  H1  UNL     1      -3.831   3.490   1.484  1.00  0.00     0.184 HD
ENDBRANCH   6  20
TORSDOF 2
