REMARK  1 active torsions:
REMARK  status: ('A' for Active; 'I' for Inactive)
REMARK    1  A    between atoms: C1_4  and  C2_6 
ROOT
HETATM    1  C2  UNL     1      -0.351   0.119  -0.487  1.00  0.00     0.050 C 
HETATM    2  C3  UNL     1       0.335   0.937   0.617  1.00  0.00     0.012 C 
HETATM    3  C4  UNL     1       1.795   0.604   0.448  1.00  0.00     0.001 C 
HETATM    4  C5  UNL     1       1.878  -0.544  -0.533  1.00  0.00     0.001 C 
HETATM    5  C6  UNL     1       0.491  -1.146  -0.435  1.00  0.00     0.012 C 
ENDROOT
BRANCH   1   6
HETATM    6  C1  UNL     1      -1.748  -0.128  -0.051  1.00  0.00     0.090 C 
HETATM    7  N1  UNL     1      -2.217  -1.338   0.113  1.00  0.00    -0.391 N 
ATOM      8  H12 UNL     1      -3.177  -1.508   0.413  1.00  0.00     0.157 HD
ATOM      9  H11 UNL     1      -1.622  -2.148  -0.059  1.00  0.00     0.157 HD
HETATM   10  N2  UNL     1      -2.571   0.993   0.187  1.00  0.00    -0.088 NA
ENDBRANCH   1   6
TORSDOF 1
