REMARK  15 active torsions:
REMARK  status: ('A' for Active; 'I' for Inactive)
REMARK    1  A    between atoms: C2_2  and  O2_4 
REMARK    2  A    between atoms: O2_4  and  C3_5 
REMARK    3  A    between atoms: C5_8  and  O4_9 
REMARK    4  A    between atoms: O4_9  and  C6_10 
REMARK    5  A    between atoms: C7_11  and  O5_12 
REMARK    6  A    between atoms: O5_12  and  C8_13 
REMARK       I    between atoms: C8_13  and  N1_15 
REMARK    7  A    between atoms: N1_15  and  O7_17 
REMARK    8  A    between atoms: C11_20  and  O8_21 
REMARK    9  A    between atoms: C12_23  and  O9_24 
REMARK   10  A    between atoms: O9_24  and  C13_25 
REMARK   11  A    between atoms: C15_28  and  O11_30 
REMARK   12  A    between atoms: C17_32  and  O12_33 
REMARK   13  A    between atoms: O12_33  and  C18_34 
REMARK   14  A    between atoms: C20_37  and  O14_38 
REMARK   15  A    between atoms: O14_38  and  C21_39 
ROOT
HETATM    1  C6  UNL     1      -1.606   0.004   0.097  1.00  0.00     0.191 C 
HETATM    2  C7  UNL     1      -2.651  -1.080   0.310  1.00  0.00     0.168 C 
HETATM    3  C10 UNL     1      -3.652  -0.617   1.331  1.00  0.00     0.069 C 
HETATM    4  C11 UNL     1      -3.407   0.743   1.867  1.00  0.00     0.153 C 
HETATM    5  C12 UNL     1      -3.084   1.782   0.839  1.00  0.00     0.197 C 
HETATM    6  C15 UNL     1      -2.376   1.222  -0.369  1.00  0.00     0.112 C 
HETATM    7  C16 UNL     1      -3.386   0.842  -1.456  1.00  0.00     0.051 C 
ENDROOT
BRANCH   1   8
HETATM    8  O4  UNL     1      -0.627  -0.407  -0.768  1.00  0.00    -0.348 OA
BRANCH   8   9
HETATM    9  C5  UNL     1       0.596  -0.394  -0.142  1.00  0.00     0.292 C 
HETATM   10  O3  UNL     1       1.005  -1.729  -0.028  1.00  0.00    -0.356 OA
HETATM   11  C4  UNL     1       2.106  -1.857   0.830  1.00  0.00     0.206 C 
HETATM   12  C3  UNL     1       3.198  -0.852   0.431  1.00  0.00     0.188 C 
HETATM   13  C20 UNL     1       2.890  -0.430  -0.974  1.00  0.00     0.198 C 
HETATM   14  C17 UNL     1       1.626   0.439  -0.878  1.00  0.00     0.219 C 
BRANCH  12  15
HETATM   15  O2  UNL     1       4.457  -1.416   0.596  1.00  0.00    -0.311 OA
BRANCH  15  16
HETATM   16  C2  UNL     1       5.324  -0.854   1.520  1.00  0.00     0.255 C 
HETATM   17  C1  UNL     1       6.687  -1.380   1.770  1.00  0.00     0.126 C 
HETATM   18  O1  UNL     1       4.953   0.135   2.172  1.00  0.00    -0.266 OA
ENDBRANCH  15  16
ENDBRANCH  12  15
BRANCH  13  19
HETATM   19  O14 UNL     1       3.913   0.187  -1.656  1.00  0.00    -0.311 OA
BRANCH  19  20
HETATM   20  C21 UNL     1       4.409  -0.305  -2.834  1.00  0.00     0.255 C 
HETATM   21  C22 UNL     1       5.505   0.315  -3.608  1.00  0.00     0.126 C 
HETATM   22  O15 UNL     1       3.881  -1.356  -3.271  1.00  0.00    -0.266 OA
ENDBRANCH  19  20
ENDBRANCH  13  19
BRANCH  14  23
HETATM   23  O12 UNL     1       1.986   1.508  -0.023  1.00  0.00    -0.308 OA
BRANCH  23  24
HETATM   24  C18 UNL     1       1.975   2.825  -0.358  1.00  0.00     0.255 C 
HETATM   25  C19 UNL     1       2.378   3.837   0.644  1.00  0.00     0.126 C 
HETATM   26  O13 UNL     1       1.622   3.156  -1.514  1.00  0.00    -0.266 OA
ENDBRANCH  23  24
ENDBRANCH  14  23
ENDBRANCH   8   9
ENDBRANCH   1   8
BRANCH   2  27
HETATM   27  O5  UNL     1      -2.075  -2.322   0.636  1.00  0.00    -0.294 OA
BRANCH  27  28
HETATM   28  C8  UNL     1      -2.218  -3.441  -0.185  1.00  0.00     0.386 C 
HETATM   29  O6  UNL     1      -2.891  -3.275  -1.233  1.00  0.00    -0.236 OA
HETATM   30  N1  UNL     1      -1.645  -4.695   0.130  1.00  0.00    -0.209 N 
HETATM   31  C9  UNL     1      -1.843  -5.800  -0.776  1.00  0.00     0.191 C 
BRANCH  30  32
HETATM   32  O7  UNL     1      -0.918  -4.922   1.239  1.00  0.00    -0.283 OA
ATOM     33  H7  UNL     1      -0.533  -5.764   1.451  1.00  0.00     0.245 HD
ENDBRANCH  30  32
ENDBRANCH  27  28
ENDBRANCH   2  27
BRANCH   6  34
HETATM   34  O11 UNL     1      -1.581   2.210  -0.895  1.00  0.00    -0.385 OA
ATOM     35  H11 UNL     1      -2.064   2.974  -1.187  1.00  0.00     0.210 HD
ENDBRANCH   6  34
BRANCH   5  36
HETATM   36  O9  UNL     1      -4.215   2.532   0.436  1.00  0.00    -0.310 OA
BRANCH  36  37
HETATM   37  C13 UNL     1      -4.319   3.909   0.646  1.00  0.00     0.255 C 
HETATM   38  C14 UNL     1      -5.504   4.698   0.224  1.00  0.00     0.126 C 
HETATM   39  O10 UNL     1      -3.375   4.520   1.216  1.00  0.00    -0.266 OA
ENDBRANCH  36  37
ENDBRANCH   5  36
BRANCH   4  40
HETATM   40  O8  UNL     1      -4.560   1.173   2.535  1.00  0.00    -0.393 OA
ATOM     41  H8  UNL     1      -4.403   2.045   2.879  1.00  0.00     0.210 HD
ENDBRANCH   4  40
TORSDOF 15
