REMARK  10 active torsions:
REMARK  status: ('A' for Active; 'I' for Inactive)
REMARK    1  A    between atoms: C2_2  and  C3_3 
REMARK    2  A    between atoms: C3_3  and  C4_4 
REMARK    3  A    between atoms: C4_4  and  C5_5 
REMARK    4  A    between atoms: C5_5  and  N1_6 
REMARK       I    between atoms: N1_6  and  C6_8 
REMARK    5  A    between atoms: C6_8  and  C7_10 
REMARK    6  A    between atoms: C7_10  and  C8_11 
REMARK    7  A    between atoms: C7_10  and  C14_17 
REMARK    8  A    between atoms: C8_11  and  C9_12 
REMARK    9  A    between atoms: C9_12  and  C10_13 
REMARK   10  A    between atoms: C10_13  and  C11_14 
ROOT
HETATM    1  C14 UNL     1      -0.215   0.659  -0.102  1.00  0.00     0.007 C 
HETATM    2  C15 UNL     1      -0.615   1.383   1.137  1.00  0.00     0.007 C 
HETATM    3  C16 UNL     1      -1.698   2.301   0.514  1.00  0.00     0.006 C 
HETATM    4  C17 UNL     1      -2.303   1.486  -0.611  1.00  0.00    -0.002 C 
HETATM    5  C18 UNL     1      -3.758   1.393  -0.375  1.00  0.00    -0.004 C 
HETATM    6  C19 UNL     1      -4.612   1.409  -1.626  1.00  0.00     0.007 C 
HETATM    7  C20 UNL     1      -6.005   0.897  -1.367  1.00  0.00     0.027 C 
HETATM    8  C21 UNL     1      -6.461   1.074   0.042  1.00  0.00     0.102 C 
HETATM    9  N2  UNL     1      -7.483   0.098   0.371  1.00  0.00    -0.354 N 
ATOM     10  H2  UNL     1      -8.501   0.091   0.438  1.00  0.00     0.162 HD
HETATM   11  C22 UNL     1      -6.433  -0.846   0.558  1.00  0.00     0.228 C 
HETATM   12  O2  UNL     1      -6.433  -2.096   0.405  1.00  0.00    -0.273 OA
HETATM   13  C23 UNL     1      -5.564   0.264   0.943  1.00  0.00     0.061 C 
HETATM   14  C24 UNL     1      -5.798   0.708   2.393  1.00  0.00     0.028 C 
HETATM   15  C25 UNL     1      -4.142   0.241   0.546  1.00  0.00     0.009 C 
HETATM   16  C26 UNL     1      -3.677  -1.001  -0.126  1.00  0.00     0.007 C 
HETATM   17  C27 UNL     1      -2.161  -0.971  -0.053  1.00  0.00     0.010 C 
HETATM   18  C28 UNL     1      -1.529   0.205  -0.677  1.00  0.00    -0.036 C 
HETATM   19  C29 UNL     1      -1.220  -0.179  -2.136  1.00  0.00     0.016 C 
ENDROOT
BRANCH   1  20
HETATM   20  C7  UNL     1       0.951  -0.150  -0.198  1.00  0.00     0.082 C 
BRANCH  20  21
HETATM   21  C6  UNL     1       2.177   0.662   0.023  1.00  0.00     0.222 C 
HETATM   22  N1  UNL     1       3.353   0.488  -0.713  1.00  0.00    -0.361 N 
ATOM     23  H1  UNL     1       3.377  -0.237  -1.431  1.00  0.00     0.162 HD
HETATM   24  O1  UNL     1       2.159   1.540   0.907  1.00  0.00    -0.273 OA
BRANCH  22  25
HETATM   25  C5  UNL     1       4.533   1.289  -0.501  1.00  0.00     0.122 C 
BRANCH  25  26
HETATM   26  C4  UNL     1       4.262   2.712  -0.837  1.00  0.00     0.020 C 
BRANCH  26  27
HETATM   27  C3  UNL     1       5.367   3.691  -0.759  1.00  0.00     0.001 C 
BRANCH  27  28
HETATM   28  C2  UNL     1       6.032   3.912   0.540  1.00  0.00    -0.004 C 
HETATM   29  C1  UNL     1       6.773   2.756   1.114  1.00  0.00     0.005 C 
ENDBRANCH  27  28
ENDBRANCH  26  27
ENDBRANCH  25  26
ENDBRANCH  22  25
ENDBRANCH  20  21
BRANCH  20  30
HETATM   30  C8  UNL     1       1.085  -1.435   0.526  1.00  0.00     0.014 C 
BRANCH  30  31
HETATM   31  C9  UNL     1       2.268  -2.266   0.076  1.00  0.00     0.001 C 
BRANCH  31  32
HETATM   32  C10 UNL     1       2.294  -3.588   0.860  1.00  0.00     0.004 C 
BRANCH  32  33
HETATM   33  C11 UNL     1       3.503  -4.376   0.363  1.00  0.00    -0.023 C 
HETATM   34  C12 UNL     1       3.593  -5.692   1.091  1.00  0.00     0.009 C 
HETATM   35  C13 UNL     1       3.391  -4.623  -1.114  1.00  0.00     0.009 C 
ENDBRANCH  32  33
ENDBRANCH  31  32
ENDBRANCH  30  31
ENDBRANCH  20  30
ENDBRANCH   1  20
TORSDOF 10
