REMARK  10 active torsions:
REMARK  status: ('A' for Active; 'I' for Inactive)
REMARK    1  A    between atoms: C2_2  and  C3_3 
REMARK    2  A    between atoms: C2_2  and  C20_22 
REMARK    3  A    between atoms: C12_12  and  C13_13 
REMARK    4  A    between atoms: C13_13  and  C14_14 
REMARK    5  A    between atoms: C13_13  and  N1_16 
REMARK    6  A    between atoms: C23_25  and  C25_27 
REMARK       I    between atoms: C25_27  and  N2_29 
REMARK    7  A    between atoms: N2_29  and  C26_31 
REMARK    8  A    between atoms: C26_31  and  C27_32 
REMARK    9  A    between atoms: C27_32  and  C28_33 
REMARK   10  A    between atoms: C28_33  and  C29_34 
ROOT
HETATM    1  C3  UNL     1      -0.263   0.677   1.401  1.00  0.00     0.018 C 
HETATM    2  C4  UNL     1       0.054   0.865   2.899  1.00  0.00     0.010 C 
HETATM    3  C5  UNL     1       1.241  -0.064   3.142  1.00  0.00     0.006 C 
HETATM    4  C6  UNL     1       1.663  -0.529   1.807  1.00  0.00    -0.005 C 
HETATM    5  C7  UNL     1       1.113   0.545   0.874  1.00  0.00    -0.002 C 
HETATM    6  C8  UNL     1       1.266  -0.067  -0.487  1.00  0.00     0.006 C 
HETATM    7  C9  UNL     1       2.757  -0.047  -0.785  1.00  0.00     0.011 C 
HETATM    8  C10 UNL     1       3.528  -0.877   0.168  1.00  0.00    -0.031 C 
HETATM    9  C11 UNL     1       3.275  -2.352  -0.169  1.00  0.00     0.016 C 
HETATM   10  C12 UNL     1       4.987  -0.541   0.244  1.00  0.00     0.039 C 
HETATM   11  C17 UNL     1       4.976   0.684   1.092  1.00  0.00     0.011 C 
HETATM   12  C18 UNL     1       3.984   0.324   2.227  1.00  0.00     0.006 C 
HETATM   13  C19 UNL     1       3.132  -0.735   1.623  1.00  0.00    -0.001 C 
ENDROOT
BRANCH   1  14
HETATM   14  C2  UNL     1      -1.017   1.849   0.930  1.00  0.00    -0.079 C 
HETATM   15  C1  UNL     1      -0.492   2.737   0.084  1.00  0.00     0.015 C 
BRANCH  14  16
HETATM   16  C20 UNL     1      -2.387   2.084   1.384  1.00  0.00     0.031 C 
HETATM   17  C21 UNL     1      -3.211   3.071   0.547  1.00  0.00     0.011 C 
HETATM   18  C22 UNL     1      -4.423   2.252   1.008  1.00  0.00     0.020 C 
HETATM   19  C23 UNL     1      -3.441   1.072   1.102  1.00  0.00     0.044 C 
HETATM   20  C24 UNL     1      -3.859   0.233   2.310  1.00  0.00     0.026 C 
BRANCH  19  21
HETATM   21  C25 UNL     1      -3.357   0.271  -0.093  1.00  0.00     0.226 C 
HETATM   22  O1  UNL     1      -2.434   0.394  -0.920  1.00  0.00    -0.273 OA
HETATM   23  N2  UNL     1      -4.356  -0.707  -0.363  1.00  0.00    -0.360 N 
ATOM     24  H2  UNL     1      -5.119  -0.817   0.305  1.00  0.00     0.162 HD
BRANCH  23  25
HETATM   25  C26 UNL     1      -4.345  -1.540  -1.519  1.00  0.00     0.122 C 
BRANCH  25  26
HETATM   26  C27 UNL     1      -5.510  -2.436  -1.641  1.00  0.00     0.020 C 
BRANCH  26  27
HETATM   27  C28 UNL     1      -6.850  -1.867  -1.871  1.00  0.00     0.001 C 
BRANCH  27  28
HETATM   28  C29 UNL     1      -7.401  -0.895  -0.879  1.00  0.00    -0.004 C 
HETATM   29  C30 UNL     1      -8.833  -0.490  -1.315  1.00  0.00     0.005 C 
ENDBRANCH  27  28
ENDBRANCH  26  27
ENDBRANCH  25  26
ENDBRANCH  23  25
ENDBRANCH  19  21
ENDBRANCH  14  16
ENDBRANCH   1  14
BRANCH  10  30
HETATM   30  C13 UNL     1       5.761  -0.400  -0.981  1.00  0.00    -0.014 C 
BRANCH  30  31
HETATM   31  C14 UNL     1       5.770  -1.693  -1.836  1.00  0.00     0.048 C 
HETATM   32  C15 UNL     1       6.635  -1.382  -3.074  1.00  0.00     0.011 C 
ENDBRANCH  30  31
BRANCH  30  33
HETATM   33  N1  UNL     1       5.694   0.730  -1.805  1.00  0.00    -0.400 N 
HETATM   34  C16 UNL     1       6.164   1.992  -1.360  1.00  0.00     0.145 C 
ATOM     35  H1  UNL     1       5.300   0.644  -2.742  1.00  0.00     0.158 HD
ENDBRANCH  30  33
ENDBRANCH  10  30
TORSDOF 10
