REMARK  3 active torsions:
REMARK  status: ('A' for Active; 'I' for Inactive)
REMARK    1  A    between atoms: C2_2  and  O1_3 
REMARK    2  A    between atoms: O1_3  and  C3_4 
REMARK    3  A    between atoms: C3_4  and  C4_6 
ROOT
HETATM    1  C4  UNL     1       2.186  -0.775  -0.687  1.00  0.00     0.090 C 
HETATM    2  C5  UNL     1       3.331  -1.532  -0.045  1.00  0.00     0.015 C 
HETATM    3  C6  UNL     1       3.308  -3.001  -0.392  1.00  0.00     0.001 C 
HETATM    4  C7  UNL     1       1.973  -3.636  -0.253  1.00  0.00     0.000 C 
HETATM    5  C8  UNL     1       1.113  -3.068   0.829  1.00  0.00     0.006 C 
HETATM    6  C9  UNL     1      -0.054  -2.362   0.197  1.00  0.00     0.071 C 
HETATM    7  C10 UNL     1      -0.065  -0.885   0.425  1.00  0.00     0.201 C 
HETATM    8  C11 UNL     1       1.295  -0.252   0.410  1.00  0.00     0.086 C 
HETATM    9  O3  UNL     1      -0.674  -0.522   1.634  1.00  0.00    -0.197 OA
HETATM   10  O4  UNL     1      -1.027   0.735   1.342  1.00  0.00    -0.197 OA
HETATM   11  C12 UNL     1      -1.821   0.482   0.196  1.00  0.00     0.205 C 
HETATM   12  C13 UNL     1      -2.072   1.713  -0.578  1.00  0.00     0.076 C 
HETATM   13  C14 UNL     1      -3.506   2.048  -0.817  1.00  0.00    -0.009 C 
HETATM   14  C15 UNL     1      -4.202   2.351   0.484  1.00  0.00     0.010 C 
HETATM   15  C16 UNL     1      -4.661   1.014   0.997  1.00  0.00    -0.009 C 
HETATM   16  C17 UNL     1      -3.606   0.402   1.902  1.00  0.00     0.015 C 
HETATM   17  C18 UNL     1      -3.021  -0.256   0.663  1.00  0.00     0.056 C 
HETATM   18  C19 UNL     1      -4.282  -0.014  -0.050  1.00  0.00    -0.001 C 
HETATM   19  C20 UNL     1      -4.175   0.762  -1.322  1.00  0.00     0.010 C 
HETATM   20  O5  UNL     1      -0.926  -0.320  -0.524  1.00  0.00    -0.313 OA
ENDROOT
BRANCH   1  21
HETATM   21  C3  UNL     1       2.781   0.411  -1.361  1.00  0.00     0.263 C 
HETATM   22  O2  UNL     1       2.716   0.665  -2.564  1.00  0.00    -0.265 OA
BRANCH  21  23
HETATM   23  O1  UNL     1       3.464   1.292  -0.532  1.00  0.00    -0.322 OA
BRANCH  23  24
HETATM   24  C2  UNL     1       4.089   2.458  -0.970  1.00  0.00     0.174 C 
HETATM   25  C1  UNL     1       4.717   3.129   0.256  1.00  0.00     0.034 C 
ENDBRANCH  23  24
ENDBRANCH  21  23
ENDBRANCH   1  21
TORSDOF 3
