REMARK  2 active torsions:
REMARK  status: ('A' for Active; 'I' for Inactive)
REMARK    1  A    between atoms: C2_2  and  C3_3 
REMARK    2  A    between atoms: C3_3  and  C4_4 
ROOT
HETATM    1  C4  UNL     1       2.388  -0.483  -0.018  1.00  0.00     0.085 C 
HETATM    2  C5  UNL     1       3.290  -1.582   0.572  1.00  0.00     0.049 C 
HETATM    3  C6  UNL     1       2.199  -0.656  -1.487  1.00  0.00     0.209 C 
HETATM    4  O1  UNL     1       0.948  -0.223  -1.665  1.00  0.00    -0.347 OA
HETATM    5  C7  UNL     1       0.167  -0.399  -0.508  1.00  0.00     0.233 C 
HETATM    6  O2  UNL     1       1.137  -0.505   0.444  1.00  0.00    -0.337 OA
HETATM    7  C8  UNL     1      -0.711  -1.554  -0.723  1.00  0.00     0.117 C 
HETATM    8  C9  UNL     1       0.011  -2.915  -0.703  1.00  0.00     0.052 C 
HETATM    9  C10 UNL     1      -1.311  -1.419  -2.092  1.00  0.00     0.044 C 
HETATM   10  C11 UNL     1      -1.334  -0.075  -2.708  1.00  0.00     0.011 C 
HETATM   11  C12 UNL     1      -1.307   1.113  -1.752  1.00  0.00     0.030 C 
HETATM   12  C13 UNL     1      -2.811   1.423  -1.566  1.00  0.00     0.009 C 
HETATM   13  C14 UNL     1      -3.111   0.572  -0.310  1.00  0.00     0.016 C 
HETATM   14  C15 UNL     1      -1.934   0.889   0.399  1.00  0.00     0.032 C 
HETATM   15  C16 UNL     1      -2.110   2.415   0.702  1.00  0.00     0.022 C 
HETATM   16  C17 UNL     1      -1.362   0.345   1.593  1.00  0.00     0.124 C 
HETATM   17  C18 UNL     1      -2.039   0.779   2.899  1.00  0.00     0.052 C 
HETATM   18  C19 UNL     1      -1.269  -1.126   1.528  1.00  0.00     0.210 C 
HETATM   19  O3  UNL     1      -1.607  -1.661   0.307  1.00  0.00    -0.372 OA
HETATM   20  O4  UNL     1      -0.157   1.071   1.566  1.00  0.00    -0.226 OA
HETATM   21  O5  UNL     1      -0.017   1.625   0.342  1.00  0.00    -0.222 OA
HETATM   22  C20 UNL     1      -0.704   0.822  -0.481  1.00  0.00     0.169 C 
ENDROOT
BRANCH   1  23
HETATM   23  C3  UNL     1       3.196   0.781   0.185  1.00  0.00     0.066 C 
BRANCH  23  24
HETATM   24  C2  UNL     1       3.492   1.050   1.599  1.00  0.00    -0.034 C 
HETATM   25  C1  UNL     1       4.736   1.126   2.020  1.00  0.00     0.007 C 
ENDBRANCH  23  24
ENDBRANCH   1  23
TORSDOF 2
