REMARK  7 active torsions:
REMARK  status: ('A' for Active; 'I' for Inactive)
REMARK    1  A    between atoms: C2_2  and  C3_3 
REMARK    2  A    between atoms: C3_3  and  C4_4 
REMARK    3  A    between atoms: C4_4  and  O1_5 
REMARK    4  A    between atoms: C4_4  and  C5_10 
REMARK    5  A    between atoms: O1_5  and  S1_6 
REMARK    6  A    between atoms: C5_10  and  O5_11 
REMARK    7  A    between atoms: C15_23  and  O7_24 
ROOT
HETATM    1  C5  UNL     1      -0.841   0.338   0.383  1.00  0.00     0.095 C 
HETATM    2  C6  UNL     1       0.511   0.994   0.202  1.00  0.00     0.055 C 
HETATM    3  C7  UNL     1       1.655   0.218   0.794  1.00  0.00    -0.013 C 
HETATM    4  C8  UNL     1       1.847   0.729   2.235  1.00  0.00     0.021 C 
HETATM    5  C9  UNL     1       2.886   0.735   0.087  1.00  0.00    -0.059 C 
HETATM    6  C10 UNL     1       3.941   0.018  -0.190  1.00  0.00    -0.048 C 
HETATM    7  C11 UNL     1       5.098   0.607  -0.883  1.00  0.00     0.044 C 
HETATM    8  C12 UNL     1       5.491   1.951  -0.310  1.00  0.00     0.083 C 
HETATM    9  C13 UNL     1       4.257   2.774  -0.237  1.00  0.00     0.131 C 
HETATM   10  O6  UNL     1       4.373   3.980  -0.108  1.00  0.00    -0.298 OA
HETATM   11  C14 UNL     1       2.893   2.167  -0.316  1.00  0.00     0.113 C 
HETATM   12  C15 UNL     1       3.945  -1.407   0.205  1.00  0.00     0.147 C 
HETATM   13  C16 UNL     1       2.556  -1.924  -0.205  1.00  0.00     0.042 C 
HETATM   14  C17 UNL     1       1.550  -1.250   0.711  1.00  0.00     0.006 C 
HETATM   15  C18 UNL     1       0.185  -1.810   0.574  1.00  0.00     0.003 C 
HETATM   16  C19 UNL     1       0.124  -3.183  -0.013  1.00  0.00     0.007 C 
HETATM   17  C20 UNL     1      -1.304  -3.280  -0.421  1.00  0.00     0.011 C 
HETATM   18  C21 UNL     1      -1.959  -1.912  -0.106  1.00  0.00    -0.030 C 
HETATM   19  C22 UNL     1      -3.076  -1.807  -1.090  1.00  0.00     0.010 C 
HETATM   20  C23 UNL     1      -3.913  -3.030  -0.662  1.00  0.00     0.001 C 
HETATM   21  C24 UNL     1      -3.935  -2.804   0.837  1.00  0.00     0.001 C 
HETATM   22  C25 UNL     1      -2.629  -2.086   1.186  1.00  0.00     0.010 C 
HETATM   23  C26 UNL     1      -0.819  -0.986  -0.244  1.00  0.00     0.001 C 
HETATM   24  C27 UNL     1      -0.367  -1.018  -1.678  1.00  0.00     0.019 C 
ENDROOT
BRANCH   1  25
HETATM   25  C4  UNL     1      -1.903   1.299   0.242  1.00  0.00     0.180 C 
BRANCH  25  26
HETATM   26  C3  UNL     1      -2.429   1.868  -0.988  1.00  0.00     0.036 C 
BRANCH  26  27
HETATM   27  C2  UNL     1      -1.524   2.725  -1.837  1.00  0.00    -0.002 C 
HETATM   28  C1  UNL     1      -2.322   3.253  -3.058  1.00  0.00     0.005 C 
ENDBRANCH  26  27
ENDBRANCH  25  26
BRANCH  25  29
HETATM   29  O1  UNL     1      -1.531   2.443   1.009  1.00  0.00    -0.248 OA
BRANCH  29  30
HETATM   30  S1  UNL     1      -2.628   2.853   2.168  1.00  0.00     0.252 S 
HETATM   31  O2  UNL     1      -1.863   3.349   3.388  1.00  0.00    -0.572 OA
HETATM   32  O3  UNL     1      -3.439   4.013   1.639  1.00  0.00    -0.572 OA
HETATM   33  O4  UNL     1      -3.598   1.568   2.578  1.00  0.00    -0.572 OA
ENDBRANCH  29  30
ENDBRANCH  25  29
ENDBRANCH   1  25
BRANCH   1  34
HETATM   34  O5  UNL     1      -0.816   0.070   1.799  1.00  0.00    -0.386 OA
ATOM     35  H5  UNL     1      -0.115  -0.564   1.892  1.00  0.00     0.210 HD
ENDBRANCH   1  34
BRANCH  12  36
HETATM   36  O7  UNL     1       4.187  -1.630   1.537  1.00  0.00    -0.391 OA
ATOM     37  H7  UNL     1       4.190  -2.545   1.791  1.00  0.00     0.210 HD
ENDBRANCH  12  36
TORSDOF 7
