REMARK  2 active torsions:
REMARK  status: ('A' for Active; 'I' for Inactive)
REMARK    1  A    between atoms: N1_1  and  C1_4 
REMARK    2  A    between atoms: C9_13  and  N3_14 
ROOT
HETATM    1  C1  UNL     1      -1.257   1.502  -0.570  1.00  0.00     0.031 C 
HETATM    2  C2  UNL     1      -2.394   2.490  -0.702  1.00  0.00     0.059 C 
HETATM    3  C3  UNL     1      -3.522   2.046   0.165  1.00  0.00     0.008 C 
HETATM    4  C4  UNL     1      -4.254   0.913  -0.529  1.00  0.00     0.020 C 
HETATM    5  C5  UNL     1      -3.885  -0.357   0.173  1.00  0.00     0.123 C 
HETATM    6  N2  UNL     1      -2.486  -0.687  -0.012  1.00  0.00    -0.378 N 
HETATM    7  C6  UNL     1      -2.362  -2.131  -0.169  1.00  0.00     0.123 C 
HETATM    8  C7  UNL     1      -0.916  -2.561  -0.045  1.00  0.00     0.026 C 
HETATM    9  C8  UNL     1      -0.198  -1.698   0.941  1.00  0.00     0.061 C 
HETATM   10  C9  UNL     1      -0.128  -0.296   0.408  1.00  0.00     0.038 C 
HETATM   11  C16 UNL     1      -1.311   0.151  -0.056  1.00  0.00     0.075 C 
ENDROOT
BRANCH  10  12
HETATM   12  N3  UNL     1       1.026   0.499   0.401  1.00  0.00    -0.364 N 
HETATM   13  C10 UNL     1       2.230   0.178   0.138  1.00  0.00    -0.006 C 
HETATM   14  C11 UNL     1       3.310   1.220   0.202  1.00  0.00     0.053 C 
HETATM   15  C15 UNL     1       2.676  -1.172  -0.257  1.00  0.00     0.130 C 
HETATM   16  C12 UNL     1       4.622   0.626   0.654  1.00  0.00     0.013 C 
HETATM   17  C13 UNL     1       5.104  -0.338  -0.413  1.00  0.00     0.079 C 
HETATM   18  C14 UNL     1       3.944  -0.976  -1.056  1.00  0.00     0.132 C 
HETATM   19  O1  UNL     1       3.988  -1.342  -2.200  1.00  0.00    -0.298 OA
ATOM     20  H3  UNL     1       0.880   1.479   0.642  1.00  0.00     0.165 HD
ENDBRANCH  10  12
BRANCH   1  21
HETATM   21  N1  UNL     1      -0.103   1.899  -0.958  1.00  0.00    -0.400 N 
ATOM     22  H12 UNL     1      -0.065   2.852  -1.320  1.00  0.00     0.156 HD
ATOM     23  H11 UNL     1       0.664   1.233  -0.869  1.00  0.00     0.156 HD
ENDBRANCH   1  21
TORSDOF 2
