REMARK  7 active torsions:
REMARK  status: ('A' for Active; 'I' for Inactive)
REMARK    1  A    between atoms: C2_2  and  C3_3 
REMARK    2  A    between atoms: C4_4  and  C5_5 
REMARK    3  A    between atoms: C7_7  and  N1_8 
REMARK    4  A    between atoms: C8_9  and  O1_10 
REMARK    5  A    between atoms: C10_14  and  N2_15 
REMARK    6  A    between atoms: N2_15  and  N3_17 
REMARK    7  A    between atoms: N3_17  and  O2_19 
ROOT
HETATM    1  N1  UNL     1      -2.192  -0.169  -0.023  1.00  0.00    -0.300 N 
HETATM    2  C8  UNL     1      -2.747  -0.406   1.134  1.00  0.00     0.151 A 
HETATM    3  C9  UNL     1      -4.038   0.015   1.330  1.00  0.00     0.109 A 
HETATM    4  S1  UNL     1      -4.417   0.744  -0.161  1.00  0.00    -0.060 SA
HETATM    5  C10 UNL     1      -2.925   0.474  -0.946  1.00  0.00     0.169 A 
ENDROOT
BRANCH   1   6
HETATM    6  C7  UNL     1      -0.803  -0.574  -0.362  1.00  0.00     0.111 A 
HETATM    7  C5  UNL     1       0.246  -0.644   0.648  1.00  0.00     0.090 A 
HETATM    8  C6  UNL     1      -0.299  -1.908   0.115  1.00  0.00     0.046 A 
BRANCH   7   9
HETATM    9  C4  UNL     1       1.640  -0.370   0.195  1.00  0.00    -0.100 C 
HETATM   10  C3  UNL     1       2.758  -0.136  -0.186  1.00  0.00    -0.106 C 
BRANCH  10  11
HETATM   11  C2  UNL     1       4.103   0.168  -0.661  1.00  0.00     0.089 C 
HETATM   12  C1  UNL     1       4.780   1.252   0.117  1.00  0.00     0.018 C 
ENDBRANCH  10  11
ENDBRANCH   7   9
ENDBRANCH   1   6
BRANCH   2  13
HETATM   13  O1  UNL     1      -2.108  -1.079   2.224  1.00  0.00    -0.346 OA
ATOM     14  H1  UNL     1      -2.512  -1.252   3.066  1.00  0.00     0.219 HD
ENDBRANCH   2  13
BRANCH   5  15
HETATM   15  N2  UNL     1      -2.570   0.816  -2.173  1.00  0.00    -0.260 N 
ATOM     16  H2  UNL     1      -1.643   0.601  -2.540  1.00  0.00     0.191 HD
BRANCH  15  17
HETATM   17  N3  UNL     1      -3.515   1.479  -2.935  1.00  0.00    -0.208 N 
ATOM     18  H3  UNL     1      -3.863   1.034  -3.785  1.00  0.00     0.215 HD
BRANCH  17  19
HETATM   19  O2  UNL     1      -3.961   2.613  -2.616  1.00  0.00    -0.274 OA
ATOM     20  H2  UNL     1      -4.610   3.068  -3.139  1.00  0.00     0.246 HD
ENDBRANCH  17  19
ENDBRANCH  15  17
ENDBRANCH   5  15
TORSDOF 7
