REMARK  5 active torsions:
REMARK  status: ('A' for Active; 'I' for Inactive)
REMARK    1  A    between atoms: C2_2  and  C3_3 
REMARK    2  A    between atoms: C3_3  and  N1_4 
REMARK    3  A    between atoms: N2_10  and  C9_11 
REMARK    4  A    between atoms: C9_11  and  N3_13 
REMARK    5  A    between atoms: C13_18  and  N4_19 
REMARK       I    between atoms: N4_19  and  C14_21 
ROOT
HETATM    1  N1  UNL     1       1.754   0.720   0.286  1.00  0.00    -0.278 N 
HETATM    2  C4  UNL     1       0.449   0.792   0.690  1.00  0.00     0.098 C 
HETATM    3  C5  UNL     1      -0.576  -0.055   0.020  1.00  0.00    -0.004 C 
HETATM    4  C6  UNL     1      -0.088  -1.242  -0.705  1.00  0.00     0.017 C 
HETATM    5  C7  UNL     1       1.017  -0.961  -1.701  1.00  0.00     0.023 C 
HETATM    6  C8  UNL     1       2.312  -1.357  -0.950  1.00  0.00     0.152 C 
HETATM    7  N2  UNL     1       2.445  -0.453   0.176  1.00  0.00    -0.262 N 
HETATM    8  C11 UNL     1      -1.539  -0.530   1.094  1.00  0.00     0.017 C 
HETATM    9  C12 UNL     1      -2.561   0.615   1.184  1.00  0.00     0.026 C 
HETATM   10  C13 UNL     1      -2.810   0.862  -0.285  1.00  0.00     0.085 C 
HETATM   11  C15 UNL     1      -1.471   0.739  -0.939  1.00  0.00     0.040 C 
ENDROOT
BRANCH   1  12
HETATM   12  C3  UNL     1       2.510   1.882   0.231  1.00  0.00     0.114 C 
BRANCH  12  13
HETATM   13  C2  UNL     1       2.111   2.866  -0.830  1.00  0.00     0.009 C 
HETATM   14  C1  UNL     1       1.738   4.083  -0.509  1.00  0.00     0.013 C 
ENDBRANCH  12  13
ENDBRANCH   1  12
BRANCH  10  15
HETATM   15  N4  UNL     1      -3.785  -0.051  -0.822  1.00  0.00    -0.360 N 
HETATM   16  C14 UNL     1      -5.118  -0.080  -0.338  1.00  0.00     0.182 C 
HETATM   17  N5  UNL     1      -5.750   1.037  -0.276  1.00  0.00    -0.374 N 
HETATM   18  N6  UNL     1      -5.760  -1.263   0.069  1.00  0.00    -0.064 NA
ATOM     19  H52 UNL     1      -5.284   1.895  -0.571  1.00  0.00     0.158 HD
ATOM     20  H51 UNL     1      -6.709   1.016   0.072  1.00  0.00     0.158 HD
ATOM     21  H4  UNL     1      -3.511  -0.691  -1.567  1.00  0.00     0.162 HD
ENDBRANCH  10  15
BRANCH   7  22
HETATM   22  C9  UNL     1       3.335  -0.799   1.257  1.00  0.00     0.188 C 
HETATM   23  S1  UNL     1       3.380   0.275   2.551  1.00  0.00    -0.039 SA
BRANCH  22  24
HETATM   24  N3  UNL     1       4.157  -1.909   1.388  1.00  0.00    -0.370 N 
HETATM   25  C10 UNL     1       4.385  -3.023   0.525  1.00  0.00     0.148 C 
ATOM     26  H3  UNL     1       4.694  -1.933   2.255  1.00  0.00     0.161 HD
ENDBRANCH  22  24
ENDBRANCH   7  22
TORSDOF 5
