REMARK  10 active torsions:
REMARK  status: ('A' for Active; 'I' for Inactive)
REMARK    1  A    between atoms: C9_10  and  C10_11 
REMARK    2  A    between atoms: C16_21  and  S1_22 
REMARK    3  A    between atoms: S1_22  and  C17_23 
REMARK    4  A    between atoms: C17_23  and  C18_24 
REMARK    5  A    between atoms: C18_24  and  C19_25 
REMARK    6  A    between atoms: C19_25  and  O3_26 
REMARK    7  A    between atoms: C19_25  and  C20_28 
REMARK    8  A    between atoms: C20_28  and  O4_29 
REMARK    9  A    between atoms: C20_28  and  C21_31 
REMARK   10  A    between atoms: C21_31  and  O5_32 
ROOT
HETATM    1  C1  UNL     1      -1.468   1.984   1.702  1.00  0.00     0.051 C 
HETATM    2  C2  UNL     1      -1.764   0.937   0.688  1.00  0.00    -0.026 A 
HETATM    3  C3  UNL     1      -1.144  -0.279   0.663  1.00  0.00     0.018 A 
HETATM    4  C4  UNL     1      -1.434  -1.258  -0.301  1.00  0.00    -0.034 A 
HETATM    5  C5  UNL     1      -2.387  -1.005  -1.275  1.00  0.00    -0.034 A 
HETATM    6  C6  UNL     1      -3.033   0.247  -1.261  1.00  0.00     0.055 A 
HETATM    7  C7  UNL     1      -3.978   0.606  -2.175  1.00  0.00     0.188 A 
HETATM    8  O1  UNL     1      -4.328  -0.166  -3.086  1.00  0.00    -0.287 OA
HETATM    9  C8  UNL     1      -4.600   1.865  -2.132  1.00  0.00     0.094 A 
HETATM   10  C9  UNL     1      -4.221   2.726  -1.134  1.00  0.00     0.121 A 
HETATM   11  O2  UNL     1      -3.310   2.379  -0.258  1.00  0.00    -0.308 OA
HETATM   12  C11 UNL     1      -2.709   1.200  -0.276  1.00  0.00     0.096 A 
HETATM   13  C12 UNL     1      -2.945  -1.817  -2.348  1.00  0.00     0.040 C 
HETATM   14  C13 UNL     1      -2.338  -3.239  -2.116  1.00  0.00     0.007 C 
HETATM   15  C14 UNL     1      -0.884  -3.195  -2.503  1.00  0.00     0.039 C 
HETATM   16  C15 UNL     1      -0.008  -3.061  -1.330  1.00  0.00     0.188 C 
HETATM   17  F3  UNL     1       0.411  -4.345  -0.952  1.00  0.00    -0.248 F 
HETATM   18  C16 UNL     1      -0.602  -2.446  -0.097  1.00  0.00     0.114 C 
ENDROOT
BRANCH  18  19
HETATM   19  S1  UNL     1       0.731  -2.018   1.081  1.00  0.00    -0.157 SA
BRANCH  19  20
HETATM   20  C17 UNL     1       1.948  -0.895   0.372  1.00  0.00     0.077 C 
BRANCH  20  21
HETATM   21  C18 UNL     1       2.970  -0.615   1.451  1.00  0.00     0.044 C 
BRANCH  21  22
HETATM   22  C19 UNL     1       4.056   0.326   0.964  1.00  0.00     0.149 C 
BRANCH  22  23
HETATM   23  O3  UNL     1       3.567   1.547   0.563  1.00  0.00    -0.393 OA
ATOM     24  H3  UNL     1       4.247   2.136   0.258  1.00  0.00     0.210 HD
ENDBRANCH  22  23
BRANCH  22  25
HETATM   25  C20 UNL     1       5.070   0.452   2.080  1.00  0.00     0.170 C 
BRANCH  25  26
HETATM   26  O4  UNL     1       4.460   1.065   3.183  1.00  0.00    -0.391 OA
ATOM     27  H4  UNL     1       5.097   1.144   3.884  1.00  0.00     0.210 HD
ENDBRANCH  25  26
BRANCH  25  28
HETATM   28  C21 UNL     1       6.264   1.293   1.684  1.00  0.00     0.198 C 
BRANCH  28  29
HETATM   29  O5  UNL     1       7.127   1.334   2.784  1.00  0.00    -0.398 OA
ATOM     30  H5  UNL     1       7.877   1.862   2.535  1.00  0.00     0.209 HD
ENDBRANCH  28  29
ENDBRANCH  25  28
ENDBRANCH  22  25
ENDBRANCH  21  22
ENDBRANCH  20  21
ENDBRANCH  19  20
ENDBRANCH  18  19
BRANCH  10  31
HETATM   31  C10 UNL     1      -4.880   4.067  -1.083  1.00  0.00     0.410 C 
HETATM   32  F1  UNL     1      -3.867   4.994  -1.310  1.00  0.00    -0.207 F 
HETATM   33  F2  UNL     1      -5.433   4.212   0.173  1.00  0.00    -0.207 F 
ENDBRANCH  10  31
TORSDOF 10
