REMARK  9 active torsions:
REMARK  status: ('A' for Active; 'I' for Inactive)
REMARK    1  A    between atoms: C2_2  and  C3_3 
REMARK    2  A    between atoms: C3_3  and  C4_4 
REMARK    3  A    between atoms: C4_4  and  C5_5 
REMARK    4  A    between atoms: C5_5  and  C6_6 
REMARK    5  A    between atoms: C6_6  and  C7_7 
REMARK    6  A    between atoms: C7_7  and  C8_8 
REMARK    7  A    between atoms: C8_8  and  N1_9 
REMARK    8  A    between atoms: C14_18  and  N3_19 
REMARK    9  A    between atoms: N3_19  and  C15_21 
ROOT
HETATM    1  N1  UNL     1      -1.203  -0.122  -0.220  1.00  0.00    -0.343 N 
HETATM    2  C9  UNL     1      -1.121   0.539  -1.444  1.00  0.00     0.166 C 
HETATM    3  C10 UNL     1      -2.447   0.943  -2.010  1.00  0.00     0.257 C 
HETATM    4  O1  UNL     1      -2.656   0.551  -3.183  1.00  0.00    -0.267 OA
HETATM    5  N2  UNL     1      -3.435   1.700  -1.346  1.00  0.00    -0.352 N 
ATOM      6  H2  UNL     1      -4.280   1.891  -1.885  1.00  0.00     0.163 HD
HETATM    7  C11 UNL     1      -3.414   2.241  -0.008  1.00  0.00     0.084 C 
HETATM    8  C12 UNL     1      -4.816   2.633   0.417  1.00  0.00     0.032 C 
HETATM    9  C13 UNL     1      -2.728   1.368   0.996  1.00  0.00     0.072 C 
HETATM   10  C14 UNL     1      -2.444  -0.027   0.500  1.00  0.00     0.207 C 
ENDROOT
BRANCH   1  11
HETATM   11  C8  UNL     1      -0.470  -1.296  -0.053  1.00  0.00     0.066 C 
BRANCH  11  12
HETATM   12  C7  UNL     1       1.017  -1.167   0.068  1.00  0.00     0.045 C 
BRANCH  12  13
HETATM   13  C6  UNL     1       1.758  -0.572  -1.059  1.00  0.00     0.005 C 
BRANCH  13  14
HETATM   14  C5  UNL     1       3.261  -0.615  -0.766  1.00  0.00     0.000 C 
BRANCH  14  15
HETATM   15  C4  UNL     1       3.594   0.148   0.463  1.00  0.00     0.000 C 
BRANCH  15  16
HETATM   16  C3  UNL     1       5.095   0.132   0.749  1.00  0.00    -0.000 C 
BRANCH  16  17
HETATM   17  C2  UNL     1       5.890   0.739  -0.361  1.00  0.00    -0.005 C 
HETATM   18  C1  UNL     1       7.381   0.691   0.003  1.00  0.00     0.005 C 
ENDBRANCH  16  17
ENDBRANCH  15  16
ENDBRANCH  14  15
ENDBRANCH  13  14
ENDBRANCH  12  13
ENDBRANCH  11  12
ENDBRANCH   1  11
BRANCH  10  19
HETATM   19  N3  UNL     1      -3.565  -0.616  -0.176  1.00  0.00    -0.202 N 
ATOM     20  H3  UNL     1      -3.987  -0.090  -0.941  1.00  0.00     0.180 HD
BRANCH  19  21
HETATM   21  C15 UNL     1      -4.076  -1.763   0.115  1.00  0.00     0.706 A 
HETATM   22  N4  UNL     1      -5.065  -2.541  -0.304  1.00  0.00    -0.115 N 
HETATM   23  N5  UNL     1      -4.795  -3.476   0.591  1.00  0.00     0.007 NA
ATOM     24  H4  UNL     1      -5.767  -2.452  -1.038  1.00  0.00     0.203 HD
HETATM   25  N6  UNL     1      -3.802  -2.714   1.026  1.00  0.00    -0.115 N 
ATOM     26  H6  UNL     1      -3.103  -2.811   1.763  1.00  0.00     0.203 HD
ENDBRANCH  19  21
ENDBRANCH  10  19
TORSDOF 9
