REMARK  7 active torsions:
REMARK  status: ('A' for Active; 'I' for Inactive)
REMARK    1  A    between atoms: C3_3  and  S1_4 
REMARK    2  A    between atoms: S1_4  and  C4_5 
REMARK    3  A    between atoms: C4_5  and  C5_6 
REMARK    4  A    between atoms: C5_6  and  N1_7 
REMARK       I    between atoms: N1_7  and  C6_9 
REMARK       I    between atoms: C6_9  and  N4_14 
REMARK       I    between atoms: N4_14  and  C8_16 
REMARK    5  A    between atoms: C8_16  and  C9_18 
REMARK    6  A    between atoms: C12_29  and  C13_30 
REMARK    7  A    between atoms: C14_36  and  N10_37 
ROOT
HETATM    1  N1  UNL     1       3.495  -0.004  -0.082  1.00  0.00    -0.225 N 
ATOM      2  H1  UNL     1       3.335   0.748   0.588  1.00  0.00     0.177 HD
HETATM    3  C6  UNL     1       4.696  -0.754   0.014  1.00  0.00     0.690 C 
HETATM    4  N2  UNL     1       4.656  -2.016   0.295  1.00  0.00    -0.126 N 
ATOM      5  H2  UNL     1       3.759  -2.476   0.450  1.00  0.00     0.197 HD
HETATM    6  C7  UNL     1       5.838  -2.747   0.386  1.00  0.00     0.196 C 
HETATM    7  N3  UNL     1       6.817  -3.355   0.480  1.00  0.00    -0.171 NA
HETATM    8  N4  UNL     1       5.959  -0.150  -0.189  1.00  0.00    -0.153 N 
ATOM      9  H4  UNL     1       6.796  -0.727  -0.109  1.00  0.00     0.187 HD
HETATM   10  C8  UNL     1       6.106   1.213  -0.496  1.00  0.00     0.297 C 
HETATM   11  O1  UNL     1       5.087   1.946  -0.602  1.00  0.00    -0.264 OA
ENDROOT
BRANCH   1  12
HETATM   12  C5  UNL     1       2.489  -0.258  -1.086  1.00  0.00     0.148 C 
BRANCH  12  13
HETATM   13  C4  UNL     1       1.777  -1.564  -0.917  1.00  0.00     0.101 C 
BRANCH  13  14
HETATM   14  S1  UNL     1       0.915  -1.720   0.663  1.00  0.00    -0.109 SA
BRANCH  14  15
HETATM   15  C3  UNL     1      -0.453  -0.592   0.817  1.00  0.00     0.096 A 
HETATM   16  C2  UNL     1      -1.720  -0.976   0.414  1.00  0.00     0.066 A 
HETATM   17  C1  UNL     1      -1.949  -2.332  -0.154  1.00  0.00     0.073 C 
HETATM   18  N12 UNL     1      -2.727  -0.088   0.554  1.00  0.00    -0.237 N 
HETATM   19  C11 UNL     1      -2.499   1.143   1.073  1.00  0.00     0.173 A 
HETATM   20  N11 UNL     1      -4.011  -0.166   0.267  1.00  0.00    -0.275 N 
HETATM   21  C10 UNL     1      -1.242   1.525   1.473  1.00  0.00     0.146 A 
HETATM   22  N7  UNL     1      -3.708   1.777   1.075  1.00  0.00    -0.321 N 
HETATM   23  N5  UNL     1      -0.229   0.634   1.333  1.00  0.00    -0.333 N 
HETATM   24  N6  UNL     1      -1.066   2.694   1.957  1.00  0.00    -0.382 N 
ATOM     25  H5  UNL     1       0.714   0.894   1.622  1.00  0.00     0.168 HD
ATOM     26  H62 UNL     1      -0.132   2.978   2.254  1.00  0.00     0.157 HD
ATOM     27  H61 UNL     1      -1.828   3.364   2.062  1.00  0.00     0.157 HD
HETATM   28  C12 UNL     1      -4.650   0.959   0.571  1.00  0.00     0.155 A 
ATOM     29  H7  UNL     1      -3.872   2.727   1.408  1.00  0.00     0.169 HD
ATOM     30  H11 UNL     1      -4.459  -0.988  -0.138  1.00  0.00     0.189 HD
BRANCH  28  31
HETATM   31  C13 UNL     1      -6.080   1.295   0.411  1.00  0.00     0.147 A 
HETATM   32  N8  UNL     1      -6.660   2.471   0.743  1.00  0.00    -0.234 N 
HETATM   33  O3  UNL     1      -7.921   2.391   0.462  1.00  0.00    -0.155 OA
ATOM     34  H8  UNL     1      -6.186   3.280   1.145  1.00  0.00     0.197 HD
HETATM   35  N9  UNL     1      -8.223   1.239  -0.036  1.00  0.00    -0.224 N 
HETATM   36  C14 UNL     1      -7.083   0.510  -0.087  1.00  0.00     0.154 A 
ATOM     37  H9  UNL     1      -9.149   0.934  -0.336  1.00  0.00     0.198 HD
BRANCH  36  38
HETATM   38  N10 UNL     1      -7.006  -0.681  -0.523  1.00  0.00    -0.382 N 
ATOM     39 2H10 UNL     1      -6.147  -1.230  -0.561  1.00  0.00     0.157 HD
ATOM     40 1H10 UNL     1      -7.754  -1.266  -0.894  1.00  0.00     0.157 HD
ENDBRANCH  36  38
ENDBRANCH  28  31
ENDBRANCH  14  15
ENDBRANCH  13  14
ENDBRANCH  12  13
ENDBRANCH   1  12
BRANCH  10  41
HETATM   41  C9  UNL     1       7.445   1.759  -0.686  1.00  0.00     0.333 C 
HETATM   42  O2  UNL     1       8.428   1.000  -0.587  1.00  0.00    -0.296 OA
ENDBRANCH  10  41
TORSDOF 7
