REMARK  5 active torsions:
REMARK  status: ('A' for Active; 'I' for Inactive)
REMARK    1  A    between atoms: C2_2  and  S1_3 
REMARK    2  A    between atoms: S1_3  and  C3_5 
REMARK    3  A    between atoms: C3_5  and  C4_6 
REMARK    4  A    between atoms: C6_9  and  O3_10 
REMARK    5  A    between atoms: C7_12  and  O4_13 
ROOT
HETATM    1  C4  UNL     1       0.698  -0.110  -0.503  1.00  0.00     0.164 C 
HETATM    2  O2  UNL     1       1.247  -1.199   0.169  1.00  0.00    -0.380 OA
HETATM    3  C5  UNL     1       2.569  -1.209  -0.234  1.00  0.00     0.202 C 
HETATM    4  C6  UNL     1       3.016   0.212  -0.395  1.00  0.00     0.173 C 
HETATM    5  C7  UNL     1       1.719   0.978  -0.143  1.00  0.00     0.178 C 
ENDROOT
BRANCH   1   6
HETATM    6  C3  UNL     1      -0.633   0.304   0.082  1.00  0.00     0.143 C 
BRANCH   6   7
HETATM    7  S1  UNL     1      -1.825  -0.995   0.008  1.00  0.00     0.017 S 
HETATM    8  O1  UNL     1      -1.346  -2.360   0.830  1.00  0.00    -0.258 OA
BRANCH   7   9
HETATM    9  C2  UNL     1      -3.340  -0.357   0.734  1.00  0.00     0.104 C 
HETATM   10  C1  UNL     1      -3.774   0.885  -0.015  1.00  0.00     0.018 C 
ENDBRANCH   7   9
ENDBRANCH   6   7
ENDBRANCH   1   6
BRANCH   5  11
HETATM   11  O4  UNL     1       1.594   1.201   1.209  1.00  0.00    -0.390 OA
ATOM     12  H4  UNL     1       2.226   1.874   1.432  1.00  0.00     0.210 HD
ENDBRANCH   5  11
BRANCH   4  13
HETATM   13  O3  UNL     1       4.015   0.591   0.473  1.00  0.00    -0.391 OA
ATOM     14  H3  UNL     1       4.298   1.492   0.371  1.00  0.00     0.210 HD
ENDBRANCH   4  13
TORSDOF 5
