REMARK  15 active torsions:
REMARK  status: ('A' for Active; 'I' for Inactive)
REMARK    1  A    between atoms: C2_2  and  C3_3 
REMARK    2  A    between atoms: C3_3  and  C4_4 
REMARK    3  A    between atoms: C4_4  and  N1_5 
REMARK    4  A    between atoms: C4_4  and  C25_40 
REMARK       I    between atoms: N1_5  and  C5_7 
REMARK    5  A    between atoms: C5_7  and  C6_9 
REMARK    6  A    between atoms: C6_9  and  C7_10 
REMARK    7  A    between atoms: C6_9  and  N2_17 
REMARK    8  A    between atoms: C7_10  and  C8_11 
REMARK       I    between atoms: N2_17  and  C14_19 
REMARK    9  A    between atoms: C14_19  and  C15_21 
REMARK       I    between atoms: N3_25  and  C19_26 
REMARK   10  A    between atoms: C19_26  and  C20_28 
REMARK   11  A    between atoms: C20_28  and  C21_29 
REMARK   12  A    between atoms: C20_28  and  N4_33 
REMARK   13  A    between atoms: C21_29  and  C22_30 
REMARK   14  A    between atoms: N4_33  and  N5_35 
REMARK       I    between atoms: C25_40  and  N7_42 
REMARK   15  A    between atoms: C29_46  and  C30_47 
ROOT
HETATM    1  C6  UNL     1      -0.214  -1.726  -0.078  1.00  0.00     0.177 C 
ENDROOT
BRANCH   1   2
HETATM    2  C5  UNL     1      -0.984  -0.400   0.083  1.00  0.00     0.241 C 
HETATM    3  N1  UNL     1      -2.337  -0.480   0.413  1.00  0.00    -0.346 N 
ATOM      4  H1  UNL     1      -2.764  -1.399   0.529  1.00  0.00     0.163 HD
HETATM    5  O1  UNL     1      -0.394   0.660  -0.083  1.00  0.00    -0.271 OA
BRANCH   3   6
HETATM    6  C4  UNL     1      -3.168   0.721   0.599  1.00  0.00     0.176 C 
BRANCH   6   7
HETATM    7  C3  UNL     1      -4.035   0.519   1.786  1.00  0.00     0.034 C 
BRANCH   7   8
HETATM    8  C2  UNL     1      -4.962  -0.640   1.637  1.00  0.00    -0.002 C 
HETATM    9  C1  UNL     1      -5.877  -0.827   2.838  1.00  0.00     0.005 C 
ENDBRANCH   7   8
ENDBRANCH   6   7
BRANCH   6  10
HETATM   10  C25 UNL     1      -3.941   0.902  -0.684  1.00  0.00     0.243 C 
HETATM   11  O4  UNL     1      -3.825   0.061  -1.608  1.00  0.00    -0.271 OA
HETATM   12  N7  UNL     1      -4.806   2.006  -0.892  1.00  0.00    -0.337 N 
HETATM   13  C26 UNL     1      -5.020   3.045   0.112  1.00  0.00     0.127 C 
HETATM   14  C29 UNL     1      -5.585   2.328  -2.069  1.00  0.00     0.176 C 
HETATM   15  C27 UNL     1      -5.372   4.271  -0.718  1.00  0.00     0.022 C 
HETATM   16  C28 UNL     1      -6.225   3.654  -1.781  1.00  0.00     0.036 C 
BRANCH  14  17
HETATM   17  C30 UNL     1      -6.565   1.300  -2.442  1.00  0.00     0.254 C 
HETATM   18  N8  UNL     1      -7.381   1.477  -3.582  1.00  0.00    -0.060 NA
HETATM   19  O5  UNL     1      -6.690   0.263  -1.764  1.00  0.00    -0.275 OA
ENDBRANCH  14  17
ENDBRANCH   6  10
ENDBRANCH   3   6
ENDBRANCH   1   2
BRANCH   1  20
HETATM   20  C7  UNL     1      -0.930  -2.593  -0.997  1.00  0.00     0.039 C 
BRANCH  20  21
HETATM   21  C8  UNL     1      -0.405  -3.957  -1.243  1.00  0.00    -0.012 C 
HETATM   22  C9  UNL     1      -1.347  -4.679  -2.235  1.00  0.00     0.005 C 
HETATM   23  C10 UNL     1      -0.903  -6.107  -2.312  1.00  0.00     0.000 C 
HETATM   24  C11 UNL     1       0.523  -6.186  -2.868  1.00  0.00     0.000 C 
HETATM   25  C12 UNL     1       1.440  -5.458  -1.968  1.00  0.00     0.000 C 
HETATM   26  C13 UNL     1       0.979  -4.020  -1.777  1.00  0.00     0.005 C 
ENDBRANCH  20  21
ENDBRANCH   1  20
BRANCH   1  27
HETATM   27  N2  UNL     1       1.106  -1.313  -0.575  1.00  0.00    -0.346 N 
HETATM   28  C14 UNL     1       2.096  -0.915   0.373  1.00  0.00     0.241 C 
HETATM   29  O2  UNL     1       1.878  -0.916   1.579  1.00  0.00    -0.271 OA
ATOM     30  H2  UNL     1       1.310  -1.311  -1.574  1.00  0.00     0.163 HD
BRANCH  28  31
HETATM   31  C15 UNL     1       3.407  -0.494  -0.216  1.00  0.00     0.179 C 
HETATM   32  C16 UNL     1       4.222  -1.675  -0.624  1.00  0.00     0.037 C 
HETATM   33  C17 UNL     1       5.376  -1.693   0.356  1.00  0.00     0.022 C 
HETATM   34  C18 UNL     1       5.568  -0.215   0.652  1.00  0.00     0.127 C 
HETATM   35  N3  UNL     1       4.209   0.302   0.653  1.00  0.00    -0.337 N 
HETATM   36  C19 UNL     1       3.746   1.443   1.392  1.00  0.00     0.244 C 
HETATM   37  O3  UNL     1       2.551   1.802   1.290  1.00  0.00    -0.271 OA
BRANCH  36  38
HETATM   38  C20 UNL     1       4.634   2.235   2.293  1.00  0.00     0.193 C 
BRANCH  38  39
HETATM   39  C21 UNL     1       5.605   3.025   1.447  1.00  0.00     0.040 C 
BRANCH  39  40
HETATM   40  C22 UNL     1       6.567   3.867   2.241  1.00  0.00    -0.020 C 
HETATM   41  C23 UNL     1       5.921   4.915   3.108  1.00  0.00     0.009 C 
HETATM   42  C24 UNL     1       7.545   4.572   1.321  1.00  0.00     0.009 C 
ENDBRANCH  39  40
ENDBRANCH  38  39
BRANCH  38  43
HETATM   43  N4  UNL     1       3.813   3.197   3.045  1.00  0.00    -0.309 N 
ATOM     44  H4  UNL     1       3.712   4.158   2.718  1.00  0.00     0.182 HD
BRANCH  43  45
HETATM   45  N5  UNL     1       3.239   2.818   4.093  1.00  0.00    -0.253 N 
HETATM   46  N6  UNL     1       3.105   2.430   5.275  1.00  0.00    -0.331 N 
ATOM     47  H62 UNL     1       4.093   2.425   5.527  1.00  0.00     0.178 HD
ATOM     48  H61 UNL     1       2.638   2.122   6.128  1.00  0.00     0.178 HD
ATOM     49  H5  UNL     1       2.265   2.840   3.791  1.00  0.00     0.207 HD
ENDBRANCH  43  45
ENDBRANCH  38  43
ENDBRANCH  36  38
ENDBRANCH  28  31
ENDBRANCH   1  27
TORSDOF 15
