REMARK  15 active torsions:
REMARK  status: ('A' for Active; 'I' for Inactive)
REMARK    1  A    between atoms: C2_2  and  C3_3 
REMARK    2  A    between atoms: C3_3  and  C4_4 
REMARK    3  A    between atoms: C3_3  and  C7_11 
REMARK    4  A    between atoms: C4_4  and  C5_5 
REMARK    5  A    between atoms: C5_5  and  O1_6 
REMARK    6  A    between atoms: C5_5  and  C6_8 
REMARK    7  A    between atoms: C7_11  and  C8_12 
REMARK    8  A    between atoms: C7_11  and  N2_16 
REMARK    9  A    between atoms: C8_12  and  C9_13 
REMARK   10  A    between atoms: C15_20  and  C16_21 
REMARK       I    between atoms: C16_21  and  N3_23 
REMARK   11  A    between atoms: N3_23  and  C17_25 
REMARK   12  A    between atoms: C17_25  and  C18_29 
REMARK   13  A    between atoms: C21_32  and  C22_33 
REMARK   14  A    between atoms: C22_33  and  N5_34 
REMARK   15  A    between atoms: N5_34  and  C23_37 
ROOT
HETATM    1  C16 UNL     1      -0.089  -0.687  -0.980  1.00  0.00     0.245 C 
HETATM    2  O3  UNL     1       0.035  -0.311   0.175  1.00  0.00    -0.271 OA
HETATM    3  N3  UNL     1       0.939  -1.203  -1.766  1.00  0.00    -0.315 N 
ATOM      4  H3  UNL     1       0.665  -1.471  -2.711  1.00  0.00     0.170 HD
ENDROOT
BRANCH   1   5
HETATM    5  C15 UNL     1      -1.466  -0.574  -1.580  1.00  0.00     0.172 C 
HETATM    6  N2  UNL     1      -2.367   0.149  -0.770  1.00  0.00    -0.395 N 
HETATM    7  C12 UNL     1      -2.166   1.522  -0.900  1.00  0.00     0.118 C 
HETATM    8  C13 UNL     1      -1.654   1.682  -2.339  1.00  0.00     0.022 C 
HETATM    9  C14 UNL     1      -1.325   0.289  -2.815  1.00  0.00     0.036 C 
BRANCH   6  10
HETATM   10  C7  UNL     1      -3.484  -0.438  -0.221  1.00  0.00     0.084 C 
BRANCH  10  11
HETATM   11  C3  UNL     1      -4.835  -0.293  -0.867  1.00  0.00     0.010 C 
BRANCH  11  12
HETATM   12  C2  UNL     1      -4.839  -0.699  -2.292  1.00  0.00     0.002 C 
HETATM   13  C1  UNL     1      -6.113  -1.077  -2.957  1.00  0.00     0.005 C 
ENDBRANCH  11  12
BRANCH  11  14
HETATM   14  C4  UNL     1      -5.596   0.903  -0.531  1.00  0.00     0.047 C 
BRANCH  14  15
HETATM   15  C5  UNL     1      -7.080   0.916  -0.747  1.00  0.00     0.207 C 
BRANCH  15  16
HETATM   16  O1  UNL     1      -7.754  -0.075   0.003  1.00  0.00    -0.387 OA
ATOM     17  H1  UNL     1      -8.694  -0.067  -0.134  1.00  0.00     0.210 HD
ENDBRANCH  15  16
BRANCH  15  18
HETATM   18  C6  UNL     1      -7.639   2.221  -0.179  1.00  0.00     0.259 C 
HETATM   19  N1  UNL     1      -8.595   2.247   0.860  1.00  0.00    -0.060 NA
HETATM   20  O2  UNL     1      -7.239   3.323  -0.648  1.00  0.00    -0.274 OA
ENDBRANCH  15  18
ENDBRANCH  14  15
ENDBRANCH  11  14
ENDBRANCH  10  11
BRANCH  10  21
HETATM   21  C8  UNL     1      -3.578  -0.024   1.238  1.00  0.00     0.029 C 
BRANCH  21  22
HETATM   22  C9  UNL     1      -4.547  -0.845   2.041  1.00  0.00    -0.021 C 
HETATM   23  C10 UNL     1      -4.488  -0.263   3.464  1.00  0.00     0.009 C 
HETATM   24  C11 UNL     1      -4.050  -2.283   2.162  1.00  0.00     0.009 C 
ENDBRANCH  21  22
ENDBRANCH  10  21
ENDBRANCH   6  10
ENDBRANCH   1   5
BRANCH   3  25
HETATM   25  C17 UNL     1       2.303  -1.414  -1.459  1.00  0.00     0.081 C 
HETATM   26  N4  UNL     1       2.978  -1.937  -2.468  1.00  0.00    -0.389 N 
ATOM     27  H42 UNL     1       2.476  -2.122  -3.336  1.00  0.00     0.157 HD
ATOM     28  H41 UNL     1       3.962  -2.089  -2.247  1.00  0.00     0.157 HD
BRANCH  25  29
HETATM   29  C18 UNL     1       3.025  -1.148  -0.211  1.00  0.00     0.053 C 
HETATM   30  C19 UNL     1       3.041   0.250   0.292  1.00  0.00     0.013 C 
HETATM   31  C20 UNL     1       4.489   0.607   0.687  1.00  0.00     0.007 C 
HETATM   32  C21 UNL     1       5.197  -0.738   0.715  1.00  0.00     0.012 C 
HETATM   33  C27 UNL     1       4.526  -1.400  -0.479  1.00  0.00     0.018 C 
BRANCH  32  34
HETATM   34  C22 UNL     1       6.676  -0.537   0.511  1.00  0.00     0.237 C 
BRANCH  34  35
HETATM   35  N5  UNL     1       7.221   0.287   1.567  1.00  0.00    -0.067 N 
ATOM     36  H52 UNL     1       6.690   1.152   1.664  1.00  0.00     0.278 HD
ATOM     37  H51 UNL     1       7.038  -0.125   2.482  1.00  0.00     0.278 HD
BRANCH  35  38
HETATM   38  C23 UNL     1       8.617   0.560   1.400  1.00  0.00     0.115 C 
HETATM   39  C24 UNL     1       9.505  -0.640   1.402  1.00  0.00     0.045 C 
HETATM   40  C25 UNL     1       9.060   1.412   2.598  1.00  0.00     0.045 C 
HETATM   41  C26 UNL     1       8.898   1.409   0.173  1.00  0.00     0.045 C 
ENDBRANCH  35  38
ENDBRANCH  34  35
ENDBRANCH  32  34
ENDBRANCH  25  29
ENDBRANCH   3  25
TORSDOF 15
