REMARK  2 active torsions:
REMARK  status: ('A' for Active; 'I' for Inactive)
REMARK    1  A    between atoms: C2_2  and  C3_4 
REMARK    2  A    between atoms: N1_8  and  C7_9 
ROOT
HETATM    1  C3  UNL     1       0.415  -0.283   0.281  1.00  0.00     0.154 C 
HETATM    2  C4  UNL     1      -0.028  -0.906  -1.017  1.00  0.00     0.035 C 
HETATM    3  C5  UNL     1      -1.506  -1.217  -0.781  1.00  0.00     0.022 C 
HETATM    4  C6  UNL     1      -1.774  -0.744   0.645  1.00  0.00     0.124 C 
HETATM    5  N1  UNL     1      -0.802   0.347   0.745  1.00  0.00    -0.366 N 
ENDROOT
BRANCH   5   6
HETATM    6  C7  UNL     1      -1.056   1.657   1.189  1.00  0.00     0.171 C 
HETATM    7  N2  UNL     1      -1.385   2.634   0.411  1.00  0.00    -0.395 N 
ATOM      8  H22 UNL     1      -1.461   2.425  -0.585  1.00  0.00     0.156 HD
ATOM      9  H21 UNL     1      -1.569   3.584   0.733  1.00  0.00     0.156 HD
ENDBRANCH   5   6
BRANCH   1  10
HETATM   10  C2  UNL     1       1.558   0.600   0.175  1.00  0.00     0.145 C 
HETATM   11  C1  UNL     1       2.859   0.061  -0.291  1.00  0.00     0.093 C 
HETATM   12  O1  UNL     1       1.508   1.775   0.450  1.00  0.00    -0.296 OA
ENDBRANCH   1  10
TORSDOF 2
