REMARK  1 active torsions:
REMARK  status: ('A' for Active; 'I' for Inactive)
REMARK       I    between atoms: C1_2  and  N2_4 
REMARK    1  A    between atoms: N2_4  and  C2_6 
ROOT
HETATM    1  C2  UNL     1       0.143   0.135   0.517  1.00  0.00     0.094 C 
HETATM    2  C3  UNL     1      -0.891  -1.005   0.587  1.00  0.00     0.013 A 
HETATM    3  C4  UNL     1      -2.135  -0.592   1.264  1.00  0.00     0.012 A 
HETATM    4  C5  UNL     1      -2.150  -0.409  -0.155  1.00  0.00    -0.004 A 
HETATM    5  C6  UNL     1      -1.378   0.417  -1.077  1.00  0.00    -0.004 A 
HETATM    6  C7  UNL     1      -1.038   1.777  -1.212  1.00  0.00     0.012 A 
HETATM    7  C8  UNL     1      -0.661   1.257   0.048  1.00  0.00     0.013 A 
ENDROOT
BRANCH   1   8
HETATM    8  N2  UNL     1       1.314  -0.212  -0.214  1.00  0.00    -0.340 N 
HETATM    9  C1  UNL     1       2.586  -0.325   0.400  1.00  0.00     0.329 C 
HETATM   10  N1  UNL     1       3.755  -0.669  -0.322  1.00  0.00    -0.040 NA
HETATM   11  O1  UNL     1       2.697  -0.114   1.632  1.00  0.00    -0.251 OA
ATOM     12  H2  UNL     1       1.235  -0.386  -1.216  1.00  0.00     0.164 HD
ENDBRANCH   1   8
TORSDOF 1
