REMARK  11 active torsions:
REMARK  status: ('A' for Active; 'I' for Inactive)
REMARK       I    between atoms: C2_2  and  N1_4 
REMARK    1  A    between atoms: N1_4  and  C3_6 
REMARK    2  A    between atoms: C3_6  and  C4_7 
REMARK    3  A    between atoms: C3_6  and  C5_14 
REMARK    4  A    between atoms: C4_7  and  N2_8 
REMARK    5  A    between atoms: C4_7  and  O2_12 
REMARK    6  A    between atoms: C5_14  and  O3_15 
REMARK    7  A    between atoms: C5_14  and  N3_17 
REMARK    8  A    between atoms: C7_19  and  C8_20 
REMARK    9  A    between atoms: C8_20  and  N4_21 
REMARK   10  A    between atoms: C8_20  and  O4_25 
REMARK   11  A    between atoms: C9_29  and  C10_30 
ROOT
HETATM    1  N3  UNL     1       0.713  -0.139  -0.810  1.00  0.00    -0.310 N 
HETATM    2  C6  UNL     1       1.433  -1.232  -0.426  1.00  0.00     0.125 A 
HETATM    3  C7  UNL     1       2.489  -0.834   0.355  1.00  0.00     0.083 A 
HETATM    4  N5  UNL     1       2.376   0.500   0.421  1.00  0.00    -0.339 N 
ATOM      5  H5  UNL     1       3.013   1.110   0.933  1.00  0.00     0.167 HD
HETATM    6  C9  UNL     1       1.305   0.927  -0.281  1.00  0.00     0.143 A 
ENDROOT
BRANCH   1   7
HETATM    7  C5  UNL     1      -0.433  -0.183  -1.615  1.00  0.00     0.253 C 
BRANCH   7   8
HETATM    8  C3  UNL     1      -1.695  -0.665  -0.969  1.00  0.00     0.189 C 
BRANCH   8   9
HETATM    9  N1  UNL     1      -2.069   0.098   0.199  1.00  0.00    -0.348 N 
HETATM   10  C2  UNL     1      -3.260   0.874   0.270  1.00  0.00     0.214 C 
HETATM   11  C1  UNL     1      -3.660   1.656   1.444  1.00  0.00     0.117 C 
HETATM   12  O1  UNL     1      -4.040   0.904  -0.740  1.00  0.00    -0.274 OA
ATOM     13  H1  UNL     1      -1.451   0.080   1.010  1.00  0.00     0.163 HD
ENDBRANCH   8   9
BRANCH   8  14
HETATM   14  C4  UNL     1      -1.737  -2.153  -0.702  1.00  0.00     0.343 C 
BRANCH  14  15
HETATM   15  N2  UNL     1      -3.090  -2.525  -0.360  1.00  0.00    -0.051 N 
ATOM     16  H23 UNL     1      -3.460  -1.979   0.418  1.00  0.00     0.277 HD
ATOM     17  H22 UNL     1      -3.765  -2.237  -1.069  1.00  0.00     0.277 HD
ATOM     18  H21 UNL     1      -3.118  -3.529  -0.180  1.00  0.00     0.277 HD
ENDBRANCH  14  15
BRANCH  14  19
HETATM   19  O2  UNL     1      -1.383  -2.862  -1.837  1.00  0.00    -0.368 OA
ATOM     20  H2  UNL     1      -1.409  -3.797  -1.669  1.00  0.00     0.212 HD
ENDBRANCH  14  19
ENDBRANCH   8  14
ENDBRANCH   7   8
BRANCH   7  21
HETATM   21  O3  UNL     1      -0.217  -1.034  -2.728  1.00  0.00    -0.374 OA
ATOM     22  H3  UNL     1       0.584  -0.728  -3.138  1.00  0.00     0.212 HD
ENDBRANCH   7  21
ENDBRANCH   1   7
BRANCH   6  23
HETATM   23  C10 UNL     1       0.972   2.371  -0.357  1.00  0.00     0.146 A 
HETATM   24  N6  UNL     1      -0.068   2.914  -1.024  1.00  0.00    -0.234 N 
HETATM   25  O5  UNL     1      -0.023   4.183  -0.855  1.00  0.00    -0.155 OA
ATOM     26  H6  UNL     1      -0.766   2.405  -1.566  1.00  0.00     0.197 HD
HETATM   27  N7  UNL     1       0.972   4.536  -0.122  1.00  0.00    -0.224 N 
HETATM   28  C11 UNL     1       1.655   3.393   0.232  1.00  0.00     0.154 A 
ATOM     29  H7  UNL     1       1.212   5.490   0.149  1.00  0.00     0.198 HD
HETATM   30  N8  UNL     1       2.702   3.372   0.960  1.00  0.00    -0.382 N 
ATOM     31  H82 UNL     1       3.208   2.526   1.222  1.00  0.00     0.157 HD
ATOM     32  H81 UNL     1       3.213   4.137   1.401  1.00  0.00     0.157 HD
ENDBRANCH   6  23
BRANCH   3  33
HETATM   33  C8  UNL     1       3.547  -1.693   1.000  1.00  0.00     0.368 C 
BRANCH  33  34
HETATM   34  N4  UNL     1       3.750  -1.259   2.381  1.00  0.00    -0.047 N 
ATOM     35  H43 UNL     1       3.968  -0.265   2.445  1.00  0.00     0.277 HD
ATOM     36  H42 UNL     1       2.881  -1.251   2.915  1.00  0.00     0.277 HD
ATOM     37  H41 UNL     1       4.466  -1.840   2.817  1.00  0.00     0.277 HD
ENDBRANCH  33  34
BRANCH  33  38
HETATM   38  O4  UNL     1       3.220  -3.023   0.935  1.00  0.00    -0.365 OA
ATOM     39  H4  UNL     1       3.887  -3.564   1.341  1.00  0.00     0.212 HD
ENDBRANCH  33  38
ENDBRANCH   3  33
TORSDOF 11
