REMARK  12 active torsions:
REMARK  status: ('A' for Active; 'I' for Inactive)
REMARK    1  A    between atoms: C2_2  and  N1_3 
REMARK    2  A    between atoms: C2_2  and  C6_12 
REMARK       I    between atoms: N1_3  and  C3_5 
REMARK    3  A    between atoms: C3_5  and  C4_7 
REMARK    4  A    between atoms: C4_7  and  N2_8 
REMARK    5  A    between atoms: N2_8  and  C5_10 
REMARK       I    between atoms: C6_12  and  N3_14 
REMARK    6  A    between atoms: N3_14  and  C7_16 
REMARK    7  A    between atoms: C7_16  and  C8_17 
REMARK    8  A    between atoms: C8_17  and  O4_18 
REMARK    9  A    between atoms: C8_17  and  N4_20 
REMARK   10  A    between atoms: N4_20  and  N5_21 
REMARK   11  A    between atoms: N5_21  and  C9_22 
REMARK   12  A    between atoms: C9_22  and  N6_23 
ROOT
HETATM    1  C6  UNL     1      -0.589   0.059  -0.658  1.00  0.00     0.240 C 
HETATM    2  O3  UNL     1      -0.708   1.056  -1.408  1.00  0.00    -0.271 OA
HETATM    3  N3  UNL     1       0.686  -0.236  -0.121  1.00  0.00    -0.356 N 
ATOM      4  H3  UNL     1       0.799  -1.044   0.492  1.00  0.00     0.162 HD
ENDROOT
BRANCH   3   5
HETATM    5  C7  UNL     1       1.832   0.592  -0.429  1.00  0.00     0.173 C 
BRANCH   5   6
HETATM    6  C8  UNL     1       3.060   0.059   0.272  1.00  0.00     0.244 C 
BRANCH   6   7
HETATM    7  O4  UNL     1       4.176   0.844  -0.023  1.00  0.00    -0.377 OA
ATOM      8  H4  UNL     1       4.948   0.509   0.418  1.00  0.00     0.211 HD
ENDBRANCH   6   7
BRANCH   6   9
HETATM    9  N4  UNL     1       2.811   0.189   1.718  1.00  0.00    -0.113 NA
BRANCH   9  10
HETATM   10  N5  UNL     1       3.915  -0.279   2.437  1.00  0.00    -0.125 NA
BRANCH  10  11
HETATM   11  C9  UNL     1       4.668   0.827   2.981  1.00  0.00     0.268 C 
BRANCH  11  12
HETATM   12  N6  UNL     1       5.771   0.297   3.699  1.00  0.00    -0.327 N 
HETATM   13  N7  UNL     1       5.683  -0.825   4.228  1.00  0.00    -0.348 N 
ATOM     14  H72 UNL     1       4.813  -1.350   4.137  1.00  0.00     0.176 HD
ATOM     15  H71 UNL     1       6.476  -1.206   4.744  1.00  0.00     0.176 HD
ATOM     16  H6  UNL     1       6.634   0.835   3.781  1.00  0.00     0.181 HD
ENDBRANCH  11  12
ENDBRANCH  10  11
ENDBRANCH   9  10
ENDBRANCH   6   9
ENDBRANCH   5   6
ENDBRANCH   3   5
BRANCH   1  17
HETATM   17  C2  UNL     1      -1.768  -0.760  -0.364  1.00  0.00     0.172 C 
HETATM   18  C1  UNL     1      -1.522  -2.211  -0.745  1.00  0.00     0.042 C 
BRANCH  17  19
HETATM   19  N1  UNL     1      -2.967  -0.254  -1.034  1.00  0.00    -0.347 N 
HETATM   20  C3  UNL     1      -4.118   0.127  -0.368  1.00  0.00     0.236 C 
HETATM   21  O1  UNL     1      -4.110   0.023   0.909  1.00  0.00    -0.272 OA
ATOM     22  H1  UNL     1      -2.953  -0.178  -2.051  1.00  0.00     0.163 HD
BRANCH  20  23
HETATM   23  C4  UNL     1      -5.328   0.632  -0.974  1.00  0.00     0.224 C 
BRANCH  23  24
HETATM   24  N2  UNL     1      -5.242   0.714  -2.409  1.00  0.00    -0.359 N 
ATOM     25  H2  UNL     1      -4.390   0.431  -2.893  1.00  0.00     0.162 HD
BRANCH  24  26
HETATM   26  C5  UNL     1      -6.383   1.204  -3.156  1.00  0.00     0.348 C 
HETATM   27  O2  UNL     1      -7.429   1.551  -2.551  1.00  0.00    -0.284 OA
ENDBRANCH  24  26
ENDBRANCH  23  24
ENDBRANCH  20  23
ENDBRANCH  17  19
ENDBRANCH   1  17
TORSDOF 12
