REMARK  4 active torsions:
REMARK  status: ('A' for Active; 'I' for Inactive)
REMARK    1  A    between atoms: N5_15  and  C6_16 
REMARK    2  A    between atoms: C6_16  and  C7_17 
REMARK    3  A    between atoms: C7_17  and  N6_18 
REMARK    4  A    between atoms: N6_18  and  N7_20 
ROOT
HETATM    1  N1  UNL     1      -0.743  -2.121   0.308  1.00  0.00    -0.383 N 
ATOM      2  H11 UNL     1       0.221  -2.375   0.526  1.00  0.00     0.157 HD
ATOM      3  H12 UNL     1      -1.414  -2.871   0.142  1.00  0.00     0.157 HD
HETATM    4  C1  UNL     1      -0.962  -0.879   0.270  1.00  0.00     0.133 A 
HETATM    5  C2  UNL     1      -2.298  -0.527  -0.032  1.00  0.00     0.122 A 
HETATM    6  N2  UNL     1      -3.361  -1.311  -0.254  1.00  0.00    -0.346 N 
ATOM      7  H2  UNL     1      -3.354  -2.331  -0.279  1.00  0.00     0.167 HD
HETATM    8  C3  UNL     1      -4.452  -0.519  -0.441  1.00  0.00     0.182 A 
HETATM    9  N3  UNL     1      -4.022   0.777  -0.343  1.00  0.00    -0.337 N 
ATOM     10  H3  UNL     1      -4.606   1.608  -0.442  1.00  0.00     0.168 HD
HETATM   11  C4  UNL     1      -2.691   0.771  -0.092  1.00  0.00     0.138 A 
HETATM   12  N4  UNL     1      -1.770   1.708   0.131  1.00  0.00    -0.336 N 
ATOM     13  H4  UNL     1      -2.049   2.688   0.082  1.00  0.00     0.168 HD
HETATM   14  C5  UNL     1      -0.469   1.412   0.422  1.00  0.00     0.186 A 
HETATM   15  N5  UNL     1      -0.082   0.104   0.487  1.00  0.00    -0.326 N 
ENDROOT
BRANCH  15  16
HETATM   16  C6  UNL     1       1.292  -0.208   0.579  1.00  0.00     0.152 C 
BRANCH  16  17
HETATM   17  C7  UNL     1       2.037   0.310  -0.718  1.00  0.00     0.159 C 
BRANCH  17  18
HETATM   18  N6  UNL     1       3.253  -0.323  -0.619  1.00  0.00    -0.341 N 
ATOM     19  H6  UNL     1       3.284  -1.316  -0.848  1.00  0.00     0.179 HD
BRANCH  18  20
HETATM   20  N7  UNL     1       4.369   0.243  -0.256  1.00  0.00    -0.349 N 
ATOM     21  H72 UNL     1       4.319   1.237  -0.031  1.00  0.00     0.176 HD
ATOM     22  H71 UNL     1       5.271  -0.227  -0.183  1.00  0.00     0.176 HD
ENDBRANCH  18  20
ENDBRANCH  17  18
ENDBRANCH  16  17
ENDBRANCH  15  16
TORSDOF 4
