REMARK  1 active torsions:
REMARK  status: ('A' for Active; 'I' for Inactive)
REMARK    1  A    between atoms: O1_1  and  N1_3 
ROOT
HETATM    1  N1  UNL     1      -0.318  -1.472  -0.883  1.00  0.00    -0.160 NA
HETATM    2  C1  UNL     1      -1.479  -1.014  -0.129  1.00  0.00     0.121 C 
HETATM    3  C2  UNL     1      -2.450  -0.243  -0.964  1.00  0.00     0.024 C 
HETATM    4  C3  UNL     1      -3.128   0.652   0.056  1.00  0.00     0.004 C 
HETATM    5  C4  UNL     1      -1.986   1.126   0.894  1.00  0.00     0.038 C 
HETATM    6  C5  UNL     1      -0.951   0.067   0.815  1.00  0.00     0.245 C 
HETATM    7  N2  UNL     1       0.229   0.489   0.042  1.00  0.00     0.115 N 
HETATM    8  C6  UNL     1       1.077   1.369   0.757  1.00  0.00     0.275 C 
HETATM    9  C7  UNL     1       2.470   0.814   0.840  1.00  0.00     0.030 C 
HETATM   10  C8  UNL     1       2.885   0.380  -0.551  1.00  0.00     0.005 C 
HETATM   11  C9  UNL     1       2.052  -0.806  -0.985  1.00  0.00     0.054 C 
HETATM   12  C10 UNL     1       0.801  -0.825  -0.202  1.00  0.00     0.323 C 
ENDROOT
BRANCH   1  13
HETATM   13  O1  UNL     1      -0.206  -2.802  -0.914  1.00  0.00    -0.311 OA
ATOM     14  H1  UNL     1       0.550  -3.100  -1.405  1.00  0.00     0.237 HD
ENDBRANCH   1  13
TORSDOF 1
