REMARK  1 active torsions:
REMARK  status: ('A' for Active; 'I' for Inactive)
REMARK    1  A    between atoms: C8_9  and  N1_10 
ROOT
HETATM    1  C1  UNL     1      -2.043   1.208  -0.565  1.00  0.00     0.051 C 
HETATM    2  C2  UNL     1      -0.691   0.808  -0.111  1.00  0.00     0.120 C 
HETATM    3  O1  UNL     1       0.199   1.869  -0.034  1.00  0.00    -0.342 OA
HETATM    4  C3  UNL     1       1.362   1.493  -0.694  1.00  0.00     0.286 C 
HETATM    5  C4  UNL     1       2.366   1.145   0.347  1.00  0.00     0.029 C 
HETATM    6  C5  UNL     1       2.420  -0.018   0.985  1.00  0.00    -0.025 C 
HETATM    7  C6  UNL     1       1.595  -1.227   0.889  1.00  0.00     0.037 C 
HETATM    8  C7  UNL     1       0.211  -1.018   0.397  1.00  0.00     0.060 C 
HETATM    9  C8  UNL     1      -0.625  -0.014   1.155  1.00  0.00     0.227 C 
HETATM   10  C9  UNL     1       0.017  -0.277  -0.844  1.00  0.00     0.099 C 
HETATM   11  C10 UNL     1      -0.767  -1.042  -1.876  1.00  0.00     0.050 C 
HETATM   12  O2  UNL     1       1.081   0.354  -1.412  1.00  0.00    -0.344 OA
ENDROOT
BRANCH   9  13
HETATM   13  N1  UNL     1      -1.958  -0.464   1.509  1.00  0.00    -0.072 N 
ATOM     14  H13 UNL     1      -2.619   0.309   1.585  1.00  0.00     0.274 HD
ATOM     15  H12 UNL     1      -2.411  -0.967   0.746  1.00  0.00     0.274 HD
ATOM     16  H11 UNL     1      -1.913  -1.019   2.364  1.00  0.00     0.274 HD
ENDBRANCH   9  13
TORSDOF 1
