REMARK  5 active torsions:
REMARK  status: ('A' for Active; 'I' for Inactive)
REMARK    1  A    between atoms: C2_2  and  C3_3 
REMARK    2  A    between atoms: C3_3  and  S1_4 
REMARK    3  A    between atoms: S1_4  and  C4_5 
REMARK    4  A    between atoms: C4_5  and  C5_6 
REMARK       I    between atoms: C5_6  and  N1_8 
REMARK    5  A    between atoms: N1_8  and  C6_10 
ROOT
HETATM    1  C5  UNL     1      -0.866  -0.697  -0.356  1.00  0.00     0.232 C 
HETATM    2  O1  UNL     1      -0.635   0.109  -1.288  1.00  0.00    -0.272 OA
HETATM    3  N1  UNL     1      -1.982  -0.671   0.474  1.00  0.00    -0.305 N 
ATOM      4  H1  UNL     1      -1.895  -1.140   1.375  1.00  0.00     0.171 HD
ENDROOT
BRANCH   3   5
HETATM    5  C6  UNL     1      -3.125  -0.108   0.215  1.00  0.00     0.177 A 
HETATM    6  N2  UNL     1      -3.563   0.573  -0.844  1.00  0.00    -0.234 N 
HETATM    7  O2  UNL     1      -4.730   1.022  -0.841  1.00  0.00    -0.187 OA
ATOM      8  H2  UNL     1      -2.953   0.726  -1.647  1.00  0.00     0.197 HD
HETATM    9  C7  UNL     1      -5.523   0.847   0.153  1.00  0.00     0.351 A 
HETATM   10  O3  UNL     1      -6.736   1.244   0.301  1.00  0.00    -0.249 OA
HETATM   11  S2  UNL     1      -4.535  -0.050   1.222  1.00  0.00     0.019 SA
ENDBRANCH   3   5
BRANCH   1  12
HETATM   12  C4  UNL     1       0.156  -1.773  -0.133  1.00  0.00     0.177 C 
BRANCH  12  13
HETATM   13  S1  UNL     1       1.500  -1.615  -1.329  1.00  0.00    -0.160 SA
BRANCH  13  14
HETATM   14  C3  UNL     1       2.410  -0.080  -1.023  1.00  0.00     0.074 C 
BRANCH  14  15
HETATM   15  C2  UNL     1       3.130  -0.149   0.326  1.00  0.00     0.006 C 
HETATM   16  C1  UNL     1       3.889   1.121   0.592  1.00  0.00     0.006 C 
ENDBRANCH  14  15
ENDBRANCH  13  14
ENDBRANCH  12  13
ENDBRANCH   1  12
TORSDOF 5
