REMARK  16 active torsions:
REMARK  status: ('A' for Active; 'I' for Inactive)
REMARK    1  A    between atoms: C2_2  and  N1_3 
REMARK    2  A    between atoms: C2_2  and  O4_32 
REMARK       I    between atoms: N1_3  and  C3_5 
REMARK    3  A    between atoms: C3_5  and  C4_7 
REMARK    4  A    between atoms: C4_7  and  C6_9 
REMARK    5  A    between atoms: C4_7  and  N3_16 
REMARK    6  A    between atoms: C6_9  and  C7_10 
REMARK    7  A    between atoms: C7_10  and  C8_11 
REMARK    8  A    between atoms: C8_11  and  N2_12 
REMARK    9  A    between atoms: N3_16  and  O2_17 
REMARK       I    between atoms: N3_16  and  C9_19 
REMARK       I    between atoms: C9_19  and  N4_21 
REMARK   10  A    between atoms: N4_21  and  C10_23 
REMARK   11  A    between atoms: C10_23  and  C11_24 
REMARK   12  A    between atoms: C11_24  and  C12_25 
REMARK   13  A    between atoms: C12_25  and  C13_26 
REMARK   14  A    between atoms: C13_26  and  C14_28 
REMARK   15  A    between atoms: O4_32  and  C17_33 
REMARK   16  A    between atoms: C17_33  and  C18_35 
ROOT
HETATM    1  C4  UNL     1       0.091  -1.007  -0.210  1.00  0.00     0.141 C 
HETATM    2  C5  UNL     1       0.082  -1.443   1.222  1.00  0.00     0.052 C 
ENDROOT
BRANCH   1   3
HETATM    3  C3  UNL     1      -1.260  -1.268  -0.815  1.00  0.00     0.250 C 
HETATM    4  N1  UNL     1      -2.463  -1.043  -0.136  1.00  0.00    -0.332 N 
ATOM      5  H1  UNL     1      -2.420  -0.685   0.818  1.00  0.00     0.165 HD
HETATM    6  O1  UNL     1      -1.285  -1.709  -1.988  1.00  0.00    -0.271 OA
BRANCH   4   7
HETATM    7  C2  UNL     1      -3.757  -1.290  -0.714  1.00  0.00     0.228 C 
HETATM    8  C1  UNL     1      -4.360  -2.532  -0.032  1.00  0.00     0.063 C 
BRANCH   7   9
HETATM    9  O4  UNL     1      -4.677  -0.264  -0.534  1.00  0.00    -0.295 OA
BRANCH   9  10
HETATM   10  C17 UNL     1      -5.389   0.390  -1.538  1.00  0.00     0.265 C 
HETATM   11  O5  UNL     1      -5.164   0.002  -2.712  1.00  0.00    -0.265 OA
BRANCH  10  12
HETATM   12  C18 UNL     1      -6.349   1.467  -1.287  1.00  0.00     0.085 C 
HETATM   13  C19 UNL     1      -7.491   1.042  -0.395  1.00  0.00     0.014 C 
HETATM   14  C20 UNL     1      -7.241   1.372   1.048  1.00  0.00     0.001 C 
HETATM   15  C21 UNL     1      -7.340   2.882   1.208  1.00  0.00     0.000 C 
HETATM   16  C22 UNL     1      -6.858   3.520  -0.084  1.00  0.00     0.001 C 
HETATM   17  C23 UNL     1      -5.714   2.697  -0.679  1.00  0.00     0.014 C 
ENDBRANCH  10  12
ENDBRANCH   9  10
ENDBRANCH   7   9
ENDBRANCH   4   7
ENDBRANCH   1   3
BRANCH   1  18
HETATM   18  C6  UNL     1       1.145  -1.771  -0.983  1.00  0.00     0.045 C 
BRANCH  18  19
HETATM   19  C7  UNL     1       0.958  -3.249  -0.981  1.00  0.00     0.030 C 
BRANCH  19  20
HETATM   20  C8  UNL     1       2.075  -3.887  -1.792  1.00  0.00     0.230 C 
BRANCH  20  21
HETATM   21  N2  UNL     1       3.374  -3.589  -1.253  1.00  0.00    -0.079 N 
ATOM     22  H23 UNL     1       3.513  -2.583  -1.160  1.00  0.00     0.274 HD
ATOM     23  H22 UNL     1       3.435  -3.852  -0.269  1.00  0.00     0.274 HD
ATOM     24  H21 UNL     1       4.123  -4.017  -1.797  1.00  0.00     0.274 HD
ENDBRANCH  20  21
ENDBRANCH  19  20
ENDBRANCH  18  19
ENDBRANCH   1  18
BRANCH   1  25
HETATM   25  N3  UNL     1       0.341   0.389  -0.331  1.00  0.00    -0.191 N 
HETATM   26  C9  UNL     1       1.431   1.079   0.208  1.00  0.00     0.343 C 
HETATM   27  O3  UNL     1       1.545   2.346  -0.047  1.00  0.00    -0.245 OA
HETATM   28  N4  UNL     1       2.455   0.549   1.024  1.00  0.00    -0.341 N 
ATOM     29  H4  UNL     1       2.467  -0.434   1.296  1.00  0.00     0.164 HD
BRANCH  25  30
HETATM   30  O2  UNL     1      -0.567   1.141  -1.044  1.00  0.00    -0.282 OA
ATOM     31  H2  UNL     1      -0.400   2.073  -1.125  1.00  0.00     0.245 HD
ENDBRANCH  25  30
BRANCH  28  32
HETATM   32  C10 UNL     1       3.507   1.488   1.464  1.00  0.00     0.124 C 
BRANCH  32  33
HETATM   33  C11 UNL     1       4.520   0.756   2.319  1.00  0.00     0.022 C 
BRANCH  33  34
HETATM   34  C12 UNL     1       5.196  -0.347   1.587  1.00  0.00     0.041 C 
BRANCH  34  35
HETATM   35  C13 UNL     1       5.998   0.017   0.382  1.00  0.00     0.192 C 
HETATM   36  F1  UNL     1       6.447  -1.266  -0.109  1.00  0.00    -0.247 F 
BRANCH  35  37
HETATM   37  C14 UNL     1       7.277   0.743   0.638  1.00  0.00     0.060 C 
HETATM   38  C15 UNL     1       7.205   2.060   1.322  1.00  0.00     0.035 C 
HETATM   39  C16 UNL     1       7.942   0.986  -0.732  1.00  0.00     0.035 C 
HETATM   40 CL1  UNL     1       8.425  -0.360   1.492  1.00  0.00    -0.117 Cl
ENDBRANCH  35  37
ENDBRANCH  34  35
ENDBRANCH  33  34
ENDBRANCH  32  33
ENDBRANCH  28  32
ENDBRANCH   1  25
TORSDOF 16
