REMARK  4 active torsions:
REMARK  status: ('A' for Active; 'I' for Inactive)
REMARK    1  A    between atoms: O1_1  and  C1_3 
REMARK    2  A    between atoms: C2_4  and  N1_5 
REMARK    3  A    between atoms: N1_5  and  C3_7 
REMARK    4  A    between atoms: N6_23  and  N7_24 
ROOT
HETATM    1  C1  UNL     1       0.798   2.014   0.150  1.00  0.00     0.193 A 
HETATM    2  C2  UNL     1       0.193   0.828   0.494  1.00  0.00     0.116 A 
HETATM    3  C5  UNL     1       1.126  -0.146   0.233  1.00  0.00     0.042 A 
HETATM    4  C6  UNL     1       1.131  -1.510   0.362  1.00  0.00     0.019 A 
HETATM    5  C7  UNL     1       2.254  -2.222   0.004  1.00  0.00     0.018 A 
HETATM    6  C8  UNL     1       3.389  -1.611  -0.485  1.00  0.00     0.090 A 
HETATM    7  N5  UNL     1       3.371  -0.272  -0.607  1.00  0.00    -0.350 N 
ATOM      8  H5  UNL     1       4.198   0.205  -0.967  1.00  0.00     0.166 HD
HETATM    9  C9  UNL     1       2.283   0.462  -0.264  1.00  0.00     0.142 A 
HETATM   10  N6  UNL     1       2.053   1.783  -0.304  1.00  0.00    -0.208 N 
ENDROOT
BRANCH   2  11
HETATM   11  N1  UNL     1      -1.091   0.662   0.996  1.00  0.00    -0.185 N 
ATOM     12  H1  UNL     1      -1.276   1.108   1.895  1.00  0.00     0.184 HD
BRANCH  11  13
HETATM   13  C3  UNL     1      -2.062   0.031   0.486  1.00  0.00     0.699 A 
HETATM   14  N2  UNL     1      -2.170  -0.660  -0.667  1.00  0.00    -0.130 N 
HETATM   15  N3  UNL     1      -3.383  -1.157  -0.791  1.00  0.00    -0.261 N 
ATOM     16  H2  UNL     1      -1.419  -0.781  -1.346  1.00  0.00     0.205 HD
HETATM   17  C4  UNL     1      -4.082  -0.787   0.297  1.00  0.00     0.205 A 
ATOM     18  H3  UNL     1      -3.729  -1.719  -1.569  1.00  0.00     0.190 HD
HETATM   19  S1  UNL     1      -5.657  -1.156   0.622  1.00  0.00    -0.039 SA
HETATM   20  N4  UNL     1      -3.272  -0.062   1.072  1.00  0.00    -0.163 N 
ATOM     21  H4  UNL     1      -3.529   0.356   1.967  1.00  0.00     0.186 HD
ENDBRANCH  11  13
ENDBRANCH   2  11
BRANCH   1  22
HETATM   22  O1  UNL     1       0.188   3.258   0.262  1.00  0.00    -0.343 OA
ATOM     23  H1  UNL     1       0.606   4.077   0.024  1.00  0.00     0.219 HD
ENDBRANCH   1  22
BRANCH  10  24
HETATM   24  N7  UNL     1       2.996   2.738  -0.753  1.00  0.00    -0.252 N 
HETATM   25  S2  UNL     1       3.880   3.609   0.272  1.00  0.00     0.060 SA
ATOM     26  H7  UNL     1       3.119   2.878  -1.756  1.00  0.00     0.197 HD
ENDBRANCH  10  24
TORSDOF 4
