REMARK  1 active torsions:
REMARK  status: ('A' for Active; 'I' for Inactive)
REMARK    1  A    between atoms: C5_8  and  C6_9 
ROOT
HETATM    1  O1  UNL     1      -1.655   2.169  -0.965  1.00  0.00    -0.267 OA
HETATM    2  C1  UNL     1      -0.884   1.250  -0.555  1.00  0.00     0.257 A 
HETATM    3  N1  UNL     1       0.435   1.415  -0.692  1.00  0.00    -0.321 N 
ATOM      4  H1  UNL     1       0.783   2.272  -1.121  1.00  0.00     0.169 HD
HETATM    5  C2  UNL     1       1.334   0.471  -0.275  1.00  0.00     0.069 A 
HETATM    6  C3  UNL     1       0.779  -0.642   0.286  1.00  0.00     0.092 A 
HETATM    7  C4  UNL     1      -0.602  -0.834   0.438  1.00  0.00     0.044 A 
HETATM    8  C5  UNL     1      -1.467   0.143   0.004  1.00  0.00     0.044 A 
HETATM    9  S1  UNL     1       2.128  -1.681   0.730  1.00  0.00     0.209 S 
HETATM   10  O2  UNL     1       2.035  -2.946  -0.069  1.00  0.00    -0.217 OA
HETATM   11  O3  UNL     1       2.182  -1.923   2.196  1.00  0.00    -0.217 OA
HETATM   12  C12 UNL     1       3.384  -0.621   0.164  1.00  0.00     0.076 A 
HETATM   13  C13 UNL     1       4.748  -0.771   0.177  1.00  0.00     0.025 A 
HETATM   14  C14 UNL     1       5.586   0.217  -0.336  1.00  0.00     0.002 A 
HETATM   15  C15 UNL     1       4.980   1.342  -0.853  1.00  0.00     0.001 A 
HETATM   16  C16 UNL     1       3.631   1.467  -0.855  1.00  0.00     0.015 A 
HETATM   17  C17 UNL     1       2.768   0.486  -0.344  1.00  0.00     0.014 A 
ENDROOT
BRANCH   8  18
HETATM   18  C6  UNL     1      -2.900  -0.062   0.164  1.00  0.00    -0.020 A 
HETATM   19  C7  UNL     1      -3.770   0.208  -0.874  1.00  0.00     0.015 A 
HETATM   20  C8  UNL     1      -5.132   0.022  -0.746  1.00  0.00     0.043 A 
HETATM   21  C9  UNL     1      -5.685  -0.443   0.428  1.00  0.00     0.116 A 
HETATM   22  F1  UNL     1      -7.026  -0.632   0.571  1.00  0.00    -0.206 F 
HETATM   23  C10 UNL     1      -4.814  -0.714   1.470  1.00  0.00     0.043 A 
HETATM   24  C11 UNL     1      -3.456  -0.528   1.338  1.00  0.00     0.015 A 
ENDBRANCH   8  18
TORSDOF 1
