REMARK  8 active torsions:
REMARK  status: ('A' for Active; 'I' for Inactive)
REMARK    1  A    between atoms: N1_1  and  S1_4 
REMARK    2  A    between atoms: S1_4  and  C1_7 
REMARK    3  A    between atoms: C4_10  and  C5_11 
REMARK    4  A    between atoms: C5_11  and  C6_12 
REMARK    5  A    between atoms: C7_14  and  C8_15 
REMARK    6  A    between atoms: C8_15  and  C9_16 
REMARK    7  A    between atoms: N2_23  and  C15_24 
REMARK    8  A    between atoms: C15_24  and  C16_25 
ROOT
HETATM    1  C6  UNL     1       0.656   1.033   1.377  1.00  0.00     0.076 A 
HETATM    2  S2  UNL     1       0.141  -0.303   0.463  1.00  0.00    -0.067 SA
HETATM    3  C7  UNL     1      -1.547  -0.065   0.610  1.00  0.00     0.081 A 
HETATM    4  N2  UNL     1      -1.643   1.034   1.354  1.00  0.00    -0.303 N 
HETATM    5  C22 UNL     1      -0.532   1.603   1.753  1.00  0.00     0.266 A 
HETATM    6  O3  UNL     1      -0.460   2.671   2.485  1.00  0.00    -0.266 OA
ENDROOT
BRANCH   1   7
HETATM    7  C5  UNL     1       1.919   1.416   1.649  1.00  0.00     0.036 C 
BRANCH   7   8
HETATM    8  C4  UNL     1       2.993   0.596   1.102  1.00  0.00    -0.035 A 
HETATM    9  C3  UNL     1       3.388   0.671  -0.220  1.00  0.00     0.013 A 
HETATM   10  C2  UNL     1       4.418  -0.135  -0.687  1.00  0.00     0.026 A 
HETATM   11  C1  UNL     1       5.078  -1.026   0.139  1.00  0.00     0.079 A 
HETATM   12  C24 UNL     1       4.682  -1.098   1.462  1.00  0.00     0.026 A 
HETATM   13  C23 UNL     1       3.646  -0.289   1.929  1.00  0.00     0.013 A 
BRANCH  11  14
HETATM   14  S1  UNL     1       6.376  -2.046  -0.430  1.00  0.00     0.256 S 
HETATM   15  O1  UNL     1       7.396  -2.265   0.659  1.00  0.00    -0.201 OA
HETATM   16  O2  UNL     1       7.073  -1.342  -1.574  1.00  0.00    -0.201 OA
BRANCH  14  17
HETATM   17  N1  UNL     1       5.724  -3.525  -0.998  1.00  0.00    -0.324 N 
ATOM     18  H12 UNL     1       6.003  -4.436  -0.633  1.00  0.00     0.169 HD
ATOM     19  H11 UNL     1       5.034  -3.377  -1.735  1.00  0.00     0.169 HD
ENDBRANCH  14  17
ENDBRANCH  11  14
ENDBRANCH   7   8
ENDBRANCH   1   7
BRANCH   3  20
HETATM   20  C8  UNL     1      -2.502  -0.846   0.109  1.00  0.00     0.050 C 
BRANCH  20  21
HETATM   21  C9  UNL     1      -2.115  -2.048  -0.659  1.00  0.00    -0.012 A 
HETATM   22  C10 UNL     1      -1.270  -2.972  -0.138  1.00  0.00     0.013 A 
HETATM   23  C11 UNL     1      -0.914  -4.106  -0.879  1.00  0.00     0.001 A 
HETATM   24  C12 UNL     1      -1.410  -4.317  -2.156  1.00  0.00     0.002 A 
HETATM   25  C13 UNL     1      -2.267  -3.363  -2.662  1.00  0.00     0.024 A 
HETATM   26  C14 UNL     1      -2.623  -2.229  -1.921  1.00  0.00     0.044 A 
HETATM   27 CL1  UNL     1      -3.711  -1.033  -2.582  1.00  0.00    -0.083 Cl
ENDBRANCH  20  21
ENDBRANCH   3  20
BRANCH   4  28
HETATM   28  C15 UNL     1      -2.964   1.612   1.697  1.00  0.00     0.171 C 
BRANCH  28  29
HETATM   29  C16 UNL     1      -3.409   2.676   0.777  1.00  0.00    -0.040 A 
HETATM   30  C17 UNL     1      -3.135   4.024   1.052  1.00  0.00     0.009 A 
HETATM   31  C18 UNL     1      -3.568   4.980   0.174  1.00  0.00     0.001 A 
HETATM   32  C19 UNL     1      -4.267   4.682  -0.980  1.00  0.00     0.000 A 
HETATM   33  C20 UNL     1      -4.542   3.360  -1.260  1.00  0.00     0.001 A 
HETATM   34  C21 UNL     1      -4.103   2.382  -0.367  1.00  0.00     0.009 A 
ENDBRANCH  28  29
ENDBRANCH   4  28
TORSDOF 8
