REMARK  12 active torsions:
REMARK  status: ('A' for Active; 'I' for Inactive)
REMARK    1  A    between atoms: C2_3  and  C3_5 
REMARK    2  A    between atoms: C7_9  and  C8_10 
REMARK    3  A    between atoms: C8_10  and  C9_11 
REMARK       I    between atoms: C9_11  and  N2_13 
REMARK    4  A    between atoms: C13_17  and  C14_18 
REMARK       I    between atoms: C14_18  and  N3_20 
REMARK    5  A    between atoms: N3_20  and  C15_22 
REMARK    6  A    between atoms: C15_22  and  C16_23 
REMARK    7  A    between atoms: C15_22  and  C23_30 
REMARK    8  A    between atoms: C16_23  and  C17_24 
REMARK       I    between atoms: C23_30  and  N4_32 
REMARK    9  A    between atoms: N4_32  and  C24_34 
REMARK   10  A    between atoms: C24_34  and  C25_35 
REMARK   11  A    between atoms: C24_34  and  C29_39 
REMARK   12  A    between atoms: C25_35  and  C26_36 
ROOT
HETATM    1  C1  UNL     1       9.100  -1.957  -1.309  1.00  0.00     0.232 C 
HETATM    2  N1  UNL     1       8.088  -1.886  -0.389  1.00  0.00    -0.395 NA
HETATM    3  C2  UNL     1       7.078  -1.817   0.531  1.00  0.00     0.294 C 
HETATM    4  O1  UNL     1       6.954  -2.613   1.523  1.00  0.00    -0.257 OA
ENDROOT
BRANCH   3   5
HETATM    5  C3  UNL     1       5.992  -0.789   0.485  1.00  0.00     0.097 C 
HETATM    6  C4  UNL     1       6.523   0.625   0.485  1.00  0.00     0.015 C 
HETATM    7  C5  UNL     1       6.629   0.995  -0.975  1.00  0.00     0.001 C 
HETATM    8  C6  UNL     1       5.873  -0.036  -1.772  1.00  0.00     0.006 C 
HETATM    9  C7  UNL     1       5.138  -0.893  -0.751  1.00  0.00     0.008 C 
BRANCH   9  10
HETATM   10  C8  UNL     1       3.816  -0.145  -0.504  1.00  0.00     0.108 C 
BRANCH  10  11
HETATM   11  C9  UNL     1       2.941  -0.214  -1.699  1.00  0.00     0.220 C 
HETATM   12  O2  UNL     1       3.240  -1.051  -2.593  1.00  0.00    -0.273 OA
HETATM   13  N2  UNL     1       1.823   0.661  -1.779  1.00  0.00    -0.339 N 
HETATM   14  C10 UNL     1       0.923   0.707  -2.893  1.00  0.00     0.127 C 
HETATM   15  C13 UNL     1       1.468   1.642  -0.804  1.00  0.00     0.179 C 
HETATM   16  C11 UNL     1       0.388   2.139  -2.882  1.00  0.00     0.022 C 
HETATM   17  C12 UNL     1       1.105   2.826  -1.730  1.00  0.00     0.037 C 
BRANCH  15  18
HETATM   18  C14 UNL     1       0.410   1.358   0.136  1.00  0.00     0.241 C 
HETATM   19  O3  UNL     1       0.609   1.737   1.359  1.00  0.00    -0.271 OA
HETATM   20  N3  UNL     1      -0.833   0.728  -0.060  1.00  0.00    -0.346 N 
ATOM     21  H3  UNL     1      -1.046   0.426  -1.011  1.00  0.00     0.163 HD
BRANCH  20  22
HETATM   22  C15 UNL     1      -1.832   0.466   0.934  1.00  0.00     0.177 C 
BRANCH  22  23
HETATM   23  C16 UNL     1      -3.176   1.065   0.733  1.00  0.00     0.039 C 
BRANCH  23  24
HETATM   24  C17 UNL     1      -3.340   2.531   0.716  1.00  0.00    -0.012 C 
HETATM   25  C18 UNL     1      -4.802   2.920   0.480  1.00  0.00     0.005 C 
HETATM   26  C19 UNL     1      -5.050   3.365  -0.945  1.00  0.00     0.000 C 
HETATM   27  C20 UNL     1      -4.157   4.532  -1.316  1.00  0.00     0.000 C 
HETATM   28  C21 UNL     1      -3.067   4.734  -0.312  1.00  0.00     0.000 C 
HETATM   29  C22 UNL     1      -2.397   3.355  -0.080  1.00  0.00     0.005 C 
ENDBRANCH  23  24
ENDBRANCH  22  23
BRANCH  22  30
HETATM   30  C23 UNL     1      -1.931  -1.025   1.091  1.00  0.00     0.241 C 
HETATM   31  O4  UNL     1      -1.235  -1.750   0.373  1.00  0.00    -0.271 OA
HETATM   32  N4  UNL     1      -2.803  -1.553   2.041  1.00  0.00    -0.346 N 
ATOM     33  H4  UNL     1      -3.333  -0.880   2.595  1.00  0.00     0.163 HD
BRANCH  32  34
HETATM   34  C24 UNL     1      -3.038  -2.951   2.327  1.00  0.00     0.174 C 
BRANCH  34  35
HETATM   35  C25 UNL     1      -4.494  -3.302   2.275  1.00  0.00     0.038 C 
BRANCH  35  36
HETATM   36  C26 UNL     1      -5.112  -3.053   0.921  1.00  0.00    -0.020 C 
HETATM   37  C27 UNL     1      -4.440  -3.873  -0.161  1.00  0.00     0.009 C 
HETATM   38  C28 UNL     1      -6.584  -3.404   0.911  1.00  0.00     0.009 C 
ENDBRANCH  35  36
ENDBRANCH  34  35
BRANCH  34  39
HETATM   39  C29 UNL     1      -2.540  -3.234   3.694  1.00  0.00     0.254 C 
HETATM   40  N5  UNL     1      -2.646  -4.542   4.245  1.00  0.00    -0.060 NA
HETATM   41  O5  UNL     1      -2.014  -2.328   4.398  1.00  0.00    -0.275 OA
ENDBRANCH  34  39
ENDBRANCH  32  34
ENDBRANCH  22  30
ENDBRANCH  20  22
ENDBRANCH  15  18
ENDBRANCH  10  11
ENDBRANCH   9  10
ENDBRANCH   3   5
TORSDOF 11
