REMARK  2 active torsions:
REMARK  status: ('A' for Active; 'I' for Inactive)
REMARK    1  A    between atoms: N5_18  and  C6_19 
REMARK    2  A    between atoms: C6_19  and  N6_20 
ROOT
HETATM    1  N1  UNL     1      -0.223  -2.247   0.369  1.00  0.00    -0.383 N 
ATOM      2  H11 UNL     1      -1.177  -2.028   0.083  1.00  0.00     0.157 HD
ATOM      3  H12 UNL     1       0.045  -3.181   0.678  1.00  0.00     0.157 HD
HETATM    4  C1  UNL     1       0.635  -1.326   0.322  1.00  0.00     0.133 A 
HETATM    5  N2  UNL     1       1.920  -1.621   0.707  1.00  0.00    -0.293 N 
ATOM      6  H2  UNL     1       2.169  -2.561   1.014  1.00  0.00     0.172 HD
HETATM    7  C2  UNL     1       2.841  -0.647   0.671  1.00  0.00     0.326 A 
HETATM    8  O1  UNL     1       4.020  -0.905   1.020  1.00  0.00    -0.247 OA
HETATM    9  N3  UNL     1       2.535   0.598   0.271  1.00  0.00    -0.302 N 
ATOM     10  H3  UNL     1       3.260   1.315   0.256  1.00  0.00     0.171 HD
HETATM   11  C3  UNL     1       1.274   0.913  -0.113  1.00  0.00     0.136 A 
HETATM   12  C4  UNL     1       0.978   2.204  -0.520  1.00  0.00     0.278 A 
HETATM   13  O2  UNL     1       1.911   3.043  -0.517  1.00  0.00    -0.265 OA
HETATM   14  N4  UNL     1      -0.270   2.438  -0.877  1.00  0.00    -0.273 N 
ATOM     15  H4  UNL     1      -0.524   3.378  -1.182  1.00  0.00     0.173 HD
HETATM   16  C5  UNL     1      -1.210   1.499  -0.855  1.00  0.00     0.331 A 
HETATM   17  O3  UNL     1      -2.407   1.784  -1.213  1.00  0.00    -0.246 OA
HETATM   18  N5  UNL     1      -0.988   0.191  -0.463  1.00  0.00    -0.269 N 
HETATM   19  C7  UNL     1       0.274  -0.066  -0.095  1.00  0.00     0.117 A 
ENDROOT
BRANCH  18  20
HETATM   20  C6  UNL     1      -2.091  -0.725  -0.492  1.00  0.00     0.364 C 
BRANCH  20  21
HETATM   21  N6  UNL     1      -2.725  -0.676   0.813  1.00  0.00    -0.063 N 
ATOM     22  H63 UNL     1      -2.076  -0.856   1.579  1.00  0.00     0.276 HD
ATOM     23  H62 UNL     1      -2.997   0.267   1.090  1.00  0.00     0.276 HD
ATOM     24  H61 UNL     1      -3.510  -1.328   0.792  1.00  0.00     0.276 HD
ENDBRANCH  20  21
ENDBRANCH  18  20
TORSDOF 2
