REMARK  14 active torsions:
REMARK  status: ('A' for Active; 'I' for Inactive)
REMARK    1  A    between atoms: N1_1  and  N2_4 
REMARK    2  A    between atoms: N2_4  and  C1_6 
REMARK    3  A    between atoms: C2_9  and  C3_10 
REMARK    4  A    between atoms: C3_10  and  N4_11 
REMARK    5  A    between atoms: C3_10  and  S1_18 
REMARK    6  A    between atoms: N4_11  and  N5_13 
REMARK       I    between atoms: N5_13  and  C4_15 
REMARK    7  A    between atoms: S1_18  and  C5_19 
REMARK    8  A    between atoms: C9_23  and  C10_24 
REMARK    9  A    between atoms: C10_24  and  S2_25 
REMARK   10  A    between atoms: S2_25  and  C11_26 
REMARK   11  A    between atoms: C11_26  and  C12_27 
REMARK   12  A    between atoms: C12_27  and  C13_28 
REMARK       I    between atoms: C13_28  and  N8_30 
REMARK   13  A    between atoms: N8_30  and  C14_32 
REMARK   14  A    between atoms: N12_39  and  N13_40 
ROOT
HETATM    1  C5  UNL     1      -1.695  -0.761  -2.105  1.00  0.00     0.007 A 
HETATM    2  C6  UNL     1      -1.754   0.451  -2.777  1.00  0.00     0.019 A 
HETATM    3  C7  UNL     1      -0.718   1.352  -2.672  1.00  0.00     0.002 A 
HETATM    4  C8  UNL     1       0.389   1.024  -1.880  1.00  0.00     0.008 A 
HETATM    5  C9  UNL     1       0.487  -0.144  -1.209  1.00  0.00    -0.048 A 
HETATM    6  C16 UNL     1      -0.594  -1.032  -1.345  1.00  0.00     0.026 A 
ENDROOT
BRANCH   1   7
HETATM    7  S1  UNL     1      -3.021  -1.936  -2.243  1.00  0.00    -0.067 SA
BRANCH   7   8
HETATM    8  C3  UNL     1      -4.254  -1.693  -0.996  1.00  0.00     0.143 C 
BRANCH   8   9
HETATM    9  C2  UNL     1      -4.112  -0.617  -0.019  1.00  0.00     0.207 A 
HETATM   10  N3  UNL     1      -5.057  -0.430   0.945  1.00  0.00    -0.313 N 
HETATM   11  C1  UNL     1      -4.905   0.574   1.842  1.00  0.00     0.193 A 
ATOM     12  H3  UNL     1      -5.872  -1.041   0.991  1.00  0.00     0.170 HD
HETATM   13  C17 UNL     1      -3.813   1.407   1.793  1.00  0.00     0.310 A 
HETATM   14  N14 UNL     1      -2.900   1.175   0.809  1.00  0.00    -0.220 N 
HETATM   15  O3  UNL     1      -3.628   2.340   2.591  1.00  0.00    -0.262 OA
HETATM   16  O2  UNL     1      -3.100   0.203  -0.014  1.00  0.00    -0.214 OA
ATOM     17  H14 UNL     1      -2.070   1.762   0.725  1.00  0.00     0.198 HD
BRANCH  11  18
HETATM   18  N2  UNL     1      -5.770   0.783   2.766  1.00  0.00    -0.287 N 
ATOM     19  H2  UNL     1      -6.569   0.149   2.779  1.00  0.00     0.188 HD
BRANCH  18  20
HETATM   20  N1  UNL     1      -5.758   1.746   3.735  1.00  0.00    -0.343 N 
ATOM     21  H12 UNL     1      -4.951   2.370   3.706  1.00  0.00     0.176 HD
ATOM     22  H11 UNL     1      -6.446   1.912   4.470  1.00  0.00     0.176 HD
ENDBRANCH  18  20
ENDBRANCH  11  18
ENDBRANCH   8   9
BRANCH   8  23
HETATM   23  N4  UNL     1      -5.274  -2.481  -0.963  1.00  0.00    -0.288 N 
ATOM     24  H4  UNL     1      -5.975  -2.328  -0.238  1.00  0.00     0.188 HD
BRANCH  23  25
HETATM   25  N5  UNL     1      -5.475  -3.520  -1.851  1.00  0.00    -0.275 N 
HETATM   26  C4  UNL     1      -6.674  -3.955  -2.104  1.00  0.00     0.215 C 
HETATM   27  N6  UNL     1      -6.826  -5.030  -3.030  1.00  0.00    -0.065 NA
HETATM   28  N7  UNL     1      -7.830  -3.397  -1.490  1.00  0.00    -0.065 NA
ATOM     29  H5  UNL     1      -4.674  -3.951  -2.313  1.00  0.00     0.189 HD
ENDBRANCH  23  25
ENDBRANCH   8  23
ENDBRANCH   7   8
ENDBRANCH   1   7
BRANCH   5  30
HETATM   30  C10 UNL     1       1.640  -0.547  -0.373  1.00  0.00     0.112 C 
BRANCH  30  31
HETATM   31  S2  UNL     1       1.573  -0.091   1.323  1.00  0.00    -0.161 SA
BRANCH  31  32
HETATM   32  C11 UNL     1       1.842   1.606   1.717  1.00  0.00     0.106 C 
BRANCH  32  33
HETATM   33  C12 UNL     1       3.231   2.132   1.717  1.00  0.00     0.058 C 
BRANCH  33  34
HETATM   34  C13 UNL     1       4.032   2.193   0.517  1.00  0.00     0.256 C 
HETATM   35  O1  UNL     1       3.557   2.300  -0.628  1.00  0.00    -0.268 OA
HETATM   36  N8  UNL     1       5.466   2.141   0.577  1.00  0.00    -0.153 N 
ATOM     37  H8  UNL     1       5.969   3.027   0.627  1.00  0.00     0.187 HD
BRANCH  36  38
HETATM   38  C14 UNL     1       6.155   1.074   0.572  1.00  0.00     0.723 A 
HETATM   39  N9  UNL     1       5.771  -0.216   0.511  1.00  0.00    -0.128 N 
HETATM   40  N10 UNL     1       6.886  -0.952   0.535  1.00  0.00    -0.257 N 
ATOM     41  H9  UNL     1       4.814  -0.564   0.457  1.00  0.00     0.205 HD
HETATM   42  C15 UNL     1       7.977  -0.162   0.609  1.00  0.00     0.245 A 
ATOM     43  H10 UNL     1       6.909  -1.971   0.502  1.00  0.00     0.190 HD
HETATM   44  N11 UNL     1       9.345  -0.589   0.656  1.00  0.00    -0.060 NA
HETATM   45  N12 UNL     1       7.513   1.088   0.631  1.00  0.00    -0.060 N 
BRANCH  45  46
HETATM   46  N13 UNL     1       8.294   2.254   0.703  1.00  0.00    -0.322 N 
ATOM     47 2H13 UNL     1       7.939   3.210   0.720  1.00  0.00     0.178 HD
ATOM     48 1H13 UNL     1       9.313   2.265   0.747  1.00  0.00     0.178 HD
ENDBRANCH  45  46
ENDBRANCH  36  38
ENDBRANCH  33  34
ENDBRANCH  32  33
ENDBRANCH  31  32
ENDBRANCH  30  31
ENDBRANCH   5  30
TORSDOF 14
