REMARK  2 active torsions:
REMARK  status: ('A' for Active; 'I' for Inactive)
REMARK    1  A    between atoms: N3_4  and  C2_6 
REMARK    2  A    between atoms: C2_6  and  N4_7 
ROOT
HETATM    1  C2  UNL     1       0.071  -0.406  -0.037  1.00  0.00     0.360 C 
HETATM    2  N5  UNL     1      -0.311   0.763   0.703  1.00  0.00    -0.285 N 
ATOM      3  H5  UNL     1       0.350   1.063   1.419  1.00  0.00     0.169 HD
HETATM    4  C3  UNL     1      -1.483   1.563   0.579  1.00  0.00     0.327 C 
HETATM    5  O1  UNL     1      -1.409   2.785   0.911  1.00  0.00    -0.247 OA
HETATM    6  N6  UNL     1      -2.763   1.101   0.101  1.00  0.00    -0.261 N 
ATOM      7  H6  UNL     1      -3.462   1.831  -0.036  1.00  0.00     0.175 HD
HETATM    8  C4  UNL     1      -3.199  -0.217  -0.209  1.00  0.00     0.330 C 
HETATM    9  O2  UNL     1      -4.346  -0.387  -0.687  1.00  0.00    -0.246 OA
HETATM   10  N7  UNL     1      -2.400  -1.393  -0.008  1.00  0.00    -0.274 N 
ATOM     11  H7  UNL     1      -2.909  -2.268   0.119  1.00  0.00     0.173 HD
HETATM   12  C5  UNL     1      -0.977  -1.479   0.034  1.00  0.00     0.304 C 
HETATM   13  O3  UNL     1      -0.556  -2.657   0.149  1.00  0.00    -0.266 OA
ENDROOT
BRANCH   1  14
HETATM   14  N3  UNL     1       1.304  -0.913   0.520  1.00  0.00    -0.309 N 
HETATM   15  C1  UNL     1       2.383  -0.222   0.348  1.00  0.00     0.200 C 
HETATM   16  N1  UNL     1       3.644  -0.645   0.862  1.00  0.00    -0.067 NA
HETATM   17  N2  UNL     1       2.390   1.021  -0.372  1.00  0.00    -0.067 NA
ATOM     18  H3  UNL     1       1.323  -1.793   1.035  1.00  0.00     0.166 HD
ENDBRANCH   1  14
BRANCH   1  19
HETATM   19  N4  UNL     1       0.326  -0.117  -1.447  1.00  0.00    -0.024 N 
ATOM     20  H43 UNL     1       1.118   0.509  -1.591  1.00  0.00     0.280 HD
ATOM     21  H42 UNL     1       0.698  -0.917  -1.959  1.00  0.00     0.280 HD
ATOM     22  H41 UNL     1      -0.544   0.241  -1.840  1.00  0.00     0.280 HD
ENDBRANCH   1  19
TORSDOF 2
