REMARK  3 active torsions:
REMARK  status: ('A' for Active; 'I' for Inactive)
REMARK    1  A    between atoms: N2_3  and  N3_5 
REMARK    2  A    between atoms: N3_5  and  C2_7 
REMARK    3  A    between atoms: C2_7  and  C3_9 
ROOT
HETATM    1  N1  UNL     1       3.959   0.649  -1.304  1.00  0.00    -0.170 NA
HETATM    2  C1  UNL     1       3.278  -0.192  -0.887  1.00  0.00     0.197 C 
HETATM    3  N2  UNL     1       2.437  -1.202  -0.398  1.00  0.00    -0.235 N 
ATOM      4  H2  UNL     1       2.251  -2.017  -0.983  1.00  0.00     0.199 HD
ENDROOT
BRANCH   3   5
HETATM    5  N3  UNL     1       1.840  -1.126   0.878  1.00  0.00    -0.285 N 
ATOM      6  H3  UNL     1       2.212  -1.700   1.634  1.00  0.00     0.188 HD
BRANCH   5   7
HETATM    7  C2  UNL     1       0.738  -0.275   1.138  1.00  0.00     0.097 C 
HETATM    8  S1  UNL     1       0.122  -0.258   2.645  1.00  0.00    -0.064 SA
BRANCH   7   9
HETATM    9  C3  UNL     1       0.187   0.562   0.047  1.00  0.00     0.051 C 
HETATM   10  C4  UNL     1      -0.925   1.455   0.547  1.00  0.00     0.014 C 
HETATM   11  C5  UNL     1      -2.234   0.857   0.109  1.00  0.00     0.038 C 
HETATM   12  C6  UNL     1      -1.852  -0.557  -0.253  1.00  0.00     0.171 C 
HETATM   13  F1  UNL     1      -2.763  -1.147  -1.107  1.00  0.00    -0.249 F 
HETATM   14  C7  UNL     1      -0.528  -0.297  -0.987  1.00  0.00     0.049 C 
ENDBRANCH   7   9
ENDBRANCH   5   7
ENDBRANCH   3   5
TORSDOF 3
