REMARK  5 active torsions:
REMARK  status: ('A' for Active; 'I' for Inactive)
REMARK    1  A    between atoms: C2_2  and  N1_5 
REMARK    2  A    between atoms: N1_5  and  C5_7 
REMARK    3  A    between atoms: C5_7  and  O1_11 
REMARK    4  A    between atoms: O1_11  and  C6_12 
REMARK    5  A    between atoms: C6_12  and  C7_13 
ROOT
HETATM    1  C5  UNL     1       0.003   0.566   0.498  1.00  0.00     0.214 C 
HETATM    2  N2  UNL     1       0.195   0.861   1.726  1.00  0.00    -0.365 N 
ATOM      3  H21 UNL     1       1.048   0.585   2.213  1.00  0.00     0.159 HD
ATOM      4  H22 UNL     1      -0.541   1.385   2.200  1.00  0.00     0.159 HD
ENDROOT
BRANCH   1   5
HETATM    5  N1  UNL     1      -1.190   0.952  -0.184  1.00  0.00    -0.348 N 
ATOM      6  H1  UNL     1      -1.290   1.880  -0.594  1.00  0.00     0.163 HD
BRANCH   5   7
HETATM    7  C2  UNL     1      -2.244  -0.019  -0.269  1.00  0.00     0.022 C 
HETATM    8  C1  UNL     1      -2.673  -0.396   1.117  1.00  0.00     0.037 C 
HETATM    9  C3  UNL     1      -1.706  -1.277  -0.947  1.00  0.00     0.037 C 
HETATM   10  C4  UNL     1      -3.426   0.450  -1.055  1.00  0.00     0.037 C 
ENDBRANCH   5   7
ENDBRANCH   1   5
BRANCH   1  11
HETATM   11  O1  UNL     1       1.001  -0.144  -0.144  1.00  0.00    -0.302 OA
BRANCH  11  12
HETATM   12  C6  UNL     1       2.372   0.089  -0.030  1.00  0.00     0.168 A 
HETATM   13  C8  UNL     1       3.173  -0.533   1.068  1.00  0.00     0.051 A 
HETATM   14  C9  UNL     1       3.305  -1.047  -0.360  1.00  0.00     0.051 A 
BRANCH  12  15
HETATM   15  C7  UNL     1       2.867   1.457  -0.466  1.00  0.00     0.419 C 
HETATM   16  F1  UNL     1       2.583   1.705  -1.799  1.00  0.00    -0.168 F 
HETATM   17  F2  UNL     1       4.264   1.503  -0.338  1.00  0.00    -0.168 F 
HETATM   18  F3  UNL     1       2.382   2.422   0.385  1.00  0.00    -0.168 F 
ENDBRANCH  12  15
ENDBRANCH  11  12
ENDBRANCH   1  11
TORSDOF 5
