REMARK  3 active torsions:
REMARK  status: ('A' for Active; 'I' for Inactive)
REMARK    1  A    between atoms: C8_10  and  O3_11 
REMARK    2  A    between atoms: C9_13  and  O4_14 
REMARK    3  A    between atoms: C13_19  and  C15_21 
ROOT
HETATM    1  C1  UNL     1       4.139   0.770   0.756  1.00  0.00     0.025 C 
HETATM    2  C2  UNL     1       2.856   0.482   0.736  1.00  0.00     0.008 C 
HETATM    3  C3  UNL     1       1.852   1.301   0.004  1.00  0.00     0.167 C 
HETATM    4  O1  UNL     1       1.989   2.411  -0.511  1.00  0.00    -0.292 OA
HETATM    5  C4  UNL     1       0.664   0.376   0.092  1.00  0.00     0.045 C 
HETATM    6  C5  UNL     1       0.841   0.088   1.523  1.00  0.00     0.056 C 
HETATM    7  C6  UNL     1       2.209  -0.639   1.412  1.00  0.00     0.159 C 
HETATM    8  O2  UNL     1       1.922  -1.789   0.831  1.00  0.00    -0.373 OA
HETATM    9  C7  UNL     1       1.059  -1.920  -0.190  1.00  0.00     0.158 C 
HETATM   10  C8  UNL     1      -0.323  -2.366  -0.045  1.00  0.00     0.176 C 
HETATM   11  C9  UNL     1      -1.425  -1.528   0.371  1.00  0.00     0.158 C 
HETATM   12  C10 UNL     1      -1.687  -0.152   0.057  1.00  0.00    -0.007 C 
HETATM   13  C11 UNL     1      -2.569   0.389   1.212  1.00  0.00     0.018 C 
HETATM   14  C12 UNL     1      -2.714  -0.087  -1.101  1.00  0.00     0.018 C 
HETATM   15  C13 UNL     1      -0.675   0.921  -0.181  1.00  0.00    -0.001 C 
HETATM   16  C14 UNL     1      -0.644   1.455  -1.600  1.00  0.00     0.021 C 
HETATM   17  C17 UNL     1       0.997  -0.619  -0.946  1.00  0.00     0.031 C 
HETATM   18  C18 UNL     1       2.231  -0.492  -1.758  1.00  0.00     0.014 C 
ENDROOT
BRANCH  15  19
HETATM   19  C15 UNL     1      -0.870   2.143   0.674  1.00  0.00    -0.004 C 
HETATM   20  C16 UNL     1      -1.741   3.094   0.382  1.00  0.00     0.081 C 
HETATM   21 CL1  UNL     1      -1.906   4.488   1.431  1.00  0.00    -0.097 Cl
ENDBRANCH  15  19
BRANCH  11  22
HETATM   22  O4  UNL     1      -2.604  -2.264  -0.042  1.00  0.00    -0.392 OA
ATOM     23  H4  UNL     1      -3.328  -1.713   0.231  1.00  0.00     0.210 HD
ENDBRANCH  11  22
BRANCH  10  24
HETATM   24  O3  UNL     1      -0.273  -3.525   0.776  1.00  0.00    -0.390 OA
ATOM     25  H3  UNL     1      -1.173  -3.815   0.870  1.00  0.00     0.210 HD
ENDBRANCH  10  24
TORSDOF 3
