REMARK  12 active torsions:
REMARK  status: ('A' for Active; 'I' for Inactive)
REMARK    1  A    between atoms: C2_2  and  C3_3 
REMARK    2  A    between atoms: C3_3  and  C4_4 
REMARK    3  A    between atoms: C4_4  and  C5_5 
REMARK       I    between atoms: C5_5  and  N1_7 
REMARK    4  A    between atoms: N1_7  and  C6_9 
REMARK    5  A    between atoms: C6_9  and  C7_10 
REMARK    6  A    between atoms: C7_10  and  C8_11 
REMARK    7  A    between atoms: C14_22  and  C15_23 
REMARK    8  A    between atoms: C15_23  and  C16_24 
REMARK    9  A    between atoms: C20_31  and  C21_32 
REMARK   10  A    between atoms: C21_32  and  C22_33 
REMARK   11  A    between atoms: C26_40  and  C27_41 
REMARK   12  A    between atoms: C27_41  and  C28_42 
ROOT
HETATM    1  C8  UNL     1       1.902  -0.152  -0.190  1.00  0.00     0.178 C 
HETATM    2  N2  UNL     1       2.456  -0.999   0.824  1.00  0.00    -0.346 N 
ATOM      3  H2  UNL     1       3.249  -0.654   1.365  1.00  0.00     0.163 HD
HETATM    4  C9  UNL     1       1.956  -2.289   1.111  1.00  0.00     0.240 C 
HETATM    5  O2  UNL     1       2.739  -3.240   1.387  1.00  0.00    -0.271 OA
HETATM    6  C10 UNL     1       0.520  -2.558   1.099  1.00  0.00     0.174 C 
HETATM    7  C11 UNL     1       0.176  -3.053   2.525  1.00  0.00     0.042 C 
HETATM    8  N3  UNL     1       0.110  -3.522   0.125  1.00  0.00    -0.342 N 
HETATM    9  C12 UNL     1       1.054  -4.482  -0.454  1.00  0.00     0.153 C 
HETATM   10  C13 UNL     1      -1.235  -3.566  -0.291  1.00  0.00     0.243 C 
HETATM   11  O3  UNL     1      -1.839  -4.684  -0.471  1.00  0.00    -0.271 OA
HETATM   12  C14 UNL     1      -2.072  -2.333  -0.559  1.00  0.00     0.177 C 
HETATM   13  N4  UNL     1      -3.141  -2.369   0.410  1.00  0.00    -0.346 N 
ATOM     14  H4  UNL     1      -3.880  -3.057   0.263  1.00  0.00     0.163 HD
HETATM   15  C19 UNL     1      -3.255  -1.529   1.553  1.00  0.00     0.241 C 
HETATM   16  O4  UNL     1      -3.782  -2.026   2.579  1.00  0.00    -0.271 OA
HETATM   17  C20 UNL     1      -2.782  -0.110   1.579  1.00  0.00     0.177 C 
HETATM   18  N5  UNL     1      -1.845   0.169   2.615  1.00  0.00    -0.346 N 
ATOM     19  H5  UNL     1      -2.003  -0.289   3.512  1.00  0.00     0.163 HD
HETATM   20  C25 UNL     1      -0.722   1.014   2.525  1.00  0.00     0.241 C 
HETATM   21  O5  UNL     1       0.059   1.067   3.522  1.00  0.00    -0.271 OA
HETATM   22  C26 UNL     1      -0.343   1.867   1.372  1.00  0.00     0.181 C 
HETATM   23  N7  UNL     1       1.103   1.855   1.227  1.00  0.00    -0.346 N 
ATOM     24  H7  UNL     1       1.619   2.330   1.967  1.00  0.00     0.163 HD
HETATM   25  C36 UNL     1       1.883   1.291   0.227  1.00  0.00     0.241 C 
HETATM   26  O6  UNL     1       2.661   2.056  -0.407  1.00  0.00    -0.271 OA
ENDROOT
BRANCH  22  27
HETATM   27  C27 UNL     1      -0.737   3.294   1.802  1.00  0.00     0.075 C 
BRANCH  27  28
HETATM   28  C28 UNL     1      -0.428   4.279   0.752  1.00  0.00    -0.028 A 
HETATM   29  C29 UNL     1       0.617   5.164   0.747  1.00  0.00     0.096 A 
HETATM   30  N6  UNL     1       0.566   5.895  -0.369  1.00  0.00    -0.365 N 
HETATM   31  C30 UNL     1      -0.493   5.507  -1.098  1.00  0.00     0.042 A 
ATOM     32  H6  UNL     1       1.225   6.630  -0.626  1.00  0.00     0.165 HD
HETATM   33  C31 UNL     1      -0.998   5.933  -2.326  1.00  0.00     0.030 A 
HETATM   34  C35 UNL     1      -1.121   4.501  -0.411  1.00  0.00    -0.002 A 
HETATM   35  C32 UNL     1      -2.126   5.373  -2.889  1.00  0.00     0.002 A 
HETATM   36  C33 UNL     1      -2.753   4.361  -2.192  1.00  0.00     0.001 A 
HETATM   37  C34 UNL     1      -2.255   3.942  -0.983  1.00  0.00     0.014 A 
ENDBRANCH  27  28
ENDBRANCH  22  27
BRANCH  17  38
HETATM   38  C21 UNL     1      -3.925   0.857   1.637  1.00  0.00     0.038 C 
BRANCH  38  39
HETATM   39  C22 UNL     1      -4.842   0.757   2.795  1.00  0.00    -0.020 C 
HETATM   40  C23 UNL     1      -4.230   0.970   4.153  1.00  0.00     0.009 C 
HETATM   41  C24 UNL     1      -5.957   1.815   2.670  1.00  0.00     0.009 C 
ENDBRANCH  38  39
ENDBRANCH  17  38
BRANCH   1  42
HETATM   42  C7  UNL     1       2.598  -0.399  -1.484  1.00  0.00     0.054 C 
BRANCH  42  43
HETATM   43  C6  UNL     1       4.041  -0.178  -1.613  1.00  0.00     0.125 C 
BRANCH  43  44
HETATM   44  N1  UNL     1       4.937  -0.974  -0.816  1.00  0.00    -0.361 N 
HETATM   45  C5  UNL     1       6.335  -0.735  -0.934  1.00  0.00     0.217 C 
HETATM   46  O1  UNL     1       6.725   0.154  -1.723  1.00  0.00    -0.274 OA
ATOM     47  H1  UNL     1       4.580  -1.690  -0.184  1.00  0.00     0.162 HD
BRANCH  45  48
HETATM   48  C4  UNL     1       7.292  -1.528  -0.136  1.00  0.00     0.106 C 
BRANCH  48  49
HETATM   49  C3  UNL     1       8.718  -1.275  -0.452  1.00  0.00     0.035 C 
BRANCH  49  50
HETATM   50  C2  UNL     1       9.106  -1.625  -1.818  1.00  0.00    -0.036 C 
HETATM   51  C1  UNL     1       8.367  -2.207  -2.742  1.00  0.00     0.007 C 
ENDBRANCH  49  50
ENDBRANCH  48  49
ENDBRANCH  45  48
ENDBRANCH  43  44
ENDBRANCH  42  43
ENDBRANCH   1  42
BRANCH  12  52
HETATM   52  C15 UNL     1      -2.489  -2.484  -1.984  1.00  0.00     0.038 C 
BRANCH  52  53
HETATM   53  C16 UNL     1      -3.325  -1.433  -2.587  1.00  0.00    -0.020 C 
HETATM   54  C17 UNL     1      -3.577  -1.839  -4.056  1.00  0.00     0.009 C 
HETATM   55  C18 UNL     1      -4.721  -1.477  -1.964  1.00  0.00     0.009 C 
ENDBRANCH  52  53
ENDBRANCH  12  52
TORSDOF 12
