REMARK  16 active torsions:
REMARK  status: ('A' for Active; 'I' for Inactive)
REMARK    1  A    between atoms: C2_2  and  O1_3 
REMARK    2  A    between atoms: O1_3  and  C3_4 
REMARK    3  A    between atoms: C3_4  and  C4_5 
REMARK    4  A    between atoms: C4_5  and  C5_6 
REMARK    5  A    between atoms: C5_6  and  C6_8 
REMARK    6  A    between atoms: C6_8  and  C7_9 
REMARK    7  A    between atoms: C7_9  and  C8_10 
REMARK    8  A    between atoms: C10_12  and  C11_13 
REMARK    9  A    between atoms: C11_13  and  O3_15 
REMARK   10  A    between atoms: C17_21  and  C18_22 
REMARK   11  A    between atoms: C18_22  and  C19_23 
REMARK   12  A    between atoms: C23_27  and  C24_28 
REMARK   13  A    between atoms: C24_28  and  O5_30 
REMARK   14  A    between atoms: C26_32  and  O6_33 
REMARK   15  A    between atoms: C28_36  and  O7_37 
REMARK   16  A    between atoms: C30_39  and  O8_40 
ROOT
HETATM    1  C8  UNL     1       1.044  -0.660   0.713  1.00  0.00    -0.033 C 
HETATM    2  C9  UNL     1       1.403  -1.406   2.038  1.00  0.00     0.016 C 
HETATM    3  C10 UNL     1       0.927   0.734   0.995  1.00  0.00     0.028 C 
HETATM    4  C13 UNL     1      -0.478   1.226   0.621  1.00  0.00     0.011 C 
HETATM    5  C14 UNL     1      -1.454   0.850   1.729  1.00  0.00     0.001 C 
HETATM    6  C15 UNL     1      -1.124  -0.660   1.738  1.00  0.00     0.012 C 
HETATM    7  C16 UNL     1      -0.455  -0.940   0.398  1.00  0.00     0.008 C 
HETATM    8  C17 UNL     1      -0.949   0.206  -0.427  1.00  0.00     0.004 C 
HETATM    9  C23 UNL     1      -2.397   0.260  -0.721  1.00  0.00     0.039 C 
HETATM   10  C26 UNL     1      -3.193   1.205   0.133  1.00  0.00     0.097 C 
HETATM   11  C27 UNL     1      -4.648   1.075   0.172  1.00  0.00     0.078 C 
HETATM   12  C28 UNL     1      -4.991   1.886   1.439  1.00  0.00     0.153 C 
HETATM   13  C30 UNL     1      -3.659   2.053   2.195  1.00  0.00     0.154 C 
HETATM   14  C31 UNL     1      -2.854   0.954   1.566  1.00  0.00     0.060 C 
ENDROOT
BRANCH   1  15
HETATM   15  C7  UNL     1       1.820  -1.378  -0.249  1.00  0.00     0.017 C 
BRANCH  15  16
HETATM   16  C6  UNL     1       3.319  -1.468  -0.197  1.00  0.00     0.079 C 
BRANCH  16  17
HETATM   17  C5  UNL     1       3.838  -2.280  -1.354  1.00  0.00     0.129 C 
HETATM   18  O2  UNL     1       3.035  -2.708  -2.158  1.00  0.00    -0.298 OA
BRANCH  17  19
HETATM   19  C4  UNL     1       5.272  -2.562  -1.528  1.00  0.00     0.104 C 
BRANCH  19  20
HETATM   20  C3  UNL     1       6.162  -1.998  -0.456  1.00  0.00     0.175 C 
BRANCH  20  21
HETATM   21  O1  UNL     1       6.110  -0.625  -0.347  1.00  0.00    -0.391 OA
BRANCH  21  22
HETATM   22  C2  UNL     1       6.965  -0.209   0.668  1.00  0.00     0.163 C 
HETATM   23  C1  UNL     1       6.603  -0.792   1.999  1.00  0.00     0.033 C 
ENDBRANCH  21  22
ENDBRANCH  20  21
ENDBRANCH  19  20
ENDBRANCH  17  19
ENDBRANCH  16  17
ENDBRANCH  15  16
ENDBRANCH   1  15
BRANCH   3  24
HETATM   24  C11 UNL     1       1.966   1.767   1.044  1.00  0.00     0.119 C 
HETATM   25  C12 UNL     1       3.056   1.558   2.083  1.00  0.00     0.040 C 
BRANCH  24  26
HETATM   26  O3  UNL     1       2.604   2.224  -0.064  1.00  0.00    -0.396 OA
ATOM     27  H3  UNL     1       3.277   2.893  -0.032  1.00  0.00     0.210 HD
ENDBRANCH  24  26
ENDBRANCH   3  24
BRANCH   8  28
HETATM   28  C18 UNL     1      -0.276   0.575  -1.703  1.00  0.00     0.042 C 
BRANCH  28  29
HETATM   29  C19 UNL     1      -0.626  -0.236  -2.881  1.00  0.00    -0.024 C 
HETATM   30  C20 UNL     1      -1.002   0.314  -4.001  1.00  0.00    -0.091 C 
HETATM   31  C21 UNL     1      -1.132   1.776  -4.266  1.00  0.00     0.042 C 
HETATM   32  C22 UNL     1      -1.356  -0.573  -5.184  1.00  0.00     0.042 C 
ENDBRANCH  28  29
ENDBRANCH   8  28
BRANCH   9  33
HETATM   33  C24 UNL     1      -3.084  -0.972  -1.124  1.00  0.00     0.288 C 
HETATM   34  O4  UNL     1      -3.805  -1.077  -2.191  1.00  0.00    -0.260 OA
BRANCH  33  35
HETATM   35  O5  UNL     1      -3.092  -2.190  -0.471  1.00  0.00    -0.323 OA
HETATM   36  C25 UNL     1      -3.738  -3.356  -0.844  1.00  0.00     0.213 C 
ENDBRANCH  33  35
ENDBRANCH   9  33
BRANCH  10  37
HETATM   37  O6  UNL     1      -2.905   2.566  -0.145  1.00  0.00    -0.384 OA
ATOM     38  H6  UNL     1      -3.408   3.164   0.395  1.00  0.00     0.211 HD
ENDBRANCH  10  37
BRANCH  13  39
HETATM   39  O8  UNL     1      -3.842   1.900   3.555  1.00  0.00    -0.392 OA
ATOM     40  H8  UNL     1      -3.021   2.003   4.021  1.00  0.00     0.210 HD
ENDBRANCH  13  39
BRANCH  12  41
HETATM   41  O7  UNL     1      -5.892   1.225   2.238  1.00  0.00    -0.388 OA
HETATM   42  C29 UNL     1      -7.057   1.963   2.457  1.00  0.00     0.202 C 
ENDBRANCH  12  41
TORSDOF 16
