REMARK  6 active torsions:
REMARK  status: ('A' for Active; 'I' for Inactive)
REMARK    1  A    between atoms: C2_2  and  N1_3 
REMARK    2  A    between atoms: C5_10  and  C6_11 
REMARK    3  A    between atoms: C7_14  and  N5_15 
REMARK    4  A    between atoms: C8_20  and  N7_21 
REMARK    5  A    between atoms: N7_21  and  C9_23 
REMARK    6  A    between atoms: C13_31  and  N9_32 
ROOT
HETATM    1  C6  UNL     1      -0.714  -1.298   0.252  1.00  0.00     0.122 A 
HETATM    2  N4  UNL     1      -1.021  -2.580   0.419  1.00  0.00    -0.186 N 
ATOM      3  H4  UNL     1      -0.287  -3.287   0.376  1.00  0.00     0.184 HD
HETATM    4  C7  UNL     1      -2.323  -2.957   0.649  1.00  0.00     0.678 A 
HETATM    5  N6  UNL     1      -3.277  -2.056   0.706  1.00  0.00    -0.174 N 
ATOM      6  H6  UNL     1      -4.231  -2.372   0.878  1.00  0.00     0.186 HD
HETATM    7  C8  UNL     1      -3.058  -0.720   0.547  1.00  0.00     0.158 A 
HETATM    8  C12 UNL     1      -1.759  -0.363   0.319  1.00  0.00     0.190 A 
HETATM    9  F1  UNL     1      -1.479   0.955   0.152  1.00  0.00    -0.200 F 
ENDROOT
BRANCH   1  10
HETATM   10  C5  UNL     1       0.616  -0.823   0.008  1.00  0.00     0.108 A 
HETATM   11  N3  UNL     1       0.758   0.534  -0.142  1.00  0.00    -0.334 N 
HETATM   12  C4  UNL     1       1.947   1.090  -0.372  1.00  0.00     0.152 A 
ATOM     13  H3  UNL     1      -0.066   1.131  -0.076  1.00  0.00     0.168 HD
HETATM   14  N2  UNL     1       2.301   2.370  -0.546  1.00  0.00    -0.335 N 
HETATM   15  C14 UNL     1       3.106   0.350  -0.475  1.00  0.00     0.155 A 
HETATM   16  C3  UNL     1       3.644   2.416  -0.751  1.00  0.00     0.186 A 
ATOM     17  H2  UNL     1       1.671   3.172  -0.528  1.00  0.00     0.168 HD
HETATM   18  N1  UNL     1       4.152   1.172  -0.709  1.00  0.00    -0.326 N 
HETATM   19  N10 UNL     1       2.987  -0.963  -0.333  1.00  0.00    -0.324 N 
HETATM   20  C13 UNL     1       1.768  -1.547  -0.095  1.00  0.00     0.130 A 
ATOM     21  H10 UNL     1       3.818  -1.551  -0.402  1.00  0.00     0.169 HD
BRANCH  18  22
HETATM   22  C2  UNL     1       5.548   0.771  -0.879  1.00  0.00     0.127 C 
HETATM   23  C1  UNL     1       6.271   0.755   0.451  1.00  0.00     0.027 C 
ENDBRANCH  18  22
BRANCH  20  24
HETATM   24  N9  UNL     1       1.743  -2.818   0.029  1.00  0.00    -0.384 N 
ATOM     25  H92 UNL     1       0.837  -3.252   0.206  1.00  0.00     0.157 HD
ATOM     26  H91 UNL     1       2.604  -3.359  -0.048  1.00  0.00     0.157 HD
ENDBRANCH  20  24
ENDBRANCH   1  10
BRANCH   4  27
HETATM   27  N5  UNL     1      -2.561  -4.227   0.805  1.00  0.00    -0.234 N 
ATOM     28  H52 UNL     1      -1.820  -4.927   0.761  1.00  0.00     0.174 HD
ATOM     29  H51 UNL     1      -3.527  -4.507   0.976  1.00  0.00     0.174 HD
ENDBRANCH   4  27
BRANCH   7  30
HETATM   30  N7  UNL     1      -4.038   0.075   0.617  1.00  0.00    -0.365 N 
ATOM     31  H7  UNL     1      -4.942  -0.364   0.793  1.00  0.00     0.161 HD
BRANCH  30  32
HETATM   32  C9  UNL     1      -4.066   1.480   0.488  1.00  0.00     0.134 C 
HETATM   33  C10 UNL     1      -4.234   1.967  -0.932  1.00  0.00     0.259 C 
HETATM   34  N8  UNL     1      -5.662   1.627  -0.807  1.00  0.00    -0.071 N 
HETATM   35  C11 UNL     1      -5.523   1.965   0.595  1.00  0.00     0.259 C 
ATOM     36  H82 UNL     1      -6.370   2.066  -1.396  1.00  0.00     0.277 HD
ATOM     37  H81 UNL     1      -6.024   0.722  -1.106  1.00  0.00     0.277 HD
ENDBRANCH  30  32
ENDBRANCH   7  30
TORSDOF 6
