REMARK  6 active torsions:
REMARK  status: ('A' for Active; 'I' for Inactive)
REMARK    1  A    between atoms: N1_1  and  C1_4 
REMARK    2  A    between atoms: C2_9  and  N4_10 
REMARK    3  A    between atoms: C4_12  and  N5_13 
REMARK    4  A    between atoms: C4_12  and  C5_17 
REMARK    5  A    between atoms: C5_17  and  N6_18 
REMARK    6  A    between atoms: C14_31  and  N9_32 
ROOT
HETATM    1  N4  UNL     1      -2.063  -0.343  -0.433  1.00  0.00    -0.300 N 
HETATM    2  C3  UNL     1      -0.664   0.093  -0.230  1.00  0.00     0.196 C 
HETATM    3  C4  UNL     1      -0.000  -1.203   0.049  1.00  0.00     0.240 C 
HETATM    4  N7  UNL     1      -0.795  -2.160  -0.733  1.00  0.00    -0.329 N 
ATOM      5  H7  UNL     1      -0.487  -3.086  -1.028  1.00  0.00     0.164 HD
HETATM    6  C12 UNL     1      -1.931  -1.644  -0.982  1.00  0.00     0.194 C 
HETATM    7  N8  UNL     1      -2.900  -2.379  -1.760  1.00  0.00    -0.063 NA
ENDROOT
BRANCH   1   8
HETATM    8  C2  UNL     1      -3.265   0.343  -0.206  1.00  0.00     0.166 A 
HETATM    9  N3  UNL     1      -3.310   1.681  -0.493  1.00  0.00    -0.281 N 
HETATM   10  N2  UNL     1      -4.397   2.408  -0.302  1.00  0.00    -0.282 N 
ATOM     11  H3  UNL     1      -2.475   2.132  -0.867  1.00  0.00     0.188 HD
HETATM   12  C1  UNL     1      -5.537   1.898   0.186  1.00  0.00     0.143 A 
ATOM     13  H2  UNL     1      -4.367   3.400  -0.536  1.00  0.00     0.188 HD
HETATM   14  C14 UNL     1      -5.589   0.563   0.507  1.00  0.00     0.114 A 
HETATM   15  C13 UNL     1      -4.427  -0.193   0.297  1.00  0.00     0.191 A 
HETATM   16  F1  UNL     1      -4.431  -1.509   0.618  1.00  0.00    -0.199 F 
BRANCH  12  17
HETATM   17  N1  UNL     1      -6.573   2.656   0.349  1.00  0.00    -0.383 N 
ATOM     18  H12 UNL     1      -6.534   3.647   0.111  1.00  0.00     0.157 HD
ATOM     19  H11 UNL     1      -7.440   2.268   0.720  1.00  0.00     0.157 HD
ENDBRANCH  12  17
BRANCH  14  20
HETATM   20  N9  UNL     1      -6.646   0.000   0.987  1.00  0.00    -0.393 N 
ATOM     21  H92 UNL     1      -7.491   0.550   1.140  1.00  0.00     0.156 HD
ATOM     22  H91 UNL     1      -6.685  -0.991   1.225  1.00  0.00     0.156 HD
ENDBRANCH  14  20
ENDBRANCH   1   8
BRANCH   3  23
HETATM   23  N5  UNL     1      -0.183  -1.607   1.416  1.00  0.00    -0.049 N 
ATOM     24  H53 UNL     1       0.127  -0.882   2.064  1.00  0.00     0.277 HD
ATOM     25  H52 UNL     1      -1.171  -1.633   1.668  1.00  0.00     0.277 HD
ATOM     26  H51 UNL     1       0.274  -2.499   1.608  1.00  0.00     0.277 HD
ENDBRANCH   3  23
BRANCH   3  27
HETATM   27  C5  UNL     1       1.390  -1.348  -0.456  1.00  0.00     0.335 C 
BRANCH  27  28
HETATM   28  N6  UNL     1       2.403  -0.474  -0.032  1.00  0.00     0.092 N 
HETATM   29  C6  UNL     1       2.821  -0.579   1.327  1.00  0.00     0.272 C 
HETATM   30  C7  UNL     1       4.230  -0.060   1.557  1.00  0.00     0.030 C 
HETATM   31  C8  UNL     1       4.444   1.295   0.890  1.00  0.00     0.002 C 
HETATM   32  C9  UNL     1       5.181   1.034  -0.397  1.00  0.00     0.002 C 
HETATM   33  C10 UNL     1       4.117   0.651  -1.419  1.00  0.00     0.030 C 
HETATM   34  C11 UNL     1       3.533  -0.654  -0.964  1.00  0.00     0.272 C 
ENDBRANCH  27  28
ENDBRANCH   3  27
TORSDOF 6
