REMARK  6 active torsions:
REMARK  status: ('A' for Active; 'I' for Inactive)
REMARK    1  A    between atoms: N1_1  and  N2_4 
REMARK    2  A    between atoms: N3_6  and  C1_8 
REMARK    3  A    between atoms: C1_8  and  C2_9 
REMARK    4  A    between atoms: C2_9  and  N4_10 
REMARK    5  A    between atoms: C2_9  and  C7_17 
REMARK       I    between atoms: N4_10  and  C3_12 
REMARK    6  A    between atoms: C3_12  and  C4_14 
ROOT
HETATM    1  C2  UNL     1      -0.676   0.313  -0.464  1.00  0.00     0.107 C 
ENDROOT
BRANCH   1   2
HETATM    2  C1  UNL     1      -1.095  -0.187  -1.794  1.00  0.00     0.166 C 
BRANCH   2   3
HETATM    3  N3  UNL     1      -2.362   0.265  -2.273  1.00  0.00    -0.321 N 
HETATM    4  N2  UNL     1      -2.521   1.375  -2.781  1.00  0.00    -0.254 N 
ATOM      5  H2  UNL     1      -2.103   1.225  -3.699  1.00  0.00     0.207 HD
ATOM      6  H3  UNL     1      -3.167  -0.356  -2.191  1.00  0.00     0.181 HD
BRANCH   4   7
HETATM    7  N1  UNL     1      -2.868   2.553  -2.877  1.00  0.00    -0.331 N 
ATOM      8  H12 UNL     1      -3.275   2.652  -1.947  1.00  0.00     0.178 HD
ATOM      9  H11 UNL     1      -3.000   3.473  -3.298  1.00  0.00     0.178 HD
ENDBRANCH   4   7
ENDBRANCH   2   3
ENDBRANCH   1   2
BRANCH   1  10
HETATM   10  N4  UNL     1       0.652  -0.293  -0.214  1.00  0.00    -0.354 N 
HETATM   11  C3  UNL     1       1.813   0.477  -0.099  1.00  0.00     0.222 C 
HETATM   12  O1  UNL     1       1.834   1.730  -0.197  1.00  0.00    -0.273 OA
ATOM     13  H4  UNL     1       0.722  -1.306  -0.123  1.00  0.00     0.162 HD
BRANCH  11  14
HETATM   14  C4  UNL     1       3.106  -0.199   0.152  1.00  0.00     0.078 A 
HETATM   15  C5  UNL     1       4.093   0.483   1.030  1.00  0.00     0.015 A 
HETATM   16  C6  UNL     1       4.335   0.361  -0.485  1.00  0.00     0.015 A 
ENDBRANCH  11  14
ENDBRANCH   1  10
BRANCH   1  17
HETATM   17  C7  UNL     1      -1.481   0.003   0.710  1.00  0.00     0.010 C 
HETATM   18  C8  UNL     1      -1.689  -1.455   1.072  1.00  0.00     0.007 C 
HETATM   19  C9  UNL     1      -2.950  -0.964   1.805  1.00  0.00     0.001 C 
HETATM   20  C10 UNL     1      -2.943   0.182   0.773  1.00  0.00     0.007 C 
ENDBRANCH   1  17
TORSDOF 6
