REMARK  14 active torsions:
REMARK  status: ('A' for Active; 'I' for Inactive)
REMARK       I    between atoms: C2_2  and  N1_4 
REMARK    1  A    between atoms: N1_4  and  C3_6 
REMARK    2  A    between atoms: C5_11  and  S1_12 
REMARK    3  A    between atoms: S1_12  and  C6_13 
REMARK    4  A    between atoms: C6_13  and  C7_14 
REMARK       I    between atoms: C7_14  and  N4_16 
REMARK    5  A    between atoms: N4_16  and  C8_18 
REMARK    6  A    between atoms: C8_18  and  C10_20 
REMARK    7  A    between atoms: C10_20  and  O4_22 
REMARK    8  A    between atoms: O4_22  and  C11_23 
REMARK    9  A    between atoms: C11_23  and  C12_27 
REMARK   10  A    between atoms: C15_31  and  C16_32 
REMARK   11  A    between atoms: C17_35  and  N6_36 
REMARK   12  A    between atoms: N6_36  and  S2_38 
REMARK   13  A    between atoms: S2_38  and  C18_39 
REMARK   14  A    between atoms: C20_42  and  O9_43 
REMARK       I    between atoms: N7_47  and  C23_49 
REMARK       I    between atoms: C23_49  and  N8_50 
REMARK       I    between atoms: C23_49  and  N9_54 
ROOT
HETATM    1  C3  UNL     1      -3.553   2.103  -0.138  1.00  0.00     0.105 A 
HETATM    2  C4  UNL     1      -2.339   2.542   0.391  1.00  0.00     0.146 A 
HETATM    3  N2  UNL     1      -1.936   3.891   0.116  1.00  0.00    -0.080 NA
HETATM    4  N3  UNL     1      -1.534   1.782   1.141  1.00  0.00    -0.336 N 
ATOM      5  H3  UNL     1      -0.659   2.162   1.501  1.00  0.00     0.168 HD
HETATM    6  C5  UNL     1      -1.884   0.516   1.417  1.00  0.00     0.101 A 
HETATM    7  C17 UNL     1      -3.065   0.047   0.917  1.00  0.00     0.101 A 
HETATM    8  C22 UNL     1      -3.945   0.814   0.123  1.00  0.00     0.091 A 
HETATM    9  N7  UNL     1      -5.000   0.273  -0.293  1.00  0.00    -0.337 N 
ATOM     10  H7  UNL     1      -5.061  -0.690   0.038  1.00  0.00     0.163 HD
HETATM   11  C23 UNL     1      -6.107   0.591  -1.067  1.00  0.00     0.480 C 
HETATM   12  N8  UNL     1      -7.275   0.942  -0.222  1.00  0.00    -0.033 N 
ATOM     13  H81 UNL     1      -8.089   1.176  -0.791  1.00  0.00     0.278 HD
ATOM     14  H82 UNL     1      -7.050   1.690   0.434  1.00  0.00     0.278 HD
ATOM     15  H83 UNL     1      -7.487   0.203   0.448  1.00  0.00     0.278 HD
HETATM   16  N9  UNL     1      -6.525  -0.573  -1.908  1.00  0.00    -0.033 N 
ATOM     17  H91 UNL     1      -7.339  -0.339  -2.477  1.00  0.00     0.278 HD
ATOM     18  H92 UNL     1      -6.688  -1.406  -1.343  1.00  0.00     0.278 HD
ATOM     19  H93 UNL     1      -5.754  -0.921  -2.479  1.00  0.00     0.278 HD
ENDROOT
BRANCH   6  20
HETATM   20  S1  UNL     1      -0.834  -0.560   2.389  1.00  0.00    -0.101 SA
BRANCH  20  21
HETATM   21  C6  UNL     1       0.804   0.108   2.641  1.00  0.00     0.183 C 
BRANCH  21  22
HETATM   22  C7  UNL     1       1.687   0.049   1.460  1.00  0.00     0.228 C 
HETATM   23  O2  UNL     1       1.439   0.721   0.439  1.00  0.00    -0.273 OA
HETATM   24  N4  UNL     1       2.843  -0.807   1.524  1.00  0.00    -0.347 N 
ATOM     25  H4  UNL     1       3.028  -1.343   2.372  1.00  0.00     0.163 HD
BRANCH  24  26
HETATM   26  C8  UNL     1       3.745  -0.914   0.396  1.00  0.00     0.180 C 
HETATM   27  C9  UNL     1       3.795  -2.354  -0.083  1.00  0.00     0.043 C 
BRANCH  26  28
HETATM   28  C10 UNL     1       5.117  -0.499   0.875  1.00  0.00     0.287 C 
HETATM   29  O3  UNL     1       5.247  -0.200   2.073  1.00  0.00    -0.262 OA
BRANCH  28  30
HETATM   30  O4  UNL     1       6.168  -0.456   0.028  1.00  0.00    -0.259 OA
BRANCH  30  31
HETATM   31  C11 UNL     1       7.498  -0.104   0.358  1.00  0.00     0.158 C 
HETATM   32  N5  UNL     1       7.767   0.126   1.529  1.00  0.00    -0.379 N 
ATOM     33  H52 UNL     1       7.106   0.086   2.305  1.00  0.00     0.158 HD
ATOM     34  H51 UNL     1       8.726   0.380   1.767  1.00  0.00     0.158 HD
BRANCH  31  35
HETATM   35  C12 UNL     1       8.452  -0.046  -0.763  1.00  0.00     0.057 A 
HETATM   36  C13 UNL     1       8.120  -0.270  -2.090  1.00  0.00     0.043 A 
HETATM   37  C14 UNL     1       9.253  -0.107  -2.832  1.00  0.00     0.144 A 
HETATM   38  O5  UNL     1      10.216   0.196  -2.022  1.00  0.00    -0.315 OA
HETATM   39  C15 UNL     1       9.774   0.246  -0.740  1.00  0.00     0.165 A 
BRANCH  39  40
HETATM   40  C16 UNL     1      10.651   0.556   0.333  1.00  0.00     0.235 C 
HETATM   41  O6  UNL     1      11.877   0.807   0.016  1.00  0.00    -0.642 OA
HETATM   42  O7  UNL     1      10.375   0.626   1.671  1.00  0.00    -0.642 OA
ENDBRANCH  39  40
ENDBRANCH  31  35
ENDBRANCH  30  31
ENDBRANCH  28  30
ENDBRANCH  26  28
ENDBRANCH  24  26
ENDBRANCH  21  22
ENDBRANCH  20  21
ENDBRANCH   6  20
BRANCH   7  43
HETATM   43  N6  UNL     1      -3.408  -1.304   1.247  1.00  0.00    -0.322 N 
ATOM     44  H6  UNL     1      -4.097  -1.504   1.972  1.00  0.00     0.174 HD
BRANCH  43  45
HETATM   45  S2  UNL     1      -2.624  -2.598   0.383  1.00  0.00    -0.012 SA
BRANCH  45  46
HETATM   46  C18 UNL     1      -3.763  -3.631  -0.514  1.00  0.00     0.048 A 
HETATM   47  C19 UNL     1      -4.199  -3.518  -1.822  1.00  0.00     0.165 A 
HETATM   48  O8  UNL     1      -5.035  -4.482  -2.083  1.00  0.00    -0.299 OA
HETATM   49  C20 UNL     1      -5.217  -5.269  -1.043  1.00  0.00     0.183 A 
HETATM   50  C21 UNL     1      -4.431  -4.763  -0.035  1.00  0.00     0.086 A 
BRANCH  49  51
HETATM   51  O9  UNL     1      -6.048  -6.380  -1.010  1.00  0.00    -0.341 OA
ATOM     52  H9  UNL     1      -6.179  -6.948  -0.260  1.00  0.00     0.220 HD
ENDBRANCH  49  51
ENDBRANCH  45  46
ENDBRANCH  43  45
ENDBRANCH   7  43
BRANCH   1  53
HETATM   53  N1  UNL     1      -4.282   3.041  -0.912  1.00  0.00    -0.323 N 
HETATM   54  C2  UNL     1      -5.139   4.008  -0.300  1.00  0.00     0.218 C 
HETATM   55  C1  UNL     1      -5.921   5.008  -1.063  1.00  0.00     0.117 C 
HETATM   56  O1  UNL     1      -5.229   4.002   0.964  1.00  0.00    -0.274 OA
ATOM     57  H1  UNL     1      -4.193   3.026  -1.928  1.00  0.00     0.169 HD
ENDBRANCH   1  53
TORSDOF 14
