REMARK  4 active torsions:
REMARK  status: ('A' for Active; 'I' for Inactive)
REMARK    1  A    between atoms: C2_5  and  O3_6 
REMARK    2  A    between atoms: O3_6  and  C3_7 
REMARK    3  A    between atoms: C4_8  and  O4_9 
REMARK    4  A    between atoms: C7_13  and  O5_14 
ROOT
HETATM    1  C3  UNL     1      -0.498  -0.433   0.193  1.00  0.00     0.182 C 
HETATM    2  C4  UNL     1      -1.281   0.640  -0.537  1.00  0.00     0.149 C 
HETATM    3  C5  UNL     1      -2.339   1.040   0.500  1.00  0.00     0.037 C 
HETATM    4  C6  UNL     1      -2.707  -0.347   1.023  1.00  0.00     0.037 C 
HETATM    5  C7  UNL     1      -1.329  -0.893   1.343  1.00  0.00     0.149 C 
ENDROOT
BRANCH   1   6
HETATM    6  O3  UNL     1       0.715   0.099   0.504  1.00  0.00    -0.347 OA
BRANCH   6   7
HETATM    7  C2  UNL     1       1.815  -0.488  -0.084  1.00  0.00     0.304 C 
HETATM    8  C1  UNL     1       2.551   0.543  -0.821  1.00  0.00     0.252 C 
HETATM    9  O2  UNL     1       3.905   0.329  -0.793  1.00  0.00    -0.269 OA
HETATM   10  S1  UNL     1       4.175  -0.459   0.696  1.00  0.00     0.308 S 
HETATM   11  O1  UNL     1       4.578   0.557   1.777  1.00  0.00    -0.196 OA
HETATM   12  O6  UNL     1       2.587  -1.000   0.951  1.00  0.00    -0.239 OA
ENDBRANCH   6   7
ENDBRANCH   1   6
BRANCH   2  13
HETATM   13  O4  UNL     1      -0.511   1.728  -0.882  1.00  0.00    -0.393 OA
ATOM     14  H4  UNL     1      -1.002   2.401  -1.340  1.00  0.00     0.210 HD
ENDBRANCH   2  13
BRANCH   5  15
HETATM   15  O5  UNL     1      -1.449  -2.285   1.394  1.00  0.00    -0.393 OA
ATOM     16  H5  UNL     1      -1.978  -2.578   2.126  1.00  0.00     0.210 HD
ENDBRANCH   5  15
TORSDOF 4
