REMARK  5 active torsions:
REMARK  status: ('A' for Active; 'I' for Inactive)
REMARK    1  A    between atoms: C2_2  and  C3_3 
REMARK    2  A    between atoms: C3_3  and  C4_4 
REMARK    3  A    between atoms: C4_4  and  O1_5 
REMARK    4  A    between atoms: C8_11  and  O3_13 
REMARK    5  A    between atoms: C13_18  and  O4_19 
ROOT
HETATM    1  C3  UNL     1      -1.790   0.101  -0.115  1.00  0.00     0.108 C 
HETATM    2  O2  UNL     1      -0.696   0.512   0.606  1.00  0.00    -0.369 OA
HETATM    3  C5  UNL     1       0.297   0.887  -0.292  1.00  0.00     0.140 C 
HETATM    4  C6  UNL     1       0.196  -0.188  -1.352  1.00  0.00     0.050 C 
HETATM    5  C7  UNL     1       0.954  -1.324  -0.739  1.00  0.00     0.048 C 
HETATM    6  C8  UNL     1       2.201  -0.621  -0.216  1.00  0.00     0.064 C 
HETATM    7  C9  UNL     1       2.896  -1.431   0.842  1.00  0.00     0.046 C 
HETATM    8  C10 UNL     1       1.686   0.686   0.269  1.00  0.00     0.010 C 
HETATM    9  C11 UNL     1       2.585   1.784  -0.316  1.00  0.00     0.020 C 
HETATM   10  C12 UNL     1       1.701   0.855   1.752  1.00  0.00     0.020 C 
HETATM   11  C13 UNL     1      -1.280  -0.413  -1.445  1.00  0.00     0.161 C 
ENDROOT
BRANCH   1  12
HETATM   12  C2  UNL     1      -2.530  -1.038   0.546  1.00  0.00     0.038 C 
HETATM   13  C1  UNL     1      -3.139  -0.643   1.859  1.00  0.00     0.008 C 
ENDBRANCH   1  12
BRANCH   1  14
HETATM   14  C4  UNL     1      -2.793   1.218  -0.350  1.00  0.00     0.204 C 
BRANCH  14  15
HETATM   15  O1  UNL     1      -2.251   2.284  -1.051  1.00  0.00    -0.398 OA
ATOM     16  H1  UNL     1      -2.878   2.982  -1.198  1.00  0.00     0.209 HD
ENDBRANCH  14  15
ENDBRANCH   1  14
BRANCH  11  17
HETATM   17  O4  UNL     1      -1.648  -1.706  -1.711  1.00  0.00    -0.392 OA
ATOM     18  H4  UNL     1      -1.328  -2.028  -2.545  1.00  0.00     0.210 HD
ENDBRANCH  11  17
BRANCH   6  19
HETATM   19  O3  UNL     1       3.059  -0.481  -1.302  1.00  0.00    -0.389 OA
ATOM     20  H3  UNL     1       3.836  -0.043  -0.976  1.00  0.00     0.210 HD
ENDBRANCH   6  19
TORSDOF 5
