REMARK  8 active torsions:
REMARK  status: ('A' for Active; 'I' for Inactive)
REMARK    1  A    between atoms: N1_1  and  C1_4 
REMARK    2  A    between atoms: C3_8  and  C4_9 
REMARK    3  A    between atoms: N3_10  and  C5_11 
REMARK    4  A    between atoms: C5_11  and  O1_12 
REMARK    5  A    between atoms: N5_17  and  O2_18 
REMARK    6  A    between atoms: C7_22  and  N7_23 
REMARK    7  A    between atoms: C8_28  and  C9_29 
REMARK    8  A    between atoms: C10_32  and  N11_33 
ROOT
HETATM    1  C1  UNL     1       0.138  -1.492  -1.477  1.00  0.00     0.145 A 
HETATM    2  N2  UNL     1      -1.125  -1.948  -1.560  1.00  0.00    -0.347 N 
ATOM      3  H2  UNL     1      -1.380  -2.646  -2.258  1.00  0.00     0.167 HD
HETATM    4  C2  UNL     1      -2.052  -1.462  -0.698  1.00  0.00     0.123 A 
HETATM    5  C3  UNL     1      -1.750  -0.520   0.260  1.00  0.00     0.098 A 
HETATM    6  N6  UNL     1      -0.481  -0.079   0.324  1.00  0.00    -0.334 N 
ATOM      7  H6  UNL     1      -0.224   0.619   1.022  1.00  0.00     0.168 HD
HETATM    8  C7  UNL     1       0.456  -0.550  -0.525  1.00  0.00     0.175 A 
ENDROOT
BRANCH   8   9
HETATM    9  N7  UNL     1       1.803  -0.074  -0.449  1.00  0.00    -0.203 N 
HETATM   10  N8  UNL     1       2.222   0.955  -1.161  1.00  0.00    -0.232 N 
HETATM   11  N9  UNL     1       3.492   1.129  -0.859  1.00  0.00    -0.278 N 
ATOM     12  H8  UNL     1       1.670   1.508  -1.817  1.00  0.00     0.209 HD
HETATM   13  C8  UNL     1       3.899   0.211   0.051  1.00  0.00     0.160 A 
ATOM     14  H9  UNL     1       4.088   1.856  -1.256  1.00  0.00     0.189 HD
HETATM   15  C10 UNL     1       2.804  -0.570   0.318  1.00  0.00     0.158 A 
BRANCH  13  16
HETATM   16  C9  UNL     1       5.241   0.105   0.612  1.00  0.00     0.286 C 
HETATM   17  N10 UNL     1       6.228   1.038   0.180  1.00  0.00    -0.056 NA
HETATM   18  O3  UNL     1       5.568  -0.767   1.456  1.00  0.00    -0.269 OA
ENDBRANCH  13  16
BRANCH  15  19
HETATM   19  N11 UNL     1       2.689  -1.561   1.106  1.00  0.00    -0.382 N 
ATOM     20 2H11 UNL     1       1.874  -2.142   1.305  1.00  0.00     0.157 HD
ATOM     21 1H11 UNL     1       3.442  -1.934   1.683  1.00  0.00     0.157 HD
ENDBRANCH  15  19
ENDBRANCH   8   9
BRANCH   1  22
HETATM   22  N1  UNL     1       1.085  -1.895  -2.253  1.00  0.00    -0.382 N 
ATOM     23  H12 UNL     1       0.849  -2.593  -2.958  1.00  0.00     0.157 HD
ATOM     24  H11 UNL     1       2.043  -1.549  -2.190  1.00  0.00     0.157 HD
ENDBRANCH   1  22
BRANCH   5  25
HETATM   25  C4  UNL     1      -2.776  -0.006   1.187  1.00  0.00     0.185 A 
HETATM   26  N3  UNL     1      -3.746   0.869   0.874  1.00  0.00    -0.301 N 
HETATM   27  C6  UNL     1      -4.439   1.047   2.012  1.00  0.00     0.206 A 
HETATM   28  N4  UNL     1      -3.888   0.292   2.978  1.00  0.00    -0.268 N 
HETATM   29  N5  UNL     1      -2.861  -0.365   2.489  1.00  0.00    -0.143 N 
ATOM     30  H4  UNL     1      -4.217   0.238   3.942  1.00  0.00     0.190 HD
BRANCH  26  31
HETATM   31  C5  UNL     1      -3.964   1.465  -0.415  1.00  0.00     0.298 C 
BRANCH  31  32
HETATM   32  O1  UNL     1      -3.262   2.659  -0.557  1.00  0.00    -0.382 OA
ATOM     33  H1  UNL     1      -3.406   3.053  -1.409  1.00  0.00     0.211 HD
ENDBRANCH  31  32
ENDBRANCH  26  31
BRANCH  29  34
HETATM   34  O2  UNL     1      -2.032  -1.244   3.154  1.00  0.00    -0.266 OA
ATOM     35  H2  UNL     1      -2.092  -1.496   4.068  1.00  0.00     0.247 HD
ENDBRANCH  29  34
ENDBRANCH   5  25
TORSDOF 8
