REMARK  6 active torsions:
REMARK  status: ('A' for Active; 'I' for Inactive)
REMARK       I    between atoms: N1_2  and  C2_4 
REMARK    1  A    between atoms: C2_4  and  C3_6 
REMARK    2  A    between atoms: C3_6  and  O2_7 
REMARK    3  A    between atoms: C5_13  and  C6_14 
REMARK    4  A    between atoms: C6_14  and  O3_15 
REMARK    5  A    between atoms: C6_14  and  C7_17 
REMARK    6  A    between atoms: C7_17  and  O4_18 
ROOT
HETATM    1  C3  UNL     1       2.005  -0.002   0.248  1.00  0.00     0.347 C 
HETATM    2  N2  UNL     1       1.932  -0.385   1.603  1.00  0.00    -0.257 N 
ATOM      3  H2  UNL     1       2.573  -0.015   2.305  1.00  0.00     0.183 HD
HETATM    4  N3  UNL     1       0.918  -1.311   1.930  1.00  0.00    -0.029 NA
HETATM    5  N4  UNL     1      -0.167  -0.871   1.172  1.00  0.00    -0.091 NA
HETATM    6  C5  UNL     1       0.163  -1.344  -0.175  1.00  0.00     0.273 C 
HETATM    7  O6  UNL     1       1.329  -0.747  -0.631  1.00  0.00    -0.303 OA
ENDROOT
BRANCH   6   8
HETATM    8  C6  UNL     1      -0.914  -1.014  -1.143  1.00  0.00     0.238 C 
BRANCH   8   9
HETATM    9  O3  UNL     1      -0.616  -1.504  -2.401  1.00  0.00    -0.385 OA
ATOM     10  H3  UNL     1      -1.305  -1.293  -3.020  1.00  0.00     0.210 HD
ENDBRANCH   8   9
BRANCH   8  11
HETATM   11  C7  UNL     1      -2.284  -1.405  -0.707  1.00  0.00     0.245 C 
HETATM   12  O5  UNL     1      -2.590  -0.748   0.496  1.00  0.00    -0.343 OA
HETATM   13  C8  UNL     1      -3.942  -0.737   0.674  1.00  0.00     0.187 C 
HETATM   14  C9  UNL     1      -4.554   0.061  -0.475  1.00  0.00     0.072 C 
HETATM   15  C10 UNL     1      -4.368   1.535  -0.305  1.00  0.00     0.024 C 
HETATM   16  S1  UNL     1      -3.481  -0.614  -1.815  1.00  0.00    -0.093 SA
BRANCH  11  17
HETATM   17  O4  UNL     1      -2.523  -2.757  -0.645  1.00  0.00    -0.355 OA
ATOM     18  H4  UNL     1      -3.397  -3.006  -0.367  1.00  0.00     0.214 HD
ENDBRANCH  11  17
ENDBRANCH   8  11
ENDBRANCH   6   8
BRANCH   1  19
HETATM   19  C2  UNL     1       3.501   0.071  -0.122  1.00  0.00     0.304 C 
HETATM   20  N1  UNL     1       4.162   1.189   0.536  1.00  0.00    -0.359 N 
HETATM   21  C1  UNL     1       5.569   1.315   0.283  1.00  0.00     0.149 C 
ATOM     22  H1  UNL     1       3.658   1.840   1.138  1.00  0.00     0.162 HD
HETATM   23  O1  UNL     1       4.028  -0.736  -0.866  1.00  0.00    -0.265 OA
ENDBRANCH   1  19
BRANCH   1  24
HETATM   24  O2  UNL     1       1.617   1.345   0.033  1.00  0.00    -0.335 OA
HETATM   25  C4  UNL     1       1.924   1.661  -1.305  1.00  0.00     0.208 C 
ENDBRANCH   1  24
TORSDOF 6
