REMARK  10 active torsions:
REMARK  status: ('A' for Active; 'I' for Inactive)
REMARK    1  A    between atoms: N1_1  and  C1_4 
REMARK    2  A    between atoms: N3_7  and  O1_8 
REMARK    3  A    between atoms: C3_11  and  C4_12 
REMARK    4  A    between atoms: C4_12  and  N4_13 
REMARK    5  A    between atoms: C4_12  and  N5_17 
REMARK    6  A    between atoms: C6_22  and  C7_23 
REMARK    7  A    between atoms: C7_23  and  N6_24 
REMARK    8  A    between atoms: C9_31  and  N8_32 
REMARK    9  A    between atoms: N8_32  and  C10_34 
REMARK   10  A    between atoms: C10_34  and  C11_35 
ROOT
HETATM    1  C1  UNL     1      -1.409  -2.954  -0.901  1.00  0.00     0.694 C 
HETATM    2  N2  UNL     1      -0.040  -3.076  -0.961  1.00  0.00    -0.105 N 
ATOM      3  H2  UNL     1       0.322  -4.021  -1.090  1.00  0.00     0.208 HD
HETATM    4  N3  UNL     1       0.861  -2.113  -0.871  1.00  0.00    -0.146 N 
HETATM    5  C2  UNL     1       0.733  -0.915  -0.266  1.00  0.00     0.122 A 
HETATM    6  C3  UNL     1       1.976  -0.457   0.120  1.00  0.00     0.034 A 
HETATM    7  C5  UNL     1       1.877   0.811   0.713  1.00  0.00     0.040 A 
HETATM    8  C6  UNL     1       0.718   1.501   0.890  1.00  0.00     0.036 A 
HETATM    9  N7  UNL     1      -0.422   0.973   0.487  1.00  0.00    -0.353 N 
ATOM     10  H7  UNL     1      -1.290   1.492   0.621  1.00  0.00     0.166 HD
HETATM   11  C8  UNL     1      -0.457  -0.206  -0.082  1.00  0.00     0.109 A 
HETATM   12  C9  UNL     1      -1.737  -0.573  -0.414  1.00  0.00     0.146 C 
HETATM   13  N9  UNL     1      -2.136  -1.822  -0.741  1.00  0.00    -0.174 N 
ATOM     14  H9  UNL     1      -3.139  -1.929  -0.890  1.00  0.00     0.186 HD
ENDROOT
BRANCH   6  15
HETATM   15  C4  UNL     1       3.245  -1.156   0.007  1.00  0.00     0.413 C 
BRANCH  15  16
HETATM   16  N4  UNL     1       4.327  -0.345  -0.577  1.00  0.00    -0.046 N 
ATOM     17  H43 UNL     1       4.044   0.031  -1.482  1.00  0.00     0.277 HD
ATOM     18  H42 UNL     1       4.443   0.525  -0.057  1.00  0.00     0.277 HD
ATOM     19  H41 UNL     1       5.218  -0.836  -0.656  1.00  0.00     0.277 HD
ENDBRANCH  15  16
BRANCH  15  20
HETATM   20  N5  UNL     1       3.756  -0.903   1.436  1.00  0.00    -0.046 N 
ATOM     21  H53 UNL     1       3.795   0.069   1.743  1.00  0.00     0.277 HD
ATOM     22  H52 UNL     1       3.142  -1.189   2.199  1.00  0.00     0.277 HD
ATOM     23  H51 UNL     1       4.647  -1.394   1.357  1.00  0.00     0.277 HD
ENDBRANCH  15  20
ENDBRANCH   6  15
BRANCH   4  24
HETATM   24  O1  UNL     1       2.054  -2.283  -1.445  1.00  0.00    -0.267 OA
ATOM     25  H1  UNL     1       2.702  -1.591  -1.380  1.00  0.00     0.247 HD
ENDBRANCH   4  24
BRANCH   8  26
HETATM   26  C7  UNL     1       0.733   2.859   1.541  1.00  0.00     0.286 C 
BRANCH  26  27
HETATM   27  N6  UNL     1       0.898   3.901   0.555  1.00  0.00    -0.074 N 
ATOM     28  H63 UNL     1       1.728   3.749  -0.019  1.00  0.00     0.274 HD
ATOM     29  H62 UNL     1       0.191   3.842  -0.178  1.00  0.00     0.274 HD
ATOM     30  H61 UNL     1       0.908   4.821   0.996  1.00  0.00     0.274 HD
ENDBRANCH  26  27
ENDBRANCH   8  26
BRANCH  12  31
HETATM   31  N8  UNL     1      -2.601   0.366  -0.403  1.00  0.00    -0.364 N 
ATOM     32  H8  UNL     1      -2.310   1.312  -0.157  1.00  0.00     0.161 HD
BRANCH  31  33
HETATM   33  C10 UNL     1      -3.970   0.114  -0.730  1.00  0.00     0.234 C 
BRANCH  33  34
HETATM   34  C11 UNL     1      -4.768   1.384  -0.659  1.00  0.00     0.191 C 
HETATM   35  O2  UNL     1      -5.998   1.362  -0.916  1.00  0.00    -0.647 OA
HETATM   36  O3  UNL     1      -4.203   2.599  -0.320  1.00  0.00    -0.647 OA
ENDBRANCH  33  34
ENDBRANCH  31  33
ENDBRANCH  12  31
BRANCH   1  37
HETATM   37  N1  UNL     1      -2.130  -4.009  -1.005  1.00  0.00    -0.233 N 
ATOM     38  H12 UNL     1      -1.583  -4.861  -1.125  1.00  0.00     0.174 HD
ATOM     39  H11 UNL     1      -3.145  -3.919  -0.961  1.00  0.00     0.174 HD
ENDBRANCH   1  37
TORSDOF 10
