REMARK  2 active torsions:
REMARK  status: ('A' for Active; 'I' for Inactive)
REMARK    1  A    between atoms: C1_1  and  C8_11 
REMARK    2  A    between atoms: N1_2  and  N2_4 
ROOT
HETATM    1  C1  UNL     1      -1.109   0.351   1.070  1.00  0.00     0.085 C 
HETATM    2  N1  UNL     1      -0.189  -0.206   0.349  1.00  0.00    -0.314 N 
ATOM      3  H1  UNL     1      -0.437  -0.702  -0.507  1.00  0.00     0.185 HD
ENDROOT
BRANCH   2   4
HETATM    4  N2  UNL     1       1.140  -0.123   0.750  1.00  0.00    -0.308 N 
HETATM    5  C2  UNL     1       1.816  -1.338   0.974  1.00  0.00     0.083 C 
HETATM    6  C3  UNL     1       3.217  -1.445   0.508  1.00  0.00     0.046 C 
HETATM    7  C4  UNL     1       3.622  -0.759  -0.713  1.00  0.00     0.005 C 
HETATM    8  C5  UNL     1       2.873   0.499  -1.065  1.00  0.00     0.002 C 
HETATM    9  C6  UNL     1       2.912   1.454   0.135  1.00  0.00     0.022 C 
HETATM   10  C7  UNL     1       1.606   1.236   0.868  1.00  0.00     0.147 C 
ENDBRANCH   2   4
BRANCH   1  11
HETATM   11  C8  UNL     1      -2.536   0.283   0.674  1.00  0.00     0.025 C 
HETATM   12  C9  UNL     1      -2.906  -1.080   0.128  1.00  0.00     0.010 C 
HETATM   13  C10 UNL     1      -4.057  -0.818  -0.819  1.00  0.00     0.001 C 
HETATM   14  C11 UNL     1      -4.201   0.666  -0.934  1.00  0.00     0.001 C 
HETATM   15  C12 UNL     1      -2.849   1.183  -0.489  1.00  0.00     0.010 C 
ENDBRANCH   1  11
TORSDOF 2
