REMARK  8 active torsions:
REMARK  status: ('A' for Active; 'I' for Inactive)
REMARK    1  A    between atoms: N5_12  and  C6_13 
REMARK    2  A    between atoms: C7_16  and  C8_17 
REMARK    3  A    between atoms: N10_28  and  C12_29 
REMARK    4  A    between atoms: C12_29  and  C13_30 
REMARK    5  A    between atoms: C13_30  and  C14_31 
REMARK    6  A    between atoms: C14_31  and  C15_32 
REMARK    7  A    between atoms: C15_32  and  N11_33 
REMARK    8  A    between atoms: N11_33  and  S2_35 
ROOT
HETATM    1  C6  UNL     1      -1.880   0.208  -0.388  1.00  0.00     0.705 A 
HETATM    2  N6  UNL     1      -1.705  -0.988   0.201  1.00  0.00    -0.172 N 
ATOM      3  H6  UNL     1      -2.304  -1.371   0.932  1.00  0.00     0.186 HD
HETATM    4  C7  UNL     1      -0.618  -1.611  -0.317  1.00  0.00     0.157 A 
HETATM    5  N10 UNL     1      -0.109  -0.785  -1.245  1.00  0.00    -0.261 N 
HETATM    6  N12 UNL     1      -0.881   0.314  -1.281  1.00  0.00    -0.128 N 
ATOM      7  H12 UNL     1      -0.731   1.113  -1.897  1.00  0.00     0.206 HD
ENDROOT
BRANCH   1   8
HETATM    8  N5  UNL     1      -2.919   1.176  -0.123  1.00  0.00    -0.127 N 
HETATM    9  C2  UNL     1      -2.774   2.202   0.857  1.00  0.00     0.125 A 
HETATM   10  C1  UNL     1      -1.590   3.100   0.529  1.00  0.00     0.064 C 
HETATM   11  C3  UNL     1      -2.588   1.579   2.232  1.00  0.00     0.064 C 
HETATM   12  N1  UNL     1      -3.938   3.032   0.931  1.00  0.00    -0.337 N 
HETATM   13  C4  UNL     1      -5.005   2.927   0.243  1.00  0.00     0.192 A 
ATOM     14  H1  UNL     1      -3.910   3.792   1.610  1.00  0.00     0.164 HD
HETATM   15  N2  UNL     1      -6.107   3.810   0.400  1.00  0.00    -0.063 NA
HETATM   16  N3  UNL     1      -5.105   1.892  -0.719  1.00  0.00    -0.304 N 
HETATM   17  C5  UNL     1      -4.118   1.087  -0.871  1.00  0.00     0.214 A 
ATOM     18  H3  UNL     1      -5.949   1.788  -1.282  1.00  0.00     0.171 HD
HETATM   19  N4  UNL     1      -4.238   0.058  -1.839  1.00  0.00    -0.062 NA
ENDBRANCH   1   8
BRANCH   4  20
HETATM   20  C8  UNL     1      -0.153  -2.929   0.098  1.00  0.00     0.119 A 
HETATM   21  C9  UNL     1      -0.582  -4.074  -0.586  1.00  0.00     0.138 A 
HETATM   22  N7  UNL     1      -1.473  -3.892  -1.690  1.00  0.00    -0.081 NA
HETATM   23  N8  UNL     1      -0.166  -5.297  -0.214  1.00  0.00    -0.321 N 
HETATM   24  C10 UNL     1       0.670  -5.414   0.828  1.00  0.00     0.179 A 
ATOM     25  H8  UNL     1      -0.482  -6.126  -0.718  1.00  0.00     0.169 HD
HETATM   26  S1  UNL     1       1.163  -6.924   1.264  1.00  0.00    -0.040 SA
HETATM   27  N9  UNL     1       1.083  -4.320   1.487  1.00  0.00    -0.299 N 
HETATM   28  C11 UNL     1       0.706  -3.069   1.167  1.00  0.00     0.265 A 
ATOM     29  H9  UNL     1       1.719  -4.444   2.275  1.00  0.00     0.171 HD
HETATM   30  O1  UNL     1       1.099  -2.057   1.791  1.00  0.00    -0.267 OA
ENDBRANCH   4  20
BRANCH   5  31
HETATM   31  C12 UNL     1       1.059  -1.045  -2.057  1.00  0.00     0.151 C 
BRANCH  31  32
HETATM   32  C13 UNL     1       2.330  -0.564  -1.448  1.00  0.00     0.023 C 
BRANCH  32  33
HETATM   33  C14 UNL     1       2.352   0.925  -1.194  1.00  0.00     0.022 C 
BRANCH  33  34
HETATM   34  C15 UNL     1       3.720   1.237  -0.573  1.00  0.00     0.132 C 
BRANCH  34  35
HETATM   35  N11 UNL     1       3.898   0.512   0.663  1.00  0.00    -0.320 N 
ATOM     36  H11 UNL     1       3.218  -0.124   1.079  1.00  0.00     0.172 HD
BRANCH  35  37
HETATM   37  S2  UNL     1       5.442   0.893   1.323  1.00  0.00     0.222 S 
HETATM   38  C16 UNL     1       5.606   2.603   1.703  1.00  0.00     0.185 C 
HETATM   39  O2  UNL     1       5.651   0.086   2.572  1.00  0.00    -0.206 OA
HETATM   40  O3  UNL     1       6.518   0.490   0.357  1.00  0.00    -0.206 OA
ENDBRANCH  35  37
ENDBRANCH  34  35
ENDBRANCH  33  34
ENDBRANCH  32  33
ENDBRANCH  31  32
ENDBRANCH   5  31
TORSDOF 8
