REMARK  11 active torsions:
REMARK  status: ('A' for Active; 'I' for Inactive)
REMARK    1  A    between atoms: C2_3  and  C3_5 
REMARK    2  A    between atoms: C3_5  and  O2_6 
REMARK    3  A    between atoms: C3_5  and  C4_8 
REMARK    4  A    between atoms: C4_8  and  N2_9 
REMARK    5  A    between atoms: C4_8  and  C11_23 
REMARK       I    between atoms: N2_9  and  C5_11 
REMARK    6  A    between atoms: C5_11  and  C6_13 
REMARK    7  A    between atoms: C6_13  and  O4_14 
REMARK    8  A    between atoms: O4_14  and  C7_15 
REMARK    9  A    between atoms: C7_15  and  O5_16 
REMARK   10  A    between atoms: C7_15  and  N3_18 
REMARK   11  A    between atoms: N3_18  and  C8_20 
ROOT
HETATM    1  C1  UNL     1      -3.903   3.070   2.062  1.00  0.00     0.233 C 
HETATM    2  N1  UNL     1      -3.445   1.858   2.048  1.00  0.00    -0.393 NA
HETATM    3  C2  UNL     1      -2.939   0.520   2.032  1.00  0.00     0.321 C 
HETATM    4  O1  UNL     1      -2.263   0.068   2.981  1.00  0.00    -0.254 OA
ENDROOT
BRANCH   3   5
HETATM    5  C3  UNL     1      -3.239  -0.337   0.829  1.00  0.00     0.252 C 
BRANCH   5   6
HETATM    6  O2  UNL     1      -3.614   0.564  -0.190  1.00  0.00    -0.383 OA
ATOM      7  H2  UNL     1      -3.803   0.024  -0.948  1.00  0.00     0.210 HD
ENDBRANCH   5   6
BRANCH   5   8
HETATM    8  C4  UNL     1      -2.085  -1.206   0.487  1.00  0.00     0.157 C 
BRANCH   8   9
HETATM    9  N2  UNL     1      -0.830  -0.529   0.203  1.00  0.00    -0.348 N 
HETATM   10  C5  UNL     1      -0.545   0.218  -0.962  1.00  0.00     0.242 C 
HETATM   11  O3  UNL     1      -1.413   0.405  -1.892  1.00  0.00    -0.271 OA
ATOM     12  H2  UNL     1      -0.093  -0.599   0.904  1.00  0.00     0.163 HD
BRANCH  10  13
HETATM   13  C6  UNL     1       0.784   0.814  -1.176  1.00  0.00     0.282 C 
BRANCH  13  14
HETATM   14  O4  UNL     1       1.613   0.645  -0.012  1.00  0.00    -0.307 OA
BRANCH  14  15
HETATM   15  C7  UNL     1       2.948   0.995  -0.142  1.00  0.00     0.258 C 
BRANCH  15  16
HETATM   16  O5  UNL     1       3.234   1.453  -1.335  1.00  0.00    -0.327 OA
ATOM     17  H5  UNL     1       4.149   1.693  -1.424  1.00  0.00     0.221 HD
ENDBRANCH  15  16
BRANCH  15  18
HETATM   18  N3  UNL     1       3.963   0.903   0.799  1.00  0.00    -0.347 N 
ATOM     19  H3  UNL     1       3.783   0.574   1.748  1.00  0.00     0.164 HD
BRANCH  18  20
HETATM   20  C8  UNL     1       5.308   1.301   0.365  1.00  0.00     0.077 C 
HETATM   21  C9  UNL     1       6.193   1.653   1.489  1.00  0.00     0.032 C 
HETATM   22  C10 UNL     1       5.928   0.077  -0.337  1.00  0.00     0.032 C 
ENDBRANCH  18  20
ENDBRANCH  15  18
ENDBRANCH  14  15
ENDBRANCH  13  14
ENDBRANCH  10  13
ENDBRANCH   8   9
BRANCH   8  23
HETATM   23  C11 UNL     1      -2.349  -2.008  -0.751  1.00  0.00    -0.033 A 
HETATM   24  C12 UNL     1      -3.621  -2.248  -1.208  1.00  0.00     0.009 A 
HETATM   25  C13 UNL     1      -3.862  -2.964  -2.407  1.00  0.00     0.001 A 
HETATM   26  C14 UNL     1      -2.807  -3.401  -3.085  1.00  0.00     0.000 A 
HETATM   27  C15 UNL     1      -1.516  -3.208  -2.714  1.00  0.00     0.001 A 
HETATM   28  C16 UNL     1      -1.301  -2.485  -1.501  1.00  0.00     0.009 A 
ENDBRANCH   8  23
ENDBRANCH   5   8
ENDBRANCH   3   5
TORSDOF 10
