REMARK  3 active torsions:
REMARK  status: ('A' for Active; 'I' for Inactive)
REMARK    1  A    between atoms: C2_2  and  C3_3 
REMARK    2  A    between atoms: C3_3  and  N1_4 
REMARK    3  A    between atoms: C3_3  and  C4_8 
ROOT
HETATM    1  C4  UNL     1      -0.812  -0.440   0.220  1.00  0.00     0.232 C 
HETATM    2  N2  UNL     1      -0.781  -1.598   1.135  1.00  0.00    -0.067 N 
ATOM      3  H21 UNL     1      -0.929  -2.550   0.801  1.00  0.00     0.277 HD
ATOM      4  H22 UNL     1      -1.520  -1.762   1.818  1.00  0.00     0.277 HD
HETATM    5  C5  UNL     1       0.551  -1.116   1.536  1.00  0.00     0.247 C 
HETATM    6  C6  UNL     1       0.655  -0.528   0.154  1.00  0.00     0.045 C 
HETATM    7  C7  UNL     1       1.106  -1.580  -0.838  1.00  0.00     0.016 C 
HETATM    8  C8  UNL     1       1.926  -0.769  -1.808  1.00  0.00     0.004 C 
HETATM    9  C9  UNL     1       2.649   0.204  -0.902  1.00  0.00     0.038 C 
HETATM   10  C10 UNL     1       1.476   0.677  -0.026  1.00  0.00     0.182 C 
HETATM   11  F1  UNL     1       1.992   1.219   1.119  1.00  0.00    -0.248 F 
ENDROOT
BRANCH   1  12
HETATM   12  C3  UNL     1      -1.443   0.704   0.950  1.00  0.00     0.236 C 
BRANCH  12  13
HETATM   13  C2  UNL     1      -1.533   1.944   0.121  1.00  0.00    -0.003 C 
HETATM   14  C1  UNL     1      -2.437   2.115  -0.819  1.00  0.00     0.009 C 
ENDBRANCH  12  13
BRANCH  12  15
HETATM   15  N1  UNL     1      -2.844   0.305   1.192  1.00  0.00    -0.070 N 
ATOM     16  H13 UNL     1      -3.417   1.039   1.607  1.00  0.00     0.275 HD
ATOM     17  H12 UNL     1      -3.395   0.194   0.341  1.00  0.00     0.275 HD
ATOM     18  H11 UNL     1      -2.783  -0.541   1.758  1.00  0.00     0.275 HD
ENDBRANCH  12  15
ENDBRANCH   1  12
TORSDOF 3
