REMARK  7 active torsions:
REMARK  status: ('A' for Active; 'I' for Inactive)
REMARK    1  A    between atoms: C2_2  and  C3_3 
REMARK    2  A    between atoms: C3_3  and  C5_5 
REMARK    3  A    between atoms: C6_6  and  O1_7 
REMARK    4  A    between atoms: C11_13  and  O2_14 
REMARK    5  A    between atoms: C13_17  and  C14_18 
REMARK    6  A    between atoms: C14_18  and  O4_19 
REMARK    7  A    between atoms: C18_24  and  O5_26 
ROOT
HETATM    1  C5  UNL     1       3.044  -0.290  -0.086  1.00  0.00     0.013 A 
HETATM    2  C6  UNL     1       1.906  -1.083   0.216  1.00  0.00     0.084 A 
HETATM    3  C7  UNL     1       0.639  -0.564   0.166  1.00  0.00     0.012 A 
HETATM    4  C8  UNL     1       0.407   0.747  -0.178  1.00  0.00     0.087 A 
HETATM    5  C9  UNL     1       1.512   1.505  -0.471  1.00  0.00     0.006 A 
HETATM    6  C10 UNL     1       1.317   2.932  -0.848  1.00  0.00     0.054 C 
HETATM    7  C11 UNL     1       2.825   1.009  -0.432  1.00  0.00     0.086 A 
HETATM    8  O3  UNL     1      -0.982   0.991  -0.140  1.00  0.00    -0.341 OA
HETATM    9  C13 UNL     1      -1.550  -0.281  -0.489  1.00  0.00     0.167 C 
HETATM   10  C21 UNL     1      -0.720  -1.166   0.429  1.00  0.00     0.080 C 
ENDROOT
BRANCH   9  11
HETATM   11  C14 UNL     1      -3.016  -0.370  -0.257  1.00  0.00     0.087 C 
HETATM   12  C15 UNL     1      -3.729   0.605  -1.148  1.00  0.00     0.041 C 
HETATM   13  C16 UNL     1      -5.216   0.559  -0.964  1.00  0.00     0.006 C 
HETATM   14  C17 UNL     1      -5.594   0.682   0.473  1.00  0.00     0.037 C 
HETATM   15  C18 UNL     1      -4.908  -0.389   1.302  1.00  0.00     0.057 C 
HETATM   16  C19 UNL     1      -5.404  -1.774   0.981  1.00  0.00     0.045 C 
HETATM   17  C20 UNL     1      -3.395  -0.264   1.198  1.00  0.00     0.077 C 
BRANCH  11  18
HETATM   18  O4  UNL     1      -3.401  -1.668  -0.673  1.00  0.00    -0.387 OA
ATOM     19  H4  UNL     1      -4.338  -1.725  -0.525  1.00  0.00     0.210 HD
ENDBRANCH  11  18
BRANCH  15  20
HETATM   20  O5  UNL     1      -5.233  -0.135   2.639  1.00  0.00    -0.390 OA
ATOM     21  H5  UNL     1      -4.804  -0.805   3.158  1.00  0.00     0.210 HD
ENDBRANCH  15  20
ENDBRANCH   9  11
BRANCH   2  22
HETATM   22  O1  UNL     1       2.041  -2.417   0.570  1.00  0.00    -0.359 OA
ATOM     23  H1  UNL     1       1.279  -2.948   0.772  1.00  0.00     0.217 HD
ENDBRANCH   2  22
BRANCH   7  24
HETATM   24  O2  UNL     1       3.837   1.927  -0.775  1.00  0.00    -0.355 OA
HETATM   25  C12 UNL     1       4.185   2.139  -2.139  1.00  0.00     0.210 C 
ENDBRANCH   7  24
BRANCH   1  26
HETATM   26  C3  UNL     1       4.308  -0.964   0.050  1.00  0.00     0.020 C 
HETATM   27  C4  UNL     1       4.313  -1.704   1.417  1.00  0.00     0.015 C 
BRANCH  26  28
HETATM   28  C2  UNL     1       5.595  -0.256  -0.010  1.00  0.00     0.005 C 
HETATM   29  C1  UNL     1       5.852   0.749   1.093  1.00  0.00     0.006 C 
ENDBRANCH  26  28
ENDBRANCH   1  26
TORSDOF 7
