REMARK  14 active torsions:
REMARK  status: ('A' for Active; 'I' for Inactive)
REMARK    1  A    between atoms: O1_1  and  C1_3 
REMARK    2  A    between atoms: C1_3  and  N1_4 
REMARK    3  A    between atoms: C1_3  and  C5_17 
REMARK    4  A    between atoms: N1_4  and  C2_6 
REMARK    5  A    between atoms: C3_13  and  C4_14 
REMARK    6  A    between atoms: C4_14  and  O2_15 
REMARK    7  A    between atoms: C8_20  and  N5_21 
REMARK    8  A    between atoms: C9_25  and  C10_26 
REMARK    9  A    between atoms: C14_35  and  N10_36 
REMARK   10  A    between atoms: N10_36  and  C15_38 
REMARK   11  A    between atoms: C15_38  and  C16_39 
REMARK   12  A    between atoms: C16_39  and  O3_40 
REMARK   13  A    between atoms: C16_39  and  C17_42 
REMARK   14  A    between atoms: C17_42  and  O4_43 
ROOT
HETATM    1  C5  UNL     1       1.763  -2.211   0.563  1.00  0.00     0.084 A 
HETATM    2  C6  UNL     1       1.065  -1.056   0.765  1.00  0.00     0.051 A 
HETATM    3  C7  UNL     1      -0.316  -1.016   0.540  1.00  0.00     0.043 A 
HETATM    4  C8  UNL     1      -1.043   0.146   0.737  1.00  0.00     0.171 A 
HETATM    5  N9  UNL     1      -2.364   0.134   0.509  1.00  0.00    -0.173 N 
ATOM      6  H9  UNL     1      -2.896   0.992   0.655  1.00  0.00     0.186 HD
HETATM    7  C14 UNL     1      -3.023  -0.985   0.088  1.00  0.00     0.680 A 
HETATM    8  N11 UNL     1      -2.339  -2.123  -0.110  1.00  0.00    -0.190 N 
ATOM      9  H11 UNL     1      -2.817  -2.968  -0.425  1.00  0.00     0.184 HD
HETATM   10  C18 UNL     1      -1.005  -2.130   0.115  1.00  0.00     0.078 A 
HETATM   11  C19 UNL     1      -0.272  -3.281  -0.077  1.00  0.00     0.119 A 
HETATM   12  N12 UNL     1       1.048  -3.307   0.139  1.00  0.00    -0.360 N 
ATOM     13  H12 UNL     1       1.548  -4.182  -0.018  1.00  0.00     0.165 HD
ENDROOT
BRANCH   1  14
HETATM   14  C1  UNL     1       3.196  -2.364   0.712  1.00  0.00     0.169 C 
BRANCH  14  15
HETATM   15  O1  UNL     1       3.603  -3.461   1.311  1.00  0.00    -0.344 OA
ATOM     16  H1  UNL     1       2.900  -4.039   1.585  1.00  0.00     0.219 HD
ENDBRANCH  14  15
BRANCH  14  17
HETATM   17  N1  UNL     1       4.220  -1.522   0.313  1.00  0.00    -0.319 N 
ATOM     18  H1  UNL     1       5.149  -1.799   0.630  1.00  0.00     0.169 HD
BRANCH  17  19
HETATM   19  C2  UNL     1       4.187  -0.342  -0.461  1.00  0.00     0.149 A 
HETATM   20  N2  UNL     1       3.196   0.255  -1.128  1.00  0.00    -0.269 N 
HETATM   21  N3  UNL     1       3.625   1.324  -1.775  1.00  0.00    -0.241 N 
ATOM     22  H2  UNL     1       2.230  -0.073  -1.137  1.00  0.00     0.190 HD
HETATM   23  N4  UNL     1       4.915   1.452  -1.544  1.00  0.00    -0.285 N 
ATOM     24  H3  UNL     1       3.056   1.943  -2.353  1.00  0.00     0.208 HD
HETATM   25  C3  UNL     1       5.309   0.453  -0.742  1.00  0.00     0.096 A 
ATOM     26  H4  UNL     1       5.515   2.189  -1.914  1.00  0.00     0.188 HD
BRANCH  25  27
HETATM   27  C4  UNL     1       6.676   0.199  -0.220  1.00  0.00     0.226 C 
BRANCH  27  28
HETATM   28  O2  UNL     1       7.579   1.157  -0.672  1.00  0.00    -0.395 OA
ATOM     29  H2  UNL     1       8.453   0.995  -0.338  1.00  0.00     0.209 HD
ENDBRANCH  27  28
ENDBRANCH  25  27
ENDBRANCH  17  19
ENDBRANCH  14  17
ENDBRANCH   1  14
BRANCH   4  30
HETATM   30  N5  UNL     1      -0.392   1.331   1.176  1.00  0.00    -0.160 N 
HETATM   31  N6  UNL     1      -0.063   1.546   2.439  1.00  0.00     0.004 NA
HETATM   32  N7  UNL     1       0.522   2.730   2.513  1.00  0.00    -0.266 N 
HETATM   33  C9  UNL     1       0.573   3.284   1.299  1.00  0.00     0.145 A 
ATOM     34  H7  UNL     1       0.880   3.156   3.368  1.00  0.00     0.186 HD
HETATM   35  N8  UNL     1      -0.004   2.391   0.484  1.00  0.00    -0.262 N 
ATOM     36  H8  UNL     1      -0.126   2.510  -0.522  1.00  0.00     0.190 HD
BRANCH  33  37
HETATM   37  C10 UNL     1       1.146   4.609   0.924  1.00  0.00     0.017 A 
HETATM   38  C11 UNL     1       1.150   5.084  -0.340  1.00  0.00     0.023 A 
HETATM   39  C12 UNL     1       1.708   6.316  -0.547  1.00  0.00     0.050 A 
HETATM   40  S1  UNL     1       2.210   6.780   1.008  1.00  0.00    -0.113 SA
HETATM   41  C13 UNL     1       1.706   5.412   1.886  1.00  0.00     0.065 A 
ENDBRANCH  33  37
ENDBRANCH   4  30
BRANCH   7  42
HETATM   42  N10 UNL     1      -4.293  -0.882  -0.101  1.00  0.00    -0.223 N 
ATOM     43  H10 UNL     1      -4.756   0.011   0.066  1.00  0.00     0.177 HD
BRANCH  42  44
HETATM   44  C15 UNL     1      -5.067  -2.012  -0.545  1.00  0.00     0.172 C 
BRANCH  44  45
HETATM   45  C16 UNL     1      -6.558  -1.797  -0.290  1.00  0.00     0.160 C 
BRANCH  45  46
HETATM   46  O3  UNL     1      -7.049  -0.689  -0.946  1.00  0.00    -0.392 OA
ATOM     47  H3  UNL     1      -7.976  -0.555  -0.787  1.00  0.00     0.210 HD
ENDBRANCH  45  46
BRANCH  45  48
HETATM   48  C17 UNL     1      -7.256  -3.017  -0.899  1.00  0.00     0.197 C 
BRANCH  48  49
HETATM   49  O4  UNL     1      -6.830  -4.196  -0.305  1.00  0.00    -0.398 OA
ATOM     50  H4  UNL     1      -7.263  -4.953  -0.683  1.00  0.00     0.209 HD
ENDBRANCH  48  49
ENDBRANCH  45  48
ENDBRANCH  44  45
ENDBRANCH  42  44
ENDBRANCH   7  42
TORSDOF 14
