REMARK  8 active torsions:
REMARK  status: ('A' for Active; 'I' for Inactive)
REMARK    1  A    between atoms: C2_2  and  C3_4 
REMARK    2  A    between atoms: C13_14  and  O2_15 
REMARK    3  A    between atoms: O2_15  and  C14_16 
REMARK    4  A    between atoms: C14_16  and  C15_17 
REMARK    5  A    between atoms: C16_18  and  C17_19 
REMARK    6  A    between atoms: C17_19  and  N1_20 
REMARK    7  A    between atoms: C20_26  and  C21_27 
REMARK    8  A    between atoms: C21_27  and  O3_28 
ROOT
HETATM    1  C3  UNL     1      -6.864   0.444   0.793  1.00  0.00     0.063 C 
HETATM    2  C4  UNL     1      -6.867  -0.357   2.078  1.00  0.00     0.013 C 
HETATM    3  C5  UNL     1      -5.460  -0.872   2.293  1.00  0.00     0.006 C 
HETATM    4  C6  UNL     1      -4.854  -0.697   0.939  1.00  0.00    -0.001 C 
HETATM    5  C7  UNL     1      -3.387  -0.868   0.852  1.00  0.00    -0.005 C 
HETATM    6  C8  UNL     1      -3.110  -2.354   0.808  1.00  0.00     0.006 C 
HETATM    7  C9  UNL     1      -2.156  -2.734  -0.283  1.00  0.00     0.006 C 
HETATM    8  C10 UNL     1      -1.003  -1.755  -0.208  1.00  0.00     0.000 C 
HETATM    9  C11 UNL     1       0.257  -2.247  -0.814  1.00  0.00     0.015 C 
HETATM   10  C12 UNL     1       0.767  -3.399   0.064  1.00  0.00     0.013 C 
HETATM   11  C13 UNL     1       1.309  -1.192  -0.796  1.00  0.00     0.126 C 
HETATM   12  C23 UNL     1       0.854   0.200  -1.061  1.00  0.00     0.033 C 
HETATM   13  C24 UNL     1      -0.462   0.574  -0.484  1.00  0.00     0.012 C 
HETATM   14  C25 UNL     1      -1.531  -0.476  -0.826  1.00  0.00    -0.036 C 
HETATM   15  C26 UNL     1      -1.527  -0.555  -2.353  1.00  0.00     0.016 C 
HETATM   16  C27 UNL     1      -2.864  -0.102  -0.312  1.00  0.00    -0.002 C 
HETATM   17  C28 UNL     1      -3.944  -0.061  -1.378  1.00  0.00     0.006 C 
HETATM   18  C29 UNL     1      -5.026   0.903  -0.869  1.00  0.00     0.011 C 
HETATM   19  C30 UNL     1      -5.366   0.669   0.559  1.00  0.00    -0.030 C 
HETATM   20  C31 UNL     1      -4.946   1.745   1.500  1.00  0.00     0.016 C 
ENDROOT
BRANCH  11  21
HETATM   21  O2  UNL     1       2.334  -1.515  -1.682  1.00  0.00    -0.374 OA
BRANCH  21  22
HETATM   22  C14 UNL     1       3.541  -1.781  -1.094  1.00  0.00     0.261 C 
BRANCH  22  23
HETATM   23  C15 UNL     1       4.074  -0.661  -0.321  1.00  0.00    -0.079 C 
HETATM   24  C16 UNL     1       4.533   0.254   0.325  1.00  0.00    -0.074 C 
BRANCH  24  25
HETATM   25  C17 UNL     1       5.078   1.343   1.096  1.00  0.00     0.365 C 
BRANCH  25  26
HETATM   26  N1  UNL     1       6.523   1.335   1.040  1.00  0.00     0.103 N 
HETATM   27  C18 UNL     1       7.052   2.443   1.826  1.00  0.00     0.301 C 
HETATM   28  C19 UNL     1       8.457   2.722   1.348  1.00  0.00     0.263 C 
HETATM   29  N2  UNL     1       9.122   1.515   0.912  1.00  0.00    -0.066 N 
HETATM   30  C20 UNL     1       8.472   0.982  -0.280  1.00  0.00     0.237 C 
ATOM     31  H22 UNL     1      10.121   1.662   0.767  1.00  0.00     0.277 HD
ATOM     32  H21 UNL     1       9.178   0.821   1.657  1.00  0.00     0.277 HD
HETATM   33  C22 UNL     1       7.030   1.492  -0.297  1.00  0.00     0.308 C 
BRANCH  30  34
HETATM   34  C21 UNL     1       8.417  -0.530  -0.109  1.00  0.00     0.199 C 
BRANCH  34  35
HETATM   35  O3  UNL     1       9.669  -1.083   0.020  1.00  0.00    -0.399 OA
ATOM     36  H3  UNL     1       9.635  -2.026   0.127  1.00  0.00     0.209 HD
ENDBRANCH  34  35
ENDBRANCH  30  34
ENDBRANCH  25  26
ENDBRANCH  24  25
ENDBRANCH  22  23
ENDBRANCH  21  22
ENDBRANCH  11  21
BRANCH   1  37
HETATM   37  C2  UNL     1      -7.610   1.697   0.993  1.00  0.00     0.128 C 
HETATM   38  C1  UNL     1      -7.815   2.734  -0.035  1.00  0.00     0.091 C 
HETATM   39  O1  UNL     1      -8.121   1.935   2.099  1.00  0.00    -0.298 OA
ENDBRANCH   1  37
TORSDOF 8
