REMARK  11 active torsions:
REMARK  status: ('A' for Active; 'I' for Inactive)
REMARK    1  A    between atoms: C2_2  and  C3_3 
REMARK    2  A    between atoms: C3_3  and  C4_4 
REMARK    3  A    between atoms: C4_4  and  C5_5 
REMARK    4  A    between atoms: C5_5  and  C6_6 
REMARK    5  A    between atoms: C6_6  and  C7_7 
REMARK    6  A    between atoms: C7_7  and  C8_8 
REMARK    7  A    between atoms: C8_8  and  N1_9 
REMARK    8  A    between atoms: C9_10  and  O1_11 
REMARK    9  A    between atoms: C10_15  and  N3_16 
REMARK   10  A    between atoms: N3_16  and  C11_18 
REMARK   11  A    between atoms: C14_26  and  N6_27 
ROOT
HETATM    1  N1  UNL     1      -1.420  -0.697  -0.364  1.00  0.00    -0.146 N 
HETATM    2  C9  UNL     1      -2.289  -0.945   0.667  1.00  0.00     0.252 A 
HETATM    3  N2  UNL     1      -3.608  -0.721   0.557  1.00  0.00    -0.154 N 
ATOM      4  H2  UNL     1      -4.223  -0.917   1.347  1.00  0.00     0.188 HD
HETATM    5  C10 UNL     1      -4.129  -0.235  -0.598  1.00  0.00     0.697 A 
HETATM    6  N5  UNL     1      -3.292   0.011  -1.612  1.00  0.00    -0.022 N 
ATOM      7  H5  UNL     1      -3.658   0.377  -2.491  1.00  0.00     0.203 HD
HETATM    8  C14 UNL     1      -1.963  -0.220  -1.485  1.00  0.00     0.695 A 
ENDROOT
BRANCH   1   9
HETATM    9  C8  UNL     1      -0.013  -0.963  -0.164  1.00  0.00     0.151 C 
BRANCH   9  10
HETATM   10  C7  UNL     1       0.731   0.239   0.340  1.00  0.00     0.021 C 
BRANCH  10  11
HETATM   11  C6  UNL     1       2.200  -0.027   0.555  1.00  0.00     0.002 C 
BRANCH  11  12
HETATM   12  C5  UNL     1       2.909  -0.451  -0.711  1.00  0.00     0.000 C 
BRANCH  12  13
HETATM   13  C4  UNL     1       4.370  -0.709  -0.484  1.00  0.00     0.000 C 
BRANCH  13  14
HETATM   14  C3  UNL     1       5.114   0.503   0.028  1.00  0.00    -0.000 C 
BRANCH  14  15
HETATM   15  C2  UNL     1       6.573   0.063   0.201  1.00  0.00    -0.005 C 
HETATM   16  C1  UNL     1       7.424   1.188   0.709  1.00  0.00     0.005 C 
ENDBRANCH  14  15
ENDBRANCH  13  14
ENDBRANCH  12  13
ENDBRANCH  11  12
ENDBRANCH  10  11
ENDBRANCH   9  10
ENDBRANCH   1   9
BRANCH   2  17
HETATM   17  O1  UNL     1      -1.824  -1.442   1.877  1.00  0.00    -0.331 OA
ATOM     18  H1  UNL     1      -2.426  -1.614   2.591  1.00  0.00     0.221 HD
ENDBRANCH   2  17
BRANCH   8  19
HETATM   19  N6  UNL     1      -1.226   0.054  -2.491  1.00  0.00    -0.234 N 
ATOM     20  H62 UNL     1      -0.225  -0.120  -2.395  1.00  0.00     0.174 HD
ATOM     21  H61 UNL     1      -1.641   0.419  -3.348  1.00  0.00     0.174 HD
ENDBRANCH   8  19
BRANCH   5  22
HETATM   22  N3  UNL     1      -5.387  -0.005  -0.751  1.00  0.00    -0.204 N 
ATOM     23  H3  UNL     1      -5.711   0.360  -1.647  1.00  0.00     0.179 HD
BRANCH  22  24
HETATM   24  C11 UNL     1      -6.362  -0.243   0.295  1.00  0.00     0.210 C 
HETATM   25  C12 UNL     1      -6.355   0.794   1.398  1.00  0.00     0.150 C 
HETATM   26  C13 UNL     1      -7.771   1.130   1.112  1.00  0.00     0.222 C 
HETATM   27  O2  UNL     1      -8.590   1.880   1.680  1.00  0.00    -0.273 OA
HETATM   28  N4  UNL     1      -7.690   0.249  -0.011  1.00  0.00    -0.339 N 
ATOM     29  H4  UNL     1      -8.342   0.039  -0.767  1.00  0.00     0.164 HD
ENDBRANCH  22  24
ENDBRANCH   5  22
TORSDOF 11
