REMARK  1 active torsions:
REMARK  status: ('A' for Active; 'I' for Inactive)
REMARK    1  A    between atoms: C7_8  and  C8_9 
ROOT
HETATM    1  N1  UNL     1      -6.768  -0.870  -1.682  1.00  0.00    -0.191 NA
HETATM    2  C1  UNL     1      -5.827  -0.467  -1.116  1.00  0.00     0.102 C 
HETATM    3  C2  UNL     1      -4.678   0.040  -0.414  1.00  0.00     0.072 A 
HETATM    4  C3  UNL     1      -4.789   1.126   0.418  1.00  0.00     0.025 A 
HETATM    5  C4  UNL     1      -3.690   1.616   1.092  1.00  0.00     0.003 A 
HETATM    6  C5  UNL     1      -2.490   0.970   0.893  1.00  0.00     0.015 A 
HETATM    7  C6  UNL     1      -2.362  -0.120   0.064  1.00  0.00     0.006 A 
HETATM    8  C7  UNL     1      -1.321  -0.932  -0.333  1.00  0.00     0.017 A 
HETATM    9  C16 UNL     1      -1.818  -1.894  -1.249  1.00  0.00     0.102 A 
HETATM   10  N4  UNL     1      -3.119  -1.654  -1.381  1.00  0.00    -0.363 N 
ATOM     11  H4  UNL     1      -3.751  -2.188  -1.978  1.00  0.00     0.165 HD
HETATM   12  C17 UNL     1      -3.485  -0.609  -0.618  1.00  0.00     0.064 A 
ENDROOT
BRANCH   8  13
HETATM   13  C8  UNL     1       0.048  -0.950   0.126  1.00  0.00     0.050 C 
HETATM   14  N2  UNL     1       0.867  -1.745  -0.556  1.00  0.00    -0.282 N 
HETATM   15  S1  UNL     1       2.562  -1.990  -0.268  1.00  0.00     0.265 S 
ATOM     16  H2  UNL     1       0.456  -2.266  -1.331  1.00  0.00     0.178 HD
HETATM   17  O1  UNL     1       3.181  -2.621  -1.477  1.00  0.00    -0.200 OA
HETATM   18  O2  UNL     1       2.824  -2.768   0.982  1.00  0.00    -0.200 OA
HETATM   19  C9  UNL     1       3.269  -0.366  -0.124  1.00  0.00     0.106 A 
HETATM   20  C10 UNL     1       4.561  -0.303  -0.599  1.00  0.00     0.027 A 
HETATM   21  C14 UNL     1       2.686   0.781   0.380  1.00  0.00     0.051 A 
HETATM   22  C11 UNL     1       5.234   0.903  -0.558  1.00  0.00     0.002 A 
HETATM   23  C12 UNL     1       4.672   2.059  -0.060  1.00  0.00     0.002 A 
HETATM   24  C13 UNL     1       3.381   1.995   0.415  1.00  0.00     0.031 A 
HETATM   25  N3  UNL     1       1.347   0.895   0.922  1.00  0.00    -0.383 N 
HETATM   26  C15 UNL     1       0.500  -0.227   1.303  1.00  0.00     0.178 C 
ATOM     27  H3  UNL     1       0.968   1.834   1.046  1.00  0.00     0.160 HD
ENDBRANCH   8  13
TORSDOF 1
