REMARK  7 active torsions:
REMARK  status: ('A' for Active; 'I' for Inactive)
REMARK    1  A    between atoms: C2_2  and  C4_4 
REMARK    2  A    between atoms: C5_5  and  O1_7 
REMARK    3  A    between atoms: C10_13  and  O2_14 
REMARK    4  A    between atoms: C10_13  and  C11_16 
REMARK    5  A    between atoms: C11_16  and  C12_18 
REMARK    6  A    between atoms: C12_18  and  O4_19 
REMARK    7  A    between atoms: C13_21  and  O5_22 
ROOT
HETATM    1  C4  UNL     1      -1.315  -0.177   0.050  1.00  0.00     0.033 C 
HETATM    2  C5  UNL     1      -1.280  -1.613  -0.454  1.00  0.00     0.072 C 
HETATM    3  C6  UNL     1      -0.898  -2.593   0.630  1.00  0.00     0.047 C 
HETATM    4  C7  UNL     1      -0.424  -1.865  -1.639  1.00  0.00     0.092 C 
HETATM    5 BR1  UNL     1      -0.276  -3.790  -1.869  1.00  0.00    -0.088 Br
HETATM    6  C8  UNL     1       0.929  -1.354  -1.362  1.00  0.00     0.028 C 
HETATM    7  C9  UNL     1       0.941   0.069  -0.897  1.00  0.00     0.040 C 
HETATM    8  C10 UNL     1       2.158   0.242  -0.093  1.00  0.00     0.150 C 
HETATM    9  C13 UNL     1       2.490   1.699   0.149  1.00  0.00     0.161 C 
HETATM   10  C14 UNL     1       1.377   2.517  -0.387  1.00  0.00     0.040 C 
HETATM   11  C15 UNL     1      -0.024   2.035   0.000  1.00  0.00    -0.007 C 
HETATM   12  C16 UNL     1      -0.196   2.333   1.430  1.00  0.00     0.011 C 
HETATM   13  C17 UNL     1      -0.361   0.720  -0.583  1.00  0.00    -0.027 C 
HETATM   14  C18 UNL     1      -1.004   1.059  -1.959  1.00  0.00     0.016 C 
ENDROOT
BRANCH   8  15
HETATM   15  O2  UNL     1       3.203  -0.179  -1.000  1.00  0.00    -0.379 OA
ATOM     16  H2  UNL     1       3.990  -0.067  -0.480  1.00  0.00     0.211 HD
ENDBRANCH   8  15
BRANCH   8  17
HETATM   17  C11 UNL     1       2.412  -0.606   1.081  1.00  0.00     0.187 C 
HETATM   18  O3  UNL     1       1.749  -0.609   2.105  1.00  0.00    -0.292 OA
BRANCH  17  19
HETATM   19  C12 UNL     1       3.532  -1.597   1.195  1.00  0.00     0.245 C 
BRANCH  19  20
HETATM   20  O4  UNL     1       3.552  -2.290   2.384  1.00  0.00    -0.393 OA
ATOM     21  H4  UNL     1       4.261  -2.918   2.456  1.00  0.00     0.209 HD
ENDBRANCH  19  20
ENDBRANCH  17  19
ENDBRANCH   8  17
BRANCH   9  22
HETATM   22  O5  UNL     1       2.861   1.951   1.451  1.00  0.00    -0.392 OA
ATOM     23  H5  UNL     1       3.069   2.865   1.603  1.00  0.00     0.210 HD
ENDBRANCH   9  22
BRANCH   1  24
HETATM   24  C2  UNL     1      -2.757   0.141   0.175  1.00  0.00    -0.015 C 
HETATM   25  C1  UNL     1      -3.521  -0.734   1.161  1.00  0.00     0.010 C 
HETATM   26  C3  UNL     1      -3.267   1.518   0.222  1.00  0.00     0.010 C 
ENDBRANCH   1  24
BRANCH   2  27
HETATM   27  O1  UNL     1      -2.560  -2.057  -0.890  1.00  0.00    -0.389 OA
ATOM     28  H1  UNL     1      -2.538  -2.953  -1.205  1.00  0.00     0.210 HD
ENDBRANCH   2  27
TORSDOF 7
