REMARK  2 active torsions:
REMARK  status: ('A' for Active; 'I' for Inactive)
REMARK    1  A    between atoms: O1_1  and  C1_3 
REMARK    2  A    between atoms: C9_11  and  N1_12 
ROOT
HETATM    1  C1  UNL     1      -2.881  -0.760   0.528  1.00  0.00     0.319 C 
HETATM    2  C2  UNL     1      -2.273  -1.483  -0.645  1.00  0.00     0.063 C 
HETATM    3  C3  UNL     1      -0.798  -1.059  -0.586  1.00  0.00     0.045 C 
HETATM    4  C4  UNL     1      -0.921   0.303   0.024  1.00  0.00     0.149 C 
HETATM    5  C5  UNL     1      -1.587   1.204  -1.006  1.00  0.00     0.041 C 
HETATM    6  C6  UNL     1      -1.380   2.637  -0.546  1.00  0.00     0.003 C 
HETATM    7  C7  UNL     1       0.079   3.007  -0.735  1.00  0.00     0.002 C 
HETATM    8  C8  UNL     1       0.973   1.764  -0.643  1.00  0.00     0.028 C 
HETATM    9  C9  UNL     1       0.361   0.906   0.469  1.00  0.00     0.127 C 
HETATM   10  N4  UNL     1      -1.843   0.034   1.134  1.00  0.00    -0.038 N 
ATOM     11  H41 UNL     1      -1.407  -0.394   1.950  1.00  0.00     0.281 HD
ATOM     12  H42 UNL     1      -2.177   0.868   1.616  1.00  0.00     0.281 HD
ENDROOT
BRANCH   9  13
HETATM   13  N1  UNL     1       1.305  -0.011   1.026  1.00  0.00    -0.333 N 
HETATM   14  C10 UNL     1       1.520  -0.272   2.322  1.00  0.00     0.185 A 
HETATM   15  N2  UNL     1       2.485  -1.189   2.452  1.00  0.00    -0.337 N 
HETATM   16  C11 UNL     1       2.914  -1.540   1.227  1.00  0.00     0.133 A 
ATOM     17  H2  UNL     1       2.837  -1.560   3.334  1.00  0.00     0.168 HD
HETATM   18  N3  UNL     1       3.789  -2.337   0.570  1.00  0.00    -0.350 N 
HETATM   19  C14 UNL     1       2.171  -0.798   0.342  1.00  0.00     0.081 A 
HETATM   20  C12 UNL     1       3.614  -2.114  -0.732  1.00  0.00     0.092 A 
ATOM     21  H3  UNL     1       4.455  -2.985   0.991  1.00  0.00     0.166 HD
HETATM   22  C13 UNL     1       2.632  -1.179  -0.902  1.00  0.00     0.050 A 
ENDBRANCH   9  13
BRANCH   1  23
HETATM   23  O1  UNL     1      -3.426  -1.661   1.470  1.00  0.00    -0.370 OA
ATOM     24  H1  UNL     1      -3.810  -1.205   2.210  1.00  0.00     0.212 HD
ENDBRANCH   1  23
TORSDOF 2
