REMARK  4 active torsions:
REMARK  status: ('A' for Active; 'I' for Inactive)
REMARK    1  A    between atoms: C2_5  and  N2_6 
REMARK    2  A    between atoms: N2_6  and  C3_8 
REMARK    3  A    between atoms: C6_16  and  C7_17 
REMARK    4  A    between atoms: C8_18  and  C9_19 
ROOT
HETATM    1  O1  UNL     1      -5.015   3.891   0.489  1.00  0.00    -0.247 OA
HETATM    2  C1  UNL     1      -3.951   3.253   0.399  1.00  0.00     0.328 A 
HETATM    3  N1  UNL     1      -3.911   1.957   0.733  1.00  0.00    -0.293 N 
ATOM      4  H1  UNL     1      -4.746   1.473   1.064  1.00  0.00     0.172 HD
HETATM    5  C2  UNL     1      -2.717   1.303   0.616  1.00  0.00     0.126 A 
HETATM    6  C6  UNL     1      -1.575   1.922   0.175  1.00  0.00     0.076 A 
HETATM    7  C16 UNL     1      -1.686   3.293  -0.162  1.00  0.00     0.263 A 
HETATM    8  O3  UNL     1      -0.641   3.875  -0.570  1.00  0.00    -0.267 OA
HETATM    9  N6  UNL     1      -2.851   3.889  -0.037  1.00  0.00    -0.275 N 
ATOM     10  H6  UNL     1      -2.923   4.877  -0.282  1.00  0.00     0.173 HD
ENDROOT
BRANCH   6  11
HETATM   11  C7  UNL     1      -0.294   1.278   0.056  1.00  0.00     0.023 C 
HETATM   12  C8  UNL     1       0.102   0.081   0.344  1.00  0.00     0.030 C 
BRANCH  12  13
HETATM   13  C9  UNL     1       1.519  -0.332   0.115  1.00  0.00     0.034 A 
HETATM   14  C10 UNL     1       2.506   0.480  -0.402  1.00  0.00     0.041 A 
HETATM   15  C11 UNL     1       3.654  -0.299  -0.443  1.00  0.00    -0.005 A 
HETATM   16  C12 UNL     1       3.351  -1.551   0.041  1.00  0.00     0.149 A 
HETATM   17  C15 UNL     1       5.018   0.060  -0.909  1.00  0.00     0.045 C 
HETATM   18  N5  UNL     1       2.049  -1.540   0.371  1.00  0.00    -0.337 N 
HETATM   19  O2  UNL     1       4.354  -2.527   0.102  1.00  0.00    -0.335 OA
ATOM     20  H5  UNL     1       1.537  -2.333   0.759  1.00  0.00     0.168 HD
HETATM   21  C13 UNL     1       5.685  -2.066   0.226  1.00  0.00     0.178 C 
HETATM   22  C14 UNL     1       5.942  -1.122  -0.926  1.00  0.00     0.031 C 
ENDBRANCH  12  13
ENDBRANCH   6  11
BRANCH   5  23
HETATM   23  N2  UNL     1      -2.725  -0.089   0.971  1.00  0.00    -0.327 N 
ATOM     24  H2  UNL     1      -2.066  -0.438   1.667  1.00  0.00     0.169 HD
BRANCH  23  25
HETATM   25  C3  UNL     1      -3.569  -0.909   0.409  1.00  0.00     0.124 A 
HETATM   26  C4  UNL     1      -4.529  -0.693  -0.529  1.00  0.00     0.088 A 
HETATM   27  C5  UNL     1      -5.167  -1.899  -0.798  1.00  0.00     0.098 A 
HETATM   28 BR1  UNL     1      -6.600  -2.211  -2.031  1.00  0.00    -0.030 Br
HETATM   29  N3  UNL     1      -4.565  -2.798  -0.010  1.00  0.00    -0.292 N 
HETATM   30  N4  UNL     1      -3.625  -2.222   0.702  1.00  0.00    -0.284 N 
ATOM     31  H3  UNL     1      -4.803  -3.789   0.031  1.00  0.00     0.187 HD
ATOM     32  H4  UNL     1      -3.026  -2.698   1.377  1.00  0.00     0.188 HD
ENDBRANCH  23  25
ENDBRANCH   5  23
TORSDOF 4
