REMARK  9 active torsions:
REMARK  status: ('A' for Active; 'I' for Inactive)
REMARK    1  A    between atoms: C2_2  and  C3_3 
REMARK    2  A    between atoms: C3_3  and  N1_4 
REMARK    3  A    between atoms: C9_12  and  N3_13 
REMARK    4  A    between atoms: N3_13  and  C10_15 
REMARK    5  A    between atoms: C10_15  and  C11_16 
REMARK    6  A    between atoms: C11_16  and  C12_17 
REMARK    7  A    between atoms: C12_17  and  C13_18 
REMARK    8  A    between atoms: C13_18  and  C14_19 
REMARK    9  A    between atoms: C14_19  and  N4_20 
ROOT
HETATM    1  N1  UNL     1      -1.847   2.380  -0.018  1.00  0.00     0.093 N 
HETATM    2  C4  UNL     1      -2.844   1.786   0.819  1.00  0.00     0.277 C 
HETATM    3  C5  UNL     1      -3.269   0.462   0.195  1.00  0.00     0.070 C 
HETATM    4  C6  UNL     1      -2.078  -0.350  -0.032  1.00  0.00    -0.036 A 
HETATM    5  C7  UNL     1      -2.241  -1.721  -0.245  1.00  0.00    -0.029 A 
HETATM    6  C8  UNL     1      -1.123  -2.496  -0.447  1.00  0.00     0.017 A 
HETATM    7  N2  UNL     1       0.090  -1.952  -0.437  1.00  0.00    -0.345 N 
ATOM      8  H2  UNL     1       0.894  -2.561  -0.589  1.00  0.00     0.167 HD
HETATM    9  C9  UNL     1       0.319  -0.603  -0.231  1.00  0.00     0.110 A 
HETATM   10  C15 UNL     1      -0.817   0.202  -0.026  1.00  0.00     0.021 A 
HETATM   11  C16 UNL     1      -0.606   1.648   0.172  1.00  0.00     0.315 C 
HETATM   12  C17 UNL     1      -1.042  -3.963  -0.698  1.00  0.00     0.057 C 
HETATM   13  C18 UNL     1      -1.867  -4.753   0.264  1.00  0.00     0.006 C 
HETATM   14  C19 UNL     1      -3.308  -4.391   0.336  1.00  0.00     0.001 C 
HETATM   15  C20 UNL     1      -3.800  -3.490  -0.753  1.00  0.00     0.005 C 
HETATM   16  C21 UNL     1      -3.683  -2.057  -0.199  1.00  0.00     0.041 C 
ENDROOT
BRANCH   9  17
HETATM   17  N3  UNL     1       1.485  -0.203  -0.223  1.00  0.00    -0.376 N 
ATOM     18  H3  UNL     1       2.080  -1.016  -0.385  1.00  0.00     0.161 HD
BRANCH  17  19
HETATM   19  C10 UNL     1       2.315   0.879  -0.087  1.00  0.00     0.121 C 
BRANCH  19  20
HETATM   20  C11 UNL     1       3.671   0.399   0.473  1.00  0.00     0.020 C 
BRANCH  20  21
HETATM   21  C12 UNL     1       4.310  -0.598  -0.453  1.00  0.00     0.003 C 
BRANCH  21  22
HETATM   22  C13 UNL     1       5.616  -1.039   0.147  1.00  0.00     0.027 C 
BRANCH  22  23
HETATM   23  C14 UNL     1       6.557   0.108   0.341  1.00  0.00     0.229 C 
BRANCH  23  24
HETATM   24  N4  UNL     1       6.846   0.751  -0.940  1.00  0.00    -0.079 N 
ATOM     25  H43 UNL     1       7.195   0.085  -1.629  1.00  0.00     0.274 HD
ATOM     26  H42 UNL     1       5.994   1.036  -1.423  1.00  0.00     0.274 HD
ATOM     27  H41 UNL     1       7.487   1.533  -0.808  1.00  0.00     0.274 HD
ENDBRANCH  23  24
ENDBRANCH  22  23
ENDBRANCH  21  22
ENDBRANCH  20  21
ENDBRANCH  19  20
ENDBRANCH  17  19
ENDBRANCH   9  17
BRANCH   1  28
HETATM   28  C3  UNL     1      -1.577   3.758   0.256  1.00  0.00     0.272 C 
BRANCH  28  29
HETATM   29  C2  UNL     1      -2.682   4.698  -0.068  1.00  0.00     0.026 C 
HETATM   30  C1  UNL     1      -2.232   6.104   0.283  1.00  0.00     0.007 C 
ENDBRANCH  28  29
ENDBRANCH   1  28
TORSDOF 9
