REMARK  5 active torsions:
REMARK  status: ('A' for Active; 'I' for Inactive)
REMARK    1  A    between atoms: N1_2  and  C2_4 
REMARK    2  A    between atoms: C2_4  and  N2_6 
REMARK    3  A    between atoms: N2_6  and  C3_8 
REMARK    4  A    between atoms: C4_11  and  C5_12 
REMARK    5  A    between atoms: C8_16  and  C9_17 
ROOT
HETATM    1  C3  UNL     1       2.307   0.338   0.525  1.00  0.00     0.151 A 
HETATM    2  N3  UNL     1       1.278   0.760  -0.188  1.00  0.00    -0.335 N 
ATOM      3  H3  UNL     1       1.426   1.205  -1.094  1.00  0.00     0.168 HD
HETATM    4  C4  UNL     1       0.056   0.600   0.285  1.00  0.00     0.058 A 
HETATM    5  C12 UNL     1      -0.058  -0.001   1.501  1.00  0.00     0.084 A 
HETATM    6  S3  UNL     1       1.597  -0.314   1.916  1.00  0.00    -0.063 SA
ENDROOT
BRANCH   4   7
HETATM    7  C5  UNL     1      -1.124   1.124  -0.480  1.00  0.00     0.038 A 
HETATM    8  S2  UNL     1      -1.014   2.399  -1.658  1.00  0.00    -0.099 SA
HETATM    9  C6  UNL     1      -2.654   2.563  -2.041  1.00  0.00     0.051 A 
HETATM   10  C7  UNL     1      -3.243   1.623  -1.245  1.00  0.00     0.016 A 
HETATM   11  C8  UNL     1      -2.439   0.879  -0.438  1.00  0.00    -0.035 A 
BRANCH  11  12
HETATM   12  C9  UNL     1      -3.051  -0.222   0.412  1.00  0.00     0.012 C 
HETATM   13  C10 UNL     1      -4.579  -0.238   0.254  1.00  0.00     0.015 C 
HETATM   14  C11 UNL     1      -2.495  -1.554  -0.073  1.00  0.00     0.015 C 
ENDBRANCH  11  12
ENDBRANCH   4   7
BRANCH   1  15
HETATM   15  N2  UNL     1       3.589   0.415   0.206  1.00  0.00    -0.314 N 
ATOM     16  H2  UNL     1       3.915   0.830  -0.667  1.00  0.00     0.170 HD
BRANCH  15  17
HETATM   17  C2  UNL     1       4.476  -0.126   1.174  1.00  0.00     0.173 C 
HETATM   18  S1  UNL     1       4.212   0.275   2.735  1.00  0.00    -0.041 SA
BRANCH  17  19
HETATM   19  N1  UNL     1       5.551  -0.979   0.821  1.00  0.00    -0.371 N 
HETATM   20  C1  UNL     1       5.758  -1.316  -0.566  1.00  0.00     0.148 C 
ATOM     21  H1  UNL     1       6.172  -1.351   1.540  1.00  0.00     0.161 HD
ENDBRANCH  17  19
ENDBRANCH  15  17
ENDBRANCH   1  15
TORSDOF 5
