REMARK  3 active torsions:
REMARK  status: ('A' for Active; 'I' for Inactive)
REMARK       I    between atoms: C1_4  and  N3_6 
REMARK    1  A    between atoms: N7_19  and  N8_20 
REMARK    2  A    between atoms: C7_22  and  N9_24 
REMARK    3  A    between atoms: N9_24  and  N10_26 
ROOT
HETATM    1  N1  UNL     1       2.142  -1.285   2.160  1.00  0.00    -0.373 N 
ATOM      2  H11 UNL     1       1.232  -1.328   2.619  1.00  0.00     0.158 HD
ATOM      3  H12 UNL     1       3.014  -1.270   2.689  1.00  0.00     0.158 HD
HETATM    4  C1  UNL     1       2.195  -1.239   0.850  1.00  0.00     0.187 C 
HETATM    5  N2  UNL     1       3.469  -1.179   0.207  1.00  0.00    -0.064 NA
HETATM    6  N3  UNL     1       0.993  -1.259   0.120  1.00  0.00    -0.314 N 
ATOM      7  H3  UNL     1       0.597  -2.163  -0.138  1.00  0.00     0.170 HD
HETATM    8  C2  UNL     1       0.379  -0.209  -0.233  1.00  0.00     0.161 A 
HETATM    9  C3  UNL     1       0.888   1.040   0.101  1.00  0.00     0.124 A 
HETATM   10  N4  UNL     1       1.970   1.494   0.766  1.00  0.00    -0.346 N 
ATOM     11  H4  UNL     1       2.691   0.911   1.192  1.00  0.00     0.167 HD
HETATM   12  C4  UNL     1       1.947   2.834   0.778  1.00  0.00     0.182 A 
HETATM   13  N5  UNL     1       0.841   3.210   0.114  1.00  0.00    -0.337 N 
ATOM     14  H5  UNL     1       0.562   4.179  -0.037  1.00  0.00     0.168 HD
HETATM   15  C5  UNL     1       0.153   2.148  -0.324  1.00  0.00     0.138 A 
HETATM   16  N6  UNL     1      -0.991   1.971  -1.022  1.00  0.00    -0.335 N 
ATOM     17  H6  UNL     1      -1.523   2.785  -1.329  1.00  0.00     0.168 HD
HETATM   18  C6  UNL     1      -1.437   0.739  -1.317  1.00  0.00     0.210 A 
HETATM   19  N7  UNL     1      -0.775  -0.361  -0.936  1.00  0.00    -0.231 N 
ENDROOT
BRANCH  19  20
HETATM   20  N8  UNL     1      -1.201  -1.652  -1.220  1.00  0.00    -0.265 N 
HETATM   21  C7  UNL     1      -2.332  -2.138  -0.878  1.00  0.00     0.208 C 
HETATM   22 CL1  UNL     1      -2.681  -3.786  -1.330  1.00  0.00    -0.042 Cl
ATOM     23  H8  UNL     1      -0.564  -2.256  -1.740  1.00  0.00     0.190 HD
BRANCH  21  24
HETATM   24  N9  UNL     1      -3.304  -1.407  -0.156  1.00  0.00    -0.281 N 
ATOM     25  H9  UNL     1      -4.107  -1.047  -0.672  1.00  0.00     0.189 HD
BRANCH  24  26
HETATM   26  N10 UNL     1      -3.241  -1.147   1.200  1.00  0.00    -0.343 N 
ATOM     27 2H10 UNL     1      -2.431  -1.515   1.699  1.00  0.00     0.176 HD
ATOM     28 1H10 UNL     1      -3.942  -0.620   1.721  1.00  0.00     0.176 HD
ENDBRANCH  24  26
ENDBRANCH  21  24
ENDBRANCH  19  20
TORSDOF 3
