REMARK  2 active torsions:
REMARK  status: ('A' for Active; 'I' for Inactive)
REMARK       I    between atoms: C1_2  and  N2_4 
REMARK    1  A    between atoms: N2_4  and  O2_6 
REMARK    2  A    between atoms: O2_6  and  C2_7 
ROOT
HETATM    1  C2  UNL     1       0.790  -0.582   0.119  1.00  0.00     0.314 C 
HETATM    2  C3  UNL     1       0.163  -1.539  -0.864  1.00  0.00     0.183 C 
HETATM    3  N3  UNL     1      -1.235  -1.258  -1.125  1.00  0.00    -0.377 N 
ATOM      4  H3  UNL     1      -1.705  -1.664  -1.934  1.00  0.00     0.160 HD
HETATM    5  C4  UNL     1      -1.936  -0.406  -0.231  1.00  0.00     0.149 A 
HETATM    6  C5  UNL     1      -1.377   0.066   0.939  1.00  0.00     0.181 A 
HETATM    7  N4  UNL     1      -2.091   0.881   1.762  1.00  0.00    -0.287 N 
ATOM      8  H4  UNL     1      -1.657   1.218   2.622  1.00  0.00     0.172 HD
HETATM    9  C6  UNL     1      -3.352   1.257   1.477  1.00  0.00     0.329 A 
HETATM   10  O3  UNL     1      -4.019   2.014   2.239  1.00  0.00    -0.247 OA
HETATM   11  N5  UNL     1      -3.889   0.789   0.330  1.00  0.00    -0.273 N 
ATOM     12  H5  UNL     1      -4.844   1.060   0.094  1.00  0.00     0.173 HD
HETATM   13  C7  UNL     1      -3.225  -0.017  -0.515  1.00  0.00     0.280 A 
HETATM   14  O4  UNL     1      -3.734  -0.454  -1.593  1.00  0.00    -0.265 OA
HETATM   15  O5  UNL     1      -0.089  -0.326   1.218  1.00  0.00    -0.298 OA
ENDROOT
BRANCH   1  16
HETATM   16  O2  UNL     1       1.965  -1.140   0.572  1.00  0.00    -0.242 OA
BRANCH  16  17
HETATM   17  N2  UNL     1       3.054  -0.375   0.474  1.00  0.00    -0.216 N 
HETATM   18  C1  UNL     1       3.545   0.284  -0.671  1.00  0.00     0.352 C 
HETATM   19  N1  UNL     1       4.747   1.082  -0.624  1.00  0.00    -0.038 NA
HETATM   20  O1  UNL     1       3.006   0.243  -1.804  1.00  0.00    -0.249 OA
ATOM     21  H2  UNL     1       3.596  -0.253   1.330  1.00  0.00     0.199 HD
ENDBRANCH  16  17
ENDBRANCH   1  16
TORSDOF 2
