REMARK  7 active torsions:
REMARK  status: ('A' for Active; 'I' for Inactive)
REMARK    1  A    between atoms: C2_2  and  S1_3 
REMARK    2  A    between atoms: S1_3  and  N1_6 
REMARK    3  A    between atoms: N1_6  and  C3_8 
REMARK    4  A    between atoms: N2_16  and  C10_17 
REMARK    5  A    between atoms: C14_21  and  C15_22 
REMARK    6  A    between atoms: C18_25  and  C19_26 
REMARK    7  A    between atoms: C19_26  and  N3_27 
REMARK       I    between atoms: N3_27  and  C22_30 
REMARK       I    between atoms: C22_30  and  N4_32 
ROOT
HETATM    1  C3  UNL     1       3.309   2.013   1.249  1.00  0.00     0.043 A 
HETATM    2  C4  UNL     1       2.197   2.767   1.593  1.00  0.00     0.033 A 
HETATM    3  C5  UNL     1       0.887   2.304   1.432  1.00  0.00     0.040 A 
HETATM    4  C6  UNL     1       0.696   1.042   0.908  1.00  0.00     0.085 A 
HETATM    5  C7  UNL     1       1.792   0.276   0.561  1.00  0.00     0.067 A 
HETATM    6  C8  UNL     1       3.086   0.763   0.732  1.00  0.00     0.050 A 
HETATM    7  C9  UNL     1       1.935  -1.081   0.030  1.00  0.00     0.257 C 
HETATM    8  O3  UNL     1       3.015  -1.273  -0.570  1.00  0.00    -0.267 OA
HETATM    9  N2  UNL     1       1.035  -2.207   0.098  1.00  0.00    -0.344 N 
HETATM   10  C13 UNL     1      -0.400  -2.236   0.207  1.00  0.00     0.134 C 
HETATM   11  C14 UNL     1      -1.136  -1.232  -0.575  1.00  0.00     0.038 C 
HETATM   12  C18 UNL     1      -1.526   0.072  -0.031  1.00  0.00     0.161 C 
HETATM   13  O5  UNL     1      -0.666   0.771   0.825  1.00  0.00    -0.343 OA
ENDROOT
BRANCH  12  14
HETATM   14  C19 UNL     1      -1.979   0.957  -1.183  1.00  0.00     0.281 C 
BRANCH  14  15
HETATM   15  N3  UNL     1      -2.726   2.108  -0.868  1.00  0.00     0.008 N 
HETATM   16  C20 UNL     1      -3.702   2.301  -1.975  1.00  0.00     0.285 C 
HETATM   17  C21 UNL     1      -1.884   3.327  -1.009  1.00  0.00     0.285 C 
HETATM   18  C22 UNL     1      -3.342   2.199   0.373  1.00  0.00     0.415 C 
HETATM   19  O4  UNL     1      -2.794   2.895   1.282  1.00  0.00    -0.239 OA
HETATM   20  N4  UNL     1      -4.552   1.564   0.698  1.00  0.00    -0.337 N 
HETATM   21  C23 UNL     1      -5.066   1.777   2.074  1.00  0.00     0.153 C 
HETATM   22  C24 UNL     1      -5.360   0.730  -0.132  1.00  0.00     0.153 C 
ENDBRANCH  14  15
ENDBRANCH  12  14
BRANCH  11  23
HETATM   23  C15 UNL     1      -2.410  -1.998  -1.048  1.00  0.00    -0.015 C 
HETATM   24  C16 UNL     1      -2.041  -3.170  -1.898  1.00  0.00     0.010 C 
HETATM   25  C17 UNL     1      -3.134  -2.530   0.193  1.00  0.00     0.010 C 
ENDBRANCH  11  23
BRANCH   9  26
HETATM   26  C10 UNL     1       1.755  -3.454   0.092  1.00  0.00     0.079 C 
HETATM   27  C11 UNL     1       1.392  -4.418  -0.981  1.00  0.00     0.032 C 
HETATM   28  C12 UNL     1       1.567  -4.050   1.487  1.00  0.00     0.032 C 
ENDBRANCH   9  26
BRANCH   1  29
HETATM   29  N1  UNL     1       4.589   2.565   1.433  1.00  0.00    -0.285 N 
ATOM     30  H1  UNL     1       4.765   2.971   2.352  1.00  0.00     0.178 HD
BRANCH  29  31
HETATM   31  S1  UNL     1       5.878   2.649   0.339  1.00  0.00     0.230 S 
HETATM   32  O1  UNL     1       5.503   3.545  -0.826  1.00  0.00    -0.206 OA
HETATM   33  O2  UNL     1       7.048   3.346   1.028  1.00  0.00    -0.206 OA
BRANCH  31  34
HETATM   34  C2  UNL     1       6.504   1.105  -0.222  1.00  0.00     0.159 C 
HETATM   35  C1  UNL     1       7.685   1.319  -1.190  1.00  0.00     0.023 C 
ENDBRANCH  31  34
ENDBRANCH  29  31
ENDBRANCH   1  29
TORSDOF 7
