REMARK  12 active torsions:
REMARK  status: ('A' for Active; 'I' for Inactive)
REMARK    1  A    between atoms: S1_2  and  C2_3 
REMARK    2  A    between atoms: C3_4  and  C4_5 
REMARK    3  A    between atoms: C4_5  and  O1_6 
REMARK    4  A    between atoms: C4_5  and  C5_8 
REMARK    5  A    between atoms: N2_12  and  C7_14 
REMARK    6  A    between atoms: C11_24  and  N6_25 
REMARK       I    between atoms: N6_25  and  C12_27 
REMARK    7  A    between atoms: N8_30  and  N9_31 
REMARK    8  A    between atoms: N9_31  and  N10_33 
REMARK    9  A    between atoms: C13_37  and  C14_38 
REMARK   10  A    between atoms: C14_38  and  O4_39 
REMARK   11  A    between atoms: C14_38  and  O5_41 
REMARK   12  A    between atoms: C16_44  and  N11_45 
REMARK       I    between atoms: N11_45  and  C17_47 
REMARK       I    between atoms: C17_47  and  N12_48 
REMARK       I    between atoms: C17_47  and  N13_52 
ROOT
HETATM    1  C5  UNL     1      -0.460  -0.087  -1.377  1.00  0.00     0.144 A 
HETATM    2  N1  UNL     1      -1.116   0.907  -0.770  1.00  0.00    -0.328 N 
ATOM      3  H1  UNL     1      -0.699   1.837  -0.737  1.00  0.00     0.169 HD
HETATM    4  C6  UNL     1      -2.325   0.698  -0.199  1.00  0.00     0.126 A 
HETATM    5  N2  UNL     1      -2.920   1.661   0.371  1.00  0.00    -0.177 N 
ATOM      6  H2  UNL     1      -2.477   2.579   0.389  1.00  0.00     0.186 HD
HETATM    7  C10 UNL     1      -2.892  -0.569  -0.245  1.00  0.00     0.099 A 
HETATM    8  C11 UNL     1      -2.225  -1.585  -0.864  1.00  0.00     0.137 A 
HETATM    9  N8  UNL     1      -1.007  -1.303  -1.420  1.00  0.00    -0.210 N 
ENDROOT
BRANCH   1  10
HETATM   10  C4  UNL     1       0.865   0.213  -1.986  1.00  0.00     0.246 C 
BRANCH  10  11
HETATM   11  C3  UNL     1       1.868   0.505  -0.916  1.00  0.00     0.108 A 
HETATM   12  C2  UNL     1       3.045  -0.209  -0.830  1.00  0.00     0.059 A 
HETATM   13  C16 UNL     1       3.972   0.066   0.166  1.00  0.00     0.052 A 
HETATM   14  C15 UNL     1       3.652   1.079   1.047  1.00  0.00     0.068 A 
HETATM   15  C13 UNL     1       2.459   1.772   0.927  1.00  0.00     0.110 A 
HETATM   16  O3  UNL     1       1.632   1.455  -0.040  1.00  0.00    -0.310 OA
BRANCH  12  17
HETATM   17  S1  UNL     1       3.405  -1.509  -2.002  1.00  0.00    -0.130 SA
HETATM   18  C1  UNL     1       4.279  -0.769  -3.405  1.00  0.00     0.095 C 
ENDBRANCH  12  17
BRANCH  13  19
HETATM   19  N11 UNL     1       5.038  -0.620   0.200  1.00  0.00    -0.340 N 
HETATM   20  C17 UNL     1       6.100  -0.472   1.154  1.00  0.00     0.480 C 
HETATM   21  N12 UNL     1       6.767   0.821   1.044  1.00  0.00    -0.033 N 
HETATM   22  N13 UNL     1       7.103  -1.480   0.866  1.00  0.00    -0.033 N 
ATOM     23 3H12 UNL     1       7.100   0.984   0.094  1.00  0.00     0.278 HD
ATOM     24 2H12 UNL     1       6.098   1.588   1.116  1.00  0.00     0.278 HD
ATOM     25 1H12 UNL     1       7.522   0.926   1.722  1.00  0.00     0.278 HD
ATOM     26 3H13 UNL     1       6.719  -2.425   0.846  1.00  0.00     0.278 HD
ATOM     27 2H13 UNL     1       7.431  -1.446  -0.099  1.00  0.00     0.278 HD
ATOM     28 1H13 UNL     1       7.858  -1.375   1.544  1.00  0.00     0.278 HD
ATOM     29  H11 UNL     1       5.151  -1.340  -0.513  1.00  0.00     0.163 HD
ENDBRANCH  13  19
BRANCH  15  30
HETATM   30  C14 UNL     1       2.100   2.867   1.871  1.00  0.00     0.312 C 
BRANCH  30  31
HETATM   31  O4  UNL     1       2.355   2.519   3.197  1.00  0.00    -0.365 OA
ATOM     32  H4  UNL     1       2.126   3.217   3.799  1.00  0.00     0.213 HD
ENDBRANCH  30  31
BRANCH  30  33
HETATM   33  O5  UNL     1       2.725   4.059   1.544  1.00  0.00    -0.365 OA
ATOM     34  H5  UNL     1       2.496   4.757   2.146  1.00  0.00     0.213 HD
ENDBRANCH  30  33
ENDBRANCH  15  30
ENDBRANCH  10  11
BRANCH  10  35
HETATM   35  O1  UNL     1       0.721   1.401  -2.710  1.00  0.00    -0.381 OA
ATOM     36  H1  UNL     1       0.084   1.215  -3.390  1.00  0.00     0.211 HD
ENDBRANCH  10  35
ENDBRANCH   1  10
BRANCH   9  37
HETATM   37  N9  UNL     1      -0.344  -2.362  -2.049  1.00  0.00    -0.239 N 
ATOM     38  H9  UNL     1       0.290  -2.939  -1.497  1.00  0.00     0.208 HD
BRANCH  37  39
HETATM   39  N10 UNL     1      -0.516  -2.661  -3.404  1.00  0.00    -0.330 N 
ATOM     40 2H10 UNL     1      -1.154  -2.074  -3.941  1.00  0.00     0.178 HD
ATOM     41 1H10 UNL     1      -0.033  -3.433  -3.863  1.00  0.00     0.178 HD
ENDBRANCH  37  39
ENDBRANCH   9  37
BRANCH   8  42
HETATM   42  N6  UNL     1      -2.760  -2.880  -0.936  1.00  0.00    -0.295 N 
HETATM   43  C12 UNL     1      -3.958  -3.356  -0.442  1.00  0.00     0.334 C 
HETATM   44  N7  UNL     1      -4.983  -2.692   0.269  1.00  0.00    -0.040 NA
HETATM   45  O2  UNL     1      -4.205  -4.613  -0.652  1.00  0.00    -0.251 OA
ATOM     46  H6  UNL     1      -2.183  -3.566  -1.422  1.00  0.00     0.171 HD
ENDBRANCH   8  42
BRANCH   5  47
HETATM   47  C7  UNL     1      -4.173   1.494   0.977  1.00  0.00     0.681 C 
HETATM   48  N3  UNL     1      -4.315   1.006   2.161  1.00  0.00    -0.188 N 
HETATM   49  C8  UNL     1      -5.559   0.810   2.833  1.00  0.00     0.195 C 
ATOM     50  H3  UNL     1      -3.467   0.737   2.660  1.00  0.00     0.185 HD
HETATM   51  N4  UNL     1      -6.721   1.073   2.049  1.00  0.00    -0.369 N 
HETATM   52  C9  UNL     1      -6.562   2.079   1.045  1.00  0.00     0.262 C 
ATOM     53  H4  UNL     1      -7.602   0.579   2.194  1.00  0.00     0.161 HD
HETATM   54  N5  UNL     1      -5.361   1.872   0.276  1.00  0.00    -0.210 N 
ATOM     55  H5  UNL     1      -5.358   1.991  -0.737  1.00  0.00     0.179 HD
ENDBRANCH   5  47
TORSDOF 12
