REMARK  7 active torsions:
REMARK  status: ('A' for Active; 'I' for Inactive)
REMARK    1  A    between atoms: C2_2  and  C3_3 
REMARK    2  A    between atoms: C2_2  and  C26_32 
REMARK    3  A    between atoms: C3_3  and  C4_4 
REMARK    4  A    between atoms: C4_4  and  C5_5 
REMARK    5  A    between atoms: C5_5  and  C7_7 
REMARK    6  A    between atoms: C16_16  and  O1_17 
REMARK    7  A    between atoms: O1_17  and  C17_18 
ROOT
HETATM    1  C7  UNL     1       1.456  -1.638  -1.004  1.00  0.00    -0.002 C 
HETATM    2  C8  UNL     1       0.688  -2.763  -1.749  1.00  0.00     0.006 C 
HETATM    3  C9  UNL     1      -0.740  -2.369  -1.717  1.00  0.00     0.006 C 
HETATM    4  C10 UNL     1      -0.787  -0.860  -1.573  1.00  0.00     0.001 C 
HETATM    5  C11 UNL     1      -1.773  -0.577  -0.529  1.00  0.00     0.026 C 
HETATM    6  C12 UNL     1      -3.106  -1.189  -0.989  1.00  0.00     0.010 C 
HETATM    7  C13 UNL     1      -4.034  -1.405   0.165  1.00  0.00     0.026 C 
HETATM    8  C14 UNL     1      -3.658  -0.441   1.281  1.00  0.00     0.091 C 
HETATM    9  C15 UNL     1      -4.867  -0.130   2.135  1.00  0.00     0.067 C 
HETATM   10  C16 UNL     1      -5.508   1.093   1.502  1.00  0.00     0.227 C 
HETATM   11  C18 UNL     1      -4.294   1.778   0.940  1.00  0.00     0.251 C 
HETATM   12  O3  UNL     1      -4.179   3.007   0.761  1.00  0.00    -0.270 OA
HETATM   13  N2  UNL     1      -3.305   0.809   0.646  1.00  0.00    -0.329 N 
HETATM   14  C19 UNL     1      -2.053   0.815  -0.135  1.00  0.00     0.096 C 
HETATM   15  C20 UNL     1      -2.302   1.760  -1.276  1.00  0.00     0.047 C 
HETATM   16  C21 UNL     1      -1.011   1.288   0.818  1.00  0.00     0.155 C 
HETATM   17  O4  UNL     1      -1.267   2.125   1.638  1.00  0.00    -0.295 OA
HETATM   18  C22 UNL     1       0.407   0.763   0.822  1.00  0.00     0.082 C 
HETATM   19  C23 UNL     1       0.846   0.784  -0.600  1.00  0.00     0.017 C 
HETATM   20  C24 UNL     1       0.638  -0.462  -1.394  1.00  0.00    -0.036 C 
HETATM   21  C25 UNL     1       1.126  -0.070  -2.808  1.00  0.00     0.016 C 
ENDROOT
BRANCH   1  22
HETATM   22  C5  UNL     1       2.830  -1.768  -1.511  1.00  0.00    -0.014 C 
HETATM   23  C6  UNL     1       3.282  -3.203  -1.158  1.00  0.00     0.010 C 
BRANCH  22  24
HETATM   24  C4  UNL     1       3.908  -0.885  -1.040  1.00  0.00     0.009 C 
BRANCH  24  25
HETATM   25  C3  UNL     1       4.188  -0.955   0.443  1.00  0.00     0.034 C 
BRANCH  25  26
HETATM   26  C2  UNL     1       5.295  -0.071   0.833  1.00  0.00    -0.086 C 
HETATM   27  C1  UNL     1       6.392  -0.580   1.363  1.00  0.00     0.014 C 
BRANCH  26  28
HETATM   28  C26 UNL     1       5.203   1.387   0.640  1.00  0.00     0.005 C 
HETATM   29  C27 UNL     1       6.516   2.072   0.977  1.00  0.00     0.014 C 
HETATM   30  C28 UNL     1       4.084   2.035   1.385  1.00  0.00     0.014 C 
ENDBRANCH  26  28
ENDBRANCH  25  26
ENDBRANCH  24  25
ENDBRANCH  22  24
ENDBRANCH   1  22
BRANCH  10  31
HETATM   31  O1  UNL     1      -6.191   1.890   2.421  1.00  0.00    -0.291 OA
BRANCH  31  32
HETATM   32  C17 UNL     1      -7.552   2.142   2.186  1.00  0.00     0.373 C 
HETATM   33  N1  UNL     1      -8.350   2.928   3.035  1.00  0.00    -0.032 NA
HETATM   34  O2  UNL     1      -8.097   1.641   1.164  1.00  0.00    -0.242 OA
ENDBRANCH  31  32
ENDBRANCH  10  31
TORSDOF 7
