REMARK  9 active torsions:
REMARK  status: ('A' for Active; 'I' for Inactive)
REMARK    1  A    between atoms: C2_2  and  C3_3 
REMARK    2  A    between atoms: C3_3  and  C4_4 
REMARK    3  A    between atoms: C5_5  and  C6_6 
REMARK    4  A    between atoms: C6_6  and  C7_7 
REMARK    5  A    between atoms: C8_9  and  C9_10 
REMARK    6  A    between atoms: C9_10  and  S1_11 
REMARK    7  A    between atoms: C10_14  and  O4_15 
REMARK    8  A    between atoms: C11_17  and  O5_18 
REMARK    9  A    between atoms: C12_20  and  O6_21 
ROOT
HETATM    1  C7  UNL     1      -0.023  -1.100   0.566  1.00  0.00     0.156 C 
HETATM    2  O1  UNL     1      -0.613   0.134   0.559  1.00  0.00    -0.374 OA
HETATM    3  C8  UNL     1      -1.761   0.190  -0.247  1.00  0.00     0.168 C 
HETATM    4  C10 UNL     1      -2.891  -0.597   0.311  1.00  0.00     0.179 C 
HETATM    5  C11 UNL     1      -2.295  -1.653   1.244  1.00  0.00     0.180 C 
HETATM    6  C12 UNL     1      -1.061  -2.204   0.559  1.00  0.00     0.178 C 
ENDROOT
BRANCH   1   7
HETATM    7  C6  UNL     1       1.054  -1.322  -0.438  1.00  0.00     0.061 C 
BRANCH   7   8
HETATM    8  C5  UNL     1       2.226  -0.427  -0.328  1.00  0.00    -0.028 C 
HETATM    9  C4  UNL     1       2.413   0.508   0.548  1.00  0.00    -0.031 C 
BRANCH   9  10
HETATM   10  C3  UNL     1       3.566   1.401   0.665  1.00  0.00     0.026 C 
BRANCH  10  11
HETATM   11  C2  UNL     1       4.644   1.261  -0.350  1.00  0.00    -0.001 C 
HETATM   12  C1  UNL     1       4.195   1.556  -1.763  1.00  0.00     0.005 C 
ENDBRANCH  10  11
ENDBRANCH   9  10
ENDBRANCH   7   8
ENDBRANCH   1   7
BRANCH   6  13
HETATM   13  O6  UNL     1      -1.321  -2.643  -0.717  1.00  0.00    -0.390 OA
ATOM     14  H6  UNL     1      -1.972  -3.335  -0.721  1.00  0.00     0.210 HD
ENDBRANCH   6  13
BRANCH   3  15
HETATM   15  C9  UNL     1      -2.070   1.652  -0.446  1.00  0.00     0.191 C 
BRANCH  15  16
HETATM   16  S1  UNL     1      -3.495   1.931  -1.444  1.00  0.00     0.253 S 
HETATM   17  O2  UNL     1      -3.690   3.616  -1.561  1.00  0.00    -0.212 OA
HETATM   18  O3  UNL     1      -4.899   1.347  -0.729  1.00  0.00    -0.212 OA
ENDBRANCH  15  16
ENDBRANCH   3  15
BRANCH   5  19
HETATM   19  O5  UNL     1      -3.172  -2.710   1.447  1.00  0.00    -0.390 OA
ATOM     20  H5  UNL     1      -2.802  -3.366   2.026  1.00  0.00     0.210 HD
ENDBRANCH   5  19
BRANCH   4  21
HETATM   21  O4  UNL     1      -3.619  -1.297  -0.652  1.00  0.00    -0.390 OA
ATOM     22  H4  UNL     1      -4.342  -1.800  -0.295  1.00  0.00     0.210 HD
ENDBRANCH   4  21
TORSDOF 9
