REMARK  7 active torsions:
REMARK  status: ('A' for Active; 'I' for Inactive)
REMARK    1  A    between atoms: N1_2  and  C2_3 
REMARK       I    between atoms: N1_2  and  C9_15 
REMARK    2  A    between atoms: C2_3  and  C3_4 
REMARK    3  A    between atoms: C3_4  and  N2_5 
REMARK    4  A    between atoms: C3_4  and  C4_9 
REMARK    5  A    between atoms: C4_9  and  O1_10 
REMARK    6  A    between atoms: O1_10  and  C5_11 
REMARK    7  A    between atoms: C9_15  and  C10_17 
ROOT
HETATM    1  C2  UNL     1       0.465  -0.635   1.608  1.00  0.00     0.160 C 
ENDROOT
BRANCH   1   2
HETATM    2  N1  UNL     1       1.035  -1.784   1.017  1.00  0.00    -0.353 N 
HETATM    3  C1  UNL     1       0.730  -3.140   1.563  1.00  0.00     0.152 C 
HETATM    4  C9  UNL     1       1.800  -1.737  -0.143  1.00  0.00     0.234 C 
HETATM    5  O2  UNL     1       2.051  -2.855  -0.741  1.00  0.00    -0.272 OA
BRANCH   4   6
HETATM    6  C10 UNL     1       2.344  -0.492  -0.710  1.00  0.00     0.148 C 
HETATM    7  C11 UNL     1       3.605  -0.178   0.087  1.00  0.00     0.098 C 
HETATM    8  S1  UNL     1       4.531   1.176  -0.637  1.00  0.00    -0.167 SA
HETATM    9  C12 UNL     1       5.015   0.659  -2.324  1.00  0.00     0.084 C 
HETATM   10  C13 UNL     1       3.740   0.570  -3.134  1.00  0.00     0.085 C 
HETATM   11  S2  UNL     1       2.746  -0.785  -2.455  1.00  0.00    -0.153 SA
ENDBRANCH   4   6
ENDBRANCH   1   2
BRANCH   1  12
HETATM   12  C3  UNL     1      -1.007  -0.392   1.295  1.00  0.00     0.225 C 
BRANCH  12  13
HETATM   13  N2  UNL     1      -1.781  -1.547   1.784  1.00  0.00    -0.071 N 
ATOM     14  H23 UNL     1      -1.441  -2.434   1.411  1.00  0.00     0.274 HD
ATOM     15  H22 UNL     1      -1.616  -1.740   2.772  1.00  0.00     0.274 HD
ATOM     16  H21 UNL     1      -2.766  -1.384   1.575  1.00  0.00     0.274 HD
ENDBRANCH  12  13
BRANCH  12  17
HETATM   17  C4  UNL     1      -1.219  -0.144  -0.132  1.00  0.00     0.203 C 
BRANCH  17  18
HETATM   18  O1  UNL     1      -2.475   0.116  -0.512  1.00  0.00    -0.379 OA
BRANCH  18  19
HETATM   19  C5  UNL     1      -3.184   1.199  -0.183  1.00  0.00     0.050 C 
HETATM   20  C6  UNL     1      -3.534   1.505   1.226  1.00  0.00     0.045 C 
HETATM   21  C7  UNL     1      -4.516   1.125  -0.991  1.00  0.00     0.045 C 
HETATM   22  C8  UNL     1      -2.403   2.417  -0.729  1.00  0.00     0.045 C 
ENDBRANCH  18  19
ENDBRANCH  17  18
ENDBRANCH  12  17
ENDBRANCH   1  12
TORSDOF 7
