REMARK  6 active torsions:
REMARK  status: ('A' for Active; 'I' for Inactive)
REMARK    1  A    between atoms: O1_2  and  C2_3 
REMARK    2  A    between atoms: C2_3  and  C3_4 
REMARK    3  A    between atoms: C3_4  and  C4_5 
REMARK    4  A    between atoms: C8_10  and  O2_11 
REMARK    5  A    between atoms: C9_13  and  O3_14 
REMARK    6  A    between atoms: C10_16  and  O4_17 
ROOT
HETATM    1  C2  UNL     1      -0.597  -0.595  -0.053  1.00  0.00     0.090 C 
HETATM    2  C5  UNL     1      -0.079  -1.941   0.779  1.00  0.00     0.052 C 
HETATM    3  C6  UNL     1       1.232  -1.488   0.896  1.00  0.00     0.085 C 
HETATM    4  C7  UNL     1       2.035  -0.888   0.791  1.00  0.00    -0.149 C 
HETATM    5  C8  UNL     1       2.832   0.218   0.415  1.00  0.00     0.215 C 
HETATM    6  C9  UNL     1       1.470   1.046  -0.104  1.00  0.00     0.189 C 
HETATM    7  C10 UNL     1       0.612   0.001  -0.737  1.00  0.00     0.184 C 
ENDROOT
BRANCH   1   8
HETATM    8  O1  UNL     1      -1.493  -0.971  -0.963  1.00  0.00    -0.382 OA
HETATM    9  C1  UNL     1      -2.611  -1.619  -0.541  1.00  0.00     0.202 C 
ENDBRANCH   1   8
BRANCH   1  10
HETATM   10  C3  UNL     1      -1.140   0.333   0.962  1.00  0.00     0.056 C 
BRANCH  10  11
HETATM   11  C4  UNL     1      -1.667   1.616   0.357  1.00  0.00     0.117 C 
HETATM   12 CL1  UNL     1      -2.291   2.644   1.670  1.00  0.00    -0.130 Cl
ENDBRANCH  10  11
ENDBRANCH   1  10
BRANCH   7  13
HETATM   13  O4  UNL     1       0.120   0.543  -1.998  1.00  0.00    -0.390 OA
ATOM     14  H4  UNL     1       0.880   0.918  -2.428  1.00  0.00     0.210 HD
ENDBRANCH   7  13
BRANCH   6  15
HETATM   15  O3  UNL     1       1.957   1.988  -0.961  1.00  0.00    -0.389 OA
ATOM     16  H3  UNL     1       1.185   2.457  -1.255  1.00  0.00     0.210 HD
ENDBRANCH   6  15
BRANCH   5  17
HETATM   17  O2  UNL     1       3.520   0.149  -0.762  1.00  0.00    -0.382 OA
ATOM     18  H2  UNL     1       4.055   0.892  -1.015  1.00  0.00     0.211 HD
ENDBRANCH   5  17
TORSDOF 6
