REMARK  2 active torsions:
REMARK  status: ('A' for Active; 'I' for Inactive)
REMARK    1  A    between atoms: C1_4  and  C2_5 
REMARK    2  A    between atoms: C1_4  and  C8_11 
ROOT
HETATM    1  N1  UNL     1      -0.263   1.704  -1.172  1.00  0.00    -0.405 N 
ATOM      2  H11 UNL     1      -1.108   1.975  -1.675  1.00  0.00     0.155 HD
ATOM      3  H12 UNL     1       0.601   2.242  -1.237  1.00  0.00     0.155 HD
HETATM    4  C1  UNL     1      -0.300   0.660  -0.443  1.00  0.00    -0.012 C 
ENDROOT
BRANCH   4   5
HETATM    5  C2  UNL     1       0.925   0.267   0.287  1.00  0.00     0.031 C 
HETATM    6  C3  UNL     1       1.385  -1.097  -0.122  1.00  0.00     0.010 C 
HETATM    7  C4  UNL     1       2.843  -1.263  -0.301  1.00  0.00     0.001 C 
HETATM    8  C5  UNL     1       3.741  -0.356   0.427  1.00  0.00     0.000 C 
HETATM    9  C6  UNL     1       3.142   0.885   0.980  1.00  0.00     0.001 C 
HETATM   10  C7  UNL     1       1.987   1.286   0.071  1.00  0.00     0.010 C 
ENDBRANCH   4   5
BRANCH   4  11
HETATM   11  C8  UNL     1      -1.538  -0.110  -0.350  1.00  0.00     0.031 C 
HETATM   12  C9  UNL     1      -2.662   0.475  -1.179  1.00  0.00     0.010 C 
HETATM   13  C10 UNL     1      -3.867  -0.273  -0.653  1.00  0.00     0.001 C 
HETATM   14  C11 UNL     1      -3.505  -0.754   0.735  1.00  0.00     0.001 C 
HETATM   15  C12 UNL     1      -2.170  -0.060   1.039  1.00  0.00     0.010 C 
ENDBRANCH   4  11
TORSDOF 2
