REMARK  3 active torsions:
REMARK  status: ('A' for Active; 'I' for Inactive)
REMARK    1  A    between atoms: C2_2  and  C3_3 
REMARK    2  A    between atoms: C2_2  and  C5_9 
REMARK    3  A    between atoms: C3_3  and  N1_5 
ROOT
HETATM    1  C1  UNL     1      -0.994   0.889  -1.515  1.00  0.00     0.017 C 
HETATM    2  C2  UNL     1      -0.966   0.541  -0.241  1.00  0.00    -0.056 C 
ENDROOT
BRANCH   2   3
HETATM    3  C3  UNL     1      -2.211   0.060   0.418  1.00  0.00     0.208 C 
HETATM    4  C4  UNL     1      -3.353   0.067  -0.544  1.00  0.00     0.044 C 
BRANCH   3   5
HETATM    5  N1  UNL     1      -1.989  -1.267   0.938  1.00  0.00    -0.072 N 
ATOM      6  H13 UNL     1      -1.655  -1.913   0.222  1.00  0.00     0.275 HD
ATOM      7  H12 UNL     1      -1.181  -1.310   1.559  1.00  0.00     0.275 HD
ATOM      8  H11 UNL     1      -2.842  -1.597   1.390  1.00  0.00     0.275 HD
ENDBRANCH   3   5
ENDBRANCH   2   3
BRANCH   2   9
HETATM    9  C5  UNL     1       0.312   0.698   0.510  1.00  0.00     0.016 C 
HETATM   10  C6  UNL     1       0.699  -0.679   1.022  1.00  0.00     0.009 C 
HETATM   11  C7  UNL     1       2.214  -0.746   1.213  1.00  0.00     0.001 C 
HETATM   12  C8  UNL     1       2.773  -0.766  -0.196  1.00  0.00     0.000 C 
HETATM   13  C9  UNL     1       2.324   0.427  -0.996  1.00  0.00     0.001 C 
HETATM   14  C10 UNL     1       1.395   1.329  -0.270  1.00  0.00     0.009 C 
ENDBRANCH   2   9
TORSDOF 3
