REMARK  8 active torsions:
REMARK  status: ('A' for Active; 'I' for Inactive)
REMARK    1  A    between atoms: C4_8  and  O2_9 
REMARK    2  A    between atoms: O2_9  and  C5_10 
REMARK    3  A    between atoms: C7_12  and  N3_13 
REMARK    4  A    between atoms: C8_17  and  O3_18 
REMARK    5  A    between atoms: C8_17  and  C9_20 
REMARK    6  A    between atoms: C9_20  and  O4_21 
REMARK    7  A    between atoms: C10_25  and  N5_26 
REMARK    8  A    between atoms: C10_25  and  O5_30 
ROOT
HETATM    1  C5  UNL     1      -0.660  -0.155   0.006  1.00  0.00     0.217 C 
HETATM    2  C6  UNL     1      -1.426  -0.531   1.249  1.00  0.00     0.077 C 
HETATM    3  C7  UNL     1      -2.917  -0.428   1.054  1.00  0.00     0.243 C 
HETATM    4  C8  UNL     1      -3.375   0.886   0.533  1.00  0.00     0.181 C 
HETATM    5  N4  UNL     1      -2.302   1.661   0.020  1.00  0.00    -0.332 N 
ATOM      6  H4  UNL     1      -2.237   2.664   0.196  1.00  0.00     0.161 HD
HETATM    7  C10 UNL     1      -1.320   0.975  -0.752  1.00  0.00     0.327 C 
ENDROOT
BRANCH   1   8
HETATM    8  O2  UNL     1       0.666   0.128   0.296  1.00  0.00    -0.322 OA
BRANCH   8   9
HETATM    9  C4  UNL     1       1.773  -0.541  -0.136  1.00  0.00     0.163 A 
HETATM   10  C3  UNL     1       3.013  -0.091   0.274  1.00  0.00     0.130 A 
HETATM   11  C2  UNL     1       3.460   0.944   1.071  1.00  0.00     0.278 A 
HETATM   12  C12 UNL     1       4.160  -0.749  -0.147  1.00  0.00     0.143 A 
HETATM   13  N2  UNL     1       4.807   0.917   1.132  1.00  0.00    -0.262 N 
HETATM   14  O1  UNL     1       2.758   1.793   1.661  1.00  0.00    -0.266 OA
HETATM   15  N1  UNL     1       5.225  -0.101   0.400  1.00  0.00    -0.277 N 
ATOM     16  H2  UNL     1       5.398   1.567   1.651  1.00  0.00     0.190 HD
HETATM   17  C1  UNL     1       6.604  -0.542   0.155  1.00  0.00     0.179 C 
HETATM   18  N7  UNL     1       4.064  -1.821  -0.950  1.00  0.00    -0.336 N 
HETATM   19  C11 UNL     1       2.863  -2.267  -1.354  1.00  0.00     0.184 A 
ATOM     20  H7  UNL     1       4.910  -2.301  -1.256  1.00  0.00     0.168 HD
HETATM   21  N6  UNL     1       1.774  -1.621  -0.939  1.00  0.00    -0.332 N 
ATOM     22  H6  UNL     1       0.870  -1.973  -1.255  1.00  0.00     0.168 HD
ENDBRANCH   8   9
ENDBRANCH   1   8
BRANCH   7  23
HETATM   23  N5  UNL     1      -1.818   0.536  -2.050  1.00  0.00    -0.025 N 
ATOM     24  H53 UNL     1      -1.081   0.099  -2.603  1.00  0.00     0.280 HD
ATOM     25  H52 UNL     1      -2.443  -0.264  -1.957  1.00  0.00     0.280 HD
ATOM     26  H51 UNL     1      -2.263   1.298  -2.561  1.00  0.00     0.280 HD
ENDBRANCH   7  23
BRANCH   7  27
HETATM   27  O5  UNL     1      -0.310   1.914  -1.053  1.00  0.00    -0.347 OA
ATOM     28  H5  UNL     1      -0.725   2.624  -1.529  1.00  0.00     0.214 HD
ENDBRANCH   7  27
BRANCH   3  29
HETATM   29  N3  UNL     1      -3.404  -1.471   0.145  1.00  0.00    -0.070 N 
ATOM     30  H33 UNL     1      -2.907  -1.455  -0.745  1.00  0.00     0.274 HD
ATOM     31  H32 UNL     1      -3.130  -2.402   0.460  1.00  0.00     0.274 HD
ATOM     32  H31 UNL     1      -4.413  -1.401   0.013  1.00  0.00     0.274 HD
ENDBRANCH   3  29
BRANCH   4  33
HETATM   33  O3  UNL     1      -3.916   1.615   1.622  1.00  0.00    -0.367 OA
ATOM     34  H3  UNL     1      -4.209   2.455   1.289  1.00  0.00     0.212 HD
ENDBRANCH   4  33
BRANCH   4  35
HETATM   35  C9  UNL     1      -4.535   0.688  -0.416  1.00  0.00     0.227 C 
BRANCH  35  36
HETATM   36  O4  UNL     1      -5.470  -0.099   0.296  1.00  0.00    -0.396 OA
ATOM     37  H4  UNL     1      -6.199  -0.223  -0.300  1.00  0.00     0.209 HD
ENDBRANCH  35  36
ENDBRANCH   4  35
TORSDOF 8
