REMARK  9 active torsions:
REMARK  status: ('A' for Active; 'I' for Inactive)
REMARK    1  A    between atoms: C2_2  and  C3_3 
REMARK    2  A    between atoms: C3_3  and  C4_4 
REMARK    3  A    between atoms: C6_7  and  O2_8 
REMARK    4  A    between atoms: C7_10  and  C8_11 
REMARK    5  A    between atoms: C7_10  and  C14_17 
REMARK    6  A    between atoms: C8_11  and  C9_12 
REMARK    7  A    between atoms: C11_14  and  C12_15 
REMARK    8  A    between atoms: C14_17  and  O3_18 
REMARK    9  A    between atoms: N1_20  and  O4_22 
ROOT
HETATM    1  C4  UNL     1      -2.466  -0.620   0.582  1.00  0.00     0.014 C 
HETATM    2  C5  UNL     1      -2.516   0.401   1.705  1.00  0.00     0.176 C 
HETATM    3  O1  UNL     1      -1.311   0.180   2.417  1.00  0.00    -0.360 OA
HETATM    4  C6  UNL     1      -0.238   0.599   1.678  1.00  0.00     0.273 C 
HETATM    5  C7  UNL     1       0.015  -0.315   0.483  1.00  0.00     0.077 C 
HETATM    6  C15 UNL     1      -1.322  -0.234  -0.292  1.00  0.00     0.030 C 
ENDROOT
BRANCH   5   7
HETATM    7  C8  UNL     1       1.004   0.260  -0.452  1.00  0.00     0.028 C 
BRANCH   7   8
HETATM    8  C9  UNL     1       2.361   0.559   0.000  1.00  0.00    -0.005 A 
HETATM    9  C10 UNL     1       3.362  -0.351   0.531  1.00  0.00     0.014 A 
HETATM   10  C11 UNL     1       3.493   0.089  -0.908  1.00  0.00     0.012 A 
BRANCH  10  11
HETATM   11  C12 UNL     1       4.568   0.983  -1.268  1.00  0.00    -0.032 C 
HETATM   12  C13 UNL     1       5.448   1.436  -0.412  1.00  0.00     0.007 C 
ENDBRANCH  10  11
ENDBRANCH   7   8
ENDBRANCH   5   7
BRANCH   5  13
HETATM   13  C14 UNL     1       0.190  -1.707   0.881  1.00  0.00     0.149 C 
HETATM   14  N1  UNL     1      -0.179  -2.734   0.270  1.00  0.00    -0.250 N 
ATOM     15  H1  UNL     1       0.069  -3.588   0.770  1.00  0.00     0.196 HD
BRANCH  13  16
HETATM   16  O3  UNL     1       0.863  -1.932   2.104  1.00  0.00    -0.347 OA
ATOM     17  H3  UNL     1       0.977  -2.839   2.363  1.00  0.00     0.219 HD
ENDBRANCH  13  16
BRANCH  14  18
HETATM   18  O4  UNL     1      -0.813  -2.987  -0.867  1.00  0.00    -0.288 OA
ATOM     19  H4  UNL     1      -1.093  -3.767  -1.331  1.00  0.00     0.244 HD
ENDBRANCH  14  18
ENDBRANCH   5  13
BRANCH   4  20
HETATM   20  O2  UNL     1      -0.545   1.860   1.145  1.00  0.00    -0.370 OA
ATOM     21  H2  UNL     1       0.200   2.151   0.632  1.00  0.00     0.212 HD
ENDBRANCH   4  20
BRANCH   1  22
HETATM   22  C3  UNL     1      -3.721  -0.603  -0.247  1.00  0.00     0.033 C 
BRANCH  22  23
HETATM   23  C2  UNL     1      -3.981   0.691  -0.885  1.00  0.00    -0.036 C 
HETATM   24  C1  UNL     1      -4.058   0.803  -2.199  1.00  0.00     0.007 C 
ENDBRANCH  22  23
ENDBRANCH   1  22
TORSDOF 9
