REMARK  9 active torsions:
REMARK  status: ('A' for Active; 'I' for Inactive)
REMARK    1  A    between atoms: N1_1  and  C1_5 
REMARK    2  A    between atoms: C1_5  and  C2_6 
REMARK    3  A    between atoms: C2_6  and  C3_7 
REMARK    4  A    between atoms: C3_7  and  C4_8 
REMARK    5  A    between atoms: N2_9  and  C5_11 
REMARK    6  A    between atoms: C8_14  and  C9_15 
REMARK    7  A    between atoms: C9_15  and  N3_16 
REMARK    8  A    between atoms: N3_16  and  C10_18 
REMARK    9  A    between atoms: C10_18  and  C11_19 
ROOT
HETATM    1  C5  UNL     1       1.911  -1.314   0.248  1.00  0.00     0.031 A 
HETATM    2  C6  UNL     1       1.146  -1.331   1.403  1.00  0.00     0.030 A 
HETATM    3  C7  UNL     1      -0.193  -1.666   1.439  1.00  0.00     0.015 A 
HETATM    4  C8  UNL     1      -0.833  -2.002   0.300  1.00  0.00    -0.021 A 
HETATM    5  C16 UNL     1      -0.098  -1.998  -0.912  1.00  0.00     0.015 A 
HETATM    6  C17 UNL     1       1.199  -1.670  -0.910  1.00  0.00     0.030 A 
ENDROOT
BRANCH   4   7
HETATM    7  C9  UNL     1      -2.263  -2.382   0.166  1.00  0.00     0.094 C 
BRANCH   7   8
HETATM    8  N3  UNL     1      -3.084  -1.246   0.278  1.00  0.00    -0.394 N 
ATOM      9  H3  UNL     1      -3.079  -0.641   1.099  1.00  0.00     0.159 HD
BRANCH   8  10
HETATM   10  C10 UNL     1      -3.928  -1.007  -0.856  1.00  0.00     0.159 C 
BRANCH  10  11
HETATM   11  C11 UNL     1      -4.937   0.009  -0.545  1.00  0.00    -0.025 A 
HETATM   12  C12 UNL     1      -4.613   1.309  -0.318  1.00  0.00     0.011 A 
HETATM   13  C13 UNL     1      -5.640   2.190   0.015  1.00  0.00     0.018 A 
HETATM   14  C14 UNL     1      -6.926   1.697   0.092  1.00  0.00     0.087 A 
HETATM   15  N4  UNL     1      -7.238   0.419  -0.133  1.00  0.00    -0.375 N 
HETATM   16  C15 UNL     1      -6.242  -0.423  -0.452  1.00  0.00     0.096 A 
ATOM     17  H4  UNL     1      -8.202   0.092  -0.065  1.00  0.00     0.164 HD
ENDBRANCH  10  11
ENDBRANCH   8  10
ENDBRANCH   7   8
ENDBRANCH   4   7
BRANCH   1  18
HETATM   18  N2  UNL     1       3.245  -1.028   0.186  1.00  0.00    -0.370 N 
HETATM   19  C4  UNL     1       4.043  -0.161   0.124  1.00  0.00     0.061 C 
ATOM     20  H2  UNL     1       3.751  -1.913   0.198  1.00  0.00     0.165 HD
BRANCH  19  21
HETATM   21  C3  UNL     1       3.874   1.278   0.081  1.00  0.00     0.046 C 
BRANCH  21  22
HETATM   22  C2  UNL     1       4.877   2.089  -0.666  1.00  0.00     0.032 C 
BRANCH  22  23
HETATM   23  C1  UNL     1       6.278   2.077  -0.187  1.00  0.00     0.230 C 
BRANCH  23  24
HETATM   24  N1  UNL     1       6.985   0.867  -0.136  1.00  0.00    -0.079 N 
ATOM     25  H13 UNL     1       6.447   0.200   0.418  1.00  0.00     0.274 HD
ATOM     26  H12 UNL     1       6.954   0.434  -1.059  1.00  0.00     0.274 HD
ATOM     27  H11 UNL     1       7.950   0.859   0.194  1.00  0.00     0.274 HD
ENDBRANCH  23  24
ENDBRANCH  22  23
ENDBRANCH  21  22
ENDBRANCH  19  21
ENDBRANCH   1  18
TORSDOF 9
