REMARK  12 active torsions:
REMARK  status: ('A' for Active; 'I' for Inactive)
REMARK    1  A    between atoms: C4_4  and  N1_5 
REMARK    2  A    between atoms: N1_5  and  C5_7 
REMARK    3  A    between atoms: C5_7  and  C6_8 
REMARK    4  A    between atoms: C6_8  and  N2_9 
REMARK    5  A    between atoms: N2_9  and  C7_12 
REMARK    6  A    between atoms: C7_12  and  C8_13 
REMARK    7  A    between atoms: C8_13  and  C9_14 
REMARK    8  A    between atoms: C9_14  and  N3_15 
REMARK    9  A    between atoms: N4_21  and  C11_22 
REMARK   10  A    between atoms: C11_22  and  C12_23 
REMARK   11  A    between atoms: C12_23  and  C13_24 
REMARK   12  A    between atoms: C13_24  and  N5_25 
REMARK       I    between atoms: N5_25  and  C14_27 
ROOT
HETATM    1  C1  UNL     1       0.788  -1.178  -2.204  1.00  0.00     0.016 C 
HETATM    2  C2  UNL     1       1.176   0.236  -1.758  1.00  0.00     0.025 C 
HETATM    3  C3  UNL     1       0.122   0.687  -0.825  1.00  0.00     0.014 C 
HETATM    4  C4  UNL     1       0.160   0.357   0.448  1.00  0.00     0.093 C 
HETATM    5  C10 UNL     1       1.328  -0.389   0.987  1.00  0.00     0.273 C 
HETATM    6  O1  UNL     1       1.416  -0.736   2.174  1.00  0.00    -0.266 OA
HETATM    7  N4  UNL     1       2.387  -0.714   0.074  1.00  0.00    -0.326 N 
HETATM    8  C15 UNL     1       2.517   0.219  -1.057  1.00  0.00     0.139 C 
ENDROOT
BRANCH   4   9
HETATM    9  N1  UNL     1      -0.821   0.757   1.363  1.00  0.00    -0.384 N 
ATOM     10  H1  UNL     1      -0.486   1.359   2.115  1.00  0.00     0.159 HD
BRANCH   9  11
HETATM   11  C5  UNL     1      -2.215   0.457   1.412  1.00  0.00     0.147 C 
BRANCH  11  12
HETATM   12  C6  UNL     1      -3.051   1.058   0.330  1.00  0.00     0.251 C 
BRANCH  12  13
HETATM   13  N2  UNL     1      -4.460   0.820   0.430  1.00  0.00    -0.074 N 
ATOM     14  H22 UNL     1      -4.834   1.136   1.325  1.00  0.00     0.277 HD
ATOM     15  H21 UNL     1      -4.992   1.436  -0.184  1.00  0.00     0.277 HD
BRANCH  13  16
HETATM   16  C7  UNL     1      -4.762  -0.568   0.185  1.00  0.00     0.234 C 
BRANCH  16  17
HETATM   17  C8  UNL     1      -6.276  -0.757   0.271  1.00  0.00     0.055 C 
BRANCH  17  18
HETATM   18  C9  UNL     1      -6.872   0.162  -0.806  1.00  0.00     0.231 C 
BRANCH  18  19
HETATM   19  N3  UNL     1      -8.317   0.066  -0.798  1.00  0.00    -0.079 N 
ATOM     20  H33 UNL     1      -8.636  -0.898  -0.899  1.00  0.00     0.274 HD
ATOM     21  H32 UNL     1      -8.707   0.257   0.125  1.00  0.00     0.274 HD
ATOM     22  H31 UNL     1      -8.713   0.676  -1.513  1.00  0.00     0.274 HD
ENDBRANCH  18  19
ENDBRANCH  17  18
ENDBRANCH  16  17
ENDBRANCH  13  16
ENDBRANCH  12  13
ENDBRANCH  11  12
ENDBRANCH   9  11
ENDBRANCH   4   9
BRANCH   7  23
HETATM   23  C11 UNL     1       3.214  -1.848   0.203  1.00  0.00     0.069 C 
BRANCH  23  24
HETATM   24  C12 UNL     1       4.435  -1.807   1.027  1.00  0.00     0.064 C 
BRANCH  24  25
HETATM   25  C13 UNL     1       5.480  -0.795   0.699  1.00  0.00     0.127 C 
BRANCH  25  26
HETATM   26  N5  UNL     1       5.119   0.572   0.879  1.00  0.00    -0.365 N 
HETATM   27  C14 UNL     1       5.887   1.702   0.497  1.00  0.00     0.181 C 
HETATM   28  N6  UNL     1       6.767   2.157   1.310  1.00  0.00    -0.374 N 
HETATM   29  N7  UNL     1       5.668   2.315  -0.782  1.00  0.00    -0.064 NA
ATOM     30  H62 UNL     1       6.923   1.721   2.219  1.00  0.00     0.158 HD
ATOM     31  H61 UNL     1       7.319   2.969   1.035  1.00  0.00     0.158 HD
ATOM     32  H5  UNL     1       4.221   0.756   1.326  1.00  0.00     0.162 HD
ENDBRANCH  25  26
ENDBRANCH  24  25
ENDBRANCH  23  24
ENDBRANCH   7  23
TORSDOF 12
