REMARK  7 active torsions:
REMARK  status: ('A' for Active; 'I' for Inactive)
REMARK    1  A    between atoms: C5_5  and  N1_6 
REMARK    2  A    between atoms: N1_6  and  C6_8 
REMARK    3  A    between atoms: C6_8  and  C9_11 
REMARK    4  A    between atoms: C20_29  and  C21_30 
REMARK       I    between atoms: C21_30  and  N3_32 
REMARK    5  A    between atoms: N3_32  and  C22_34 
REMARK    6  A    between atoms: C22_34  and  C23_35 
REMARK       I    between atoms: C23_35  and  N4_37 
REMARK    7  A    between atoms: N4_37  and  C24_39 
ROOT
HETATM    1  C24 UNL     1       8.414  -1.145   0.663  1.00  0.00     0.122 A 
HETATM    2  C25 UNL     1       8.641  -2.390  -0.059  1.00  0.00     0.091 C 
HETATM    3  N5  UNL     1       8.804  -3.367  -0.636  1.00  0.00    -0.195 NA
HETATM    4  C26 UNL     1       7.917  -1.339   2.084  1.00  0.00     0.050 A 
HETATM    5  C27 UNL     1       9.269  -0.761   1.836  1.00  0.00     0.050 A 
ENDROOT
BRANCH   1   6
HETATM    6  N4  UNL     1       7.831  -0.097  -0.133  1.00  0.00    -0.338 N 
HETATM    7  C23 UNL     1       6.545  -0.191  -0.710  1.00  0.00     0.236 C 
HETATM    8  O4  UNL     1       5.927  -1.283  -0.478  1.00  0.00    -0.272 OA
ATOM      9  H4  UNL     1       8.372   0.754  -0.288  1.00  0.00     0.164 HD
BRANCH   7  10
HETATM   10  C22 UNL     1       5.944   0.865  -1.509  1.00  0.00     0.225 C 
BRANCH  10  11
HETATM   11  N3  UNL     1       4.578   0.611  -1.917  1.00  0.00    -0.352 N 
HETATM   12  C21 UNL     1       3.592   0.481  -0.945  1.00  0.00     0.231 C 
HETATM   13  O3  UNL     1       3.997   0.604   0.280  1.00  0.00    -0.273 OA
ATOM     14  H3  UNL     1       4.342   0.528  -2.906  1.00  0.00     0.162 HD
BRANCH  12  15
HETATM   15  C20 UNL     1       2.151   0.224  -1.094  1.00  0.00     0.174 C 
HETATM   16  C19 UNL     1       1.468   1.146  -0.143  1.00  0.00     0.232 C 
HETATM   17  N2  UNL     1       0.072   1.346   0.151  1.00  0.00    -0.340 N 
HETATM   18  O2  UNL     1       2.201   1.902   0.541  1.00  0.00    -0.273 OA
HETATM   19  C5  UNL     1      -1.041   1.017  -0.680  1.00  0.00     0.180 C 
ATOM     20  H2  UNL     1      -0.145   1.770   1.053  1.00  0.00     0.164 HD
HETATM   21  C4  UNL     1      -0.595  -0.181  -1.572  1.00  0.00     0.052 C 
HETATM   22  C3  UNL     1       0.239   0.292  -2.706  1.00  0.00    -0.001 A 
HETATM   23  C2  UNL     1       1.202  -0.659  -3.382  1.00  0.00    -0.008 A 
HETATM   24  C28 UNL     1       1.688   0.421  -2.490  1.00  0.00     0.016 A 
HETATM   25  C1  UNL     1       1.091  -2.086  -2.986  1.00  0.00     0.011 C 
BRANCH  19  26
HETATM   26  N1  UNL     1      -2.262   0.661  -0.103  1.00  0.00    -0.391 N 
ATOM     27  H1  UNL     1      -2.977   0.256  -0.708  1.00  0.00     0.156 HD
BRANCH  26  28
HETATM   28  C6  UNL     1      -2.568   0.825   1.258  1.00  0.00     0.048 C 
HETATM   29  C7  UNL     1      -1.612   0.003   2.099  1.00  0.00     0.040 C 
HETATM   30  C8  UNL     1      -2.481   2.258   1.692  1.00  0.00     0.040 C 
BRANCH  28  31
HETATM   31  C9  UNL     1      -3.923   0.219   1.515  1.00  0.00     0.168 C 
HETATM   32  O1  UNL     1      -3.998  -1.125   1.161  1.00  0.00    -0.340 OA
HETATM   33  C10 UNL     1      -5.318  -1.434   0.908  1.00  0.00     0.101 A 
HETATM   34  C11 UNL     1      -5.946  -2.676   0.731  1.00  0.00     0.089 A 
HETATM   35  C15 UNL     1      -6.069  -0.279   0.830  1.00  0.00     0.009 A 
HETATM   36 CL1  UNL     1      -5.021  -4.172   0.830  1.00  0.00    -0.080 Cl
HETATM   37  C12 UNL     1      -7.296  -2.731   0.483  1.00  0.00     0.060 A 
HETATM   38 CL2  UNL     1      -8.131  -4.267   0.254  1.00  0.00    -0.082 Cl
HETATM   39  C13 UNL     1      -8.049  -1.579   0.402  1.00  0.00     0.050 A 
HETATM   40  C14 UNL     1      -7.421  -0.362   0.579  1.00  0.00     0.045 A 
HETATM   41 CL3  UNL     1      -8.434   1.066   0.461  1.00  0.00    -0.084 Cl
HETATM   42  C16 UNL     1      -5.146   0.862   1.083  1.00  0.00     0.013 C 
HETATM   43  C17 UNL     1      -5.123   1.665  -0.183  1.00  0.00     0.023 C 
HETATM   44  C18 UNL     1      -5.838   1.652   2.207  1.00  0.00     0.023 C 
ENDBRANCH  28  31
ENDBRANCH  26  28
ENDBRANCH  19  26
ENDBRANCH  12  15
ENDBRANCH  10  11
ENDBRANCH   7  10
ENDBRANCH   1   6
TORSDOF 7
