REMARK  5 active torsions:
REMARK  status: ('A' for Active; 'I' for Inactive)
REMARK    1  A    between atoms: C2_2  and  C5_5 
REMARK    2  A    between atoms: C9_13  and  N3_14 
REMARK    3  A    between atoms: C11_20  and  N5_21 
REMARK    4  A    between atoms: N5_21  and  N6_22 
REMARK    5  A    between atoms: N5_21  and  O1_25 
ROOT
HETATM    1  C5  UNL     1      -0.693  -0.391   0.033  1.00  0.00     0.024 A 
HETATM    2  S1  UNL     1       0.274  -1.776   0.262  1.00  0.00    -0.086 SA
HETATM    3  C6  UNL     1       1.814  -1.046   0.269  1.00  0.00     0.073 A 
HETATM    4  C7  UNL     1       3.128  -1.528   0.413  1.00  0.00     0.149 A 
HETATM    5  C8  UNL     1       3.265  -2.931   0.582  1.00  0.00     0.119 C 
HETATM    6  N1  UNL     1       3.375  -4.077   0.706  1.00  0.00    -0.190 NA
HETATM    7  N2  UNL     1       4.175  -0.688   0.382  1.00  0.00    -0.181 N 
ATOM      8  H2  UNL     1       5.137  -1.012   0.484  1.00  0.00     0.185 HD
HETATM    9  C9  UNL     1       3.868   0.610   0.207  1.00  0.00     0.677 A 
HETATM   10  N4  UNL     1       2.639   1.096   0.067  1.00  0.00    -0.188 N 
ATOM     11  H4  UNL     1       2.513   2.100  -0.061  1.00  0.00     0.184 HD
HETATM   12  C10 UNL     1       1.527   0.276   0.091  1.00  0.00     0.101 A 
HETATM   13  C11 UNL     1       0.226   0.623  -0.032  1.00  0.00     0.123 A 
ENDROOT
BRANCH   9  14
HETATM   14  N3  UNL     1       4.854   1.443   0.175  1.00  0.00    -0.234 N 
ATOM     15  H32 UNL     1       5.797   1.070   0.282  1.00  0.00     0.174 HD
ATOM     16  H31 UNL     1       4.621   2.427   0.042  1.00  0.00     0.174 HD
ENDBRANCH   9  14
BRANCH   1  17
HETATM   17  C2  UNL     1      -2.176  -0.364  -0.079  1.00  0.00    -0.015 C 
HETATM   18  C1  UNL     1      -2.862   0.479   0.939  1.00  0.00     0.020 C 
HETATM   19  C3  UNL     1      -2.676  -1.801   0.153  1.00  0.00     0.020 C 
HETATM   20  C4  UNL     1      -2.633   0.046  -1.455  1.00  0.00     0.020 C 
ENDBRANCH   1  17
BRANCH  13  21
HETATM   21  N5  UNL     1      -0.192   2.002  -0.215  1.00  0.00    -0.167 N 
BRANCH  21  22
HETATM   22  N6  UNL     1      -0.326   2.828   0.875  1.00  0.00    -0.319 N 
ATOM     23  H62 UNL     1      -0.141   2.505   1.825  1.00  0.00     0.179 HD
ATOM     24  H61 UNL     1      -0.620   3.796   0.746  1.00  0.00     0.179 HD
ENDBRANCH  21  22
BRANCH  21  25
HETATM   25  O1  UNL     1      -0.432   2.421  -1.448  1.00  0.00    -0.268 OA
ATOM     26  H1  UNL     1      -0.705   3.323  -1.568  1.00  0.00     0.247 HD
ENDBRANCH  21  25
ENDBRANCH  13  21
TORSDOF 5
