REMARK  4 active torsions:
REMARK  status: ('A' for Active; 'I' for Inactive)
REMARK    1  A    between atoms: C3_5  and  N2_6 
REMARK    2  A    between atoms: C7_14  and  N4_15 
REMARK       I    between atoms: N4_15  and  C8_17 
REMARK    3  A    between atoms: C8_17  and  O2_19 
REMARK    4  A    between atoms: O2_19  and  C9_20 
ROOT
HETATM    1  C1  UNL     1      -2.585  -0.779  -2.182  1.00  0.00     0.069 C 
HETATM    2  C2  UNL     1      -3.399  -0.265  -1.060  1.00  0.00     0.033 A 
HETATM    3  N1  UNL     1      -4.735  -0.226  -1.102  1.00  0.00    -0.196 N 
ATOM      4  H1  UNL     1      -5.205  -0.565  -1.942  1.00  0.00     0.184 HD
HETATM    5  C3  UNL     1      -5.488   0.238  -0.091  1.00  0.00     0.677 A 
HETATM    6  N3  UNL     1      -4.849   0.678   1.002  1.00  0.00    -0.175 N 
ATOM      7  H3  UNL     1      -5.396   1.036   1.785  1.00  0.00     0.186 HD
HETATM    8  C4  UNL     1      -3.483   0.661   1.097  1.00  0.00     0.144 A 
HETATM    9  C5  UNL     1      -2.712   0.187   0.065  1.00  0.00     0.018 A 
HETATM   10  C6  UNL     1      -1.249   0.136   0.103  1.00  0.00     0.122 A 
HETATM   11  C7  UNL     1      -0.676   0.660   1.358  1.00  0.00     0.104 A 
HETATM   12  N5  UNL     1      -1.441   1.098   2.299  1.00  0.00    -0.287 N 
ATOM     13  H5  UNL     1      -0.988   1.446   3.144  1.00  0.00     0.188 HD
HETATM   14  N6  UNL     1      -2.825   1.136   2.260  1.00  0.00    -0.283 N 
ATOM     15  H6  UNL     1      -3.359   1.498   3.050  1.00  0.00     0.188 HD
ENDROOT
BRANCH  11  16
HETATM   16  N4  UNL     1       0.752   0.675   1.509  1.00  0.00    -0.290 N 
HETATM   17  C8  UNL     1       1.675   0.234   0.549  1.00  0.00     0.366 C 
HETATM   18  O1  UNL     1       1.395  -0.228  -0.564  1.00  0.00    -0.238 OA
ATOM     19  H4  UNL     1       1.126   1.036   2.387  1.00  0.00     0.172 HD
BRANCH  17  20
HETATM   20  O2  UNL     1       3.043   0.311   0.847  1.00  0.00    -0.294 OA
BRANCH  20  21
HETATM   21  C9  UNL     1       4.024  -0.113  -0.067  1.00  0.00     0.061 C 
HETATM   22  C10 UNL     1       3.894   0.711  -1.354  1.00  0.00     0.046 C 
HETATM   23  C11 UNL     1       3.809  -1.580  -0.347  1.00  0.00     0.046 C 
HETATM   24  C12 UNL     1       5.382   0.130   0.572  1.00  0.00     0.046 C 
ENDBRANCH  20  21
ENDBRANCH  17  20
ENDBRANCH  11  16
BRANCH   5  25
HETATM   25  N2  UNL     1      -6.769   0.239  -0.216  1.00  0.00    -0.234 N 
ATOM     26  H22 UNL     1      -7.255  -0.096  -1.048  1.00  0.00     0.174 HD
ATOM     27  H21 UNL     1      -7.341   0.591   0.552  1.00  0.00     0.174 HD
ENDBRANCH   5  25
TORSDOF 4
