REMARK  9 active torsions:
REMARK  status: ('A' for Active; 'I' for Inactive)
REMARK    1  A    between atoms: C2_2  and  C3_4 
REMARK    2  A    between atoms: C3_4  and  N1_5 
REMARK    3  A    between atoms: N1_5  and  O1_6 
REMARK    4  A    between atoms: C5_9  and  C6_10 
REMARK    5  A    between atoms: C6_10  and  C7_11 
REMARK    6  A    between atoms: C7_11  and  N2_12 
REMARK    7  A    between atoms: C7_11  and  C8_16 
REMARK    8  A    between atoms: C10_20  and  N3_21 
REMARK       I    between atoms: N3_21  and  C11_23 
REMARK    9  A    between atoms: C11_23  and  C12_25 
ROOT
HETATM    1  C3  UNL     1       1.084  -0.985  -0.040  1.00  0.00     0.094 C 
HETATM    2  C4  UNL     1      -0.155  -1.341   0.751  1.00  0.00     0.037 C 
HETATM    3  C5  UNL     1      -1.140  -0.272   0.254  1.00  0.00    -0.008 C 
HETATM    4  C9  UNL     1      -0.235   0.960   0.406  1.00  0.00     0.032 C 
HETATM    5  C10 UNL     1       0.933   0.459  -0.448  1.00  0.00     0.113 C 
ENDROOT
BRANCH   3   6
HETATM    6  C6  UNL     1      -2.345  -0.183   1.107  1.00  0.00     0.048 C 
BRANCH   6   7
HETATM    7  C7  UNL     1      -3.307   0.858   0.637  1.00  0.00     0.283 C 
BRANCH   7   8
HETATM    8  N2  UNL     1      -4.446   0.838   1.584  1.00  0.00    -0.065 N 
ATOM      9  H23 UNL     1      -4.869  -0.085   1.688  1.00  0.00     0.275 HD
ATOM     10  H22 UNL     1      -4.164   0.959   2.557  1.00  0.00     0.275 HD
ATOM     11  H21 UNL     1      -5.103   1.549   1.263  1.00  0.00     0.275 HD
ENDBRANCH   7   8
BRANCH   7  12
HETATM   12  C8  UNL     1      -3.844   0.679  -0.712  1.00  0.00     0.204 C 
HETATM   13  O2  UNL     1      -3.171   0.743  -1.768  1.00  0.00    -0.646 OA
HETATM   14  O3  UNL     1      -5.210   0.413  -0.872  1.00  0.00    -0.646 OA
ENDBRANCH   7  12
ENDBRANCH   6   7
ENDBRANCH   3   6
BRANCH   1  15
HETATM   15  C2  UNL     1       2.321  -1.240   0.766  1.00  0.00     0.107 C 
HETATM   16  C1  UNL     1       2.492  -2.710   1.053  1.00  0.00     0.029 C 
HETATM   17 CL1  UNL     1       2.106  -0.477   2.384  1.00  0.00    -0.123 Cl
ENDBRANCH   1  15
BRANCH   1  18
HETATM   18  N1  UNL     1       1.157  -1.715  -1.309  1.00  0.00    -0.090 NA
BRANCH  18  19
HETATM   19  O1  UNL     1       1.227  -3.033  -1.177  1.00  0.00    -0.295 OA
ATOM     20  H1  UNL     1       1.274  -3.506  -1.999  1.00  0.00     0.238 HD
ENDBRANCH  18  19
ENDBRANCH   1  18
BRANCH   5  21
HETATM   21  N3  UNL     1       2.045   1.301  -0.285  1.00  0.00    -0.353 N 
HETATM   22  C11 UNL     1       2.521   2.060  -1.388  1.00  0.00     0.231 C 
HETATM   23  O4  UNL     1       1.946   1.980  -2.515  1.00  0.00    -0.272 OA
ATOM     24  H3  UNL     1       2.509   1.367   0.621  1.00  0.00     0.163 HD
BRANCH  22  25
HETATM   25  C12 UNL     1       3.701   2.971  -1.269  1.00  0.00     0.217 C 
HETATM   26 CL2  UNL     1       4.034   3.762  -2.799  1.00  0.00    -0.121 Cl
ENDBRANCH  22  25
ENDBRANCH   5  21
TORSDOF 9
