REMARK  7 active torsions:
REMARK  status: ('A' for Active; 'I' for Inactive)
REMARK    1  A    between atoms: C2_2  and  N1_3 
REMARK       I    between atoms: N1_3  and  C3_5 
REMARK    2  A    between atoms: C3_5  and  O2_7 
REMARK    3  A    between atoms: O2_7  and  C4_8 
REMARK    4  A    between atoms: C4_8  and  C5_9 
REMARK    5  A    between atoms: N2_25  and  O3_27 
REMARK    6  A    between atoms: O3_27  and  C21_28 
REMARK    7  A    between atoms: C21_28  and  C22_29 
ROOT
HETATM    1  C5  UNL     1       3.145  -0.824   0.624  1.00  0.00     0.002 C 
HETATM    2  C6  UNL     1       3.765  -0.985   2.019  1.00  0.00     0.022 C 
HETATM    3  C7  UNL     1       3.835  -1.763  -0.287  1.00  0.00     0.016 C 
HETATM    4  C8  UNL     1       2.993  -2.506  -1.242  1.00  0.00     0.002 C 
HETATM    5  C9  UNL     1       1.607  -1.988  -1.434  1.00  0.00     0.017 C 
HETATM    6  C10 UNL     1       0.859  -1.863  -0.120  1.00  0.00     0.017 C 
HETATM    7  C11 UNL     1       0.645  -3.171   0.563  1.00  0.00     0.023 C 
HETATM    8  C12 UNL     1       1.702  -0.996   0.756  1.00  0.00    -0.062 C 
HETATM    9  C13 UNL     1       1.072  -0.339   1.723  1.00  0.00    -0.022 C 
HETATM   10  C14 UNL     1      -0.382  -0.432   1.956  1.00  0.00     0.036 C 
HETATM   11  C15 UNL     1      -1.185  -0.930   0.806  1.00  0.00     0.038 C 
HETATM   12  C16 UNL     1      -2.456  -0.094   0.578  1.00  0.00    -0.033 C 
HETATM   13  C17 UNL     1      -2.066   1.377   0.375  1.00  0.00     0.016 C 
HETATM   14  C18 UNL     1      -3.269  -0.226   1.811  1.00  0.00     0.016 C 
HETATM   15  C19 UNL     1      -4.643  -0.775   1.632  1.00  0.00     0.055 C 
HETATM   16  C20 UNL     1      -5.250  -0.149   0.447  1.00  0.00     0.010 C 
HETATM   17  N2  UNL     1      -6.349   0.499   0.500  1.00  0.00    -0.275 N 
ATOM     18  H2  UNL     1      -6.821   0.583   1.401  1.00  0.00     0.193 HD
HETATM   19  C23 UNL     1      -4.538  -0.294  -0.832  1.00  0.00     0.060 C 
HETATM   20  C24 UNL     1      -3.071  -0.571  -0.681  1.00  0.00    -0.000 C 
HETATM   21  C25 UNL     1      -2.738  -2.041  -0.976  1.00  0.00     0.009 C 
HETATM   22  C26 UNL     1      -1.262  -2.070  -1.345  1.00  0.00     0.045 C 
HETATM   23  C27 UNL     1      -0.449  -1.161  -0.465  1.00  0.00     0.119 C 
HETATM   24  F4  UNL     1      -0.114  -0.032  -1.159  1.00  0.00    -0.241 F 
ENDROOT
BRANCH   1  25
HETATM   25  C4  UNL     1       3.406   0.626   0.233  1.00  0.00     0.194 C 
BRANCH  25  26
HETATM   26  O2  UNL     1       4.800   0.895   0.203  1.00  0.00    -0.303 OA
BRANCH  26  27
HETATM   27  C3  UNL     1       5.333   2.110  -0.116  1.00  0.00     0.360 C 
HETATM   28  N1  UNL     1       6.731   2.306  -0.125  1.00  0.00    -0.337 N 
ATOM     29  H1  UNL     1       7.362   1.539   0.108  1.00  0.00     0.164 HD
HETATM   30  O1  UNL     1       4.575   3.064  -0.404  1.00  0.00    -0.239 OA
BRANCH  28  31
HETATM   31  C2  UNL     1       7.257   3.609  -0.469  1.00  0.00     0.120 C 
HETATM   32  C1  UNL     1       8.752   3.659  -0.434  1.00  0.00     0.026 C 
ENDBRANCH  28  31
ENDBRANCH  26  27
ENDBRANCH  25  26
ENDBRANCH   1  25
BRANCH  17  33
HETATM   33  O3  UNL     1      -6.924   1.086  -0.594  1.00  0.00    -0.272 OA
BRANCH  33  34
HETATM   34  C21 UNL     1      -7.853   2.110  -0.384  1.00  0.00     0.318 C 
BRANCH  34  35
HETATM   35  C22 UNL     1      -8.401   2.659  -1.693  1.00  0.00     0.410 C 
HETATM   36  F1  UNL     1      -7.387   3.174  -2.471  1.00  0.00    -0.169 F 
HETATM   37  F2  UNL     1      -8.941   1.596  -2.380  1.00  0.00    -0.169 F 
HETATM   38  F3  UNL     1      -9.304   3.668  -1.468  1.00  0.00    -0.169 F 
ENDBRANCH  34  35
ENDBRANCH  33  34
ENDBRANCH  17  33
TORSDOF 7
