REMARK  8 active torsions:
REMARK  status: ('A' for Active; 'I' for Inactive)
REMARK    1  A    between atoms: N1_1  and  N2_4 
REMARK       I    between atoms: N2_4  and  C1_6 
REMARK    2  A    between atoms: C1_6  and  O2_8 
REMARK    3  A    between atoms: O2_8  and  N3_9 
REMARK    4  A    between atoms: N3_9  and  C2_10 
REMARK    5  A    between atoms: C2_10  and  C3_11 
REMARK    6  A    between atoms: C3_11  and  C4_12 
REMARK    7  A    between atoms: C4_12  and  N4_13 
REMARK    8  A    between atoms: N4_13  and  C5_15 
ROOT
HETATM    1  C5  UNL     1       1.597  -2.250   0.352  1.00  0.00     0.149 A 
HETATM    2  N5  UNL     1       2.393  -3.283   0.765  1.00  0.00    -0.335 N 
ATOM      3  H5  UNL     1       1.978  -4.172   1.043  1.00  0.00     0.168 HD
HETATM    4  C6  UNL     1       3.722  -3.118   0.802  1.00  0.00     0.199 A 
HETATM    5  N6  UNL     1       4.307  -1.957   0.443  1.00  0.00    -0.286 N 
ATOM      6  H6  UNL     1       5.320  -1.847   0.477  1.00  0.00     0.188 HD
HETATM    7  N7  UNL     1       3.526  -0.965   0.045  1.00  0.00    -0.217 N 
HETATM    8  C7  UNL     1       3.810   0.301  -0.373  1.00  0.00     0.151 A 
HETATM    9  C8  UNL     1       2.652   0.974  -0.688  1.00  0.00     0.083 A 
HETATM   10  N8  UNL     1       1.666   0.107  -0.458  1.00  0.00    -0.337 N 
ATOM     11  H8  UNL     1       0.673   0.298  -0.595  1.00  0.00     0.167 HD
HETATM   12  C9  UNL     1       2.176  -1.060  -0.018  1.00  0.00     0.173 A 
HETATM   13  C10 UNL     1       2.778   2.372  -1.164  1.00  0.00     0.295 C 
HETATM   14  N9  UNL     1       3.765   3.038  -0.373  1.00  0.00    -0.054 N 
ATOM     15  H91 UNL     1       3.438   3.142   0.587  1.00  0.00     0.279 HD
ATOM     16  H92 UNL     1       3.833   4.019  -0.643  1.00  0.00     0.279 HD
HETATM   17  C11 UNL     1       5.054   2.428  -0.394  1.00  0.00     0.356 C 
HETATM   18  N10 UNL     1       5.033   1.007  -0.530  1.00  0.00    -0.350 N 
ATOM     19  H10 UNL     1       5.893   0.500  -0.739  1.00  0.00     0.162 HD
ENDROOT
BRANCH   1  20
HETATM   20  N4  UNL     1       0.344  -2.422   0.323  1.00  0.00    -0.373 N 
ATOM     21  H4  UNL     1      -0.013  -3.332   0.613  1.00  0.00     0.161 HD
BRANCH  20  22
HETATM   22  C4  UNL     1      -0.604  -1.444  -0.083  1.00  0.00     0.122 C 
BRANCH  22  23
HETATM   23  C3  UNL     1      -2.030  -2.015  -0.008  1.00  0.00     0.038 C 
BRANCH  23  24
HETATM   24  C2  UNL     1      -2.950  -0.893  -0.459  1.00  0.00     0.145 C 
BRANCH  24  25
HETATM   25  N3  UNL     1      -4.337  -1.298  -0.436  1.00  0.00    -0.090 NA
BRANCH  25  26
HETATM   26  O2  UNL     1      -5.095  -0.242  -0.852  1.00  0.00    -0.188 OA
BRANCH  26  27
HETATM   27  C1  UNL     1      -5.610   0.697   0.005  1.00  0.00     0.397 C 
HETATM   28  N2  UNL     1      -6.389   1.770  -0.484  1.00  0.00    -0.251 N 
ATOM     29  H2  UNL     1      -6.563   1.834  -1.487  1.00  0.00     0.191 HD
HETATM   30  O1  UNL     1      -5.355   0.556   1.231  1.00  0.00    -0.235 OA
BRANCH  28  31
HETATM   31  N1  UNL     1      -6.929   2.746   0.358  1.00  0.00    -0.341 N 
ATOM     32  H12 UNL     1      -6.745   2.666   1.358  1.00  0.00     0.177 HD
ATOM     33  H11 UNL     1      -7.491   3.520   0.005  1.00  0.00     0.177 HD
ENDBRANCH  28  31
ENDBRANCH  26  27
ENDBRANCH  25  26
ENDBRANCH  24  25
ENDBRANCH  23  24
ENDBRANCH  22  23
ENDBRANCH  20  22
ENDBRANCH   1  20
TORSDOF 8
