REMARK  3 active torsions:
REMARK  status: ('A' for Active; 'I' for Inactive)
REMARK    1  A    between atoms: N2_10  and  C7_11 
REMARK    2  A    between atoms: C7_11  and  C8_12 
REMARK    3  A    between atoms: C8_12  and  C9_13 
ROOT
HETATM    1  N1  UNL     1      -3.872  -1.110   1.804  1.00  0.00    -0.389 N 
ATOM      2  H11 UNL     1      -3.664  -1.993   2.270  1.00  0.00     0.157 HD
ATOM      3  H12 UNL     1      -4.818  -0.730   1.845  1.00  0.00     0.157 HD
HETATM    4  C1  UNL     1      -2.992  -0.428   1.158  1.00  0.00     0.071 C 
HETATM    5  C2  UNL     1      -3.294   0.854   0.482  1.00  0.00     0.076 C 
HETATM    6  C3  UNL     1      -2.658   0.926  -0.892  1.00  0.00     0.010 C 
HETATM    7  C4  UNL     1      -1.862  -0.317  -1.190  1.00  0.00     0.035 C 
HETATM    8  C5  UNL     1      -0.896  -0.661  -0.084  1.00  0.00     0.076 C 
HETATM    9  C6  UNL     1       0.140   0.425   0.137  1.00  0.00     0.304 C 
HETATM   10  N2  UNL     1       1.228   0.155  -0.745  1.00  0.00     0.092 N 
HETATM   11  C10 UNL     1       0.965  -1.091  -1.439  1.00  0.00     0.295 C 
HETATM   12  C11 UNL     1      -0.021  -1.811  -0.524  1.00  0.00     0.140 C 
HETATM   13 CL1  UNL     1      -0.874  -3.057  -1.410  1.00  0.00    -0.120 Cl
HETATM   14  N3  UNL     1      -1.647  -0.968   1.099  1.00  0.00    -0.368 N 
ATOM     15  H3  UNL     1      -1.258  -1.533   1.854  1.00  0.00     0.161 HD
ENDROOT
BRANCH  10  16
HETATM   16  C7  UNL     1       2.520   0.071  -0.134  1.00  0.00     0.275 C 
BRANCH  16  17
HETATM   17  C8  UNL     1       3.038   1.372   0.396  1.00  0.00     0.061 C 
BRANCH  17  18
HETATM   18  C9  UNL     1       4.414   1.111   0.996  1.00  0.00     0.223 C 
HETATM   19  F1  UNL     1       5.265   0.609  -0.001  1.00  0.00    -0.255 F 
ENDBRANCH  17  18
ENDBRANCH  16  17
ENDBRANCH  10  16
TORSDOF 3
