REMARK  4 active torsions:
REMARK  status: ('A' for Active; 'I' for Inactive)
REMARK    1  A    between atoms: C2_3  and  N2_4 
REMARK    2  A    between atoms: N2_4  and  C3_6 
REMARK    3  A    between atoms: N4_13  and  C7_15 
REMARK    4  A    between atoms: C7_15  and  C8_16 
ROOT
HETATM    1  N1  UNL     1      -0.775  -0.870   2.595  1.00  0.00    -0.195 NA
HETATM    2  C1  UNL     1      -0.911  -0.715   1.453  1.00  0.00     0.091 C 
HETATM    3  C2  UNL     1      -1.103  -0.533   0.017  1.00  0.00     0.128 C 
HETATM    4  C4  UNL     1      -1.496  -1.879  -0.575  1.00  0.00     0.057 C 
HETATM    5  C5  UNL     1      -0.621  -3.000  -0.111  1.00  0.00     0.084 C 
HETATM    6  S2  UNL     1       1.059  -2.639  -0.744  1.00  0.00    -0.117 SA
HETATM    7  C6  UNL     1       1.318  -0.888  -0.493  1.00  0.00     0.045 C 
HETATM    8  N4  UNL     1       2.501  -0.479  -0.231  1.00  0.00    -0.387 N 
ATOM      9  H4  UNL     1       3.276  -1.139  -0.168  1.00  0.00     0.159 HD
HETATM   10  C9  UNL     1       0.136   0.013  -0.601  1.00  0.00     0.111 C 
ENDROOT
BRANCH   3  11
HETATM   11  N2  UNL     1      -2.197   0.372  -0.191  1.00  0.00    -0.347 N 
ATOM     12  H2  UNL     1      -2.949   0.041  -0.795  1.00  0.00     0.163 HD
BRANCH  11  13
HETATM   13  C3  UNL     1      -2.349   1.658   0.341  1.00  0.00     0.182 C 
HETATM   14  N3  UNL     1      -3.526   2.422   0.009  1.00  0.00    -0.070 NA
HETATM   15  S1  UNL     1      -1.299   2.402   1.345  1.00  0.00    -0.044 SA
ENDBRANCH  11  13
ENDBRANCH   3  11
BRANCH   8  16
HETATM   16  C7  UNL     1       2.716   0.913  -0.029  1.00  0.00     0.135 C 
BRANCH  16  17
HETATM   17  C8  UNL     1       4.211   1.181  -0.072  1.00  0.00     0.134 C 
HETATM   18 CL1  UNL     1       5.052   0.267   1.196  1.00  0.00    -0.129 Cl
ENDBRANCH  16  17
ENDBRANCH   8  16
TORSDOF 4
