REMARK  3 active torsions:
REMARK  status: ('A' for Active; 'I' for Inactive)
REMARK    1  A    between atoms: C3_5  and  N2_6 
REMARK    2  A    between atoms: C6_9  and  N3_10 
REMARK    3  A    between atoms: C7_13  and  C8_14 
ROOT
HETATM    1  C1  UNL     1       0.257   3.066  -0.300  1.00  0.00     0.069 C 
HETATM    2  C2  UNL     1      -0.247   1.662  -0.122  1.00  0.00     0.016 A 
HETATM    3  N1  UNL     1      -1.572   1.370  -0.140  1.00  0.00    -0.344 N 
ATOM      4  H1  UNL     1      -2.318   2.061  -0.219  1.00  0.00     0.167 HD
HETATM    5  C3  UNL     1      -1.763   0.049  -0.039  1.00  0.00     0.137 A 
HETATM    6  C6  UNL     1      -0.481  -0.498   0.051  1.00  0.00     0.155 A 
HETATM    7  C7  UNL     1       0.489   0.509  -0.007  1.00  0.00     0.008 A 
ENDROOT
BRANCH   7   8
HETATM    8  C8  UNL     1       1.934   0.539   0.111  1.00  0.00     0.069 C 
HETATM    9  C9  UNL     1       2.575  -0.122  -1.154  1.00  0.00     0.243 C 
HETATM   10  N4  UNL     1       3.964  -0.091  -0.703  1.00  0.00    -0.073 N 
HETATM   11  C10 UNL     1       3.822  -0.849   0.542  1.00  0.00     0.253 C 
ATOM     12  H42 UNL     1       4.660  -0.437  -1.364  1.00  0.00     0.277 HD
ATOM     13  H41 UNL     1       4.390   0.832  -0.622  1.00  0.00     0.277 HD
HETATM   14  C11 UNL     1       2.575  -0.247   1.203  1.00  0.00     0.118 C 
HETATM   15 CL1  UNL     1       3.206   0.803   2.501  1.00  0.00    -0.122 Cl
ENDBRANCH   7   8
BRANCH   6  16
HETATM   16  N3  UNL     1      -0.240  -1.846   0.325  1.00  0.00    -0.111 N 
HETATM   17  O1  UNL     1       0.073  -2.744  -0.443  1.00  0.00    -0.532 OA
HETATM   18  O2  UNL     1      -0.355  -2.223   1.679  1.00  0.00    -0.532 OA
ENDBRANCH   6  16
BRANCH   5  19
HETATM   19  N2  UNL     1      -3.029  -0.584  -0.029  1.00  0.00    -0.374 N 
HETATM   20  C4  UNL     1      -4.290   0.194   0.006  1.00  0.00     0.150 C 
HETATM   21  C5  UNL     1      -3.259  -2.004  -0.057  1.00  0.00     0.150 C 
ENDBRANCH   5  19
TORSDOF 3
