REMARK  8 active torsions:
REMARK  status: ('A' for Active; 'I' for Inactive)
REMARK    1  A    between atoms: O1_2  and  C2_3 
REMARK    2  A    between atoms: C4_5  and  C5_6 
REMARK    3  A    between atoms: C5_6  and  C6_8 
REMARK    4  A    between atoms: C6_8  and  S1_9 
REMARK    5  A    between atoms: S1_9  and  C7_10 
REMARK    6  A    between atoms: C8_13  and  C9_14 
REMARK    7  A    between atoms: C15_25  and  O3_26 
REMARK    8  A    between atoms: C17_28  and  O4_29 
ROOT
HETATM    1  C6  UNL     1      -0.009   0.552  -0.269  1.00  0.00     0.161 C 
ENDROOT
BRANCH   1   2
HETATM    2  C5  UNL     1      -1.094  -0.236  -0.892  1.00  0.00     0.169 C 
HETATM    3  O2  UNL     1      -0.784  -1.100  -1.745  1.00  0.00    -0.291 OA
BRANCH   2   4
HETATM    4  C4  UNL     1      -2.465   0.020  -0.493  1.00  0.00     0.016 A 
HETATM    5  C3  UNL     1      -2.757   0.979   0.451  1.00  0.00     0.055 A 
HETATM    6  C2  UNL     1      -4.058   1.229   0.843  1.00  0.00     0.105 A 
HETATM    7  C17 UNL     1      -5.089   0.529   0.302  1.00  0.00     0.135 A 
HETATM    8  C15 UNL     1      -4.807  -0.452  -0.662  1.00  0.00     0.105 A 
HETATM    9  C14 UNL     1      -3.515  -0.706  -1.057  1.00  0.00     0.055 A 
BRANCH   6  10
HETATM   10  O1  UNL     1      -4.318   2.210   1.804  1.00  0.00    -0.353 OA
HETATM   11  C1  UNL     1      -3.338   2.986   2.421  1.00  0.00     0.210 C 
ENDBRANCH   6  10
BRANCH   7  12
HETATM   12  O4  UNL     1      -6.406   0.774   0.692  1.00  0.00    -0.351 OA
HETATM   13  C18 UNL     1      -7.245   1.704   0.077  1.00  0.00     0.210 C 
ENDBRANCH   7  12
BRANCH   8  14
HETATM   14  O3  UNL     1      -5.901  -1.108  -1.154  1.00  0.00    -0.353 OA
HETATM   15  C16 UNL     1      -5.857  -2.104  -2.104  1.00  0.00     0.210 C 
ENDBRANCH   8  14
ENDBRANCH   2   4
ENDBRANCH   1   2
BRANCH   1  16
HETATM   16  S1  UNL     1       1.626   0.099  -0.851  1.00  0.00    -0.111 SA
BRANCH  16  17
HETATM   17  C7  UNL     1       1.989  -1.584  -0.313  1.00  0.00     0.358 C 
HETATM   18  N1  UNL     1       2.089  -1.651   1.154  1.00  0.00    -0.102 NA
HETATM   19  N2  UNL     1       3.395  -1.147   1.347  1.00  0.00    -0.106 NA
HETATM   20  C8  UNL     1       4.140  -1.929   0.373  1.00  0.00     0.338 C 
HETATM   21  N3  UNL     1       3.289  -2.012  -0.793  1.00  0.00    -0.023 N 
ATOM     22  H32 UNL     1       3.288  -2.926  -1.246  1.00  0.00     0.282 HD
ATOM     23  H31 UNL     1       3.631  -1.489  -1.599  1.00  0.00     0.282 HD
BRANCH  20  24
HETATM   24  C9  UNL     1       5.387  -1.124   0.081  1.00  0.00     0.048 A 
HETATM   25  S2  UNL     1       5.540   0.551  -0.220  1.00  0.00    -0.095 SA
HETATM   26  C10 UNL     1       7.227   0.635  -0.443  1.00  0.00    -0.019 A 
HETATM   27  C11 UNL     1       8.077   1.838  -0.751  1.00  0.00     0.056 C 
HETATM   28  C12 UNL     1       7.624  -0.662  -0.274  1.00  0.00     0.034 A 
HETATM   29  C13 UNL     1       6.680  -1.569  -0.004  1.00  0.00     0.028 A 
HETATM   30 BR1  UNL     1       7.054  -3.460   0.269  1.00  0.00    -0.050 Br
ENDBRANCH  20  24
ENDBRANCH  16  17
ENDBRANCH   1  16
TORSDOF 8
