REMARK  10 active torsions:
REMARK  status: ('A' for Active; 'I' for Inactive)
REMARK    1  A    between atoms: O1_2  and  C2_3 
REMARK    2  A    between atoms: C4_7  and  O2_8 
REMARK    3  A    between atoms: O2_8  and  C5_9 
REMARK    4  A    between atoms: C6_11  and  C7_12 
REMARK    5  A    between atoms: C7_12  and  O4_13 
REMARK    6  A    between atoms: O4_13  and  C8_14 
REMARK    7  A    between atoms: C14_20  and  O5_21 
REMARK    8  A    between atoms: C15_23  and  O6_24 
REMARK    9  A    between atoms: C16_26  and  O7_27 
REMARK   10  A    between atoms: C17_29  and  C18_30 
ROOT
HETATM    1  C5  UNL     1      -1.343  -0.489  -0.356  1.00  0.00     0.298 C 
HETATM    2  O3  UNL     1      -0.349  -0.341   0.631  1.00  0.00    -0.348 OA
HETATM    3  C6  UNL     1       0.908  -0.285   0.108  1.00  0.00     0.179 C 
HETATM    4  C14 UNL     1       0.971   0.871  -0.872  1.00  0.00     0.180 C 
HETATM    5  C15 UNL     1       0.209   0.392  -2.111  1.00  0.00     0.183 C 
HETATM    6  C16 UNL     1      -0.787  -0.683  -1.711  1.00  0.00     0.205 C 
ENDROOT
BRANCH   1   7
HETATM    7  O2  UNL     1      -2.284   0.568  -0.221  1.00  0.00    -0.314 OA
BRANCH   7   8
HETATM    8  C4  UNL     1      -3.459   0.417   0.585  1.00  0.00     0.115 A 
HETATM    9  C3  UNL     1      -3.357   0.722   1.929  1.00  0.00     0.111 A 
HETATM   10  S1  UNL     1      -4.915   0.430   2.535  1.00  0.00    -0.050 SA
HETATM   11 CL1  UNL     1      -1.902   1.288   2.787  1.00  0.00    -0.073 Cl
HETATM   12  C2  UNL     1      -5.671  -0.070   1.095  1.00  0.00     0.124 A 
HETATM   13  C17 UNL     1      -4.675   0.005   0.160  1.00  0.00     0.051 A 
BRANCH  12  14
HETATM   14  O1  UNL     1      -7.016  -0.474   0.883  1.00  0.00    -0.348 OA
HETATM   15  C1  UNL     1      -7.894  -0.488   1.984  1.00  0.00     0.211 C 
ENDBRANCH  12  14
BRANCH  13  16
HETATM   16  C18 UNL     1      -5.031  -0.352  -1.262  1.00  0.00    -0.013 A 
HETATM   17  C19 UNL     1      -5.322   0.580  -2.196  1.00  0.00     0.020 A 
HETATM   18  C20 UNL     1      -5.646   0.135  -3.444  1.00  0.00     0.050 A 
HETATM   19  S2  UNL     1      -5.539  -1.559  -3.294  1.00  0.00    -0.113 SA
HETATM   20  C21 UNL     1      -5.085  -1.659  -1.647  1.00  0.00     0.062 A 
ENDBRANCH  13  16
ENDBRANCH   7   8
ENDBRANCH   1   7
BRANCH   6  21
HETATM   21  O7  UNL     1      -1.773  -0.663  -2.680  1.00  0.00    -0.388 OA
ATOM     22  H7  UNL     1      -1.415  -0.788  -3.551  1.00  0.00     0.210 HD
ENDBRANCH   6  21
BRANCH   3  23
HETATM   23  C7  UNL     1       1.978  -0.153   1.175  1.00  0.00     0.203 C 
BRANCH  23  24
HETATM   24  O4  UNL     1       3.248  -0.092   0.608  1.00  0.00    -0.383 OA
BRANCH  24  25
HETATM   25  C8  UNL     1       4.247   0.046   1.548  1.00  0.00     0.121 C 
HETATM   26  C9  UNL     1       4.939   1.371   1.341  1.00  0.00     0.032 C 
HETATM   27  C10 UNL     1       6.387   1.360   1.738  1.00  0.00     0.002 C 
HETATM   28  C11 UNL     1       7.196   0.291   1.065  1.00  0.00     0.000 C 
HETATM   29  C12 UNL     1       6.324  -0.822   0.544  1.00  0.00     0.002 C 
HETATM   30  C13 UNL     1       5.231  -1.101   1.572  1.00  0.00     0.032 C 
ENDBRANCH  24  25
ENDBRANCH  23  24
ENDBRANCH   3  23
BRANCH   5  31
HETATM   31  O6  UNL     1       1.139  -0.194  -2.957  1.00  0.00    -0.390 OA
ATOM     32  H6  UNL     1       0.666  -0.491  -3.726  1.00  0.00     0.210 HD
ENDBRANCH   5  31
BRANCH   4  33
HETATM   33  O5  UNL     1       0.288   1.934  -0.324  1.00  0.00    -0.390 OA
ATOM     34  H5  UNL     1       0.327   2.658  -0.938  1.00  0.00     0.210 HD
ENDBRANCH   4  33
TORSDOF 10
