REMARK  7 active torsions:
REMARK  status: ('A' for Active; 'I' for Inactive)
REMARK    1  A    between atoms: O1_1  and  C1_3 
REMARK    2  A    between atoms: C1_3  and  C2_4 
REMARK    3  A    between atoms: C4_6  and  N1_7 
REMARK    4  A    between atoms: N1_7  and  C5_10 
REMARK    5  A    between atoms: C12_17  and  O2_18 
REMARK    6  A    between atoms: C13_20  and  O3_21 
REMARK    7  A    between atoms: C14_23  and  O4_24 
ROOT
HETATM    1  C2  UNL     1      -2.519   0.672   0.489  1.00  0.00     0.043 C 
HETATM    2  C3  UNL     1      -1.049   0.648   0.093  1.00  0.00     0.045 C 
HETATM    3  C4  UNL     1      -0.582  -0.764   0.306  1.00  0.00     0.218 C 
HETATM    4  C12 UNL     1      -1.347  -1.749  -0.502  1.00  0.00     0.180 C 
HETATM    5  C13 UNL     1      -2.776  -1.489  -0.762  1.00  0.00     0.178 C 
HETATM    6  C14 UNL     1      -3.277  -0.104  -0.526  1.00  0.00     0.155 C 
ENDROOT
BRANCH   3   7
HETATM    7  N1  UNL     1       0.828  -0.894  -0.108  1.00  0.00    -0.064 N 
ATOM      8  H12 UNL     1       1.135  -1.866  -0.072  1.00  0.00     0.278 HD
ATOM      9  H11 UNL     1       0.935  -0.727  -1.108  1.00  0.00     0.278 HD
BRANCH   7  10
HETATM   10  C5  UNL     1       1.696  -0.050   0.653  1.00  0.00     0.191 C 
HETATM   11  C6  UNL     1       2.947  -0.709   1.160  1.00  0.00     0.038 C 
HETATM   12  C7  UNL     1       4.098   0.179   0.737  1.00  0.00    -0.012 C 
HETATM   13  C8  UNL     1       4.333  -0.016  -0.729  1.00  0.00     0.005 C 
HETATM   14  C11 UNL     1       3.383   1.542   0.700  1.00  0.00     0.011 C 
HETATM   15  C9  UNL     1       2.992   0.424  -1.326  1.00  0.00     0.007 C 
HETATM   16  C10 UNL     1       2.240   1.078  -0.194  1.00  0.00     0.017 C 
ENDBRANCH   7  10
ENDBRANCH   3   7
BRANCH   4  17
HETATM   17  O2  UNL     1      -1.219  -2.991   0.123  1.00  0.00    -0.391 OA
ATOM     18  H2  UNL     1      -1.708  -3.621  -0.394  1.00  0.00     0.210 HD
ENDBRANCH   4  17
BRANCH   1  19
HETATM   19  C1  UNL     1      -2.976   2.131   0.390  1.00  0.00     0.171 C 
BRANCH  19  20
HETATM   20  O1  UNL     1      -4.326   2.214   0.702  1.00  0.00    -0.400 OA
ATOM     21  H1  UNL     1      -4.609   3.119   0.641  1.00  0.00     0.209 HD
ENDBRANCH  19  20
ENDBRANCH   1  19
BRANCH   5  22
HETATM   22  O3  UNL     1      -3.589  -2.378  -0.041  1.00  0.00    -0.390 OA
ATOM     23  H3  UNL     1      -4.509  -2.211  -0.208  1.00  0.00     0.210 HD
ENDBRANCH   5  22
BRANCH   6  24
HETATM   24  O4  UNL     1      -4.608  -0.182  -0.089  1.00  0.00    -0.392 OA
ATOM     25  H4  UNL     1      -5.093  -0.678  -0.738  1.00  0.00     0.210 HD
ENDBRANCH   6  24
TORSDOF 7
