REMARK  16 active torsions:
REMARK  status: ('A' for Active; 'I' for Inactive)
REMARK    1  A    between atoms: C2_2  and  C3_3 
REMARK    2  A    between atoms: C3_3  and  C4_5 
REMARK    3  A    between atoms: C4_5  and  N1_6 
REMARK    4  A    between atoms: C4_5  and  C19_27 
REMARK       I    between atoms: N1_6  and  C5_8 
REMARK    5  A    between atoms: C5_8  and  C6_10 
REMARK    6  A    between atoms: C6_10  and  C7_11 
REMARK    7  A    between atoms: C6_10  and  N2_18 
REMARK    8  A    between atoms: C7_11  and  C8_12 
REMARK       I    between atoms: N2_18  and  C14_20 
REMARK    9  A    between atoms: C14_20  and  O4_22 
REMARK   10  A    between atoms: O4_22  and  C15_23 
REMARK   11  A    between atoms: C19_27  and  O5_28 
REMARK   12  A    between atoms: C19_27  and  C31_44 
REMARK   13  A    between atoms: O5_28  and  C20_29 
REMARK       I    between atoms: C20_29  and  N3_31 
REMARK   14  A    between atoms: N4_34  and  C23_35 
REMARK   15  A    between atoms: C23_35  and  C24_36 
REMARK       I    between atoms: C31_44  and  N5_46 
REMARK   16  A    between atoms: N5_46  and  C32_48 
ROOT
HETATM    1  C4  UNL     1      -0.452  -2.073  -1.581  1.00  0.00     0.193 C 
ENDROOT
BRANCH   1   2
HETATM    2  C3  UNL     1       0.417  -1.294  -2.565  1.00  0.00     0.152 C 
HETATM    3  O1  UNL     1       0.498  -0.059  -2.477  1.00  0.00    -0.296 OA
BRANCH   2   4
HETATM    4  C2  UNL     1       1.182  -1.953  -3.643  1.00  0.00     0.076 C 
HETATM    5  C1  UNL     1       0.189  -2.255  -4.781  1.00  0.00     0.013 C 
ENDBRANCH   2   4
ENDBRANCH   1   2
BRANCH   1   6
HETATM    6  N1  UNL     1      -1.093  -1.153  -0.688  1.00  0.00    -0.342 N 
HETATM    7  C5  UNL     1      -2.072  -0.229  -1.029  1.00  0.00     0.264 C 
HETATM    8  O2  UNL     1      -2.388  -0.212  -2.283  1.00  0.00    -0.266 OA
ATOM      9  H1  UNL     1      -0.803  -1.180   0.290  1.00  0.00     0.163 HD
BRANCH   7  10
HETATM   10  C6  UNL     1      -2.800   0.733  -0.216  1.00  0.00     0.082 C 
BRANCH  10  11
HETATM   11  C7  UNL     1      -2.654   0.724   1.243  1.00  0.00     0.067 C 
BRANCH  11  12
HETATM   12  C8  UNL     1      -3.108  -0.506   1.975  1.00  0.00    -0.009 C 
HETATM   13  C9  UNL     1      -2.881  -0.364   3.473  1.00  0.00     0.005 C 
HETATM   14  C10 UNL     1      -3.152  -1.699   4.117  1.00  0.00     0.000 C 
HETATM   15  C11 UNL     1      -4.540  -2.232   3.812  1.00  0.00     0.000 C 
HETATM   16  C12 UNL     1      -4.862  -2.171   2.351  1.00  0.00     0.000 C 
HETATM   17  C13 UNL     1      -4.590  -0.764   1.792  1.00  0.00     0.005 C 
ENDBRANCH  11  12
ENDBRANCH  10  11
BRANCH  10  18
HETATM   18  N2  UNL     1      -2.783   2.067  -0.766  1.00  0.00    -0.301 N 
HETATM   19  C14 UNL     1      -3.912   2.733  -1.298  1.00  0.00     0.365 C 
HETATM   20  O3  UNL     1      -5.063   2.254  -1.362  1.00  0.00    -0.238 OA
ATOM     21  H2  UNL     1      -1.893   2.565  -0.772  1.00  0.00     0.171 HD
BRANCH  19  22
HETATM   22  O4  UNL     1      -3.796   4.035  -1.808  1.00  0.00    -0.294 OA
BRANCH  22  23
HETATM   23  C15 UNL     1      -4.829   4.790  -2.346  1.00  0.00     0.061 C 
HETATM   24  C16 UNL     1      -5.890   4.977  -1.269  1.00  0.00     0.046 C 
HETATM   25  C17 UNL     1      -5.547   4.128  -3.505  1.00  0.00     0.046 C 
HETATM   26  C18 UNL     1      -4.371   6.166  -2.771  1.00  0.00     0.046 C 
ENDBRANCH  22  23
ENDBRANCH  19  22
ENDBRANCH  10  18
ENDBRANCH   7  10
ENDBRANCH   1   6
BRANCH   1  27
HETATM   27  C19 UNL     1       0.426  -3.066  -0.875  1.00  0.00     0.255 C 
BRANCH  27  28
HETATM   28  O5  UNL     1       1.432  -2.383  -0.143  1.00  0.00    -0.286 OA
BRANCH  28  29
HETATM   29  C20 UNL     1       2.791  -2.541  -0.214  1.00  0.00     0.363 C 
HETATM   30  O6  UNL     1       3.232  -3.407  -1.008  1.00  0.00    -0.238 OA
HETATM   31  N3  UNL     1       3.693  -1.782   0.550  1.00  0.00    -0.325 N 
HETATM   32  C21 UNL     1       3.211  -0.765   1.467  1.00  0.00     0.158 C 
HETATM   33  C30 UNL     1       5.110  -1.931   0.459  1.00  0.00     0.158 C 
HETATM   34  C22 UNL     1       3.870   0.574   1.079  1.00  0.00     0.292 C 
HETATM   35  N4  UNL     1       5.273   0.460   1.145  1.00  0.00     0.091 N 
HETATM   36  C29 UNL     1       5.834  -0.844   1.227  1.00  0.00     0.292 C 
BRANCH  35  37
HETATM   37  C23 UNL     1       6.007   1.215   0.159  1.00  0.00     0.277 C 
BRANCH  37  38
HETATM   38  C24 UNL     1       5.873   2.699   0.317  1.00  0.00     0.018 C 
HETATM   39  C25 UNL     1       6.702   3.368  -0.753  1.00  0.00     0.032 C 
HETATM   40  C26 UNL     1       8.108   3.715  -0.282  1.00  0.00     0.168 C 
HETATM   41  O7  UNL     1       8.145   4.510   0.832  1.00  0.00    -0.391 OA
HETATM   42  C27 UNL     1       7.024   4.504   1.621  1.00  0.00     0.168 C 
HETATM   43  C28 UNL     1       6.374   3.138   1.658  1.00  0.00     0.032 C 
ENDBRANCH  37  38
ENDBRANCH  35  37
ENDBRANCH  28  29
ENDBRANCH  27  28
BRANCH  27  44
HETATM   44  C31 UNL     1      -0.317  -3.896   0.114  1.00  0.00     0.250 C 
HETATM   45  O8  UNL     1       0.016  -3.812   1.319  1.00  0.00    -0.271 OA
HETATM   46  N5  UNL     1      -1.356  -4.741  -0.315  1.00  0.00    -0.354 N 
ATOM     47  H5  UNL     1      -1.594  -4.779  -1.306  1.00  0.00     0.162 HD
BRANCH  46  48
HETATM   48  C32 UNL     1      -2.102  -5.567   0.634  1.00  0.00     0.084 A 
HETATM   49  C33 UNL     1      -2.223  -7.026   0.353  1.00  0.00     0.027 A 
HETATM   50  C34 UNL     1      -3.419  -6.137   0.328  1.00  0.00     0.027 A 
ENDBRANCH  46  48
ENDBRANCH  27  44
ENDBRANCH   1  27
TORSDOF 16
