REMARK  4 active torsions:
REMARK  status: ('A' for Active; 'I' for Inactive)
REMARK    1  A    between atoms: C3_4  and  N2_5 
REMARK    2  A    between atoms: N2_5  and  N3_6 
REMARK       I    between atoms: N2_5  and  C5_11 
REMARK    3  A    between atoms: N3_6  and  C4_8 
REMARK    4  A    between atoms: C5_11  and  C6_13 
ROOT
HETATM    1  N2  UNL     1       0.308  -0.085   0.823  1.00  0.00    -0.249 N 
HETATM    2  C5  UNL     1      -1.068   0.225   0.849  1.00  0.00     0.243 C 
HETATM    3  O1  UNL     1      -1.713  -0.155   1.891  1.00  0.00    -0.271 OA
ENDROOT
BRANCH   1   4
HETATM    4  C3  UNL     1       1.223   0.242  -0.247  1.00  0.00     0.151 C 
HETATM    5  C2  UNL     1       2.461   0.939   0.268  1.00  0.00     0.085 C 
HETATM    6  N1  UNL     1       3.472   0.548  -0.406  1.00  0.00    -0.395 N 
HETATM    7  C1  UNL     1       4.819   0.991  -0.207  1.00  0.00     0.148 C 
HETATM    8  C12 UNL     1       3.108  -0.413  -1.413  1.00  0.00     0.123 C 
HETATM    9  C11 UNL     1       1.884  -1.049  -0.736  1.00  0.00     0.052 C 
ENDBRANCH   1   4
BRANCH   1  10
HETATM   10  N3  UNL     1       0.860  -0.775   1.934  1.00  0.00    -0.273 N 
ATOM     11  H3  UNL     1       1.444  -0.251   2.585  1.00  0.00     0.189 HD
BRANCH  10  12
HETATM   12  C4  UNL     1       0.644  -2.146   2.186  1.00  0.00     0.199 C 
HETATM   13  N4  UNL     1      -0.164  -2.903   1.300  1.00  0.00    -0.068 NA
HETATM   14  S1  UNL     1       1.285  -2.922   3.469  1.00  0.00    -0.043 SA
ENDBRANCH  10  12
ENDBRANCH   1  10
BRANCH   2  15
HETATM   15  C6  UNL     1      -1.751   0.939  -0.235  1.00  0.00     0.088 A 
HETATM   16  C7  UNL     1      -2.827   1.986   0.197  1.00  0.00     0.024 A 
HETATM   17  C8  UNL     1      -3.169   0.717  -0.561  1.00  0.00    -0.035 A 
HETATM   18  C9  UNL     1      -3.644   1.000  -1.987  1.00  0.00     0.015 C 
HETATM   19  C10 UNL     1      -4.074  -0.201   0.195  1.00  0.00     0.015 C 
ENDBRANCH   2  15
TORSDOF 4
