REMARK  4 active torsions:
REMARK  status: ('A' for Active; 'I' for Inactive)
REMARK    1  A    between atoms: N1_1  and  C1_5 
REMARK    2  A    between atoms: C1_5  and  C2_6 
REMARK    3  A    between atoms: C1_5  and  C9_16 
REMARK       I    between atoms: C2_6  and  N2_8 
REMARK    4  A    between atoms: N2_8  and  C3_10 
ROOT
HETATM    1  C1  UNL     1      -0.618  -0.316   1.205  1.00  0.00     0.280 C 
ENDROOT
BRANCH   1   2
HETATM    2  N1  UNL     1      -0.634  -1.693   0.816  1.00  0.00    -0.066 N 
ATOM      3  H13 UNL     1      -0.333  -1.802  -0.152  1.00  0.00     0.275 HD
ATOM      4  H12 UNL     1       0.111  -2.212   1.281  1.00  0.00     0.275 HD
ATOM      5  H11 UNL     1      -1.539  -2.139   0.968  1.00  0.00     0.275 HD
ENDBRANCH   1   2
BRANCH   1   6
HETATM    6  C2  UNL     1       0.695   0.331   0.984  1.00  0.00     0.249 C 
HETATM    7  O1  UNL     1       0.893   1.540   1.267  1.00  0.00    -0.271 OA
HETATM    8  N2  UNL     1       1.773  -0.395   0.443  1.00  0.00    -0.355 N 
ATOM      9  H2  UNL     1       1.623  -1.376   0.209  1.00  0.00     0.162 HD
BRANCH   8  10
HETATM   10  C3  UNL     1       3.085   0.173   0.200  1.00  0.00     0.084 C 
HETATM   11  C4  UNL     1       3.371   0.075  -1.255  1.00  0.00     0.025 C 
HETATM   12  C5  UNL     1       4.800   0.177  -1.652  1.00  0.00     0.002 C 
HETATM   13  C6  UNL     1       5.745   0.259  -0.464  1.00  0.00     0.000 C 
HETATM   14  C7  UNL     1       5.337  -0.919   0.425  1.00  0.00     0.002 C 
HETATM   15  C8  UNL     1       4.057  -0.506   1.107  1.00  0.00     0.025 C 
ENDBRANCH   8  10
ENDBRANCH   1   6
BRANCH   1  16
HETATM   16  C9  UNL     1      -1.742   0.485   0.542  1.00  0.00     0.052 C 
HETATM   17  C10 UNL     1      -1.630   0.447  -0.954  1.00  0.00     0.239 C 
HETATM   18  N3  UNL     1      -2.225   1.589  -1.584  1.00  0.00    -0.075 N 
HETATM   19  C11 UNL     1      -3.374   2.094  -0.897  1.00  0.00     0.233 C 
ATOM     20  H32 UNL     1      -1.533   2.327  -1.718  1.00  0.00     0.277 HD
ATOM     21  H31 UNL     1      -2.449   1.386  -2.558  1.00  0.00     0.277 HD
HETATM   22  C12 UNL     1      -4.474   1.088  -0.774  1.00  0.00     0.037 C 
HETATM   23  C13 UNL     1      -4.094  -0.161  -0.064  1.00  0.00    -0.038 A 
HETATM   24  C14 UNL     1      -5.299  -1.004   0.382  1.00  0.00     0.010 A 
HETATM   25  C15 UNL     1      -4.366  -1.477  -0.676  1.00  0.00     0.010 A 
HETATM   26  C16 UNL     1      -3.077   0.024   1.023  1.00  0.00     0.018 C 
ENDBRANCH   1  16
TORSDOF 4
