REMARK  12 active torsions:
REMARK  status: ('A' for Active; 'I' for Inactive)
REMARK    1  A    between atoms: N1_1  and  C1_4 
REMARK    2  A    between atoms: N4_9  and  C2_10 
REMARK    3  A    between atoms: C2_10  and  C3_11 
REMARK    4  A    between atoms: C3_11  and  C4_12 
REMARK    5  A    between atoms: C4_12  and  C5_13 
REMARK    6  A    between atoms: C5_13  and  S1_14 
REMARK    7  A    between atoms: S1_14  and  C6_15 
REMARK    8  A    between atoms: C10_26  and  N8_27 
REMARK    9  A    between atoms: N10_34  and  C13_35 
REMARK   10  A    between atoms: C13_35  and  C14_36 
REMARK   11  A    between atoms: C14_36  and  C15_37 
REMARK   12  A    between atoms: C15_37  and  N11_38 
ROOT
HETATM    1  C6  UNL     1      -1.559   0.460  -0.440  1.00  0.00     0.143 A 
HETATM    2  N5  UNL     1      -0.241   0.153  -0.146  1.00  0.00    -0.340 N 
ATOM      3  H5  UNL     1       0.070   0.207   0.824  1.00  0.00     0.167 HD
HETATM    4  C7  UNL     1       0.641  -0.212  -1.084  1.00  0.00     0.123 A 
HETATM    5  C8  UNL     1       0.250  -0.290  -2.400  1.00  0.00     0.141 A 
HETATM    6  N6  UNL     1      -1.014  -0.000  -2.733  1.00  0.00    -0.305 N 
ATOM      7  H6  UNL     1      -1.316  -0.054  -3.706  1.00  0.00     0.170 HD
HETATM    8  C9  UNL     1      -1.903   0.372  -1.749  1.00  0.00     0.281 A 
HETATM    9  O1  UNL     1      -3.045   0.625  -2.183  1.00  0.00    -0.265 OA
HETATM   10  N7  UNL     1       1.460  -0.653  -2.691  1.00  0.00    -0.324 N 
ATOM     11  H7  UNL     1       1.929  -0.899  -3.563  1.00  0.00     0.169 HD
HETATM   12  C10 UNL     1       1.887  -0.580  -1.341  1.00  0.00     0.151 A 
ENDROOT
BRANCH  12  13
HETATM   13  N8  UNL     1       3.113  -0.819  -0.659  1.00  0.00    -0.222 N 
HETATM   14  C11 UNL     1       3.174  -1.691   0.386  1.00  0.00     0.337 A 
HETATM   15  O2  UNL     1       2.108  -2.268   0.721  1.00  0.00    -0.246 OA
HETATM   16  N9  UNL     1       4.317  -1.945   1.050  1.00  0.00    -0.284 N 
HETATM   17  C12 UNL     1       5.463  -1.329   0.693  1.00  0.00     0.184 A 
ATOM     18  H9  UNL     1       4.317  -2.606   1.827  1.00  0.00     0.173 HD
HETATM   19  S2  UNL     1       6.834  -1.663   1.523  1.00  0.00    -0.040 SA
HETATM   20  N10 UNL     1       5.424  -0.462  -0.337  1.00  0.00    -0.300 N 
HETATM   21  C16 UNL     1       4.273  -0.223  -0.987  1.00  0.00     0.192 A 
HETATM   22  S3  UNL     1       4.243   0.833  -2.240  1.00  0.00    -0.040 SA
BRANCH  20  23
HETATM   23  C13 UNL     1       6.669   0.183  -0.695  1.00  0.00     0.135 C 
BRANCH  23  24
HETATM   24  C14 UNL     1       6.875   1.478   0.050  1.00  0.00     0.047 C 
BRANCH  24  25
HETATM   25  C15 UNL     1       8.192   2.068  -0.382  1.00  0.00     0.231 C 
BRANCH  25  26
HETATM   26  N11 UNL     1       9.306   1.193  -0.096  1.00  0.00    -0.079 N 
ATOM     27 3H11 UNL     1       9.325   0.932   0.890  1.00  0.00     0.274 HD
ATOM     28 2H11 UNL     1       9.164   0.270  -0.506  1.00  0.00     0.274 HD
ATOM     29 1H11 UNL     1      10.198   1.592  -0.389  1.00  0.00     0.274 HD
ENDBRANCH  25  26
ENDBRANCH  24  25
ENDBRANCH  23  24
ENDBRANCH  20  23
ENDBRANCH  12  13
BRANCH   1  30
HETATM   30  S1  UNL     1      -2.616   1.024   0.863  1.00  0.00    -0.079 SA
BRANCH  30  31
HETATM   31  C5  UNL     1      -3.234  -0.163   1.982  1.00  0.00     0.052 C 
BRANCH  31  32
HETATM   32  C4  UNL     1      -4.310  -1.080   1.779  1.00  0.00     0.005 C 
BRANCH  32  33
HETATM   33  C3  UNL     1      -5.241  -1.324   0.930  1.00  0.00    -0.005 C 
BRANCH  33  34
HETATM   34  C2  UNL     1      -5.625  -0.664  -0.325  1.00  0.00     0.181 C 
BRANCH  34  35
HETATM   35  N4  UNL     1      -7.015  -0.235  -0.314  1.00  0.00    -0.236 N 
HETATM   36  N3  UNL     1      -8.080  -0.916  -0.722  1.00  0.00    -0.236 N 
HETATM   37  N2  UNL     1      -9.182  -0.207  -0.564  1.00  0.00    -0.266 N 
ATOM     38  H3  UNL     1      -8.050  -1.860  -1.106  1.00  0.00     0.208 HD
HETATM   39  C1  UNL     1      -8.852   0.983  -0.036  1.00  0.00     0.186 A 
ATOM     40  H2  UNL     1     -10.126  -0.512  -0.803  1.00  0.00     0.190 HD
HETATM   41  C17 UNL     1      -7.464   0.944   0.116  1.00  0.00     0.308 A 
HETATM   42  O3  UNL     1      -6.816   1.914   0.591  1.00  0.00    -0.262 OA
BRANCH  39  43
HETATM   43  N1  UNL     1      -9.653   1.962   0.268  1.00  0.00    -0.380 N 
ATOM     44  H12 UNL     1     -10.667   1.990   0.157  1.00  0.00     0.158 HD
ATOM     45  H11 UNL     1      -9.402   2.866   0.669  1.00  0.00     0.158 HD
ENDBRANCH  39  43
ENDBRANCH  34  35
ENDBRANCH  33  34
ENDBRANCH  32  33
ENDBRANCH  31  32
ENDBRANCH  30  31
ENDBRANCH   1  30
TORSDOF 12
