REMARK  21 active torsions:
REMARK  status: ('A' for Active; 'I' for Inactive)
REMARK    1  A    between atoms: C2_2  and  C3_3 
REMARK    2  A    between atoms: C3_3  and  O1_4 
REMARK    3  A    between atoms: O1_4  and  C4_5 
REMARK    4  A    between atoms: C4_5  and  C5_6 
REMARK    5  A    between atoms: C4_5  and  N7_47 
REMARK    6  A    between atoms: C5_6  and  C6_7 
REMARK    7  A    between atoms: C6_7  and  C7_8 
REMARK       I    between atoms: N1_9  and  C8_10 
REMARK    8  A    between atoms: C8_10  and  C9_12 
REMARK    9  A    between atoms: C9_12  and  C10_13 
REMARK   10  A    between atoms: C9_12  and  N3_21 
REMARK   11  A    between atoms: C10_13  and  C11_14 
REMARK   12  A    between atoms: C11_14  and  C12_15 
REMARK   13  A    between atoms: C12_15  and  C13_16 
REMARK   14  A    between atoms: C13_16  and  N2_17 
REMARK       I    between atoms: N3_21  and  C14_23 
REMARK   15  A    between atoms: C14_23  and  C15_25 
REMARK   16  A    between atoms: C18_30  and  C19_31 
REMARK       I    between atoms: C19_31  and  N4_33 
REMARK   17  A    between atoms: N4_33  and  C20_35 
REMARK   18  A    between atoms: C20_35  and  C21_36 
REMARK   19  A    between atoms: C21_36  and  N5_37 
REMARK   20  A    between atoms: C21_36  and  O5_41 
REMARK   21  A    between atoms: N7_47  and  C25_49 
ROOT
HETATM    1  C7  UNL     1       0.270   0.758   1.793  1.00  0.00     0.188 C 
HETATM    2  N1  UNL     1      -0.880   0.541   0.948  1.00  0.00    -0.298 N 
HETATM    3  C8  UNL     1      -1.777  -0.491   1.203  1.00  0.00     0.248 C 
HETATM    4  O2  UNL     1      -1.592  -1.224   2.221  1.00  0.00    -0.271 OA
HETATM    5  C17 UNL     1      -1.121   1.429  -0.149  1.00  0.00     0.149 C 
HETATM    6  C18 UNL     1      -0.682   2.863   0.125  1.00  0.00     0.123 C 
HETATM    7  C22 UNL     1       0.720   2.792   0.625  1.00  0.00     0.260 C 
HETATM    8  N6  UNL     1       0.740   2.088   1.891  1.00  0.00    -0.033 N 
HETATM    9  C23 UNL     1      -0.132   2.894   2.774  1.00  0.00     0.280 C 
HETATM   10  C24 UNL     1       2.064   2.256   2.412  1.00  0.00     0.280 C 
ENDROOT
BRANCH   1  11
HETATM   11  C6  UNL     1       1.318  -0.307   1.730  1.00  0.00     0.089 C 
BRANCH  11  12
HETATM   12  C5  UNL     1       1.954  -0.575   0.427  1.00  0.00     0.061 C 
BRANCH  12  13
HETATM   13  C4  UNL     1       2.970  -1.709   0.649  1.00  0.00     0.217 C 
BRANCH  13  14
HETATM   14  O1  UNL     1       3.945  -1.404   1.547  1.00  0.00    -0.363 OA
BRANCH  14  15
HETATM   15  C3  UNL     1       3.951  -2.100   2.727  1.00  0.00     0.197 C 
BRANCH  15  16
HETATM   16  C2  UNL     1       5.117  -1.571   3.532  1.00  0.00    -0.011 C 
HETATM   17  C1  UNL     1       4.881  -1.024   4.710  1.00  0.00     0.009 C 
ENDBRANCH  15  16
ENDBRANCH  14  15
ENDBRANCH  13  14
BRANCH  13  18
HETATM   18  N7  UNL     1       3.374  -2.254  -0.605  1.00  0.00    -0.393 N 
ATOM     19  H7  UNL     1       3.194  -3.231  -0.836  1.00  0.00     0.156 HD
BRANCH  18  20
HETATM   20  C25 UNL     1       4.034  -1.397  -1.521  1.00  0.00     0.079 C 
HETATM   21  C26 UNL     1       5.352  -0.848  -1.110  1.00  0.00     0.025 C 
HETATM   22  C27 UNL     1       6.395  -1.375  -2.079  1.00  0.00     0.002 C 
HETATM   23  C28 UNL     1       5.632  -1.766  -3.300  1.00  0.00     0.002 C 
HETATM   24  C29 UNL     1       4.278  -2.180  -2.822  1.00  0.00     0.025 C 
ENDBRANCH  18  20
ENDBRANCH  13  18
ENDBRANCH  12  13
ENDBRANCH  11  12
ENDBRANCH   1  11
BRANCH   3  25
HETATM   25  C9  UNL     1      -2.963  -0.822   0.381  1.00  0.00     0.177 C 
BRANCH  25  26
HETATM   26  C10 UNL     1      -2.675  -1.159  -1.039  1.00  0.00     0.035 C 
BRANCH  26  27
HETATM   27  C11 UNL     1      -1.787  -2.275  -1.366  1.00  0.00     0.004 C 
BRANCH  27  28
HETATM   28  C12 UNL     1      -2.095  -3.681  -1.117  1.00  0.00     0.027 C 
BRANCH  28  29
HETATM   29  C13 UNL     1      -3.202  -4.327  -1.868  1.00  0.00     0.229 C 
BRANCH  29  30
HETATM   30  N2  UNL     1      -4.518  -3.807  -1.759  1.00  0.00    -0.079 N 
ATOM     31  H23 UNL     1      -4.773  -3.770  -0.772  1.00  0.00     0.274 HD
ATOM     32  H22 UNL     1      -4.497  -2.816  -1.999  1.00  0.00     0.274 HD
ATOM     33  H21 UNL     1      -5.278  -4.251  -2.275  1.00  0.00     0.274 HD
ENDBRANCH  29  30
ENDBRANCH  28  29
ENDBRANCH  27  28
ENDBRANCH  26  27
ENDBRANCH  25  26
BRANCH  25  34
HETATM   34  N3  UNL     1      -3.811  -1.786   1.013  1.00  0.00    -0.343 N 
HETATM   35  C14 UNL     1      -5.161  -1.491   1.405  1.00  0.00     0.290 C 
HETATM   36  O3  UNL     1      -5.580  -0.336   1.167  1.00  0.00    -0.267 OA
ATOM     37  H3  UNL     1      -3.442  -2.720   1.192  1.00  0.00     0.163 HD
BRANCH  35  38
HETATM   38  C15 UNL     1      -6.066  -2.452   2.061  1.00  0.00     0.318 C 
HETATM   39  C16 UNL     1      -7.402  -1.785   2.414  1.00  0.00     0.101 C 
HETATM   40  F1  UNL     1      -5.536  -3.017   3.198  1.00  0.00    -0.196 F 
HETATM   41  F2  UNL     1      -6.435  -3.510   1.221  1.00  0.00    -0.196 F 
ENDBRANCH  35  38
ENDBRANCH  25  34
ENDBRANCH   3  25
BRANCH   6  42
HETATM   42  C19 UNL     1      -0.713   3.663  -1.158  1.00  0.00     0.225 C 
HETATM   43  O4  UNL     1       0.368   4.162  -1.551  1.00  0.00    -0.273 OA
HETATM   44  N4  UNL     1      -1.918   3.821  -1.855  1.00  0.00    -0.356 N 
ATOM     45  H4  UNL     1      -2.716   3.353  -1.426  1.00  0.00     0.162 HD
BRANCH  44  46
HETATM   46  C20 UNL     1      -2.222   4.516  -3.051  1.00  0.00     0.183 C 
BRANCH  46  47
HETATM   47  C21 UNL     1      -2.043   5.992  -3.072  1.00  0.00     0.334 C 
BRANCH  47  48
HETATM   48  N5  UNL     1      -0.685   6.384  -2.931  1.00  0.00    -0.051 N 
ATOM     49  H53 UNL     1      -0.273   5.978  -2.091  1.00  0.00     0.277 HD
ATOM     50  H52 UNL     1      -0.100   5.935  -3.636  1.00  0.00     0.277 HD
ATOM     51  H51 UNL     1      -0.562   7.396  -2.945  1.00  0.00     0.277 HD
ENDBRANCH  47  48
BRANCH  47  52
HETATM   52  O5  UNL     1      -2.439   6.487  -4.354  1.00  0.00    -0.369 OA
ATOM     53  H5  UNL     1      -2.325   7.430  -4.367  1.00  0.00     0.212 HD
ENDBRANCH  47  52
ENDBRANCH  46  47
ENDBRANCH  44  46
ENDBRANCH   6  42
TORSDOF 21
