REMARK  7 active torsions:
REMARK  status: ('A' for Active; 'I' for Inactive)
REMARK    1  A    between atoms: C10_16  and  C11_17 
REMARK    2  A    between atoms: N4_24  and  C16_25 
REMARK    3  A    between atoms: C16_25  and  C17_26 
REMARK    4  A    between atoms: C17_26  and  C18_27 
REMARK    5  A    between atoms: C24_33  and  C25_34 
REMARK    6  A    between atoms: C25_34  and  C26_35 
REMARK    7  A    between atoms: C26_35  and  C27_36 
ROOT
HETATM    1  O1  UNL     1      -1.157   4.027  -0.867  1.00  0.00    -0.271 OA
HETATM    2  C1  UNL     1      -1.284   3.333   0.193  1.00  0.00     0.247 A 
HETATM    3  N1  UNL     1      -2.271   3.571   1.157  1.00  0.00    -0.325 N 
ATOM      4  H1  UNL     1      -3.001   4.282   1.109  1.00  0.00     0.169 HD
HETATM    5  C2  UNL     1      -2.071   2.639   2.219  1.00  0.00     0.043 A 
HETATM    6  C3  UNL     1      -2.822   2.567   3.380  1.00  0.00     0.030 A 
HETATM    7  C4  UNL     1      -2.498   1.650   4.325  1.00  0.00     0.002 A 
HETATM    8  C5  UNL     1      -1.425   0.811   4.104  1.00  0.00     0.001 A 
HETATM    9  C6  UNL     1      -0.692   0.899   2.941  1.00  0.00     0.011 A 
HETATM   10  C7  UNL     1      -0.999   1.833   1.944  1.00  0.00    -0.002 A 
HETATM   11  C8  UNL     1      -0.468   2.171   0.642  1.00  0.00     0.181 A 
HETATM   12  C9  UNL     1       0.911   2.709   0.838  1.00  0.00     0.244 C 
HETATM   13  O2  UNL     1       1.299   3.100   1.975  1.00  0.00    -0.272 OA
HETATM   14  N2  UNL     1       1.752   2.758  -0.305  1.00  0.00    -0.326 N 
ATOM     15  H2  UNL     1       2.387   3.543  -0.451  1.00  0.00     0.165 HD
HETATM   16  C10 UNL     1       1.690   1.676  -1.253  1.00  0.00     0.360 C 
HETATM   17  N4  UNL     1       0.797   0.622  -0.819  1.00  0.00     0.123 N 
HETATM   18  C24 UNL     1      -0.484   1.084  -0.408  1.00  0.00     0.258 C 
ENDROOT
BRANCH  18  19
HETATM   19  C25 UNL     1      -1.449  -0.006  -0.115  1.00  0.00     0.043 C 
BRANCH  19  20
HETATM   20  C26 UNL     1      -1.438  -1.041  -1.213  1.00  0.00     0.040 C 
BRANCH  20  21
HETATM   21  C27 UNL     1      -2.397  -2.144  -0.947  1.00  0.00    -0.058 A 
HETATM   22  C28 UNL     1      -3.687  -2.038  -1.391  1.00  0.00     0.007 A 
HETATM   23  C29 UNL     1      -4.562  -3.072  -1.143  1.00  0.00     0.001 A 
HETATM   24  C30 UNL     1      -4.188  -4.209  -0.464  1.00  0.00     0.000 A 
HETATM   25  C31 UNL     1      -2.881  -4.272  -0.036  1.00  0.00     0.001 A 
HETATM   26  C32 UNL     1      -1.984  -3.254  -0.269  1.00  0.00     0.007 A 
ENDBRANCH  20  21
ENDBRANCH  19  20
ENDBRANCH  18  19
BRANCH  17  27
HETATM   27  C16 UNL     1       1.451  -0.305   0.066  1.00  0.00     0.281 C 
BRANCH  27  28
HETATM   28  C17 UNL     1       2.501  -1.157  -0.556  1.00  0.00     0.069 C 
BRANCH  28  29
HETATM   29  C18 UNL     1       3.050  -2.034   0.537  1.00  0.00    -0.057 A 
HETATM   30  C19 UNL     1       2.488  -3.256   0.805  1.00  0.00     0.007 A 
HETATM   31  C20 UNL     1       2.976  -4.086   1.807  1.00  0.00     0.001 A 
HETATM   32  C21 UNL     1       4.057  -3.658   2.548  1.00  0.00     0.000 A 
HETATM   33  C22 UNL     1       4.631  -2.436   2.291  1.00  0.00     0.001 A 
HETATM   34  C23 UNL     1       4.130  -1.633   1.294  1.00  0.00     0.007 A 
ENDBRANCH  28  29
ENDBRANCH  27  28
ENDBRANCH  17  27
BRANCH  16  35
HETATM   35  C11 UNL     1       1.415   2.151  -2.619  1.00  0.00     0.009 A 
HETATM   36  C12 UNL     1       0.593   1.558  -3.534  1.00  0.00     0.014 A 
HETATM   37  C13 UNL     1       0.417   2.108  -4.766  1.00  0.00     0.018 A 
HETATM   38  C14 UNL     1       1.058   3.264  -5.114  1.00  0.00     0.087 A 
HETATM   39  N3  UNL     1       1.866   3.851  -4.222  1.00  0.00    -0.375 N 
HETATM   40  C15 UNL     1       2.050   3.324  -3.009  1.00  0.00     0.098 A 
ATOM     41  H3  UNL     1       2.348   4.714  -4.473  1.00  0.00     0.164 HD
ENDBRANCH  16  35
TORSDOF 7
