REMARK  9 active torsions:
REMARK  status: ('A' for Active; 'I' for Inactive)
REMARK    1  A    between atoms: C3_3  and  C4_4 
REMARK    2  A    between atoms: C14_14  and  O1_15 
REMARK    3  A    between atoms: O1_15  and  C15_16 
REMARK       I    between atoms: C15_16  and  N1_18 
REMARK    4  A    between atoms: N1_18  and  C16_20 
REMARK    5  A    between atoms: C16_20  and  C17_21 
REMARK    6  A    between atoms: C17_21  and  N2_22 
REMARK    7  A    between atoms: C23_31  and  C24_32 
REMARK       I    between atoms: C24_32  and  N3_34 
REMARK    8  A    between atoms: N3_34  and  C25_35 
REMARK    9  A    between atoms: N3_34  and  C28_38 
ROOT
HETATM    1  C1  UNL     1      -0.708   3.967  -2.698  1.00  0.00     0.112 C 
HETATM    2  C2  UNL     1      -1.427   2.768  -2.267  1.00  0.00    -0.111 C 
HETATM    3  C3  UNL     1      -2.011   1.757  -1.917  1.00  0.00    -0.101 C 
ENDROOT
BRANCH   3   4
HETATM    4  C4  UNL     1      -2.746   0.530  -1.511  1.00  0.00     0.078 C 
HETATM    5  C5  UNL     1      -2.384  -0.546  -2.471  1.00  0.00     0.018 C 
HETATM    6  C6  UNL     1      -2.004  -1.858  -1.926  1.00  0.00     0.007 C 
HETATM    7  C7  UNL     1      -1.298  -1.919  -0.625  1.00  0.00    -0.005 C 
HETATM    8  C8  UNL     1       0.162  -2.178  -0.706  1.00  0.00    -0.006 C 
HETATM    9  C22 UNL     1      -1.337  -0.674   0.210  1.00  0.00     0.005 C 
HETATM   10  C9  UNL     1       0.652  -3.070  -1.780  1.00  0.00     0.006 C 
HETATM   11  C20 UNL     1       0.711  -0.793  -0.982  1.00  0.00    -0.005 C 
HETATM   12  C10 UNL     1       2.155  -3.243  -1.509  1.00  0.00     0.010 C 
HETATM   13  C11 UNL     1       2.892  -1.976  -1.421  1.00  0.00    -0.038 C 
HETATM   14  C12 UNL     1       3.530  -1.702  -2.790  1.00  0.00     0.015 C 
HETATM   15  C13 UNL     1       4.085  -2.197  -0.477  1.00  0.00     0.042 C 
HETATM   16  C19 UNL     1       2.184  -0.782  -0.922  1.00  0.00     0.001 C 
HETATM   17  C14 UNL     1       4.211  -0.851   0.208  1.00  0.00     0.135 C 
HETATM   18  C18 UNL     1       2.745  -0.533   0.479  1.00  0.00     0.038 C 
HETATM   19  C21 UNL     1       0.004  -0.023   0.099  1.00  0.00     0.011 C 
HETATM   20  C23 UNL     1      -2.487   0.251  -0.082  1.00  0.00     0.098 C 
BRANCH  17  21
HETATM   21  O1  UNL     1       4.993  -0.883   1.349  1.00  0.00    -0.299 OA
BRANCH  21  22
HETATM   22  C15 UNL     1       6.117  -0.071   1.476  1.00  0.00     0.360 C 
HETATM   23  O2  UNL     1       6.350   0.675   0.488  1.00  0.00    -0.239 OA
HETATM   24  N1  UNL     1       6.936  -0.081   2.628  1.00  0.00    -0.335 N 
ATOM     25  H1  UNL     1       6.696  -0.710   3.395  1.00  0.00     0.164 HD
BRANCH  24  26
HETATM   26  C16 UNL     1       8.079   0.750   2.759  1.00  0.00     0.152 C 
BRANCH  26  27
HETATM   27  C17 UNL     1       7.762   2.223   2.708  1.00  0.00     0.249 C 
BRANCH  27  28
HETATM   28  N2  UNL     1       8.977   3.006   2.859  1.00  0.00    -0.078 N 
ATOM     29  H23 UNL     1       9.488   2.756   3.706  1.00  0.00     0.274 HD
ATOM     30  H22 UNL     1       9.685   2.745   2.173  1.00  0.00     0.274 HD
ATOM     31  H21 UNL     1       8.763   4.003   2.824  1.00  0.00     0.274 HD
ENDBRANCH  27  28
ENDBRANCH  26  27
ENDBRANCH  24  26
ENDBRANCH  21  22
ENDBRANCH  17  21
BRANCH  20  32
HETATM   32  C24 UNL     1      -3.692  -0.332   0.554  1.00  0.00     0.226 C 
HETATM   33  O3  UNL     1      -3.726  -1.611   0.765  1.00  0.00    -0.273 OA
HETATM   34  N3  UNL     1      -4.858   0.352   0.975  1.00  0.00    -0.344 N 
BRANCH  34  35
HETATM   35  C25 UNL     1      -4.915   1.754   0.823  1.00  0.00     0.079 C 
HETATM   36  C26 UNL     1      -6.056   2.257  -0.065  1.00  0.00     0.032 C 
HETATM   37  C27 UNL     1      -5.067   2.523   2.120  1.00  0.00     0.032 C 
ENDBRANCH  34  35
BRANCH  34  38
HETATM   38  C28 UNL     1      -5.940  -0.445   1.551  1.00  0.00     0.079 C 
HETATM   39  C29 UNL     1      -7.194  -0.437   0.726  1.00  0.00     0.032 C 
HETATM   40  C30 UNL     1      -6.190  -0.152   3.007  1.00  0.00     0.032 C 
ENDBRANCH  34  38
ENDBRANCH  20  32
ENDBRANCH   3   4
TORSDOF 9
