REMARK  2 active torsions:
REMARK  status: ('A' for Active; 'I' for Inactive)
REMARK    1  A    between atoms: O1_2  and  C2_3 
REMARK    2  A    between atoms: C6_7  and  C7_8 
ROOT
HETATM    1  C7  UNL     1       1.501   0.393   0.577  1.00  0.00     0.083 A 
HETATM    2  N1  UNL     1       1.654   1.514   1.370  1.00  0.00    -0.297 N 
ATOM      3  H1  UNL     1       0.896   2.141   1.639  1.00  0.00     0.187 HD
HETATM    4  N2  UNL     1       2.903   1.663   1.730  1.00  0.00    -0.284 N 
ATOM      5  H2  UNL     1       3.253   2.421   2.316  1.00  0.00     0.188 HD
HETATM    6  C8  UNL     1       3.651   0.689   1.225  1.00  0.00     0.137 A 
HETATM    7  N3  UNL     1       4.902   0.520   1.369  1.00  0.00    -0.383 N 
ATOM      8  H31 UNL     1       5.477  -0.228   0.981  1.00  0.00     0.157 HD
ATOM      9  H32 UNL     1       5.549   1.104   1.899  1.00  0.00     0.157 HD
HETATM   10  C9  UNL     1       2.756  -0.118   0.493  1.00  0.00     0.118 A 
HETATM   11  C10 UNL     1       3.176  -1.315  -0.190  1.00  0.00     0.105 C 
HETATM   12  N4  UNL     1       3.536  -2.275  -0.714  1.00  0.00    -0.191 NA
ENDROOT
BRANCH   1  13
HETATM   13  C6  UNL     1       0.222  -0.057   0.054  1.00  0.00    -0.004 A 
HETATM   14  C5  UNL     1       0.086  -1.023  -0.893  1.00  0.00     0.014 A 
HETATM   15  C4  UNL     1      -1.176  -1.456  -1.338  1.00  0.00     0.004 A 
HETATM   16  C3  UNL     1      -2.314  -0.918  -0.834  1.00  0.00     0.037 A 
HETATM   17  C2  UNL     1      -2.168   0.061   0.124  1.00  0.00     0.069 A 
HETATM   18  C11 UNL     1      -0.950   0.494   0.569  1.00  0.00     0.050 A 
BRANCH  17  19
HETATM   19  O1  UNL     1      -3.339   0.621   0.649  1.00  0.00    -0.356 OA
HETATM   20  C1  UNL     1      -4.618   0.219   0.232  1.00  0.00     0.210 C 
ENDBRANCH  17  19
ENDBRANCH   1  13
TORSDOF 2
