REMARK  10 active torsions:
REMARK  status: ('A' for Active; 'I' for Inactive)
REMARK    1  A    between atoms: C2_2  and  C3_3 
REMARK    2  A    between atoms: C3_3  and  N1_4 
REMARK    3  A    between atoms: N1_4  and  C4_6 
REMARK    4  A    between atoms: C4_6  and  C5_7 
REMARK    5  A    between atoms: C4_6  and  C8_10 
REMARK    6  A    between atoms: C8_10  and  N2_11 
REMARK    7  A    between atoms: C8_10  and  C11_23 
REMARK       I    between atoms: N2_11  and  C9_13 
REMARK    8  A    between atoms: C9_13  and  C10_15 
REMARK    9  A    between atoms: C10_15  and  N3_16 
REMARK   10  A    between atoms: N3_16  and  N4_18 
REMARK       I    between atoms: C11_23  and  N6_25 
ROOT
HETATM    1  C8  UNL     1       0.299   0.777   0.315  1.00  0.00     0.199 C 
ENDROOT
BRANCH   1   2
HETATM    2  C4  UNL     1      -0.765   0.031  -0.438  1.00  0.00     0.116 C 
BRANCH   2   3
HETATM    3  N1  UNL     1      -1.618  -0.625   0.461  1.00  0.00    -0.395 N 
ATOM      4  H1  UNL     1      -1.573  -0.361   1.445  1.00  0.00     0.159 HD
BRANCH   3   5
HETATM    5  C3  UNL     1      -2.521  -1.614   0.090  1.00  0.00     0.055 C 
BRANCH   5   6
HETATM    6  C2  UNL     1      -1.968  -2.943  -0.355  1.00  0.00     0.039 C 
HETATM    7  C1  UNL     1      -3.173  -3.819  -0.702  1.00  0.00     0.010 C 
ENDBRANCH   5   6
ENDBRANCH   3   5
ENDBRANCH   2   3
BRANCH   2   8
HETATM    8  C5  UNL     1      -1.367   0.883  -1.509  1.00  0.00     0.003 C 
HETATM    9  C6  UNL     1      -2.252   1.998  -1.076  1.00  0.00     0.011 C 
HETATM   10  C7  UNL     1      -2.030   0.101  -2.636  1.00  0.00     0.011 C 
ENDBRANCH   2   8
ENDBRANCH   1   2
BRANCH   1  11
HETATM   11  N2  UNL     1      -0.387   1.732   1.200  1.00  0.00    -0.344 N 
HETATM   12  C9  UNL     1      -0.017   3.087   1.267  1.00  0.00     0.237 C 
HETATM   13  O1  UNL     1       0.941   3.520   0.547  1.00  0.00    -0.272 OA
ATOM     14  H2  UNL     1      -1.155   1.400   1.783  1.00  0.00     0.163 HD
BRANCH  12  15
HETATM   15  C10 UNL     1      -0.715   4.046   2.161  1.00  0.00     0.243 C 
BRANCH  15  16
HETATM   16  N3  UNL     1      -0.146   5.371   2.043  1.00  0.00    -0.314 N 
ATOM     17  H3  UNL     1       0.258   5.841   2.853  1.00  0.00     0.182 HD
BRANCH  16  18
HETATM   18  N4  UNL     1      -0.164   5.984   0.802  1.00  0.00    -0.253 N 
HETATM   19  N5  UNL     1      -1.246   6.198   0.178  1.00  0.00    -0.331 N 
ATOM     20  H52 UNL     1      -2.119   5.904   0.616  1.00  0.00     0.178 HD
ATOM     21  H51 UNL     1      -1.259   6.650  -0.736  1.00  0.00     0.178 HD
ATOM     22  H4  UNL     1       0.718   6.271   0.378  1.00  0.00     0.207 HD
ENDBRANCH  16  18
ENDBRANCH  15  16
ENDBRANCH  12  15
ENDBRANCH   1  11
BRANCH   1  23
HETATM   23  C11 UNL     1       1.169  -0.096   1.130  1.00  0.00     0.244 C 
HETATM   24  O2  UNL     1       1.073  -0.037   2.373  1.00  0.00    -0.271 OA
HETATM   25  N6  UNL     1       2.090  -0.975   0.556  1.00  0.00    -0.350 N 
HETATM   26  C12 UNL     1       2.341  -1.129  -0.876  1.00  0.00     0.126 C 
HETATM   27  C16 UNL     1       2.888  -1.819   1.450  1.00  0.00     0.126 C 
HETATM   28  C13 UNL     1       3.835  -1.368  -1.047  1.00  0.00     0.020 C 
HETATM   29  C14 UNL     1       4.196  -2.727  -0.462  1.00  0.00     0.003 C 
HETATM   30  C15 UNL     1       3.258  -3.067   0.687  1.00  0.00     0.020 C 
ENDBRANCH   1  23
TORSDOF 10
