REMARK  1 active torsions:
REMARK  status: ('A' for Active; 'I' for Inactive)
REMARK    1  A    between atoms: C3_3  and  N1_4 
ROOT
HETATM    1  C1  UNL     1       3.471   1.050   0.282  1.00  0.00     0.013 C 
HETATM    2  C2  UNL     1       2.643   0.197   0.205  1.00  0.00    -0.088 C 
HETATM    3  C3  UNL     1       1.598  -0.850   0.102  1.00  0.00     0.352 C 
ENDROOT
BRANCH   3   4
HETATM    4  N1  UNL     1       0.350  -0.240   0.013  1.00  0.00     0.023 N 
HETATM    5  C4  UNL     1      -0.718  -0.888  -0.714  1.00  0.00     0.263 C 
HETATM    6  C5  UNL     1      -1.785   0.218  -0.578  1.00  0.00     0.054 C 
HETATM    7  C6  UNL     1      -0.983   1.137   0.311  1.00  0.00     0.136 C 
HETATM    8  C7  UNL     1      -0.303   0.198   1.244  1.00  0.00     0.284 C 
HETATM    9  N2  UNL     1       0.301   1.128  -0.370  1.00  0.00    -0.039 NA
ENDBRANCH   3   4
TORSDOF 1
