REMARK  4 active torsions:
REMARK  status: ('A' for Active; 'I' for Inactive)
REMARK       I    between atoms: C2_2  and  N1_4 
REMARK    1  A    between atoms: C4_6  and  O2_7 
REMARK    2  A    between atoms: O2_7  and  C5_8 
REMARK    3  A    between atoms: C6_11  and  N3_12 
REMARK    4  A    between atoms: C9_20  and  C10_21 
ROOT
HETATM    1  C10 UNL     1      -3.957   1.578  -0.776  1.00  0.00     0.197 C 
HETATM    2  F1  UNL     1      -3.037   1.547  -1.797  1.00  0.00    -0.194 F 
HETATM    3  C11 UNL     1      -5.015   2.585  -0.852  1.00  0.00     0.130 C 
HETATM    4  N5  UNL     1      -5.864   3.364  -0.914  1.00  0.00    -0.189 NA
ENDROOT
BRANCH   1   5
HETATM    5  C9  UNL     1      -3.949   0.768   0.249  1.00  0.00     0.074 C 
HETATM    6  C8  UNL     1      -3.013  -0.286   0.514  1.00  0.00     0.079 C 
HETATM    7  C7  UNL     1      -3.596  -1.492   0.922  1.00  0.00     0.273 C 
HETATM    8  C12 UNL     1      -1.668  -0.035   0.379  1.00  0.00     0.183 C 
HETATM    9  N4  UNL     1      -3.071  -2.701   0.660  1.00  0.00    -0.156 N 
HETATM   10  O3  UNL     1      -4.657  -1.473   1.561  1.00  0.00    -0.267 OA
HETATM   11  C6  UNL     1      -1.783  -3.040   0.482  1.00  0.00     0.680 C 
ATOM     12  H4  UNL     1      -3.742  -3.466   0.586  1.00  0.00     0.187 HD
HETATM   13  N2  UNL     1      -0.742  -2.257   0.302  1.00  0.00    -0.168 N 
HETATM   14  C5  UNL     1      -0.593  -0.893   0.160  1.00  0.00     0.198 C 
ATOM     15  H2  UNL     1       0.141  -2.765   0.258  1.00  0.00     0.186 HD
HETATM   16  F2  UNL     1      -1.285   1.263   0.489  1.00  0.00    -0.200 F 
BRANCH  11  17
HETATM   17  N3  UNL     1      -1.495  -4.316   0.490  1.00  0.00    -0.234 N 
ATOM     18  H32 UNL     1      -0.517  -4.573   0.355  1.00  0.00     0.174 HD
ATOM     19  H31 UNL     1      -2.302  -4.923   0.630  1.00  0.00     0.174 HD
ENDBRANCH  11  17
BRANCH  14  20
HETATM   20  O2  UNL     1       0.626  -0.475  -0.191  1.00  0.00    -0.324 OA
BRANCH  20  21
HETATM   21  C4  UNL     1       1.329   0.639  -0.477  1.00  0.00     0.166 C 
HETATM   22  C3  UNL     1       2.516   0.851   0.455  1.00  0.00     0.160 C 
HETATM   23  N1  UNL     1       3.453   0.737  -0.621  1.00  0.00    -0.347 N 
HETATM   24  C2  UNL     1       4.867   0.907  -0.704  1.00  0.00     0.215 C 
HETATM   25  C13 UNL     1       2.392   0.388  -1.516  1.00  0.00     0.160 C 
HETATM   26  C1  UNL     1       5.683   1.282   0.491  1.00  0.00     0.117 C 
HETATM   27  O1  UNL     1       5.421   0.734  -1.821  1.00  0.00    -0.274 OA
ENDBRANCH  20  21
ENDBRANCH  14  20
ENDBRANCH   1   5
TORSDOF 4
