REMARK  17 active torsions:
REMARK  status: ('A' for Active; 'I' for Inactive)
REMARK    1  A    between atoms: C2_2  and  C3_3 
REMARK    2  A    between atoms: C3_3  and  S1_4 
REMARK    3  A    between atoms: S1_4  and  N1_7 
REMARK       I    between atoms: N1_7  and  C4_9 
REMARK    4  A    between atoms: C4_9  and  C5_11 
REMARK    5  A    between atoms: C5_11  and  C6_12 
REMARK    6  A    between atoms: C6_12  and  C7_13 
REMARK    7  A    between atoms: C7_13  and  O4_14 
REMARK    8  A    between atoms: C7_13  and  C9_16 
REMARK    9  A    between atoms: C7_13  and  C25_42 
REMARK       I    between atoms: C9_16  and  N2_18 
REMARK   10  A    between atoms: N2_18  and  C10_20 
REMARK   11  A    between atoms: C10_20  and  C11_21 
REMARK   12  A    between atoms: N3_24  and  C14_25 
REMARK   13  A    between atoms: C14_25  and  O6_26 
REMARK   14  A    between atoms: C15_28  and  N4_29 
REMARK   15  A    between atoms: C15_28  and  C21_38 
REMARK       I    between atoms: N4_29  and  C16_31 
REMARK   16  A    between atoms: C16_31  and  O8_33 
REMARK   17  A    between atoms: O8_33  and  C17_34 
ROOT
HETATM    1  C9  UNL     1      -2.041   0.095  -2.479  1.00  0.00     0.253 C 
HETATM    2  O5  UNL     1      -1.422   1.157  -2.125  1.00  0.00    -0.270 OA
HETATM    3  N2  UNL     1      -1.247  -1.054  -2.601  1.00  0.00    -0.356 N 
ATOM      4  H2  UNL     1      -1.703  -1.924  -2.877  1.00  0.00     0.162 HD
ENDROOT
BRANCH   3   5
HETATM    5  C10 UNL     1       0.169  -1.082  -2.361  1.00  0.00     0.148 C 
BRANCH   5   6
HETATM    6  C11 UNL     1       0.437  -0.724  -0.932  1.00  0.00     0.105 C 
HETATM    7  C12 UNL     1      -0.218  -1.695  -0.009  1.00  0.00     0.047 C 
HETATM    8  C13 UNL     1       1.100  -2.434  -0.115  1.00  0.00     0.127 C 
HETATM    9  N3  UNL     1       1.753  -1.229  -0.451  1.00  0.00    -0.354 N 
BRANCH   9  10
HETATM   10  C14 UNL     1       2.992  -0.592  -0.419  1.00  0.00     0.162 C 
HETATM   11  C15 UNL     1       4.336  -0.980  -0.056  1.00  0.00     0.072 C 
BRANCH  10  12
HETATM   12  O6  UNL     1       2.887   0.680  -0.826  1.00  0.00    -0.345 OA
ATOM     13  H6  UNL     1       3.732   1.114  -0.804  1.00  0.00     0.219 HD
ENDBRANCH  10  12
BRANCH  11  14
HETATM   14  N4  UNL     1       5.178   0.190  -0.080  1.00  0.00    -0.301 N 
HETATM   15  C16 UNL     1       5.784   0.906   0.950  1.00  0.00     0.365 C 
HETATM   16  O7  UNL     1       5.712   0.680   2.171  1.00  0.00    -0.238 OA
ATOM     17  H4  UNL     1       5.362   0.557  -1.014  1.00  0.00     0.171 HD
BRANCH  15  18
HETATM   18  O8  UNL     1       6.587   2.028   0.623  1.00  0.00    -0.294 OA
BRANCH  18  19
HETATM   19  C17 UNL     1       7.212   2.761   1.642  1.00  0.00     0.061 C 
HETATM   20  C18 UNL     1       6.289   3.370   2.644  1.00  0.00     0.046 C 
HETATM   21  C19 UNL     1       8.284   1.971   2.353  1.00  0.00     0.046 C 
HETATM   22  C20 UNL     1       7.932   3.920   0.938  1.00  0.00     0.046 C 
ENDBRANCH  18  19
ENDBRANCH  15  18
ENDBRANCH  11  14
BRANCH  11  23
HETATM   23  C21 UNL     1       4.607  -2.007   0.962  1.00  0.00    -0.004 C 
HETATM   24  C22 UNL     1       6.134  -2.138   1.127  1.00  0.00     0.021 C 
HETATM   25  C23 UNL     1       4.003  -1.841   2.304  1.00  0.00     0.021 C 
HETATM   26  C24 UNL     1       4.225  -3.419   0.397  1.00  0.00     0.021 C 
ENDBRANCH  11  23
ENDBRANCH   9  10
ENDBRANCH   5   6
ENDBRANCH   3   5
BRANCH   1  27
HETATM   27  C7  UNL     1      -3.471   0.240  -2.703  1.00  0.00     0.147 C 
BRANCH  27  28
HETATM   28  C6  UNL     1      -4.164  -0.421  -1.464  1.00  0.00     0.058 C 
BRANCH  28  29
HETATM   29  C5  UNL     1      -3.710   0.291  -0.214  1.00  0.00     0.107 C 
BRANCH  29  30
HETATM   30  C4  UNL     1      -4.351  -0.298   0.984  1.00  0.00     0.231 C 
HETATM   31  N1  UNL     1      -4.139   0.212   2.295  1.00  0.00    -0.254 N 
ATOM     32  H1  UNL     1      -3.518   1.013   2.409  1.00  0.00     0.181 HD
HETATM   33  O3  UNL     1      -5.136  -1.303   0.892  1.00  0.00    -0.273 OA
BRANCH  31  34
HETATM   34  S1  UNL     1      -4.874  -0.452   3.688  1.00  0.00     0.233 S 
HETATM   35  O1  UNL     1      -4.367   0.302   4.911  1.00  0.00    -0.206 OA
HETATM   36  O2  UNL     1      -4.463  -1.897   3.791  1.00  0.00    -0.206 OA
BRANCH  34  37
HETATM   37  C3  UNL     1      -6.620  -0.386   3.698  1.00  0.00     0.163 C 
BRANCH  37  38
HETATM   38  C2  UNL     1      -7.211   0.994   3.639  1.00  0.00     0.012 C 
HETATM   39  C1  UNL     1      -6.862   1.780   2.416  1.00  0.00     0.006 C 
ENDBRANCH  37  38
ENDBRANCH  34  37
ENDBRANCH  31  34
ENDBRANCH  29  30
ENDBRANCH  28  29
ENDBRANCH  27  28
BRANCH  27  40
HETATM   40  O4  UNL     1      -3.892   1.531  -2.595  1.00  0.00    -0.374 OA
HETATM   41  C8  UNL     1      -3.577   2.509  -3.432  1.00  0.00     0.203 C 
ENDBRANCH  27  40
BRANCH  27  42
HETATM   42  C25 UNL     1      -4.038  -0.390  -3.934  1.00  0.00    -0.011 C 
HETATM   43  C26 UNL     1      -3.472   0.094  -5.233  1.00  0.00     0.018 C 
HETATM   44  C27 UNL     1      -4.078  -1.877  -3.979  1.00  0.00     0.018 C 
HETATM   45  C28 UNL     1      -5.528   0.025  -3.955  1.00  0.00     0.018 C 
ENDBRANCH  27  42
ENDBRANCH   1  27
TORSDOF 17
