REMARK  12 active torsions:
REMARK  status: ('A' for Active; 'I' for Inactive)
REMARK    1  A    between atoms: C2_2  and  C3_3 
REMARK    2  A    between atoms: C3_3  and  C4_4 
REMARK    3  A    between atoms: C3_3  and  N1_10 
REMARK    4  A    between atoms: C4_4  and  C5_5 
REMARK       I    between atoms: N1_10  and  C9_12 
REMARK    5  A    between atoms: C9_12  and  C10_14 
REMARK    6  A    between atoms: N2_15  and  O2_16 
REMARK    7  A    between atoms: C11_18  and  C12_19 
REMARK    8  A    between atoms: C11_18  and  C14_21 
REMARK    9  A    between atoms: C16_25  and  C17_26 
REMARK   10  A    between atoms: C16_25  and  C23_35 
REMARK   11  A    between atoms: C17_26  and  C18_27 
REMARK       I    between atoms: C18_27  and  N4_29 
REMARK       I    between atoms: C23_35  and  N5_37 
REMARK   12  A    between atoms: N6_40  and  C26_41 
ROOT
HETATM    1  C10 UNL     1       1.623  -1.026  -0.925  1.00  0.00     0.197 C 
HETATM    2  N2  UNL     1       1.635  -2.058  -1.681  1.00  0.00    -0.210 N 
HETATM    3  C11 UNL     1       0.562  -3.046  -1.629  1.00  0.00     0.130 C 
HETATM    4  N3  UNL     1      -0.692  -2.599  -1.199  1.00  0.00    -0.361 N 
ATOM      5  H3  UNL     1      -1.531  -3.149  -1.386  1.00  0.00     0.158 HD
HETATM    6  C16 UNL     1      -0.779  -1.353  -0.489  1.00  0.00     0.195 C 
HETATM    7  N7  UNL     1       0.520  -0.891  -0.045  1.00  0.00    -0.336 N 
ATOM      8  H7  UNL     1       0.638  -0.478   0.880  1.00  0.00     0.164 HD
ENDROOT
BRANCH   6   9
HETATM    9  C17 UNL     1      -1.645  -1.520   0.736  1.00  0.00     0.167 C 
BRANCH   9  10
HETATM   10  C18 UNL     1      -3.030  -1.933   0.453  1.00  0.00     0.224 C 
HETATM   11  O3  UNL     1      -3.394  -2.095  -0.732  1.00  0.00    -0.273 OA
HETATM   12  N4  UNL     1      -3.991  -2.162   1.468  1.00  0.00    -0.348 N 
HETATM   13  C19 UNL     1      -5.330  -2.564   1.086  1.00  0.00     0.152 C 
HETATM   14  C22 UNL     1      -3.677  -2.006   2.883  1.00  0.00     0.152 C 
HETATM   15  C20 UNL     1      -5.987  -3.463   2.107  1.00  0.00     0.187 C 
HETATM   16  O4  UNL     1      -5.622  -3.189   3.403  1.00  0.00    -0.388 OA
HETATM   17  C21 UNL     1      -4.242  -3.256   3.571  1.00  0.00     0.187 C 
ENDBRANCH   9  10
ENDBRANCH   6   9
BRANCH   6  18
HETATM   18  C23 UNL     1      -1.282  -0.325  -1.435  1.00  0.00     0.269 C 
HETATM   19  O5  UNL     1      -1.546  -0.747  -2.624  1.00  0.00    -0.268 OA
HETATM   20  N5  UNL     1      -1.504   1.026  -1.210  1.00  0.00    -0.345 N 
HETATM   21  C24 UNL     1      -2.032   1.828  -2.330  1.00  0.00     0.156 C 
HETATM   22  C29 UNL     1      -1.297   1.814  -0.027  1.00  0.00     0.156 C 
HETATM   23  C25 UNL     1      -2.852   2.998  -1.792  1.00  0.00     0.292 C 
HETATM   24  N6  UNL     1      -3.548   2.558  -0.622  1.00  0.00     0.091 N 
HETATM   25  C28 UNL     1      -2.677   2.257   0.496  1.00  0.00     0.292 C 
BRANCH  24  26
HETATM   26  C26 UNL     1      -4.613   3.437  -0.216  1.00  0.00     0.268 C 
HETATM   27  C27 UNL     1      -4.143   4.769   0.290  1.00  0.00     0.037 C 
ENDBRANCH  24  26
ENDBRANCH   6  18
BRANCH   3  28
HETATM   28  C12 UNL     1       1.146  -4.166  -0.778  1.00  0.00     0.051 C 
HETATM   29  C13 UNL     1       0.249  -5.317  -0.539  1.00  0.00     0.009 C 
ENDBRANCH   3  28
BRANCH   3  30
HETATM   30  C14 UNL     1       0.477  -3.555  -3.053  1.00  0.00     0.051 C 
HETATM   31  C15 UNL     1      -0.554  -4.576  -3.328  1.00  0.00     0.009 C 
ENDBRANCH   3  30
BRANCH   1  32
HETATM   32  C9  UNL     1       2.704  -0.028  -0.966  1.00  0.00     0.287 C 
HETATM   33  N1  UNL     1       2.675   1.112  -0.119  1.00  0.00    -0.350 N 
ATOM     34  H1  UNL     1       1.893   1.234   0.524  1.00  0.00     0.163 HD
HETATM   35  O1  UNL     1       3.677  -0.160  -1.751  1.00  0.00    -0.264 OA
BRANCH  33  36
HETATM   36  C3  UNL     1       3.723   2.100  -0.146  1.00  0.00     0.085 C 
BRANCH  36  37
HETATM   37  C2  UNL     1       3.224   3.451  -0.581  1.00  0.00     0.021 C 
HETATM   38  C1  UNL     1       2.241   4.063   0.374  1.00  0.00     0.007 C 
ENDBRANCH  36  37
BRANCH  36  39
HETATM   39  C4  UNL     1       4.421   2.110   1.172  1.00  0.00     0.040 C 
BRANCH  39  40
HETATM   40  C5  UNL     1       5.635   3.002   1.198  1.00  0.00     0.049 C 
HETATM   41  C6  UNL     1       6.314   2.991   2.529  1.00  0.00     0.016 C 
HETATM   42  C7  UNL     1       7.161   1.742   2.600  1.00  0.00     0.011 C 
HETATM   43  C8  UNL     1       8.139   1.832   1.438  1.00  0.00     0.074 C 
HETATM   44  S1  UNL     1       6.960   2.332   0.118  1.00  0.00    -0.164 SA
ENDBRANCH  39  40
ENDBRANCH  36  39
ENDBRANCH  33  36
ENDBRANCH   1  32
BRANCH   2  45
HETATM   45  O2  UNL     1       2.673  -2.253  -2.556  1.00  0.00    -0.283 OA
ATOM     46  H2  UNL     1       2.682  -3.019  -3.117  1.00  0.00     0.245 HD
ENDBRANCH   2  45
TORSDOF 12
