REMARK  5 active torsions:
REMARK  status: ('A' for Active; 'I' for Inactive)
REMARK    1  A    between atoms: C6_6  and  C7_7 
REMARK    2  A    between atoms: C7_7  and  N1_8 
REMARK    3  A    between atoms: N1_8  and  C8_9 
REMARK    4  A    between atoms: C11_16  and  N4_17 
REMARK    5  A    between atoms: N4_17  and  C12_19 
ROOT
HETATM    1  C8  UNL     1      -1.393  -1.041  -0.622  1.00  0.00     0.160 A 
HETATM    2  C9  UNL     1      -0.707  -1.340   0.810  1.00  0.00     0.152 A 
HETATM    3  C10 UNL     1       0.727  -1.179   0.823  1.00  0.00     0.050 A 
HETATM    4  N2  UNL     1       1.574  -1.178   1.924  1.00  0.00    -0.302 N 
ATOM      5  H2  UNL     1       1.340  -1.395   2.893  1.00  0.00     0.186 HD
HETATM    6  N3  UNL     1       2.776  -0.825   1.424  1.00  0.00    -0.284 N 
ATOM      7  H3  UNL     1       3.609  -0.746   2.008  1.00  0.00     0.188 HD
HETATM    8  C11 UNL     1       2.797  -0.601   0.192  1.00  0.00     0.135 A 
HETATM    9  C18 UNL     1       1.443  -0.837  -0.287  1.00  0.00     0.056 A 
HETATM   10  C19 UNL     1       0.737  -0.655  -1.346  1.00  0.00     0.023 A 
HETATM   11  C20 UNL     1       1.649  -0.113  -2.542  1.00  0.00     0.069 C 
HETATM   12  N7  UNL     1      -0.511  -0.704  -1.581  1.00  0.00    -0.337 N 
ATOM     13  H7  UNL     1      -0.852  -0.483  -2.517  1.00  0.00     0.168 HD
ENDROOT
BRANCH   1  14
HETATM   14  N1  UNL     1      -2.525  -1.368  -0.579  1.00  0.00    -0.403 NA
BRANCH  14  15
HETATM   15  C7  UNL     1      -3.857  -1.772  -0.472  1.00  0.00     0.197 C 
BRANCH  15  16
HETATM   16  C6  UNL     1      -4.787  -0.717   0.028  1.00  0.00     0.005 A 
HETATM   17  C4  UNL     1      -4.847  -0.314   1.298  1.00  0.00    -0.048 A 
HETATM   18  C3  UNL     1      -5.568   0.833   1.761  1.00  0.00     0.014 A 
HETATM   19  C5  UNL     1      -4.092  -1.076   2.314  1.00  0.00     0.049 C 
HETATM   20  C2  UNL     1      -6.256   1.535   0.769  1.00  0.00    -0.061 A 
HETATM   21  C1  UNL     1      -6.783   2.936   1.060  1.00  0.00     0.048 C 
HETATM   22  C23 UNL     1      -6.251   1.104  -0.520  1.00  0.00     0.014 A 
HETATM   23  C21 UNL     1      -5.518   0.000  -0.903  1.00  0.00    -0.048 A 
HETATM   24  C22 UNL     1      -5.698  -0.553  -2.225  1.00  0.00     0.049 C 
ENDBRANCH  15  16
ENDBRANCH  14  15
ENDBRANCH   1  14
BRANCH   8  25
HETATM   25  N4  UNL     1       3.708  -0.227  -0.778  1.00  0.00    -0.337 N 
ATOM     26  H4  UNL     1       3.477  -0.073  -1.760  1.00  0.00     0.167 HD
BRANCH  25  27
HETATM   27  C12 UNL     1       5.037  -0.083  -0.212  1.00  0.00     0.081 A 
HETATM   28  C13 UNL     1       5.828  -0.927   0.477  1.00  0.00     0.051 A 
HETATM   29  C14 UNL     1       5.762  -2.374   0.686  1.00  0.00     0.072 C 
HETATM   30  N5  UNL     1       6.931  -0.185   0.865  1.00  0.00    -0.301 N 
HETATM   31  N6  UNL     1       6.811   1.054   0.411  1.00  0.00    -0.299 N 
ATOM     32  H5  UNL     1       7.714  -0.538   1.415  1.00  0.00     0.187 HD
HETATM   33  C15 UNL     1       7.837   2.080   0.702  1.00  0.00     0.177 C 
HETATM   34  C16 UNL     1       5.685   1.175  -0.229  1.00  0.00     0.053 A 
HETATM   35  C17 UNL     1       5.284   2.388  -1.000  1.00  0.00     0.072 C 
ENDBRANCH  25  27
ENDBRANCH   8  25
TORSDOF 5
