REMARK  9 active torsions:
REMARK  status: ('A' for Active; 'I' for Inactive)
REMARK    1  A    between atoms: C2_2  and  N1_4 
REMARK    2  A    between atoms: N1_4  and  C4_6 
REMARK    3  A    between atoms: C9_12  and  S1_13 
REMARK    4  A    between atoms: S1_13  and  N2_16 
REMARK    5  A    between atoms: N2_16  and  C10_18 
REMARK    6  A    between atoms: C10_18  and  C11_20 
REMARK    7  A    between atoms: C11_20  and  C12_21 
REMARK    8  A    between atoms: C12_21  and  C13_22 
REMARK       I    between atoms: C13_22  and  N3_24 
REMARK    9  A    between atoms: N3_24  and  C14_26 
ROOT
HETATM    1  N2  UNL     1       0.384  -0.354   1.818  1.00  0.00    -0.297 N 
ATOM      2  H2  UNL     1       0.675  -0.272   2.792  1.00  0.00     0.174 HD
ENDROOT
BRANCH   1   3
HETATM    3  S1  UNL     1      -1.229  -0.471   1.484  1.00  0.00     0.262 S 
HETATM    4  O1  UNL     1      -1.635  -1.788   0.847  1.00  0.00    -0.200 OA
HETATM    5  O2  UNL     1      -1.976  -0.455   2.825  1.00  0.00    -0.200 OA
BRANCH   3   6
HETATM    6  C9  UNL     1      -1.962   0.775   0.532  1.00  0.00     0.105 A 
HETATM    7  C4  UNL     1      -3.329   0.703   0.220  1.00  0.00     0.053 A 
HETATM    8  C5  UNL     1      -3.939   1.689  -0.550  1.00  0.00     0.054 A 
HETATM    9  C6  UNL     1      -3.219   2.762  -1.026  1.00  0.00     0.036 A 
HETATM   10 CL1  UNL     1      -4.002   4.001  -1.998  1.00  0.00    -0.084 Cl
HETATM   11  C7  UNL     1      -1.880   2.831  -0.718  1.00  0.00     0.025 A 
HETATM   12  C8  UNL     1      -1.271   1.846   0.051  1.00  0.00     0.029 A 
BRANCH   7  13
HETATM   13  N1  UNL     1      -4.175  -0.334   0.683  1.00  0.00    -0.385 N 
ATOM     14  H1  UNL     1      -3.786  -1.011   1.339  1.00  0.00     0.160 HD
BRANCH  13  15
HETATM   15  C2  UNL     1      -5.552  -0.493   0.285  1.00  0.00     0.073 C 
HETATM   16  C1  UNL     1      -5.746  -0.834  -1.162  1.00  0.00     0.031 C 
HETATM   17  C3  UNL     1      -6.257  -1.554   1.104  1.00  0.00     0.031 C 
ENDBRANCH  13  15
ENDBRANCH   7  13
ENDBRANCH   3   6
ENDBRANCH   1   3
BRANCH   1  18
HETATM   18  C10 UNL     1       1.383  -0.362   0.811  1.00  0.00     0.190 C 
HETATM   19 CL2  UNL     1       2.506   0.967   0.873  1.00  0.00    -0.102 Cl
BRANCH  18  20
HETATM   20  C11 UNL     1       2.097  -1.686   0.707  1.00  0.00     0.051 C 
BRANCH  20  21
HETATM   21  C12 UNL     1       3.140  -1.661  -0.348  1.00  0.00     0.106 C 
BRANCH  21  22
HETATM   22  C13 UNL     1       4.314  -0.808  -0.116  1.00  0.00     0.223 C 
HETATM   23  O3  UNL     1       4.801  -0.751   1.042  1.00  0.00    -0.273 OA
HETATM   24  N3  UNL     1       4.959  -0.034  -1.119  1.00  0.00    -0.307 N 
ATOM     25  H3  UNL     1       4.428   0.336  -1.908  1.00  0.00     0.171 HD
BRANCH  24  26
HETATM   26  C14 UNL     1       6.253   0.199  -1.016  1.00  0.00     0.153 A 
HETATM   27  N4  UNL     1       7.019   0.896  -1.853  1.00  0.00    -0.325 N 
HETATM   28  C15 UNL     1       8.284   1.015  -1.580  1.00  0.00     0.134 A 
ATOM     29  H4  UNL     1       6.622   1.326  -2.688  1.00  0.00     0.169 HD
HETATM   30 CL3  UNL     1       9.417   1.927  -2.625  1.00  0.00    -0.062 Cl
HETATM   31  C16 UNL     1       8.758   0.414  -0.445  1.00  0.00     0.116 A 
HETATM   32 CL4  UNL     1      10.415   0.394   0.192  1.00  0.00    -0.073 Cl
HETATM   33  S2  UNL     1       7.348  -0.306   0.191  1.00  0.00    -0.038 SA
ENDBRANCH  24  26
ENDBRANCH  21  22
ENDBRANCH  20  21
ENDBRANCH  18  20
ENDBRANCH   1  18
TORSDOF 9
