REMARK  7 active torsions:
REMARK  status: ('A' for Active; 'I' for Inactive)
REMARK    1  A    between atoms: N1_2  and  C2_5 
REMARK    2  A    between atoms: C2_5  and  C4_7 
REMARK       I    between atoms: C4_7  and  N2_9 
REMARK    3  A    between atoms: N2_9  and  C5_11 
REMARK    4  A    between atoms: C5_11  and  C7_13 
REMARK    5  A    between atoms: C7_13  and  C8_14 
REMARK    6  A    between atoms: C8_14  and  C9_15 
REMARK    7  A    between atoms: C21_27  and  C22_28 
ROOT
HETATM    1  C8  UNL     1      -0.433  -1.315  -0.101  1.00  0.00    -0.017 C 
HETATM    2  C13 UNL     1      -1.078  -1.869   1.100  1.00  0.00     0.014 C 
HETATM    3  C14 UNL     1      -2.071  -0.832   1.656  1.00  0.00     0.006 C 
HETATM    4  C15 UNL     1      -1.514   0.463   1.114  1.00  0.00    -0.004 C 
HETATM    5  C16 UNL     1      -1.118   0.044  -0.249  1.00  0.00     0.002 C 
HETATM    6  C17 UNL     1      -2.323   0.020  -1.131  1.00  0.00     0.007 C 
HETATM    7  C18 UNL     1      -3.125   1.279  -1.167  1.00  0.00     0.011 C 
HETATM    8  C19 UNL     1      -3.210   2.054   0.083  1.00  0.00    -0.019 C 
HETATM    9  C20 UNL     1      -3.003   3.553  -0.229  1.00  0.00     0.017 C 
HETATM   10  C21 UNL     1      -4.664   2.038   0.602  1.00  0.00     0.164 C 
HETATM   11  C23 UNL     1      -4.493   2.298   2.059  1.00  0.00     0.142 C 
HETATM   12  O4  UNL     1      -5.173   3.036   2.735  1.00  0.00    -0.297 OA
HETATM   13  C24 UNL     1      -3.331   1.457   2.449  1.00  0.00     0.085 C 
HETATM   14  C25 UNL     1      -2.409   1.639   1.237  1.00  0.00     0.006 C 
ENDROOT
BRANCH   1  15
HETATM   15  C7  UNL     1       1.029  -1.102  -0.103  1.00  0.00     0.038 C 
BRANCH  15  16
HETATM   16  C5  UNL     1       1.775  -0.369   0.918  1.00  0.00     0.081 C 
HETATM   17  C6  UNL     1       1.863  -1.031   2.285  1.00  0.00     0.032 C 
BRANCH  16  18
HETATM   18  N2  UNL     1       3.217  -0.396   0.509  1.00  0.00    -0.355 N 
HETATM   19  C4  UNL     1       3.996   0.743   0.428  1.00  0.00     0.248 C 
HETATM   20  O1  UNL     1       3.502   1.869   0.704  1.00  0.00    -0.271 OA
ATOM     21  H2  UNL     1       3.642  -1.295   0.280  1.00  0.00     0.162 HD
BRANCH  19  22
HETATM   22  C2  UNL     1       5.417   0.630   0.014  1.00  0.00     0.272 C 
HETATM   23  C3  UNL     1       5.398   0.168  -1.446  1.00  0.00     0.050 C 
BRANCH  22  24
HETATM   24  N1  UNL     1       6.035   1.946   0.003  1.00  0.00    -0.067 N 
HETATM   25  C1  UNL     1       7.394   1.900  -0.468  1.00  0.00     0.267 C 
ATOM     26  H12 UNL     1       5.976   2.390   0.919  1.00  0.00     0.277 HD
ATOM     27  H11 UNL     1       5.479   2.611  -0.535  1.00  0.00     0.277 HD
ENDBRANCH  22  24
ENDBRANCH  19  22
ENDBRANCH  16  18
ENDBRANCH  15  16
ENDBRANCH   1  15
BRANCH   1  28
HETATM   28  C9  UNL     1      -0.766  -2.108  -1.364  1.00  0.00    -0.015 C 
HETATM   29  C10 UNL     1      -0.213  -3.408  -1.648  1.00  0.00    -0.091 C 
HETATM   30  C11 UNL     1      -0.467  -4.528  -0.646  1.00  0.00     0.042 C 
HETATM   31  C12 UNL     1       1.168  -3.594  -2.161  1.00  0.00     0.042 C 
ENDBRANCH   1  28
BRANCH  10  32
HETATM   32  C22 UNL     1      -5.494   3.036  -0.059  1.00  0.00     0.185 C 
HETATM   33  O2  UNL     1      -6.056   3.931   0.607  1.00  0.00    -0.647 OA
HETATM   34  O3  UNL     1      -5.670   3.006  -1.424  1.00  0.00    -0.647 OA
ENDBRANCH  10  32
TORSDOF 7
