REMARK  14 active torsions:
REMARK  status: ('A' for Active; 'I' for Inactive)
REMARK    1  A    between atoms: C2_2  and  C3_3 
REMARK       I    between atoms: C3_3  and  N1_5 
REMARK    2  A    between atoms: N1_5  and  C4_7 
REMARK    3  A    between atoms: N2_9  and  C5_10 
REMARK    4  A    between atoms: C6_11  and  C8_14 
REMARK    5  A    between atoms: C8_14  and  O3_16 
REMARK    6  A    between atoms: O3_16  and  C9_17 
REMARK    7  A    between atoms: C9_17  and  C10_18 
REMARK    8  A    between atoms: C10_18  and  N4_19 
REMARK    9  A    between atoms: C10_18  and  C11_23 
REMARK   10  A    between atoms: C11_23  and  O5_28 
REMARK   11  A    between atoms: N5_24  and  O4_26 
REMARK   12  A    between atoms: O5_28  and  C12_29 
REMARK   13  A    between atoms: C14_32  and  C15_33 
REMARK   14  A    between atoms: C16_34  and  O7_35 
ROOT
HETATM    1  C5  UNL     1      -0.691   0.534  -0.884  1.00  0.00     0.134 C 
HETATM    2  C6  UNL     1       0.302   0.170  -0.096  1.00  0.00     0.136 C 
HETATM    3  C7  UNL     1       0.026   0.000   1.301  1.00  0.00     0.107 C 
HETATM    4  N3  UNL     1      -0.213  -0.142   2.428  1.00  0.00    -0.191 NA
ENDROOT
BRANCH   2   5
HETATM    5  C8  UNL     1       1.650  -0.059  -0.607  1.00  0.00     0.305 C 
HETATM    6  O2  UNL     1       1.860   0.095  -1.819  1.00  0.00    -0.258 OA
BRANCH   5   7
HETATM    7  O3  UNL     1       2.644  -0.434   0.239  1.00  0.00    -0.314 OA
BRANCH   7   8
HETATM    8  C9  UNL     1       3.970  -0.684  -0.087  1.00  0.00     0.220 C 
BRANCH   8   9
HETATM    9  C10 UNL     1       4.648   0.546  -0.640  1.00  0.00     0.283 C 
BRANCH   9  10
HETATM   10  N4  UNL     1       4.650   1.655   0.283  1.00  0.00    -0.066 N 
ATOM     11  H43 UNL     1       3.703   1.871   0.594  1.00  0.00     0.275 HD
ATOM     12  H42 UNL     1       5.061   1.384   1.176  1.00  0.00     0.275 HD
ATOM     13  H41 UNL     1       5.108   2.486  -0.091  1.00  0.00     0.275 HD
ENDBRANCH   9  10
BRANCH   9  14
HETATM   14  C11 UNL     1       6.043   0.256  -1.059  1.00  0.00     0.179 C 
HETATM   15  N5  UNL     1       6.419   0.589  -2.233  1.00  0.00    -0.249 N 
ATOM     16  H5  UNL     1       5.740   1.049  -2.840  1.00  0.00     0.196 HD
BRANCH  15  17
HETATM   17  O4  UNL     1       7.643   0.374  -2.716  1.00  0.00    -0.288 OA
ATOM     18  H4  UNL     1       7.923   0.622  -3.589  1.00  0.00     0.244 HD
ENDBRANCH  15  17
BRANCH  14  19
HETATM   19  O5  UNL     1       7.014  -0.365  -0.253  1.00  0.00    -0.262 OA
BRANCH  19  20
HETATM   20  C12 UNL     1       8.206   0.305   0.095  1.00  0.00     0.261 C 
HETATM   21  C13 UNL     1       9.222  -0.356   0.952  1.00  0.00     0.126 C 
HETATM   22  O6  UNL     1       8.353   1.469  -0.354  1.00  0.00    -0.265 OA
ENDBRANCH  19  20
ENDBRANCH  14  19
ENDBRANCH   9  14
ENDBRANCH   8   9
ENDBRANCH   7   8
ENDBRANCH   5   7
ENDBRANCH   2   5
BRANCH   1  23
HETATM   23  N2  UNL     1      -1.995   0.749  -0.347  1.00  0.00    -0.285 N 
HETATM   24  S1  UNL     1      -2.650   2.020   0.499  1.00  0.00     0.013 SA
HETATM   25  C4  UNL     1      -3.888   0.880   0.342  1.00  0.00     0.122 A 
HETATM   26  C14 UNL     1      -3.101   0.001  -0.353  1.00  0.00     0.101 A 
BRANCH  25  27
HETATM   27  N1  UNL     1      -5.268   0.878   0.796  1.00  0.00    -0.318 N 
HETATM   28  C3  UNL     1      -5.794   1.979   1.514  1.00  0.00     0.222 C 
HETATM   29  O1  UNL     1      -5.005   2.951   1.736  1.00  0.00    -0.273 OA
ATOM     30  H1  UNL     1      -5.864   0.075   0.595  1.00  0.00     0.169 HD
BRANCH  28  31
HETATM   31  C2  UNL     1      -7.174   2.035   1.996  1.00  0.00     0.098 C 
HETATM   32  C1  UNL     1      -7.413   3.336   2.721  1.00  0.00     0.014 C 
ENDBRANCH  28  31
ENDBRANCH  25  27
BRANCH  26  33
HETATM   33  C15 UNL     1      -3.431  -1.318  -0.898  1.00  0.00     0.113 A 
HETATM   34  C16 UNL     1      -3.249  -2.470  -0.128  1.00  0.00     0.162 A 
HETATM   35  N6  UNL     1      -3.549  -3.681  -0.620  1.00  0.00    -0.288 N 
HETATM   36  C17 UNL     1      -4.025  -3.834  -1.845  1.00  0.00     0.329 A 
ATOM     37  H6  UNL     1      -3.407  -4.505  -0.035  1.00  0.00     0.172 HD
HETATM   38  O8  UNL     1      -4.321  -4.951  -2.351  1.00  0.00    -0.247 OA
HETATM   39  N7  UNL     1      -4.218  -2.755  -2.625  1.00  0.00    -0.275 N 
HETATM   40  C18 UNL     1      -3.928  -1.527  -2.163  1.00  0.00     0.266 A 
ATOM     41  H7  UNL     1      -4.585  -2.869  -3.570  1.00  0.00     0.173 HD
HETATM   42  O9  UNL     1      -4.109  -0.548  -2.889  1.00  0.00    -0.267 OA
BRANCH  34  43
HETATM   43  O7  UNL     1      -2.753  -2.378   1.165  1.00  0.00    -0.345 OA
ATOM     44  H7  UNL     1      -2.629  -3.161   1.688  1.00  0.00     0.219 HD
ENDBRANCH  34  43
ENDBRANCH  26  33
ENDBRANCH   1  23
TORSDOF 14
