REMARK  6 active torsions:
REMARK  status: ('A' for Active; 'I' for Inactive)
REMARK    1  A    between atoms: C2_2  and  N1_4 
REMARK    2  A    between atoms: N1_4  and  C4_6 
REMARK    3  A    between atoms: C8_10  and  N2_11 
REMARK    4  A    between atoms: N2_11  and  C9_14 
REMARK    5  A    between atoms: C9_14  and  C10_15 
REMARK    6  A    between atoms: C11_18  and  C12_19 
ROOT
HETATM    1  C9  UNL     1      -0.336   1.953   0.726  1.00  0.00     0.319 C 
ENDROOT
BRANCH   1   2
HETATM    2  N2  UNL     1       0.710   1.694  -0.242  1.00  0.00    -0.063 N 
ATOM      3  H22 UNL     1       1.352   2.484  -0.304  1.00  0.00     0.278 HD
ATOM      4  H21 UNL     1       0.338   1.706  -1.192  1.00  0.00     0.278 HD
BRANCH   2   5
HETATM    5  C8  UNL     1       1.417   0.481   0.013  1.00  0.00     0.191 C 
HETATM    6  C7  UNL     1       2.080   0.362   1.322  1.00  0.00     0.034 C 
HETATM    7  C6  UNL     1       3.345   1.127   1.473  1.00  0.00     0.008 C 
HETATM    8  C5  UNL     1       4.149   1.270   0.181  1.00  0.00     0.052 C 
HETATM    9  C4  UNL     1       3.818   0.145  -0.765  1.00  0.00    -0.016 C 
HETATM   10  C18 UNL     1       2.371   0.209  -1.134  1.00  0.00     0.085 C 
BRANCH   9  11
HETATM   11  N1  UNL     1       4.372  -1.121  -0.496  1.00  0.00    -0.392 N 
ATOM     12  H1  UNL     1       3.768  -1.863  -0.142  1.00  0.00     0.159 HD
BRANCH  11  13
HETATM   13  C2  UNL     1       5.745  -1.391  -0.704  1.00  0.00     0.073 C 
HETATM   14  C1  UNL     1       6.739  -0.581   0.037  1.00  0.00     0.031 C 
HETATM   15  C3  UNL     1       5.971  -2.840  -0.217  1.00  0.00     0.031 C 
ENDBRANCH  11  13
ENDBRANCH   9  11
ENDBRANCH   2   5
ENDBRANCH   1   2
BRANCH   1  16
HETATM   16  C10 UNL     1      -1.552   1.173   0.418  1.00  0.00     0.174 A 
HETATM   17  N3  UNL     1      -2.243   1.146  -0.703  1.00  0.00    -0.323 N 
HETATM   18  C11 UNL     1      -3.269   0.287  -0.518  1.00  0.00     0.133 A 
ATOM     19  H3  UNL     1      -2.041   1.675  -1.552  1.00  0.00     0.169 HD
HETATM   20  N4  UNL     1      -3.156  -0.186   0.731  1.00  0.00    -0.244 N 
HETATM   21  O2  UNL     1      -2.140   0.339   1.291  1.00  0.00    -0.221 OA
ATOM     22  H4  UNL     1      -3.786  -0.861   1.165  1.00  0.00     0.196 HD
BRANCH  18  23
HETATM   23  C12 UNL     1      -4.321  -0.135  -1.512  1.00  0.00     0.190 C 
HETATM   24  C13 UNL     1      -5.415   0.855  -1.422  1.00  0.00     0.040 C 
HETATM   25  C14 UNL     1      -5.887   1.120  -0.034  1.00  0.00     0.003 C 
HETATM   26  C15 UNL     1      -6.785   0.085   0.527  1.00  0.00     0.002 C 
HETATM   27  C16 UNL     1      -6.383  -1.336   0.360  1.00  0.00     0.026 C 
HETATM   28  C17 UNL     1      -5.921  -1.738  -1.005  1.00  0.00     0.168 C 
HETATM   29  O1  UNL     1      -4.599  -1.438  -1.261  1.00  0.00    -0.378 OA
ENDBRANCH  18  23
ENDBRANCH   1  16
TORSDOF 6
