REMARK  6 active torsions:
REMARK  status: ('A' for Active; 'I' for Inactive)
REMARK    1  A    between atoms: C2_2  and  C3_3 
REMARK    2  A    between atoms: C4_4  and  O1_5 
REMARK    3  A    between atoms: O1_5  and  C5_6 
REMARK    4  A    between atoms: C5_6  and  C6_7 
REMARK    5  A    between atoms: C6_7  and  C7_8 
REMARK    6  A    between atoms: C14_20  and  C15_21 
ROOT
HETATM    1  C3  UNL     1      -2.386  -0.392   0.046  1.00  0.00    -0.008 A 
HETATM    2  C4  UNL     1      -0.970  -0.539   0.201  1.00  0.00     0.091 A 
HETATM    3  C12 UNL     1      -0.439  -0.300   1.428  1.00  0.00     0.124 A 
HETATM    4  N2  UNL     1      -1.169   0.066   2.495  1.00  0.00    -0.372 N 
ATOM      5  H2  UNL     1      -0.732   0.237   3.401  1.00  0.00     0.164 HD
HETATM    6  C13 UNL     1      -2.483   0.198   2.328  1.00  0.00     0.104 A 
HETATM    7  C14 UNL     1      -3.143  -0.023   1.108  1.00  0.00     0.041 A 
ENDROOT
BRANCH   2   8
HETATM    8  O1  UNL     1      -0.247  -0.914  -0.894  1.00  0.00    -0.349 OA
BRANCH   8   9
HETATM    9  C5  UNL     1       1.113  -1.099  -1.029  1.00  0.00     0.176 C 
BRANCH   9  10
HETATM   10  C6  UNL     1       1.982   0.114  -0.867  1.00  0.00     0.031 C 
BRANCH  10  11
HETATM   11  C7  UNL     1       3.421  -0.232  -1.080  1.00  0.00    -0.009 C 
HETATM   12  C8  UNL     1       3.913  -1.242  -0.114  1.00  0.00     0.032 C 
HETATM   13  C9  UNL     1       4.011  -0.688   1.298  1.00  0.00     0.232 C 
HETATM   14  N1  UNL     1       4.868   0.484   1.271  1.00  0.00    -0.075 N 
HETATM   15  C10 UNL     1       4.387   1.515   0.393  1.00  0.00     0.232 C 
ATOM     16  H12 UNL     1       5.015   0.848   2.212  1.00  0.00     0.277 HD
ATOM     17  H11 UNL     1       5.827   0.227   1.039  1.00  0.00     0.277 HD
HETATM   18  C11 UNL     1       4.293   1.026  -1.043  1.00  0.00     0.032 C 
ENDBRANCH  10  11
ENDBRANCH   9  10
ENDBRANCH   8   9
ENDBRANCH   2   8
BRANCH   1  19
HETATM   19  C2  UNL     1      -2.917  -0.661  -1.293  1.00  0.00     0.038 C 
HETATM   20  C1  UNL     1      -2.739   0.513  -2.253  1.00  0.00     0.010 C 
ENDBRANCH   1  19
BRANCH   7  21
HETATM   21  C15 UNL     1      -4.575   0.195   1.040  1.00  0.00     0.177 A 
HETATM   22  N3  UNL     1      -5.414   0.152   0.015  1.00  0.00    -0.276 N 
HETATM   23  N4  UNL     1      -6.648   0.416   0.382  1.00  0.00    -0.268 N 
ATOM     24  H3  UNL     1      -5.136  -0.060  -0.943  1.00  0.00     0.189 HD
HETATM   25  C16 UNL     1      -6.596   0.637   1.698  1.00  0.00     0.235 A 
ATOM     26  H4  UNL     1      -7.475   0.446  -0.215  1.00  0.00     0.190 HD
HETATM   27  S1  UNL     1      -7.915   1.013   2.625  1.00  0.00    -0.031 SA
HETATM   28  O2  UNL     1      -5.369   0.503   2.071  1.00  0.00    -0.264 OA
ENDBRANCH   7  21
TORSDOF 6
