REMARK  6 active torsions:
REMARK  status: ('A' for Active; 'I' for Inactive)
REMARK    1  A    between atoms: O1_2  and  N1_3 
REMARK    2  A    between atoms: N1_3  and  C2_5 
REMARK    3  A    between atoms: C3_8  and  N3_9 
REMARK    4  A    between atoms: C6_14  and  N4_15 
REMARK    5  A    between atoms: N4_15  and  N5_17 
REMARK       I    between atoms: N5_17  and  C7_19 
REMARK    6  A    between atoms: C7_19  and  C8_21 
ROOT
HETATM    1  C2  UNL     1       2.037  -0.489   0.007  1.00  0.00     0.705 C 
HETATM    2  N2  UNL     1       2.205   0.557   0.840  1.00  0.00    -0.175 N 
ATOM      3  H2  UNL     1       3.156   0.905   0.962  1.00  0.00     0.186 HD
HETATM    4  C3  UNL     1       1.227   1.187   1.528  1.00  0.00     0.114 C 
HETATM    5  C4  UNL     1      -0.133   0.885   1.641  1.00  0.00     0.052 C 
HETATM    6  C5  UNL     1      -0.870  -0.023   0.909  1.00  0.00     0.054 C 
HETATM    7  C6  UNL     1      -0.377  -0.813  -0.108  1.00  0.00     0.135 C 
HETATM    8  N7  UNL     1       0.913  -1.040  -0.487  1.00  0.00    -0.174 N 
ATOM      9  H7  UNL     1       1.043  -1.714  -1.242  1.00  0.00     0.186 HD
ENDROOT
BRANCH   7  10
HETATM   10  N4  UNL     1      -1.229  -1.446  -0.829  1.00  0.00    -0.282 N 
ATOM     11  H4  UNL     1      -0.920  -2.045  -1.595  1.00  0.00     0.188 HD
BRANCH  10  12
HETATM   12  N5  UNL     1      -2.582  -1.299  -0.545  1.00  0.00    -0.261 N 
HETATM   13  C7  UNL     1      -3.311  -0.235  -1.136  1.00  0.00     0.325 C 
HETATM   14  O2  UNL     1      -2.751   0.573  -1.910  1.00  0.00    -0.261 OA
ATOM     15  H5  UNL     1      -3.048  -1.952   0.085  1.00  0.00     0.190 HD
BRANCH  13  16
HETATM   16  C8  UNL     1      -4.720  -0.102  -0.825  1.00  0.00     0.324 C 
HETATM   17  N6  UNL     1      -5.493   0.940  -1.387  1.00  0.00    -0.053 NA
HETATM   18  O3  UNL     1      -5.270  -0.915  -0.051  1.00  0.00    -0.266 OA
ENDBRANCH  13  16
ENDBRANCH  10  12
ENDBRANCH   7  10
BRANCH   1  19
HETATM   19  N1  UNL     1       3.146  -1.043  -0.372  1.00  0.00    -0.097 N 
ATOM     20  H1  UNL     1       3.093  -1.841  -1.005  1.00  0.00     0.213 HD
BRANCH  19  21
HETATM   21  O1  UNL     1       4.374  -0.621   0.025  1.00  0.00    -0.272 OA
HETATM   22  C1  UNL     1       5.526  -0.617  -0.760  1.00  0.00     0.238 C 
ENDBRANCH  19  21
ENDBRANCH   1  19
BRANCH   4  23
HETATM   23  N3  UNL     1       1.646   2.226   2.171  1.00  0.00    -0.385 N 
ATOM     24  H32 UNL     1       2.638   2.446   2.089  1.00  0.00     0.157 HD
ATOM     25  H31 UNL     1       0.908   2.701   2.690  1.00  0.00     0.157 HD
ENDBRANCH   4  23
TORSDOF 6
