REMARK  1 active torsions:
REMARK  status: ('A' for Active; 'I' for Inactive)
REMARK       I    between atoms: N1_1  and  C1_5 
REMARK       I    between atoms: C1_5  and  N2_6 
REMARK       I    between atoms: C1_5  and  N3_10 
REMARK    1  A    between atoms: C3_17  and  N6_18 
ROOT
HETATM    1  N1  UNL     1       5.474   1.476  -0.482  1.00  0.00    -0.033 N 
ATOM      2  H11 UNL     1       5.165   2.409  -0.210  1.00  0.00     0.278 HD
ATOM      3  H12 UNL     1       5.523   1.344  -1.492  1.00  0.00     0.278 HD
ATOM      4  H13 UNL     1       6.459   1.302  -0.284  1.00  0.00     0.278 HD
HETATM    5  C1  UNL     1       4.560   0.522   0.193  1.00  0.00     0.481 C 
HETATM    6  N2  UNL     1       4.992  -0.784  -0.187  1.00  0.00    -0.033 N 
ATOM      7  H21 UNL     1       4.364  -1.440   0.277  1.00  0.00     0.278 HD
ATOM      8  H22 UNL     1       5.977  -0.958   0.011  1.00  0.00     0.278 HD
ATOM      9  H23 UNL     1       5.041  -0.916  -1.197  1.00  0.00     0.278 HD
HETATM   10  N3  UNL     1       3.244   0.876   0.096  1.00  0.00    -0.322 N 
ATOM     11  H3  UNL     1       3.248   1.887  -0.039  1.00  0.00     0.165 HD
HETATM   12  C2  UNL     1       2.064   0.556   0.094  1.00  0.00     0.189 A 
HETATM   13  N4  UNL     1       1.108   1.542  -0.072  1.00  0.00    -0.267 N 
ATOM     14  H4  UNL     1       1.415   2.508  -0.185  1.00  0.00     0.189 HD
HETATM   15  N5  UNL     1      -0.176   1.284  -0.090  1.00  0.00    -0.130 N 
ATOM     16  H5  UNL     1      -0.828   2.058  -0.217  1.00  0.00     0.205 HD
HETATM   17  C3  UNL     1      -0.671   0.044   0.052  1.00  0.00     0.698 A 
HETATM   18  N8  UNL     1       0.202  -0.959   0.218  1.00  0.00    -0.152 N 
ATOM     19  H8  UNL     1      -0.137  -1.915   0.329  1.00  0.00     0.188 HD
HETATM   20  C8  UNL     1       1.548  -0.706   0.239  1.00  0.00     0.305 A 
HETATM   21  O1  UNL     1       2.305  -1.691   0.397  1.00  0.00    -0.263 OA
ENDROOT
BRANCH  17  22
HETATM   22  N6  UNL     1      -2.073  -0.217   0.036  1.00  0.00    -0.213 N 
HETATM   23  C4  UNL     1      -2.720  -0.374  -1.233  1.00  0.00     0.168 C 
HETATM   24  C5  UNL     1      -4.211  -0.114  -1.154  1.00  0.00     0.252 C 
HETATM   25  N7  UNL     1      -4.804  -0.617   0.072  1.00  0.00    -0.072 N 
HETATM   26  C6  UNL     1      -4.201   0.110   1.174  1.00  0.00     0.252 C 
ATOM     27  H72 UNL     1      -5.823  -0.567   0.072  1.00  0.00     0.277 HD
ATOM     28  H71 UNL     1      -4.721  -1.629   0.169  1.00  0.00     0.277 HD
HETATM   29  C7  UNL     1      -2.754  -0.309   1.305  1.00  0.00     0.168 C 
ENDBRANCH  17  22
TORSDOF 1
