REMARK  4 active torsions:
REMARK  status: ('A' for Active; 'I' for Inactive)
REMARK    1  A    between atoms: C2_5  and  C3_6 
REMARK    2  A    between atoms: C2_5  and  N4_15 
REMARK    3  A    between atoms: C8_11  and  N3_12 
REMARK       I    between atoms: N5_17  and  C10_18 
REMARK    4  A    between atoms: C10_18  and  C11_20 
ROOT
HETATM    1  N1  UNL     1      -1.347   4.479  -1.242  1.00  0.00    -0.172 NA
HETATM    2  C1  UNL     1      -1.540   3.372  -0.919  1.00  0.00     0.183 C 
HETATM    3  N2  UNL     1      -1.799   2.131  -0.528  1.00  0.00    -0.278 N 
ATOM      4  H2  UNL     1      -2.748   2.033  -0.168  1.00  0.00     0.179 HD
HETATM    5  C2  UNL     1      -1.172   1.057  -0.491  1.00  0.00     0.133 C 
ENDROOT
BRANCH   5   6
HETATM    6  C3  UNL     1      -1.997  -0.071   0.075  1.00  0.00     0.042 A 
HETATM    7  C4  UNL     1      -2.290  -1.173  -0.720  1.00  0.00     0.018 A 
HETATM    8  C5  UNL     1      -3.052  -2.209  -0.224  1.00  0.00     0.001 A 
HETATM    9  C6  UNL     1      -3.533  -2.169   1.063  1.00  0.00     0.002 A 
HETATM   10  C7  UNL     1      -3.235  -1.078   1.837  1.00  0.00     0.037 A 
HETATM   11  C8  UNL     1      -2.449  -0.004   1.336  1.00  0.00     0.116 A 
BRANCH  11  12
HETATM   12  N3  UNL     1      -2.184   1.059   2.216  1.00  0.00    -0.115 N 
HETATM   13  O1  UNL     1      -1.110   1.659   2.218  1.00  0.00    -0.532 OA
HETATM   14  O2  UNL     1      -3.121   1.432   3.152  1.00  0.00    -0.532 OA
ENDBRANCH  11  12
ENDBRANCH   5   6
BRANCH   5  15
HETATM   15  N4  UNL     1       0.131   0.756  -0.904  1.00  0.00    -0.284 N 
HETATM   16  C9  UNL     1       0.752  -0.576  -0.711  1.00  0.00     0.263 C 
HETATM   17  N5  UNL     1       2.164  -0.313  -0.553  1.00  0.00    -0.317 N 
HETATM   18  C10 UNL     1       3.122  -1.276  -0.109  1.00  0.00     0.322 C 
HETATM   19  C12 UNL     1       2.450   1.041  -0.904  1.00  0.00     0.231 C 
HETATM   20  O3  UNL     1       2.758  -2.447   0.166  1.00  0.00    -0.261 OA
HETATM   21  C13 UNL     1       1.157   1.506  -1.527  1.00  0.00     0.244 C 
HETATM   22  O6  UNL     1       0.986   2.357  -2.401  1.00  0.00    -0.271 OA
BRANCH  18  23
HETATM   23  C11 UNL     1       4.520  -0.958   0.040  1.00  0.00     0.270 C 
HETATM   24  O4  UNL     1       4.919   0.205  -0.218  1.00  0.00    -0.640 OA
HETATM   25  O5  UNL     1       5.452  -1.877   0.456  1.00  0.00    -0.640 OA
ENDBRANCH  18  23
ENDBRANCH   5  15
TORSDOF 4
