REMARK  6 active torsions:
REMARK  status: ('A' for Active; 'I' for Inactive)
REMARK       I    between atoms: N1_2  and  C2_4 
REMARK       I    between atoms: C2_4  and  N2_5 
REMARK    1  A    between atoms: N2_5  and  N3_7 
REMARK    2  A    between atoms: N3_7  and  N4_8 
REMARK    3  A    between atoms: N5_11  and  C3_13 
REMARK    4  A    between atoms: C6_17  and  C7_18 
REMARK    5  A    between atoms: C7_18  and  C8_20 
REMARK    6  A    between atoms: C9_21  and  C10_22 
ROOT
HETATM    1  C3  UNL     1      -3.012   1.349   0.247  1.00  0.00     0.090 A 
HETATM    2  C4  UNL     1      -2.578   0.412  -0.653  1.00  0.00     0.075 A 
HETATM    3  N6  UNL     1      -3.478  -0.241  -1.578  1.00  0.00    -0.100 NA
HETATM    4  C5  UNL     1      -1.223   0.102  -0.691  1.00  0.00     0.044 A 
HETATM    5  C6  UNL     1      -0.275   0.672   0.113  1.00  0.00     0.017 A 
HETATM    6  C15 UNL     1      -0.752   1.622   1.016  1.00  0.00     0.037 A 
HETATM    7  C16 UNL     1      -2.076   1.963   1.095  1.00  0.00     0.041 A 
HETATM    8 BR1  UNL     1      -2.599   3.277   2.372  1.00  0.00    -0.049 Br
ENDROOT
BRANCH   1   9
HETATM    9  N5  UNL     1      -4.344   1.713   0.395  1.00  0.00    -0.187 N 
HETATM   10  C2  UNL     1      -5.364   1.015   0.640  1.00  0.00     0.704 C 
HETATM   11  N1  UNL     1      -5.344  -0.382   0.830  1.00  0.00    -0.228 N 
HETATM   12  N2  UNL     1      -6.669   1.627   0.748  1.00  0.00    -0.046 N 
HETATM   13  C1  UNL     1      -6.486  -1.242   0.491  1.00  0.00     0.165 C 
ATOM     14  H1  UNL     1      -4.504  -0.812   1.218  1.00  0.00     0.177 HD
ATOM     15  H2  UNL     1      -7.040   1.878   1.664  1.00  0.00     0.223 HD
ATOM     16  H5  UNL     1      -4.527   2.711   0.288  1.00  0.00     0.184 HD
BRANCH  12  17
HETATM   17  N3  UNL     1      -7.339   1.847  -0.277  1.00  0.00    -0.229 NA
BRANCH  17  18
HETATM   18  N4  UNL     1      -8.190   1.752  -1.175  1.00  0.00    -0.260 N 
ATOM     19  H42 UNL     1      -8.634   0.916  -0.796  1.00  0.00     0.193 HD
ATOM     20  H41 UNL     1      -8.739   1.932  -2.015  1.00  0.00     0.193 HD
ENDBRANCH  17  18
ENDBRANCH  12  17
ENDBRANCH   1   9
BRANCH   5  21
HETATM   21  C7  UNL     1       1.169   0.333   0.065  1.00  0.00     0.182 C 
HETATM   22  O1  UNL     1       1.868   0.959   0.877  1.00  0.00    -0.288 OA
BRANCH  21  23
HETATM   23  C8  UNL     1       1.668  -0.625  -0.843  1.00  0.00     0.058 C 
HETATM   24  C9  UNL     1       2.878  -1.048  -1.030  1.00  0.00     0.035 C 
BRANCH  24  25
HETATM   25  C10 UNL     1       4.110  -0.674  -0.370  1.00  0.00     0.055 A 
HETATM   26  N7  UNL     1       4.391   0.189   0.605  1.00  0.00    -0.299 N 
HETATM   27  N8  UNL     1       5.647   0.259   0.948  1.00  0.00    -0.307 N 
ATOM     28  H7  UNL     1       3.672   0.757   1.053  1.00  0.00     0.187 HD
HETATM   29  C11 UNL     1       6.286   1.089   1.965  1.00  0.00     0.177 C 
HETATM   30  C12 UNL     1       6.276  -0.618   0.152  1.00  0.00     0.118 A 
HETATM   31  C13 UNL     1       5.379  -1.228  -0.686  1.00  0.00    -0.017 A 
HETATM   32  C14 UNL     1       5.649  -2.253  -1.716  1.00  0.00     0.052 C 
ENDBRANCH  24  25
ENDBRANCH  21  23
ENDBRANCH   5  21
TORSDOF 6
