REMARK  13 active torsions:
REMARK  status: ('A' for Active; 'I' for Inactive)
REMARK    1  A    between atoms: C3_3  and  C4_4 
REMARK    2  A    between atoms: C6_6  and  N1_7 
REMARK    3  A    between atoms: N1_7  and  C7_9 
REMARK    4  A    between atoms: C7_9  and  N2_10 
REMARK    5  A    between atoms: C7_9  and  O1_14 
REMARK    6  A    between atoms: C11_24  and  O4_25 
REMARK    7  A    between atoms: O4_25  and  C12_26 
REMARK    8  A    between atoms: C12_26  and  O5_27 
REMARK    9  A    between atoms: C12_26  and  C13_29 
REMARK   10  A    between atoms: C14_31  and  N5_32 
REMARK   11  A    between atoms: N5_32  and  C15_34 
REMARK   12  A    between atoms: C15_34  and  O7_37 
REMARK   13  A    between atoms: C19_45  and  N8_46 
ROOT
HETATM    1  C4  UNL     1       1.328   0.495   1.096  1.00  0.00     0.085 C 
HETATM    2  C5  UNL     1       1.049   1.174  -0.092  1.00  0.00     0.110 C 
HETATM    3  C6  UNL     1       0.922   2.508  -0.271  1.00  0.00     0.135 C 
HETATM    4  N3  UNL     1      -0.487   2.901   0.182  1.00  0.00    -0.323 N 
ATOM      5  H3  UNL     1      -0.932   3.818   0.131  1.00  0.00     0.169 HD
HETATM    6  C8  UNL     1      -1.006   1.745   0.668  1.00  0.00     0.186 C 
HETATM    7  C9  UNL     1      -0.881   1.106   1.869  1.00  0.00     0.267 C 
HETATM    8  O2  UNL     1      -1.761   0.773   2.701  1.00  0.00    -0.280 OA
HETATM    9  C10 UNL     1       0.503   0.734   2.261  1.00  0.00     0.241 C 
HETATM   10  O3  UNL     1       0.952   0.625   3.267  1.00  0.00    -0.283 OA
HETATM   11  N4  UNL     1      -1.558   0.633   0.001  1.00  0.00    -0.118 N 
HETATM   12  C11 UNL     1      -2.808   0.320   0.345  1.00  0.00     0.257 C 
HETATM   13  C14 UNL     1      -0.748  -0.166  -0.987  1.00  0.00     0.690 C 
HETATM   14  N6  UNL     1       0.578   0.129  -1.008  1.00  0.00    -0.186 N 
ATOM     15  H6  UNL     1       1.220  -0.356  -1.635  1.00  0.00     0.184 HD
ENDROOT
BRANCH   1  16
HETATM   16  C3  UNL     1       2.377  -0.371   1.001  1.00  0.00     0.120 A 
HETATM   17  C2  UNL     1       2.871  -1.415   1.704  1.00  0.00     0.070 A 
HETATM   18  C1  UNL     1       2.342  -2.000   2.902  1.00  0.00     0.074 C 
HETATM   19  N10 UNL     1       3.982  -1.890   1.078  1.00  0.00    -0.206 N 
HETATM   20  C18 UNL     1       4.156  -1.137   0.001  1.00  0.00     0.266 A 
HETATM   21  N9  UNL     1       4.950  -2.797   1.116  1.00  0.00    -0.122 N 
HETATM   22  O8  UNL     1       3.231  -0.262  -0.043  1.00  0.00    -0.274 OA
HETATM   23  N7  UNL     1       5.246  -1.583  -0.636  1.00  0.00    -0.152 N 
HETATM   24  C19 UNL     1       5.765  -2.641   0.061  1.00  0.00     0.694 A 
ATOM     25  H7  UNL     1       5.628  -1.197  -1.500  1.00  0.00     0.188 HD
ATOM     26  H9  UNL     1       5.059  -3.507   1.840  1.00  0.00     0.206 HD
BRANCH  24  27
HETATM   27  N8  UNL     1       6.816  -3.326  -0.253  1.00  0.00    -0.233 N 
ATOM     28  H82 UNL     1       7.435  -3.207  -1.055  1.00  0.00     0.174 HD
ATOM     29  H81 UNL     1       7.203  -4.114   0.266  1.00  0.00     0.174 HD
ENDBRANCH  24  27
ENDBRANCH   1  16
BRANCH   3  30
HETATM   30  N1  UNL     1       1.676   3.522  -0.721  1.00  0.00    -0.326 N 
ATOM     31  H1  UNL     1       2.620   3.287  -1.029  1.00  0.00     0.165 HD
BRANCH  30  32
HETATM   32  C7  UNL     1       1.291   4.922  -0.817  1.00  0.00     0.425 C 
BRANCH  32  33
HETATM   33  N2  UNL     1       0.946   5.488   0.461  1.00  0.00    -0.035 N 
ATOM     34  H23 UNL     1       0.221   4.939   0.922  1.00  0.00     0.279 HD
ATOM     35  H22 UNL     1       1.701   5.360   1.135  1.00  0.00     0.279 HD
ATOM     36  H21 UNL     1       0.676   6.469   0.394  1.00  0.00     0.279 HD
ENDBRANCH  32  33
BRANCH  32  37
HETATM   37  O1  UNL     1       0.171   5.022  -1.666  1.00  0.00    -0.355 OA
ATOM     38  H1  UNL     1      -0.080   5.936  -1.729  1.00  0.00     0.213 HD
ENDBRANCH  32  37
ENDBRANCH  30  32
ENDBRANCH   3  30
BRANCH  13  39
HETATM   39  N5  UNL     1      -1.416  -1.047  -1.699  1.00  0.00    -0.194 N 
ATOM     40  H5  UNL     1      -2.097  -0.660  -2.352  1.00  0.00     0.180 HD
BRANCH  39  41
HETATM   41  C15 UNL     1      -1.316  -2.509  -1.683  1.00  0.00     0.140 C 
HETATM   42  C16 UNL     1       0.086  -2.959  -2.047  1.00  0.00     0.071 C 
HETATM   43  C17 UNL     1      -1.647  -3.080  -0.323  1.00  0.00     0.071 C 
BRANCH  41  44
HETATM   44  O7  UNL     1      -2.174  -3.115  -2.598  1.00  0.00    -0.371 OA
ATOM     45  H7  UNL     1      -2.109  -4.063  -2.588  1.00  0.00     0.212 HD
ENDBRANCH  41  44
ENDBRANCH  39  41
ENDBRANCH  13  39
BRANCH  12  46
HETATM   46  O4  UNL     1      -3.783   1.345   0.200  1.00  0.00    -0.308 OA
BRANCH  46  47
HETATM   47  C12 UNL     1      -5.032   0.932   0.577  1.00  0.00     0.326 C 
BRANCH  47  48
HETATM   48  O5  UNL     1      -5.372   1.670   1.729  1.00  0.00    -0.365 OA
ATOM     49  H5  UNL     1      -6.239   1.383   1.991  1.00  0.00     0.213 HD
ENDBRANCH  47  48
BRANCH  47  50
HETATM   50  C13 UNL     1      -6.089   1.174  -0.411  1.00  0.00     0.291 C 
HETATM   51  O6  UNL     1      -7.052   1.888  -0.212  1.00  0.00    -0.302 OA
ENDBRANCH  47  50
ENDBRANCH  46  47
ENDBRANCH  12  46
TORSDOF 13
