REMARK  11 active torsions:
REMARK  status: ('A' for Active; 'I' for Inactive)
REMARK    1  A    between atoms: O1_2  and  C2_3 
REMARK    2  A    between atoms: C2_3  and  C3_4 
REMARK    3  A    between atoms: C3_4  and  N1_5 
REMARK    4  A    between atoms: N1_5  and  C4_7 
REMARK    5  A    between atoms: C5_10  and  N3_11 
REMARK    6  A    between atoms: N3_11  and  C6_13 
REMARK    7  A    between atoms: C7_16  and  C8_17 
REMARK    8  A    between atoms: C11_21  and  O2_22 
REMARK    9  A    between atoms: O2_22  and  C12_23 
REMARK   10  A    between atoms: C18_36  and  N8_37 
REMARK   11  A    between atoms: C19_42  and  S2_43 
ROOT
HETATM    1  C6  UNL     1      -1.680  -1.247   2.845  1.00  0.00     0.140 A 
HETATM    2  N4  UNL     1      -0.583  -0.866   2.177  1.00  0.00    -0.325 N 
ATOM      3  H4  UNL     1      -0.666  -0.650   1.184  1.00  0.00     0.169 HD
HETATM    4  C7  UNL     1       0.601  -0.759   2.752  1.00  0.00     0.125 A 
HETATM    5  N6  UNL     1       0.746  -1.034   4.050  1.00  0.00    -0.328 N 
ATOM      6  H6  UNL     1       1.666  -0.948   4.483  1.00  0.00     0.168 HD
HETATM    7  C17 UNL     1      -0.297  -1.421   4.790  1.00  0.00     0.150 A 
HETATM    8  N7  UNL     1      -0.078  -1.700   6.161  1.00  0.00    -0.080 NA
HETATM    9  C18 UNL     1      -1.526  -1.531   4.186  1.00  0.00     0.133 A 
ENDROOT
BRANCH   1  10
HETATM   10  N3  UNL     1      -2.828  -1.364   2.327  1.00  0.00    -0.325 N 
ATOM     11  H3  UNL     1      -3.578  -1.662   2.950  1.00  0.00     0.169 HD
BRANCH  10  12
HETATM   12  C5  UNL     1      -3.184  -1.129   0.991  1.00  0.00     0.142 A 
HETATM   13  N2  UNL     1      -3.449   0.121   0.565  1.00  0.00    -0.175 N 
HETATM   14  C4  UNL     1      -3.794   0.389  -0.710  1.00  0.00     0.681 A 
ATOM     15  H2  UNL     1      -3.386   0.892   1.230  1.00  0.00     0.186 HD
HETATM   16  N11 UNL     1      -3.868  -0.646  -1.561  1.00  0.00    -0.177 N 
HETATM   17  C21 UNL     1      -3.615  -1.916  -1.193  1.00  0.00     0.152 A 
ATOM     18  H11 UNL     1      -4.128  -0.462  -2.530  1.00  0.00     0.185 HD
HETATM   19  C19 UNL     1      -3.262  -2.207   0.103  1.00  0.00     0.086 A 
HETATM   20  N10 UNL     1      -3.712  -2.971  -2.155  1.00  0.00    -0.081 NA
BRANCH  14  21
HETATM   21  N1  UNL     1      -4.036   1.617  -1.054  1.00  0.00    -0.224 N 
ATOM     22  H1  UNL     1      -3.954   2.335  -0.335  1.00  0.00     0.177 HD
BRANCH  21  23
HETATM   23  C3  UNL     1      -4.408   2.033  -2.365  1.00  0.00     0.164 C 
BRANCH  23  24
HETATM   24  C2  UNL     1      -5.888   1.856  -2.628  1.00  0.00     0.187 C 
BRANCH  24  25
HETATM   25  O1  UNL     1      -6.679   2.583  -1.752  1.00  0.00    -0.394 OA
HETATM   26  C1  UNL     1      -8.002   2.359  -2.063  1.00  0.00     0.201 C 
ENDBRANCH  24  25
ENDBRANCH  23  24
ENDBRANCH  21  23
ENDBRANCH  14  21
BRANCH  19  27
HETATM   27  S2  UNL     1      -2.916  -3.858   0.665  1.00  0.00    -0.127 SA
HETATM   28  C20 UNL     1      -1.188  -4.303   0.514  1.00  0.00     0.096 C 
ENDBRANCH  19  27
ENDBRANCH  10  12
ENDBRANCH   1  10
BRANCH   9  29
HETATM   29  N8  UNL     1      -2.622  -1.946   4.995  1.00  0.00    -0.301 N 
HETATM   30  N9  UNL     1      -2.796  -1.381   6.119  1.00  0.00    -0.344 N 
ATOM     31  H92 UNL     1      -2.155  -0.647   6.421  1.00  0.00     0.176 HD
ATOM     32  H91 UNL     1      -3.581  -1.678   6.698  1.00  0.00     0.176 HD
ATOM     33  H8  UNL     1      -3.254  -2.681   4.678  1.00  0.00     0.186 HD
ENDBRANCH   9  29
BRANCH   4  34
HETATM   34  C8  UNL     1       1.803  -0.335   1.993  1.00  0.00     0.053 A 
HETATM   35  C9  UNL     1       3.081  -0.188   2.450  1.00  0.00     0.050 A 
HETATM   36  C10 UNL     1       4.017   0.214   1.571  1.00  0.00     0.075 A 
HETATM   37 CL1  UNL     1       5.741   0.452   2.034  1.00  0.00    -0.081 Cl
HETATM   38  C11 UNL     1       3.644   0.450   0.291  1.00  0.00     0.132 A 
HETATM   39  S1  UNL     1       1.945   0.094   0.349  1.00  0.00    -0.060 SA
BRANCH  38  40
HETATM   40  O2  UNL     1       4.227   0.849  -0.868  1.00  0.00    -0.335 OA
BRANCH  40  41
HETATM   41  C12 UNL     1       5.502   1.194  -1.252  1.00  0.00     0.155 C 
HETATM   42  C13 UNL     1       5.898   0.269  -2.377  1.00  0.00     0.036 C 
HETATM   43  C14 UNL     1       6.837   0.868  -3.360  1.00  0.00     0.030 C 
HETATM   44  C15 UNL     1       7.557   2.024  -2.694  1.00  0.00     0.232 C 
HETATM   45  N5  UNL     1       6.561   3.053  -2.479  1.00  0.00    -0.073 N 
HETATM   46  C16 UNL     1       5.477   2.642  -1.661  1.00  0.00     0.264 C 
ATOM     47  H52 UNL     1       6.993   3.898  -2.104  1.00  0.00     0.277 HD
ATOM     48  H51 UNL     1       6.221   3.415  -3.370  1.00  0.00     0.277 HD
ENDBRANCH  40  41
ENDBRANCH  38  40
ENDBRANCH   4  34
TORSDOF 11
