REMARK  12 active torsions:
REMARK  status: ('A' for Active; 'I' for Inactive)
REMARK    1  A    between atoms: C2_2  and  C3_3 
REMARK    2  A    between atoms: C2_2  and  C17_40 
REMARK    3  A    between atoms: C3_3  and  O1_4 
REMARK    4  A    between atoms: O1_4  and  C4_5 
REMARK       I    between atoms: C4_5  and  N1_7 
REMARK    5  A    between atoms: N1_7  and  C5_9 
REMARK    6  A    between atoms: C5_9  and  C6_10 
REMARK    7  A    between atoms: C5_9  and  C7_12 
REMARK       I    between atoms: C7_12  and  N2_14 
REMARK    8  A    between atoms: N2_14  and  C8_16 
REMARK    9  A    between atoms: N5_23  and  C10_24 
REMARK   10  A    between atoms: C13_28  and  N6_29 
REMARK   11  A    between atoms: C15_33  and  N7_34 
REMARK   12  A    between atoms: C16_37  and  O8_38 
ROOT
HETATM    1  C8  UNL     1       2.759  -0.120   0.119  1.00  0.00     0.176 A 
HETATM    2  N3  UNL     1       2.883   1.137   0.563  1.00  0.00    -0.172 N 
ATOM      3  H3  UNL     1       2.181   1.862   0.414  1.00  0.00     0.186 HD
HETATM    4  C9  UNL     1       4.046   1.340   1.234  1.00  0.00     0.686 A 
HETATM    5  N4  UNL     1       4.541   2.368   1.794  1.00  0.00    -0.234 N 
ATOM      6  H41 UNL     1       5.415   2.520   2.298  1.00  0.00     0.174 HD
ATOM      7  H42 UNL     1       4.065   3.270   1.816  1.00  0.00     0.174 HD
HETATM    8  N5  UNL     1       4.687   0.126   1.204  1.00  0.00    -0.120 N 
HETATM    9  C16 UNL     1       3.934  -0.749   0.547  1.00  0.00     0.209 A 
ENDROOT
BRANCH   1  10
HETATM   10  N2  UNL     1       1.750  -0.742  -0.629  1.00  0.00    -0.307 N 
HETATM   11  C7  UNL     1       0.539  -0.120  -1.051  1.00  0.00     0.247 C 
HETATM   12  O3  UNL     1       0.310   1.064  -0.712  1.00  0.00    -0.271 OA
ATOM     13  H2  UNL     1       1.894  -1.717  -0.892  1.00  0.00     0.170 HD
BRANCH  11  14
HETATM   14  C5  UNL     1      -0.423  -0.887  -1.880  1.00  0.00     0.189 C 
BRANCH  14  15
HETATM   15  N1  UNL     1      -1.688  -0.129  -1.815  1.00  0.00    -0.323 N 
HETATM   16  C4  UNL     1      -2.929  -0.805  -1.727  1.00  0.00     0.361 C 
HETATM   17  O2  UNL     1      -2.992  -2.068  -1.705  1.00  0.00    -0.238 OA
ATOM     18  H1  UNL     1      -1.668   0.891  -1.834  1.00  0.00     0.165 HD
BRANCH  16  19
HETATM   19  O1  UNL     1      -4.093  -0.098  -1.666  1.00  0.00    -0.304 OA
BRANCH  19  20
HETATM   20  C3  UNL     1      -5.377  -0.649  -1.602  1.00  0.00     0.185 C 
BRANCH  20  21
HETATM   21  C2  UNL     1      -6.455   0.400  -1.494  1.00  0.00     0.013 C 
HETATM   22  C1  UNL     1      -7.833  -0.226  -1.468  1.00  0.00     0.012 C 
BRANCH  21  23
HETATM   23  C17 UNL     1      -6.315   1.103  -0.128  1.00  0.00    -0.046 C 
HETATM   24  C18 UNL     1      -6.440   0.103   0.999  1.00  0.00     0.015 C 
HETATM   25  C19 UNL     1      -5.008   1.843  -0.016  1.00  0.00     0.015 C 
HETATM   26  C20 UNL     1      -7.443   2.109  -0.018  1.00  0.00     0.015 C 
ENDBRANCH  21  23
ENDBRANCH  20  21
ENDBRANCH  19  20
ENDBRANCH  16  19
ENDBRANCH  14  15
BRANCH  14  27
HETATM   27  C6  UNL     1       0.072  -0.805  -3.325  1.00  0.00     0.121 C 
HETATM   28  S1  UNL     1       1.598  -1.726  -3.486  1.00  0.00    -0.095 SA
ENDBRANCH  14  27
ENDBRANCH  11  14
ENDBRANCH   1  10
BRANCH   9  29
HETATM   29  O8  UNL     1       4.272  -2.097   0.320  1.00  0.00    -0.343 OA
ATOM     30  H8  UNL     1       5.069  -2.524   0.610  1.00  0.00     0.219 HD
ENDBRANCH   9  29
BRANCH   8  31
HETATM   31  C10 UNL     1       5.959  -0.128   1.794  1.00  0.00     0.094 A 
HETATM   32  C11 UNL     1       7.076  -0.248   0.987  1.00  0.00     0.059 A 
HETATM   33  C12 UNL     1       8.345  -0.478   1.432  1.00  0.00     0.069 A 
HETATM   34 CL1  UNL     1       9.737  -0.613   0.392  1.00  0.00    -0.082 Cl
HETATM   35  C13 UNL     1       8.531  -0.602   2.814  1.00  0.00     0.127 A 
HETATM   36  C14 UNL     1       7.438  -0.484   3.631  1.00  0.00     0.076 A 
HETATM   37  C15 UNL     1       6.137  -0.248   3.151  1.00  0.00     0.133 A 
BRANCH  35  38
HETATM   38  N6  UNL     1       9.824  -0.843   3.345  1.00  0.00    -0.114 N 
HETATM   39  O4  UNL     1      10.653  -1.494   2.706  1.00  0.00    -0.532 OA
HETATM   40  O5  UNL     1      10.128  -0.337   4.585  1.00  0.00    -0.532 OA
ENDBRANCH  35  38
BRANCH  37  41
HETATM   41  N7  UNL     1       5.059  -0.136   4.066  1.00  0.00    -0.113 N 
HETATM   42  O6  UNL     1       5.276   0.307   5.216  1.00  0.00    -0.532 OA
HETATM   43  O7  UNL     1       3.804  -0.496   3.694  1.00  0.00    -0.532 OA
ENDBRANCH  37  41
ENDBRANCH   8  31
TORSDOF 12
