REMARK  17 active torsions:
REMARK  status: ('A' for Active; 'I' for Inactive)
REMARK    1  A    between atoms: C1_4  and  C2_6 
REMARK    2  A    between atoms: C3_9  and  N4_10 
REMARK       I    between atoms: N4_10  and  C4_12 
REMARK    3  A    between atoms: C4_12  and  C5_14 
REMARK    4  A    between atoms: C5_14  and  C6_15 
REMARK    5  A    between atoms: C6_15  and  N5_16 
REMARK    6  A    between atoms: C6_15  and  C7_20 
REMARK    7  A    between atoms: C7_20  and  N6_21 
REMARK       I    between atoms: N8_28  and  C9_30 
REMARK    8  A    between atoms: C9_30  and  C10_32 
REMARK    9  A    between atoms: C10_32  and  S1_33 
REMARK   10  A    between atoms: S1_33  and  S2_34 
REMARK   11  A    between atoms: S2_34  and  C11_35 
REMARK   12  A    between atoms: C11_35  and  C12_36 
REMARK   13  A    between atoms: C12_36  and  N9_37 
REMARK   14  A    between atoms: C12_36  and  C14_46 
REMARK   15  A    between atoms: N9_37  and  C13_39 
REMARK   16  A    between atoms: C13_39  and  N10_40 
REMARK   17  A    between atoms: C13_39  and  O3_44 
ROOT
HETATM    1  C2  UNL     1       1.663  -0.218  -0.658  1.00  0.00     0.134 A 
HETATM    2  N3  UNL     1       2.780  -0.305   0.036  1.00  0.00    -0.182 N 
ATOM      3  H3  UNL     1       3.612   0.057  -0.430  1.00  0.00     0.185 HD
HETATM    4  C3  UNL     1       2.980  -0.796   1.254  1.00  0.00     0.687 A 
HETATM    5  N7  UNL     1       2.012  -1.329   2.050  1.00  0.00    -0.170 N 
ATOM      6  H7  UNL     1       2.296  -1.674   2.967  1.00  0.00     0.186 HD
HETATM    7  C8  UNL     1       0.727  -1.436   1.729  1.00  0.00     0.168 A 
HETATM    8  N8  UNL     1      -0.152  -1.954   2.529  1.00  0.00    -0.306 N 
ATOM      9  H8  UNL     1       0.098  -2.308   3.452  1.00  0.00     0.171 HD
HETATM   10  C9  UNL     1      -1.511  -1.999   2.030  1.00  0.00     0.233 C 
HETATM   11  O2  UNL     1      -2.293  -1.066   2.292  1.00  0.00    -0.272 OA
HETATM   12  S3  UNL     1       0.298  -0.850   0.192  1.00  0.00    -0.032 SA
ENDROOT
BRANCH   4  13
HETATM   13  N4  UNL     1       4.156  -0.795   1.767  1.00  0.00    -0.159 N 
HETATM   14  C4  UNL     1       5.352  -0.342   1.247  1.00  0.00     0.237 C 
HETATM   15  O1  UNL     1       6.451  -0.591   1.867  1.00  0.00    -0.273 OA
ATOM     16  H4  UNL     1       4.217  -1.191   2.705  1.00  0.00     0.187 HD
BRANCH  14  17
HETATM   17  C5  UNL     1       5.478   0.425   0.008  1.00  0.00     0.138 C 
BRANCH  17  18
HETATM   18  C6  UNL     1       6.875   0.882  -0.287  1.00  0.00     0.217 C 
BRANCH  18  19
HETATM   19  N5  UNL     1       7.757  -0.246  -0.372  1.00  0.00    -0.073 N 
ATOM     20  H53 UNL     1       7.715  -0.827   0.465  1.00  0.00     0.274 HD
ATOM     21  H52 UNL     1       7.430  -0.935  -1.049  1.00  0.00     0.274 HD
ATOM     22  H51 UNL     1       8.707   0.065  -0.573  1.00  0.00     0.274 HD
ENDBRANCH  18  19
BRANCH  18  23
HETATM   23  C7  UNL     1       7.404   1.915   0.654  1.00  0.00     0.262 C 
BRANCH  23  24
HETATM   24  N6  UNL     1       6.562   3.111   0.619  1.00  0.00    -0.077 N 
ATOM     25  H63 UNL     1       6.458   3.476  -0.328  1.00  0.00     0.274 HD
ATOM     26  H62 UNL     1       5.583   2.893   0.804  1.00  0.00     0.274 HD
ATOM     27  H61 UNL     1       6.923   3.816   1.261  1.00  0.00     0.274 HD
ENDBRANCH  23  24
ENDBRANCH  18  23
ENDBRANCH  17  18
ENDBRANCH  14  17
ENDBRANCH   4  13
BRANCH  10  28
HETATM   28  C10 UNL     1      -1.834  -3.200   1.230  1.00  0.00     0.189 C 
BRANCH  28  29
HETATM   29  S1  UNL     1      -3.505  -3.083   0.586  1.00  0.00    -0.088 SA
BRANCH  29  30
HETATM   30  S2  UNL     1      -3.770  -1.673  -0.931  1.00  0.00    -0.095 SA
BRANCH  30  31
HETATM   31  C11 UNL     1      -4.222  -0.028  -0.351  1.00  0.00     0.120 C 
BRANCH  31  32
HETATM   32  C12 UNL     1      -5.562  -0.013   0.332  1.00  0.00     0.180 C 
BRANCH  32  33
HETATM   33  N9  UNL     1      -6.620  -0.443  -0.485  1.00  0.00    -0.362 N 
ATOM     34  H9  UNL     1      -7.147  -1.275  -0.221  1.00  0.00     0.158 HD
BRANCH  33  35
HETATM   35  C13 UNL     1      -6.968   0.246  -1.656  1.00  0.00     0.420 C 
BRANCH  35  36
HETATM   36  N10 UNL     1      -8.216  -0.386  -2.156  1.00  0.00    -0.035 N 
ATOM     37 3H10 UNL     1      -8.135  -1.394  -2.288  1.00  0.00     0.279 HD
ATOM     38 2H10 UNL     1      -8.964  -0.410  -1.463  1.00  0.00     0.279 HD
ATOM     39 1H10 UNL     1      -8.469   0.115  -3.008  1.00  0.00     0.279 HD
ENDBRANCH  35  36
BRANCH  35  40
HETATM   40  O3  UNL     1      -6.049  -0.050  -2.698  1.00  0.00    -0.355 OA
ATOM     41  H3  UNL     1      -6.285   0.417  -3.491  1.00  0.00     0.213 HD
ENDBRANCH  35  40
ENDBRANCH  33  35
ENDBRANCH  32  33
BRANCH  32  42
HETATM   42  C14 UNL     1      -5.773   1.296   0.982  1.00  0.00     0.254 C 
HETATM   43  N11 UNL     1      -4.837   1.887   1.855  1.00  0.00    -0.060 NA
HETATM   44  O4  UNL     1      -6.842   1.915   0.746  1.00  0.00    -0.275 OA
ENDBRANCH  32  42
ENDBRANCH  31  32
ENDBRANCH  30  31
ENDBRANCH  29  30
ENDBRANCH  28  29
ENDBRANCH  10  28
BRANCH   1  45
HETATM   45  C1  UNL     1       1.482   0.324  -1.986  1.00  0.00     0.144 C 
HETATM   46  N1  UNL     1       2.461   0.797  -2.649  1.00  0.00    -0.385 N 
ATOM     47  H12 UNL     1       2.333   1.179  -3.586  1.00  0.00     0.157 HD
ATOM     48  H11 UNL     1       3.392   0.792  -2.232  1.00  0.00     0.157 HD
HETATM   49  N2  UNL     1       0.186   0.331  -2.567  1.00  0.00    -0.080 NA
ENDBRANCH   1  45
TORSDOF 17
