REMARK  5 active torsions:
REMARK  status: ('A' for Active; 'I' for Inactive)
REMARK    1  A    between atoms: N1_1  and  C1_4 
REMARK    2  A    between atoms: C2_7  and  N3_8 
REMARK    3  A    between atoms: N5_18  and  C6_19 
REMARK    4  A    between atoms: C6_19  and  C7_20 
REMARK    5  A    between atoms: C7_20  and  N6_21 
ROOT
HETATM    1  C1  UNL     1      -1.472   1.867  -0.621  1.00  0.00     0.679 A 
HETATM    2  N2  UNL     1      -2.513   1.170  -1.049  1.00  0.00    -0.176 N 
ATOM      3  H2  UNL     1      -3.291   1.642  -1.510  1.00  0.00     0.186 HD
HETATM    4  C2  UNL     1      -2.541  -0.206  -0.867  1.00  0.00     0.134 A 
HETATM    5  C3  UNL     1      -1.471  -0.798  -0.240  1.00  0.00     0.121 A 
HETATM    6  C4  UNL     1      -1.465  -2.158  -0.029  1.00  0.00     0.267 A 
HETATM    7  O1  UNL     1      -2.411  -2.885  -0.403  1.00  0.00    -0.267 OA
HETATM    8  N4  UNL     1      -0.392  -2.696   0.603  1.00  0.00    -0.274 N 
ATOM      9  H4  UNL     1      -0.378  -3.703   0.764  1.00  0.00     0.173 HD
HETATM   10  C5  UNL     1       0.638  -1.977   1.021  1.00  0.00     0.334 A 
HETATM   11  O2  UNL     1       1.603  -2.525   1.599  1.00  0.00    -0.246 OA
HETATM   12  N5  UNL     1       0.692  -0.622   0.841  1.00  0.00    -0.261 N 
HETATM   13  C8  UNL     1      -0.355  -0.059   0.220  1.00  0.00     0.150 A 
HETATM   14  N7  UNL     1      -0.435   1.264  -0.009  1.00  0.00    -0.175 N 
ATOM     15  H7  UNL     1       0.341   1.849   0.301  1.00  0.00     0.186 HD
ENDROOT
BRANCH  12  16
HETATM   16  C6  UNL     1       1.781   0.146   1.288  1.00  0.00     0.103 C 
BRANCH  16  17
HETATM   17  C7  UNL     1       2.982   0.327   0.464  1.00  0.00     0.274 C 
BRANCH  17  18
HETATM   18  N6  UNL     1       2.823   0.926  -0.820  1.00  0.00    -0.075 N 
ATOM     19  H63 UNL     1       2.128   0.402  -1.351  1.00  0.00     0.274 HD
ATOM     20  H62 UNL     1       2.349   1.823  -0.715  1.00  0.00     0.274 HD
ATOM     21  H61 UNL     1       3.658   1.052  -1.393  1.00  0.00     0.274 HD
ENDBRANCH  17  18
ENDBRANCH  16  17
ENDBRANCH  12  16
BRANCH   4  22
HETATM   22  N3  UNL     1      -3.531  -0.806  -1.283  1.00  0.00    -0.384 N 
ATOM     23  H32 UNL     1      -4.325  -0.367  -1.748  1.00  0.00     0.157 HD
ATOM     24  H31 UNL     1      -3.552  -1.817  -1.149  1.00  0.00     0.157 HD
ENDBRANCH   4  22
BRANCH   1  25
HETATM   25  N1  UNL     1      -1.453   3.166  -0.796  1.00  0.00    -0.234 N 
ATOM     26  H12 UNL     1      -2.238   3.623  -1.260  1.00  0.00     0.174 HD
ATOM     27  H11 UNL     1      -0.651   3.703  -0.466  1.00  0.00     0.174 HD
ENDBRANCH   1  25
TORSDOF 5
