REMARK  2 active torsions:
REMARK  status: ('A' for Active; 'I' for Inactive)
REMARK    1  A    between atoms: C1_4  and  C2_6 
REMARK    2  A    between atoms: C7_11  and  O1_12 
ROOT
HETATM    1  C2  UNL     1      -0.860  -0.600  -0.222  1.00  0.00     0.076 C 
HETATM    2  C3  UNL     1      -0.311   0.279  -1.282  1.00  0.00     0.014 C 
HETATM    3  C4  UNL     1       1.158   0.460  -1.282  1.00  0.00     0.001 C 
HETATM    4  C5  UNL     1       1.768   0.767   0.039  1.00  0.00     0.002 C 
HETATM    5  C6  UNL     1       0.985   0.315   1.216  1.00  0.00     0.032 C 
HETATM    6  C7  UNL     1       0.067  -0.839   0.937  1.00  0.00     0.129 C 
ENDROOT
BRANCH   1   7
HETATM    7  C1  UNL     1      -2.171  -0.045   0.215  1.00  0.00     0.080 C 
HETATM    8  N1  UNL     1      -2.430   0.326   1.400  1.00  0.00    -0.393 N 
ATOM      9  H12 UNL     1      -3.328   0.706   1.699  1.00  0.00     0.156 HD
ATOM     10  H11 UNL     1      -1.700   0.243   2.107  1.00  0.00     0.156 HD
HETATM   11 CL1  UNL     1      -3.424   0.097  -0.998  1.00  0.00    -0.069 Cl
ENDBRANCH   1   7
BRANCH   6  12
HETATM   12  O1  UNL     1       0.862  -1.968   0.747  1.00  0.00    -0.395 OA
ATOM     13  H1  UNL     1       1.448  -2.119   1.479  1.00  0.00     0.210 HD
ENDBRANCH   6  12
TORSDOF 2
