REMARK  11 active torsions:
REMARK  status: ('A' for Active; 'I' for Inactive)
REMARK    1  A    between atoms: C2_2  and  O1_3 
REMARK    2  A    between atoms: O1_3  and  N1_4 
REMARK    3  A    between atoms: N1_4  and  C3_5 
REMARK    4  A    between atoms: C5_8  and  C6_9 
REMARK    5  A    between atoms: C6_9  and  N2_10 
REMARK    6  A    between atoms: N2_10  and  C7_13 
REMARK    7  A    between atoms: C7_13  and  C8_14 
REMARK    8  A    between atoms: C8_14  and  S1_15 
REMARK    9  A    between atoms: S1_15  and  C9_17 
REMARK   10  A    between atoms: C9_17  and  C10_18 
REMARK   11  A    between atoms: C10_18  and  N3_19 
ROOT
HETATM    1  N2  UNL     1      -0.417  -0.925  -1.511  1.00  0.00    -0.072 N 
ATOM      2  H21 UNL     1      -0.132  -1.071  -2.479  1.00  0.00     0.277 HD
ATOM      3  H22 UNL     1      -1.324  -0.484  -1.660  1.00  0.00     0.277 HD
ENDROOT
BRANCH   1   4
HETATM    4  C6  UNL     1       0.482  -0.013  -0.856  1.00  0.00     0.264 C 
BRANCH   4   5
HETATM    5  C5  UNL     1       1.900  -0.410  -1.097  1.00  0.00     0.148 C 
HETATM    6  O2  UNL     1       2.216  -1.632  -0.635  1.00  0.00    -0.382 OA
HETATM    7  C4  UNL     1       3.476  -1.681  -0.092  1.00  0.00     0.192 C 
HETATM    8  C3  UNL     1       4.134  -0.400  -0.537  1.00  0.00     0.132 C 
HETATM    9  C13 UNL     1       2.924   0.557  -0.517  1.00  0.00     0.059 C 
BRANCH   8  10
HETATM   10  N1  UNL     1       5.187   0.019   0.328  1.00  0.00    -0.094 NA
BRANCH  10  11
HETATM   11  O1  UNL     1       5.704   1.173  -0.123  1.00  0.00    -0.286 OA
BRANCH  11  12
HETATM   12  C2  UNL     1       6.434   1.821   0.888  1.00  0.00     0.191 C 
HETATM   13  C1  UNL     1       7.025   3.102   0.404  1.00  0.00     0.035 C 
ENDBRANCH  11  12
ENDBRANCH  10  11
ENDBRANCH   8  10
ENDBRANCH   4   5
ENDBRANCH   1   4
BRANCH   1  14
HETATM   14  C7  UNL     1      -0.573  -2.151  -0.859  1.00  0.00     0.245 C 
BRANCH  14  15
HETATM   15  C8  UNL     1      -1.506  -1.882   0.361  1.00  0.00     0.136 C 
BRANCH  15  16
HETATM   16  S1  UNL     1      -3.075  -1.301  -0.327  1.00  0.00     0.021 S 
HETATM   17  O3  UNL     1      -3.601  -2.576  -1.321  1.00  0.00    -0.258 OA
BRANCH  16  18
HETATM   18  C9  UNL     1      -4.276  -1.148   0.956  1.00  0.00     0.153 C 
BRANCH  18  19
HETATM   19  C10 UNL     1      -5.604  -0.683   0.420  1.00  0.00     0.069 C 
BRANCH  19  20
HETATM   20  N3  UNL     1      -5.644   0.576  -0.211  1.00  0.00    -0.401 N 
HETATM   21  C11 UNL     1      -5.454   1.713   0.622  1.00  0.00     0.148 C 
HETATM   22  C12 UNL     1      -6.646   0.748  -1.214  1.00  0.00     0.148 C 
ENDBRANCH  19  20
ENDBRANCH  18  19
ENDBRANCH  16  18
ENDBRANCH  15  16
ENDBRANCH  14  15
ENDBRANCH   1  14
TORSDOF 11
