REMARK  11 active torsions:
REMARK  status: ('A' for Active; 'I' for Inactive)
REMARK    1  A    between atoms: C2_2  and  C3_3 
REMARK    2  A    between atoms: C5_7  and  N2_8 
REMARK    3  A    between atoms: N2_8  and  C6_10 
REMARK    4  A    between atoms: C8_13  and  C9_14 
REMARK    5  A    between atoms: C12_22  and  N5_23 
REMARK    6  A    between atoms: C13_28  and  N7_29 
REMARK    7  A    between atoms: C15_35  and  O2_36 
REMARK    8  A    between atoms: O2_36  and  C16_37 
REMARK    9  A    between atoms: C16_37  and  C17_38 
REMARK   10  A    between atoms: N12_43  and  C18_44 
REMARK   11  A    between atoms: C18_44  and  C19_45 
ROOT
HETATM    1  C3  UNL     1      -2.180  -4.061  -0.671  1.00  0.00     0.053 A 
HETATM    2  N1  UNL     1      -2.236  -2.778  -0.979  1.00  0.00    -0.349 N 
ATOM      3  H1  UNL     1      -3.139  -2.330  -1.133  1.00  0.00     0.166 HD
HETATM    4  C4  UNL     1      -1.137  -2.082  -1.086  1.00  0.00     0.112 A 
HETATM    5  C5  UNL     1      -1.047  -0.696  -1.411  1.00  0.00     0.139 A 
HETATM    6  N8  UNL     1       0.181  -0.160  -1.473  1.00  0.00    -0.306 N 
ATOM      7  H8  UNL     1       0.238   0.831  -1.706  1.00  0.00     0.171 HD
HETATM    8  C15 UNL     1       1.339  -0.795  -1.260  1.00  0.00     0.226 A 
HETATM    9  N15 UNL     1       1.245  -2.101  -0.954  1.00  0.00    -0.314 N 
ATOM     10  H15 UNL     1       2.099  -2.632  -0.783  1.00  0.00     0.170 HD
HETATM   11  C24 UNL     1       0.043  -2.737  -0.866  1.00  0.00     0.109 A 
HETATM   12  S1  UNL     1      -0.500  -4.322  -0.519  1.00  0.00    -0.057 SA
ENDROOT
BRANCH   5  13
HETATM   13  N2  UNL     1      -2.188   0.049  -1.686  1.00  0.00    -0.338 N 
ATOM     14  H2  UNL     1      -2.484   0.048  -2.662  1.00  0.00     0.167 HD
BRANCH  13  15
HETATM   15  C6  UNL     1      -2.908   0.723  -0.908  1.00  0.00     0.076 A 
HETATM   16  C7  UNL     1      -2.743   0.899   0.450  1.00  0.00     0.092 A 
HETATM   17 CL1  UNL     1      -1.410   0.156   1.298  1.00  0.00    -0.079 Cl
HETATM   18  C8  UNL     1      -3.621   1.667   1.182  1.00  0.00     0.104 A 
HETATM   19  N3  UNL     1      -4.647   2.249   0.552  1.00  0.00    -0.337 N 
HETATM   20  C11 UNL     1      -4.841   2.102  -0.769  1.00  0.00     0.138 A 
ATOM     21  H3  UNL     1      -5.300   2.820   1.089  1.00  0.00     0.167 HD
HETATM   22  N4  UNL     1      -5.896   2.705  -1.395  1.00  0.00    -0.176 N 
HETATM   23  C14 UNL     1      -4.004   1.352  -1.548  1.00  0.00     0.081 A 
HETATM   24  C12 UNL     1      -6.075   2.545  -2.732  1.00  0.00     0.679 A 
ATOM     25  H4  UNL     1      -6.549   3.275  -0.858  1.00  0.00     0.186 HD
HETATM   26  N6  UNL     1      -5.244   1.807  -3.474  1.00  0.00    -0.176 N 
HETATM   27  C13 UNL     1      -4.192   1.192  -2.912  1.00  0.00     0.131 A 
ATOM     28  H6  UNL     1      -5.411   1.710  -4.476  1.00  0.00     0.186 HD
BRANCH  18  29
HETATM   29  C9  UNL     1      -3.431   1.842   2.643  1.00  0.00     0.173 C 
HETATM   30  C10 UNL     1      -4.396   2.672   3.406  1.00  0.00     0.098 C 
HETATM   31  O1  UNL     1      -2.492   1.319   3.251  1.00  0.00    -0.291 OA
ENDBRANCH  18  29
BRANCH  24  32
HETATM   32  N5  UNL     1      -7.078   3.127  -3.292  1.00  0.00    -0.234 N 
ATOM     33  H52 UNL     1      -7.712   3.690  -2.726  1.00  0.00     0.174 HD
ATOM     34  H51 UNL     1      -7.212   3.007  -4.296  1.00  0.00     0.174 HD
ENDBRANCH  24  32
BRANCH  27  35
HETATM   35  N7  UNL     1      -3.379   0.477  -3.616  1.00  0.00    -0.384 N 
ATOM     36  H72 UNL     1      -3.517   0.359  -4.620  1.00  0.00     0.157 HD
ATOM     37  H71 UNL     1      -2.579   0.010  -3.189  1.00  0.00     0.157 HD
ENDBRANCH  27  35
ENDBRANCH  13  15
ENDBRANCH   5  13
BRANCH   8  38
HETATM   38  O2  UNL     1       2.528  -0.100  -1.363  1.00  0.00    -0.314 OA
BRANCH  38  39
HETATM   39  C16 UNL     1       3.771  -0.726  -1.146  1.00  0.00     0.257 C 
BRANCH  39  40
HETATM   40  C17 UNL     1       3.925  -1.289   0.220  1.00  0.00     0.134 A 
HETATM   41  N9  UNL     1       3.919  -2.609   0.560  1.00  0.00    -0.272 N 
HETATM   42  N10 UNL     1       4.066  -2.739   1.866  1.00  0.00    -0.007 NA
ATOM     43  H9  UNL     1       3.816  -3.382  -0.097  1.00  0.00     0.185 HD
HETATM   44  N11 UNL     1       4.167  -1.525   2.377  1.00  0.00    -0.005 NA
HETATM   45  N12 UNL     1       4.083  -0.633   1.382  1.00  0.00    -0.257 N 
BRANCH  45  46
HETATM   46  C18 UNL     1       4.172   0.777   1.617  1.00  0.00     0.206 C 
BRANCH  46  47
HETATM   47  C19 UNL     1       5.617   1.168   1.599  1.00  0.00     0.044 A 
HETATM   48  C20 UNL     1       6.300   1.060   2.795  1.00  0.00     0.114 A 
HETATM   49  N13 UNL     1       7.589   1.400   2.846  1.00  0.00    -0.371 N 
HETATM   50  C21 UNL     1       8.202   1.839   1.746  1.00  0.00     0.112 A 
ATOM     51  H13 UNL     1       8.104   1.324   3.723  1.00  0.00     0.164 HD
HETATM   52  C22 UNL     1       7.556   1.962   0.531  1.00  0.00     0.021 A 
HETATM   53  C23 UNL     1       8.279   2.452  -0.658  1.00  0.00     0.069 C 
HETATM   54  N14 UNL     1       6.261   1.610   0.521  1.00  0.00    -0.360 N 
ATOM     55  H14 UNL     1       5.745   1.685  -0.356  1.00  0.00     0.165 HD
ENDBRANCH  46  47
ENDBRANCH  45  46
ENDBRANCH  39  40
ENDBRANCH  38  39
ENDBRANCH   8  38
BRANCH   1  56
HETATM   56  C2  UNL     1      -3.355  -4.992  -0.513  1.00  0.00     0.060 C 
HETATM   57  C1  UNL     1      -2.785  -6.335  -0.162  1.00  0.00     0.012 C 
ENDBRANCH   1  56
TORSDOF 11
