REMARK  10 active torsions:
REMARK  status: ('A' for Active; 'I' for Inactive)
REMARK    1  A    between atoms: C2_2  and  C3_3 
REMARK    2  A    between atoms: C4_4  and  S1_5 
REMARK    3  A    between atoms: S1_5  and  C5_6 
REMARK    4  A    between atoms: C6_11  and  C7_12 
REMARK    5  A    between atoms: N5_17  and  C8_18 
REMARK    6  A    between atoms: C8_18  and  C9_19 
REMARK    7  A    between atoms: C9_19  and  C10_20 
REMARK    8  A    between atoms: N8_27  and  C12_28 
REMARK    9  A    between atoms: C17_37  and  O3_38 
REMARK   10  A    between atoms: C18_44  and  N12_45 
ROOT
HETATM    1  C3  UNL     1      -7.188   0.088   0.775  1.00  0.00    -0.001 A 
HETATM    2  C4  UNL     1      -5.915  -0.123   0.301  1.00  0.00     0.087 A 
HETATM    3  N11 UNL     1      -4.997  -0.536   1.191  1.00  0.00    -0.335 N 
ATOM      4  H11 UNL     1      -4.043  -0.702   0.872  1.00  0.00     0.168 HD
HETATM    5  C18 UNL     1      -5.295  -0.740   2.502  1.00  0.00     0.122 A 
HETATM    6  C19 UNL     1      -6.570  -0.533   2.996  1.00  0.00     0.110 A 
HETATM    7  C20 UNL     1      -6.890  -0.750   4.395  1.00  0.00     0.105 C 
HETATM    8  N13 UNL     1      -7.140  -0.940   5.510  1.00  0.00    -0.191 NA
HETATM    9  C21 UNL     1      -7.532  -0.109   2.100  1.00  0.00     0.067 A 
HETATM   10 CL1  UNL     1      -9.152   0.159   2.700  1.00  0.00    -0.082 Cl
ENDROOT
BRANCH   5  11
HETATM   11  N12 UNL     1      -4.410  -1.136   3.351  1.00  0.00    -0.384 N 
ATOM     12 2H12 UNL     1      -3.470  -1.289   2.987  1.00  0.00     0.157 HD
ATOM     13 1H12 UNL     1      -4.634  -1.289   4.334  1.00  0.00     0.157 HD
ENDBRANCH   5  11
BRANCH   1  14
HETATM   14  C2  UNL     1      -8.223   0.546  -0.188  1.00  0.00     0.039 C 
HETATM   15  C1  UNL     1      -8.719  -0.566  -1.086  1.00  0.00     0.010 C 
ENDBRANCH   1  14
BRANCH   2  16
HETATM   16  S1  UNL     1      -5.547   0.152  -1.423  1.00  0.00    -0.034 SA
BRANCH  16  17
HETATM   17  C5  UNL     1      -3.827  -0.179  -1.768  1.00  0.00     0.167 A 
HETATM   18  N1  UNL     1      -3.305  -1.360  -2.130  1.00  0.00    -0.278 N 
HETATM   19  N2  UNL     1      -1.986  -1.214  -2.299  1.00  0.00    -0.281 N 
ATOM     20  H1  UNL     1      -3.828  -2.227  -2.256  1.00  0.00     0.189 HD
HETATM   21  C6  UNL     1      -1.640   0.055  -2.051  1.00  0.00     0.155 A 
ATOM     22  H2  UNL     1      -1.343  -1.956  -2.575  1.00  0.00     0.188 HD
HETATM   23  N10 UNL     1      -2.786   0.677  -1.726  1.00  0.00    -0.319 N 
ATOM     24  H10 UNL     1      -2.859   1.664  -1.480  1.00  0.00     0.169 HD
BRANCH  21  25
HETATM   25  C7  UNL     1      -0.331   0.691  -2.107  1.00  0.00     0.147 A 
HETATM   26  N3  UNL     1      -0.055   1.981  -1.847  1.00  0.00    -0.279 N 
HETATM   27  N4  UNL     1       1.235   2.178  -2.006  1.00  0.00    -0.238 N 
ATOM     28  H3  UNL     1      -0.735   2.690  -1.572  1.00  0.00     0.189 HD
HETATM   29  N5  UNL     1       1.868   1.090  -2.364  1.00  0.00    -0.254 N 
ATOM     30  H4  UNL     1       1.692   3.079  -1.866  1.00  0.00     0.208 HD
HETATM   31  C17 UNL     1       0.891   0.141  -2.431  1.00  0.00     0.191 A 
BRANCH  29  32
HETATM   32  C8  UNL     1       3.256   0.856  -2.663  1.00  0.00     0.160 C 
BRANCH  32  33
HETATM   33  C9  UNL     1       4.100   0.395  -1.537  1.00  0.00     0.100 C 
BRANCH  33  34
HETATM   34  C10 UNL     1       4.174   1.368  -0.451  1.00  0.00     0.107 A 
HETATM   35  N6  UNL     1       3.672   2.597  -0.261  1.00  0.00    -0.286 N 
HETATM   36  N7  UNL     1       4.014   3.102   0.904  1.00  0.00    -0.274 N 
ATOM     37  H6  UNL     1       3.091   3.085  -0.943  1.00  0.00     0.188 HD
HETATM   38  C11 UNL     1       4.777   2.166   1.512  1.00  0.00     0.199 A 
ATOM     39  H7  UNL     1       3.755   4.016   1.275  1.00  0.00     0.189 HD
HETATM   40  S2  UNL     1       5.449   2.341   3.011  1.00  0.00    -0.039 SA
HETATM   41  N8  UNL     1       4.868   1.125   0.688  1.00  0.00    -0.269 N 
BRANCH  41  42
HETATM   42  C12 UNL     1       5.613  -0.070   1.007  1.00  0.00     0.118 A 
HETATM   43  C13 UNL     1       4.925  -1.010   1.750  1.00  0.00     0.090 A 
HETATM   44  S3  UNL     1       5.814  -2.414   2.121  1.00  0.00    -0.038 SA
HETATM   45  C14 UNL     1       7.407  -2.388   1.495  1.00  0.00     0.292 A 
HETATM   46  O1  UNL     1       8.269  -3.289   1.622  1.00  0.00    -0.259 OA
HETATM   47  N9  UNL     1       7.707  -1.272   0.812  1.00  0.00    -0.278 N 
HETATM   48  C15 UNL     1       9.075  -1.219   0.260  1.00  0.00     0.163 C 
HETATM   49  C16 UNL     1       6.901  -0.239   0.597  1.00  0.00     0.278 A 
HETATM   50  O2  UNL     1       7.383   0.736  -0.084  1.00  0.00    -0.265 OA
ENDBRANCH  41  42
ENDBRANCH  33  34
ENDBRANCH  32  33
ENDBRANCH  29  32
BRANCH  31  51
HETATM   51  O3  UNL     1       1.120  -1.174  -2.778  1.00  0.00    -0.343 OA
ATOM     52  H3  UNL     1       1.962  -1.553  -3.001  1.00  0.00     0.219 HD
ENDBRANCH  31  51
ENDBRANCH  21  25
ENDBRANCH  16  17
ENDBRANCH   2  16
TORSDOF 10
