REMARK  4 active torsions:
REMARK  status: ('A' for Active; 'I' for Inactive)
REMARK       I    between atoms: C1_2  and  N1_3 
REMARK    1  A    between atoms: C1_2  and  C6_9 
REMARK    2  A    between atoms: C6_9  and  O3_10 
REMARK    3  A    between atoms: N2_14  and  C9_15 
REMARK    4  A    between atoms: C9_15  and  C10_16 
ROOT
HETATM    1  C6  UNL     1      -0.563  -0.704   0.052  1.00  0.00     0.141 C 
HETATM    2  C7  UNL     1       0.274  -1.634  -0.764  1.00  0.00     0.078 C 
HETATM    3  C8  UNL     1       1.679  -1.793  -0.361  1.00  0.00     0.276 C 
HETATM    4  N2  UNL     1       2.276  -0.703   0.339  1.00  0.00     0.089 N 
HETATM    5  C13 UNL     1       1.555   0.495   0.016  1.00  0.00     0.276 C 
HETATM    6  C14 UNL     1       0.227   0.358   0.772  1.00  0.00     0.078 C 
ENDROOT
BRANCH   1   7
HETATM    7  C1  UNL     1      -1.545   0.010  -0.787  1.00  0.00     0.254 C 
HETATM    8  O1  UNL     1      -1.048   0.746  -1.732  1.00  0.00    -0.270 OA
HETATM    9  N1  UNL     1      -2.931   0.008  -0.712  1.00  0.00    -0.345 N 
HETATM   10  C2  UNL     1      -3.651  -0.755   0.276  1.00  0.00     0.152 C 
HETATM   11  C5  UNL     1      -3.759   0.783  -1.636  1.00  0.00     0.152 C 
HETATM   12  C3  UNL     1      -5.143  -0.471   0.056  1.00  0.00     0.187 C 
HETATM   13  O2  UNL     1      -5.415   0.876   0.096  1.00  0.00    -0.388 OA
HETATM   14  C4  UNL     1      -4.694   1.627  -0.821  1.00  0.00     0.187 C 
ENDBRANCH   1   7
BRANCH   1  15
HETATM   15  O3  UNL     1      -1.227  -1.441   1.015  1.00  0.00    -0.380 OA
ATOM     16  H3  UNL     1      -0.595  -1.901   1.555  1.00  0.00     0.211 HD
ENDBRANCH   1  15
BRANCH   4  17
HETATM   17  C9  UNL     1       3.679  -0.636   0.126  1.00  0.00     0.277 C 
BRANCH  17  18
HETATM   18  C10 UNL     1       4.227   0.547   0.906  1.00  0.00     0.014 A 
HETATM   19  C11 UNL     1       5.680   0.849   0.863  1.00  0.00     0.007 A 
HETATM   20  C12 UNL     1       4.695   1.754   0.165  1.00  0.00     0.007 A 
ENDBRANCH  17  18
ENDBRANCH   4  17
TORSDOF 4
