REMARK  7 active torsions:
REMARK  status: ('A' for Active; 'I' for Inactive)
REMARK    1  A    between atoms: C5_14  and  C6_15 
REMARK    2  A    between atoms: C6_15  and  N5_16 
REMARK    3  A    between atoms: C6_15  and  C10_23 
REMARK    4  A    between atoms: N5_16  and  C7_18 
REMARK    5  A    between atoms: C7_18  and  C8_19 
REMARK    6  A    between atoms: C8_19  and  C9_20 
REMARK    7  A    between atoms: N7_29  and  C16_30 
ROOT
HETATM    1  N1  UNL     1       1.165   0.774   5.275  1.00  0.00    -0.383 N 
ATOM      2  H11 UNL     1       0.150   0.740   5.181  1.00  0.00     0.157 HD
ATOM      3  H12 UNL     1       1.536   0.937   6.211  1.00  0.00     0.157 HD
HETATM    4  C1  UNL     1       2.001   0.625   4.312  1.00  0.00     0.131 A 
HETATM    5  N2  UNL     1       3.338   0.670   4.436  1.00  0.00    -0.337 N 
ATOM      6  H2  UNL     1       3.738   0.830   5.361  1.00  0.00     0.168 HD
HETATM    7  C2  UNL     1       4.178   0.512   3.383  1.00  0.00     0.183 A 
HETATM    8  N3  UNL     1       3.632   0.301   2.175  1.00  0.00    -0.336 N 
ATOM      9  H3  UNL     1       4.261   0.181   1.381  1.00  0.00     0.168 HD
HETATM   10  C3  UNL     1       2.306   0.238   1.945  1.00  0.00     0.145 A 
HETATM   11  C4  UNL     1       1.495   0.403   3.035  1.00  0.00     0.123 A 
HETATM   12  N4  UNL     1       0.265   0.298   2.548  1.00  0.00    -0.334 N 
ATOM     13  H4  UNL     1      -0.584   0.374   3.107  1.00  0.00     0.168 HD
HETATM   14  C5  UNL     1       0.284   0.073   1.192  1.00  0.00     0.137 A 
HETATM   15  N7  UNL     1       1.561   0.032   0.798  1.00  0.00    -0.287 N 
ENDROOT
BRANCH  14  16
HETATM   16  C6  UNL     1      -0.955  -0.072   0.384  1.00  0.00     0.054 C 
BRANCH  16  17
HETATM   17  N5  UNL     1      -1.160  -1.358  -0.139  1.00  0.00    -0.389 N 
ATOM     18  H5  UNL     1      -0.351  -1.918  -0.408  1.00  0.00     0.159 HD
BRANCH  17  19
HETATM   19  C7  UNL     1      -2.456  -1.900  -0.304  1.00  0.00     0.128 C 
BRANCH  19  20
HETATM   20  C8  UNL     1      -2.376  -3.410  -0.663  1.00  0.00     0.119 C 
BRANCH  20  21
HETATM   21  C9  UNL     1      -3.770  -3.885  -0.805  1.00  0.00     0.232 C 
HETATM   22  N6  UNL     1      -4.053  -5.265  -0.992  1.00  0.00    -0.062 NA
HETATM   23  O1  UNL     1      -4.704  -3.055  -0.761  1.00  0.00    -0.277 OA
ENDBRANCH  20  21
ENDBRANCH  19  20
ENDBRANCH  17  19
ENDBRANCH  16  17
BRANCH  16  24
HETATM   24  C10 UNL     1      -1.380   1.157  -0.313  1.00  0.00     0.039 C 
HETATM   25  C11 UNL     1      -1.612   2.219   0.789  1.00  0.00     0.011 C 
HETATM   26  C12 UNL     1      -1.843   3.582   0.185  1.00  0.00     0.001 C 
HETATM   27  C13 UNL     1      -3.241   3.503  -0.434  1.00  0.00     0.000 C 
HETATM   28  C14 UNL     1      -3.142   2.480  -1.508  1.00  0.00     0.001 C 
HETATM   29  C15 UNL     1      -2.701   1.102  -1.041  1.00  0.00     0.011 C 
ENDBRANCH  16  24
ENDBRANCH  14  16
BRANCH  15  30
HETATM   30  C16 UNL     1       2.165  -0.147  -0.460  1.00  0.00    -0.002 C 
HETATM   31  C17 UNL     1       2.312   1.064  -1.348  1.00  0.00     0.053 C 
HETATM   32  C18 UNL     1       3.502   0.884  -2.264  1.00  0.00     0.006 C 
HETATM   33  C19 UNL     1       4.038  -0.492  -2.304  1.00  0.00     0.001 C 
HETATM   34  C20 UNL     1       3.046  -1.592  -2.253  1.00  0.00     0.006 C 
HETATM   35  C21 UNL     1       1.837  -1.293  -1.335  1.00  0.00     0.053 C 
ENDBRANCH  15  30
TORSDOF 7
