REMARK  8 active torsions:
REMARK  status: ('A' for Active; 'I' for Inactive)
REMARK    1  A    between atoms: C2_2  and  N1_4 
REMARK    2  A    between atoms: C2_2  and  C4_8 
REMARK    3  A    between atoms: C6_11  and  C7_12 
REMARK    4  A    between atoms: C7_12  and  C8_13 
REMARK    5  A    between atoms: C7_12  and  N2_19 
REMARK    6  A    between atoms: C8_13  and  C9_14 
REMARK       I    between atoms: N2_19  and  C14_21 
REMARK    7  A    between atoms: C14_21  and  C15_23 
REMARK    8  A    between atoms: C18_26  and  C19_27 
ROOT
HETATM    1  C7  UNL     1      -0.501   0.592   0.457  1.00  0.00     0.160 C 
ENDROOT
BRANCH   1   2
HETATM    2  C6  UNL     1      -1.355  -0.450  -0.127  1.00  0.00     0.146 A 
HETATM    3  O1  UNL     1      -1.250  -1.011  -1.326  1.00  0.00    -0.305 OA
HETATM    4  C5  UNL     1      -2.160  -1.899  -1.535  1.00  0.00     0.171 A 
HETATM    5  C4  UNL     1      -2.960  -1.968  -0.410  1.00  0.00     0.069 A 
HETATM    6  N3  UNL     1      -2.441  -1.063   0.444  1.00  0.00    -0.338 N 
ATOM      7  H3  UNL     1      -2.802  -0.864   1.377  1.00  0.00     0.167 HD
BRANCH   5   8
HETATM    8  C2  UNL     1      -4.146  -2.857  -0.197  1.00  0.00     0.160 C 
HETATM    9  C1  UNL     1      -3.859  -3.851   0.904  1.00  0.00     0.052 C 
HETATM   10  C3  UNL     1      -4.426  -3.574  -1.500  1.00  0.00     0.052 C 
BRANCH   8  11
HETATM   11  N1  UNL     1      -5.254  -1.998   0.171  1.00  0.00    -0.065 N 
ATOM     12  H13 UNL     1      -6.084  -2.536   0.422  1.00  0.00     0.275 HD
ATOM     13  H12 UNL     1      -5.095  -1.537   1.067  1.00  0.00     0.275 HD
ATOM     14  H11 UNL     1      -5.448  -1.327  -0.572  1.00  0.00     0.275 HD
ENDBRANCH   8  11
ENDBRANCH   5   8
ENDBRANCH   1   2
BRANCH   1  15
HETATM   15  C8  UNL     1      -0.715   2.001   0.097  1.00  0.00     0.038 C 
BRANCH  15  16
HETATM   16  C9  UNL     1      -2.019   2.639   0.383  1.00  0.00    -0.012 C 
HETATM   17  C10 UNL     1      -1.977   4.130  -0.009  1.00  0.00     0.005 C 
HETATM   18  C11 UNL     1      -3.375   4.467  -0.490  1.00  0.00     0.000 C 
HETATM   19  C12 UNL     1      -3.799   3.220  -1.194  1.00  0.00     0.000 C 
HETATM   20  C13 UNL     1      -3.126   2.064  -0.447  1.00  0.00     0.005 C 
ENDBRANCH  15  16
ENDBRANCH   1  15
BRANCH   1  21
HETATM   21  N2  UNL     1       0.886   0.196   0.188  1.00  0.00    -0.349 N 
HETATM   22  C14 UNL     1       1.873   0.027   1.177  1.00  0.00     0.222 C 
HETATM   23  O2  UNL     1       1.568   0.220   2.377  1.00  0.00    -0.273 OA
ATOM     24  H2  UNL     1       1.153   0.032  -0.783  1.00  0.00     0.163 HD
BRANCH  22  25
HETATM   25  C15 UNL     1       3.234  -0.375   0.749  1.00  0.00     0.078 C 
HETATM   26  C16 UNL     1       4.173  -0.418   1.940  1.00  0.00     0.015 C 
HETATM   27  C17 UNL     1       5.426  -1.084   1.426  1.00  0.00     0.016 C 
HETATM   28  C18 UNL     1       6.071  -0.211   0.417  1.00  0.00     0.087 C 
HETATM   29  C20 UNL     1       5.217   0.768  -0.304  1.00  0.00     0.016 C 
HETATM   30  C21 UNL     1       3.772   0.524  -0.328  1.00  0.00     0.015 C 
BRANCH  28  31
HETATM   31  C19 UNL     1       6.783  -1.118  -0.562  1.00  0.00     0.177 C 
HETATM   32  O3  UNL     1       6.488  -1.163  -1.770  1.00  0.00    -0.648 OA
HETATM   33  O4  UNL     1       7.803  -1.923  -0.077  1.00  0.00    -0.648 OA
ENDBRANCH  28  31
ENDBRANCH  22  25
ENDBRANCH   1  21
TORSDOF 8
