REMARK  9 active torsions:
REMARK  status: ('A' for Active; 'I' for Inactive)
REMARK    1  A    between atoms: O1_1  and  C1_3 
REMARK    2  A    between atoms: C2_6  and  O2_7 
REMARK    3  A    between atoms: C4_10  and  N2_11 
REMARK    4  A    between atoms: C8_15  and  C9_16 
REMARK    5  A    between atoms: C9_16  and  N3_17 
REMARK    6  A    between atoms: N3_17  and  C10_19 
REMARK    7  A    between atoms: C10_19  and  C11_20 
REMARK    8  A    between atoms: C11_20  and  C12_21 
REMARK    9  A    between atoms: C12_21  and  N4_22 
ROOT
HETATM    1  N2  UNL     1      -2.783  -0.160  -0.922  1.00  0.00    -0.379 N 
HETATM    2  C5  UNL     1      -1.669  -1.072  -0.819  1.00  0.00     0.123 C 
HETATM    3  C6  UNL     1      -0.773  -0.665  -2.022  1.00  0.00     0.021 C 
HETATM    4  C7  UNL     1      -0.158   0.652  -1.557  1.00  0.00     0.013 C 
HETATM    5  C8  UNL     1      -1.153   1.686  -1.235  1.00  0.00     0.042 C 
HETATM    6  C19 UNL     1      -2.588   1.242  -1.136  1.00  0.00     0.133 C 
ENDROOT
BRANCH   1   7
HETATM    7  C4  UNL     1      -4.102  -0.653  -0.825  1.00  0.00     0.048 A 
HETATM    8  C3  UNL     1      -4.694  -1.107   0.327  1.00  0.00     0.072 A 
HETATM    9  C2  UNL     1      -4.269  -1.190   1.629  1.00  0.00     0.157 A 
HETATM   10  C22 UNL     1      -5.987  -1.611   0.352  1.00  0.00     0.100 A 
HETATM   11  N1  UNL     1      -5.259  -1.717   2.388  1.00  0.00    -0.315 N 
HETATM   12  C1  UNL     1      -6.328  -1.986   1.632  1.00  0.00     0.170 A 
ATOM     13  H1  UNL     1      -5.198  -1.885   3.392  1.00  0.00     0.170 HD
HETATM   14  N5  UNL     1      -6.699  -1.659  -0.797  1.00  0.00    -0.362 N 
HETATM   15  C21 UNL     1      -6.140  -1.219  -1.934  1.00  0.00     0.090 A 
ATOM     16  H5  UNL     1      -7.651  -2.026  -0.799  1.00  0.00     0.165 HD
HETATM   17  C20 UNL     1      -4.870  -0.717  -1.996  1.00  0.00     0.047 A 
BRANCH   9  18
HETATM   18  O2  UNL     1      -3.011  -0.786   2.070  1.00  0.00    -0.345 OA
ATOM     19  H2  UNL     1      -2.317  -0.416   1.538  1.00  0.00     0.219 HD
ENDBRANCH   9  18
BRANCH  12  20
HETATM   20  O1  UNL     1      -7.509  -2.532   2.100  1.00  0.00    -0.344 OA
ATOM     21  H1  UNL     1      -8.269  -2.723   1.563  1.00  0.00     0.219 HD
ENDBRANCH  12  20
ENDBRANCH   1   7
BRANCH   5  22
HETATM   22  C9  UNL     1      -0.776   2.539  -0.052  1.00  0.00     0.061 C 
BRANCH  22  23
HETATM   23  N3  UNL     1       0.372   3.300  -0.084  1.00  0.00    -0.402 N 
ATOM     24  H3  UNL     1       0.261   4.311  -0.158  1.00  0.00     0.158 HD
BRANCH  23  25
HETATM   25  C10 UNL     1       1.678   2.800  -0.023  1.00  0.00     0.120 C 
BRANCH  25  26
HETATM   26  C11 UNL     1       2.047   2.193   1.352  1.00  0.00     0.050 C 
BRANCH  26  27
HETATM   27  C12 UNL     1       3.472   1.739   1.302  1.00  0.00     0.274 C 
BRANCH  27  28
HETATM   28  N4  UNL     1       3.651   0.718   0.307  1.00  0.00     0.088 N 
HETATM   29  C13 UNL     1       5.090   0.475   0.085  1.00  0.00     0.272 C 
HETATM   30  C14 UNL     1       5.692  -0.478   1.049  1.00  0.00     0.030 C 
HETATM   31  C15 UNL     1       5.400  -1.918   0.855  1.00  0.00     0.002 C 
HETATM   32  C16 UNL     1       4.619  -2.157  -0.389  1.00  0.00     0.002 C 
HETATM   33  C17 UNL     1       3.244  -1.554  -0.378  1.00  0.00     0.030 C 
HETATM   34  C18 UNL     1       3.063  -0.555   0.742  1.00  0.00     0.272 C 
ENDBRANCH  27  28
ENDBRANCH  26  27
ENDBRANCH  25  26
ENDBRANCH  23  25
ENDBRANCH  22  23
ENDBRANCH   5  22
TORSDOF 9
