REMARK  2 active torsions:
REMARK  status: ('A' for Active; 'I' for Inactive)
REMARK    1  A    between atoms: C2_2  and  C3_3 
REMARK    2  A    between atoms: C5_5  and  N1_6 
ROOT
HETATM    1  C3  UNL     1       1.218   0.228  -0.581  1.00  0.00     0.014 C 
HETATM    2  C4  UNL     1       0.531   0.866   0.572  1.00  0.00     0.047 C 
HETATM    3  C5  UNL     1      -0.910   0.982   0.092  1.00  0.00     0.124 C 
HETATM    4  C6  UNL     1      -1.750   0.105   0.985  1.00  0.00     0.038 C 
HETATM    5  C7  UNL     1      -1.682  -1.294   0.483  1.00  0.00     0.003 C 
HETATM    6  C8  UNL     1      -0.368  -1.679  -0.123  1.00  0.00     0.005 C 
HETATM    7  C9  UNL     1       0.165  -0.701  -1.114  1.00  0.00    -0.004 C 
HETATM    8  C10 UNL     1      -0.941   0.356  -1.296  1.00  0.00     0.043 C 
ENDROOT
BRANCH   3   9
HETATM    9  N1  UNL     1      -1.358   2.349   0.052  1.00  0.00    -0.070 N 
ATOM     10  H13 UNL     1      -1.231   2.806   0.955  1.00  0.00     0.275 HD
ATOM     11  H12 UNL     1      -0.733   2.927  -0.511  1.00  0.00     0.275 HD
ATOM     12  H11 UNL     1      -2.323   2.427  -0.269  1.00  0.00     0.275 HD
ENDBRANCH   3   9
BRANCH   1  13
HETATM   13  C2  UNL     1       2.514  -0.373  -0.304  1.00  0.00    -0.032 C 
HETATM   14  C1  UNL     1       3.117  -0.406   0.863  1.00  0.00     0.007 C 
ENDBRANCH   1  13
TORSDOF 2
