REMARK  6 active torsions:
REMARK  status: ('A' for Active; 'I' for Inactive)
REMARK    1  A    between atoms: C2_2  and  C3_3 
REMARK    2  A    between atoms: C3_3  and  C4_4 
REMARK    3  A    between atoms: C4_4  and  C5_5 
REMARK    4  A    between atoms: C5_5  and  S1_6 
REMARK    5  A    between atoms: S1_6  and  C6_7 
REMARK    6  A    between atoms: N3_14  and  C8_15 
ROOT
HETATM    1  C6  UNL     1      -0.082  -0.235   1.487  1.00  0.00     0.165 A 
HETATM    2  N1  UNL     1       0.383   0.091   2.703  1.00  0.00    -0.276 N 
ATOM      3  H1  UNL     1       1.071  -0.430   3.247  1.00  0.00     0.189 HD
HETATM    4  N2  UNL     1      -0.206   1.196   3.061  1.00  0.00    -0.249 N 
ATOM      5  H2  UNL     1      -0.057   1.692   3.940  1.00  0.00     0.192 HD
HETATM    6  C7  UNL     1      -1.050   1.577   2.072  1.00  0.00     0.343 A 
HETATM    7  O1  UNL     1      -1.724   2.638   2.226  1.00  0.00    -0.245 OA
HETATM    8  N3  UNL     1      -0.976   0.682   1.080  1.00  0.00    -0.273 N 
ENDROOT
BRANCH   8   9
HETATM    9  C8  UNL     1      -1.737   0.783  -0.121  1.00  0.00     0.097 C 
HETATM   10  C9  UNL     1      -2.993   1.572   0.130  1.00  0.00     0.026 C 
HETATM   11  C10 UNL     1      -3.981   1.415  -0.994  1.00  0.00     0.002 C 
HETATM   12  C11 UNL     1      -4.720   0.132  -1.050  1.00  0.00     0.000 C 
HETATM   13  C12 UNL     1      -4.404  -0.871  -0.000  1.00  0.00     0.000 C 
HETATM   14  C13 UNL     1      -2.962  -1.290   0.049  1.00  0.00     0.002 C 
HETATM   15  C14 UNL     1      -2.075  -0.452  -0.828  1.00  0.00     0.026 C 
ENDBRANCH   8   9
BRANCH   1  16
HETATM   16  S1  UNL     1       0.419  -1.655   0.569  1.00  0.00    -0.092 SA
BRANCH  16  17
HETATM   17  C5  UNL     1       1.851  -1.280  -0.474  1.00  0.00     0.082 C 
BRANCH  17  18
HETATM   18  C4  UNL     1       3.079  -0.969   0.357  1.00  0.00     0.010 C 
BRANCH  18  19
HETATM   19  C3  UNL     1       4.231  -0.670  -0.578  1.00  0.00     0.000 C 
BRANCH  19  20
HETATM   20  C2  UNL     1       5.482  -0.350   0.211  1.00  0.00    -0.005 C 
HETATM   21  C1  UNL     1       6.652  -0.049  -0.674  1.00  0.00     0.005 C 
ENDBRANCH  19  20
ENDBRANCH  18  19
ENDBRANCH  17  18
ENDBRANCH  16  17
ENDBRANCH   1  16
TORSDOF 6
