REMARK  13 active torsions:
REMARK  status: ('A' for Active; 'I' for Inactive)
REMARK    1  A    between atoms: C2_2  and  C3_3 
REMARK    2  A    between atoms: C2_2  and  C20_29 
REMARK    3  A    between atoms: C3_3  and  C4_5 
REMARK    4  A    between atoms: C4_5  and  C5_6 
REMARK    5  A    between atoms: C5_6  and  C6_7 
REMARK    6  A    between atoms: C6_7  and  C7_8 
REMARK    7  A    between atoms: C7_8  and  O2_9 
REMARK    8  A    between atoms: C7_8  and  C8_11 
REMARK    9  A    between atoms: C8_11  and  O3_13 
REMARK   10  A    between atoms: C8_11  and  S1_15 
REMARK   11  A    between atoms: S1_15  and  C10_16 
REMARK   12  A    between atoms: C11_17  and  C12_18 
REMARK   13  A    between atoms: N1_24  and  C18_26 
ROOT
HETATM    1  C8  UNL     1       0.555   0.324   0.348  1.00  0.00     0.132 C 
HETATM    2  C9  UNL     1       0.260   1.641  -0.315  1.00  0.00     0.061 C 
ENDROOT
BRANCH   1   3
HETATM    3  C7  UNL     1       2.054   0.095   0.491  1.00  0.00     0.163 C 
BRANCH   3   4
HETATM    4  C6  UNL     1       2.721   0.091  -0.865  1.00  0.00     0.036 C 
BRANCH   4   5
HETATM    5  C5  UNL     1       4.204  -0.191  -0.778  1.00  0.00     0.010 C 
BRANCH   5   6
HETATM    6  C4  UNL     1       4.863   0.852   0.046  1.00  0.00     0.079 C 
BRANCH   6   7
HETATM    7  C3  UNL     1       6.311   0.733   0.223  1.00  0.00     0.135 C 
HETATM    8  O1  UNL     1       6.837   1.633   0.895  1.00  0.00    -0.297 OA
BRANCH   7   9
HETATM    9  C2  UNL     1       7.178  -0.345  -0.319  1.00  0.00     0.105 C 
HETATM   10  C1  UNL     1       6.817  -1.719   0.190  1.00  0.00     0.022 C 
BRANCH   9  11
HETATM   11  C20 UNL     1       8.623  -0.094   0.074  1.00  0.00     0.198 C 
HETATM   12 CL1  UNL     1       8.683  -0.191   1.860  1.00  0.00    -0.083 Cl
HETATM   13 CL2  UNL     1       9.592  -1.426  -0.584  1.00  0.00    -0.083 Cl
HETATM   14 CL3  UNL     1       9.186   1.487  -0.497  1.00  0.00    -0.083 Cl
ENDBRANCH   9  11
ENDBRANCH   7   9
ENDBRANCH   6   7
ENDBRANCH   5   6
ENDBRANCH   4   5
ENDBRANCH   3   4
BRANCH   3  15
HETATM   15  O2  UNL     1       2.194  -1.128   1.137  1.00  0.00    -0.392 OA
ATOM     16  H2  UNL     1       1.775  -1.125   1.989  1.00  0.00     0.210 HD
ENDBRANCH   3  15
ENDBRANCH   1   3
BRANCH   1  17
HETATM   17  O3  UNL     1       0.046   0.334   1.656  1.00  0.00    -0.377 OA
ATOM     18  H3  UNL     1      -0.889   0.477   1.567  1.00  0.00     0.211 HD
ENDBRANCH   1  17
BRANCH   1  19
HETATM   19  S1  UNL     1      -0.135  -1.004  -0.633  1.00  0.00    -0.102 SA
BRANCH  19  20
HETATM   20  C10 UNL     1      -1.871  -0.853  -0.902  1.00  0.00     0.044 C 
HETATM   21  C11 UNL     1      -2.643  -0.132  -0.116  1.00  0.00    -0.015 C 
BRANCH  21  22
HETATM   22  C12 UNL     1      -4.100  -0.016  -0.355  1.00  0.00     0.014 C 
HETATM   23  C13 UNL     1      -4.568   1.410  -0.535  1.00  0.00     0.009 C 
HETATM   24  C14 UNL     1      -5.999   1.371  -1.023  1.00  0.00     0.001 C 
HETATM   25  C15 UNL     1      -7.005   1.534   0.093  1.00  0.00     0.006 C 
HETATM   26  C16 UNL     1      -7.349   0.195   0.724  1.00  0.00     0.052 C 
HETATM   27  C17 UNL     1      -6.229  -0.759   0.513  1.00  0.00    -0.011 C 
HETATM   28  N1  UNL     1      -6.571  -1.858  -0.041  1.00  0.00    -0.342 N 
HETATM   29  C19 UNL     1      -4.819  -0.554   0.872  1.00  0.00     0.061 C 
ATOM     30  H1  UNL     1      -7.553  -1.987  -0.285  1.00  0.00     0.167 HD
BRANCH  28  31
HETATM   31  C18 UNL     1      -5.670  -2.906  -0.336  1.00  0.00     0.352 C 
HETATM   32  O4  UNL     1      -5.668  -3.477  -1.477  1.00  0.00    -0.283 OA
ENDBRANCH  28  31
ENDBRANCH  21  22
ENDBRANCH  19  20
ENDBRANCH   1  19
TORSDOF 13
