REMARK  4 active torsions:
REMARK  status: ('A' for Active; 'I' for Inactive)
REMARK    1  A    between atoms: C2_2  and  C3_3 
REMARK    2  A    between atoms: C2_2  and  C5_6 
REMARK    3  A    between atoms: C5_6  and  O2_8 
REMARK    4  A    between atoms: O2_8  and  C6_9 
ROOT
HETATM    1  C3  UNL     1       4.379  -0.376  -0.445  1.00  0.00     0.167 C 
HETATM    2  C4  UNL     1       5.489   0.478  -0.034  1.00  0.00     0.064 C 
HETATM    3  N1  UNL     1       6.398   1.152   0.290  1.00  0.00    -0.197 NA
ENDROOT
BRANCH   1   4
HETATM    4  C2  UNL     1       3.068   0.232  -0.109  1.00  0.00     0.021 C 
HETATM    5  C1  UNL     1       3.050   1.396   0.483  1.00  0.00     0.026 C 
BRANCH   4   6
HETATM    6  C5  UNL     1       1.803  -0.441  -0.425  1.00  0.00     0.289 C 
HETATM    7  O1  UNL     1       1.769  -1.560  -0.993  1.00  0.00    -0.260 OA
BRANCH   6   8
HETATM    8  O2  UNL     1       0.588   0.140  -0.105  1.00  0.00    -0.310 OA
BRANCH   8   9
HETATM    9  C6  UNL     1      -0.605  -0.536  -0.424  1.00  0.00     0.158 C 
HETATM   10  C7  UNL     1      -1.368   0.377  -1.391  1.00  0.00     0.201 C 
HETATM   11  O3  UNL     1      -2.304   1.123  -0.687  1.00  0.00    -0.379 OA
HETATM   12  C8  UNL     1      -3.387   0.273  -0.430  1.00  0.00     0.174 C 
HETATM   13  C9  UNL     1      -4.123   0.533   0.847  1.00  0.00     0.202 C 
HETATM   14  C10 UNL     1      -2.901  -0.925   0.319  1.00  0.00     0.155 C 
HETATM   15  O4  UNL     1      -3.851  -0.759   1.325  1.00  0.00    -0.381 OA
HETATM   16  C11 UNL     1      -1.488  -0.743   0.787  1.00  0.00     0.069 C 
ENDBRANCH   8   9
ENDBRANCH   6   8
ENDBRANCH   4   6
ENDBRANCH   1   4
TORSDOF 4
