REMARK  7 active torsions:
REMARK  status: ('A' for Active; 'I' for Inactive)
REMARK    1  A    between atoms: C2_2  and  O1_3 
REMARK    2  A    between atoms: O1_3  and  C3_4 
REMARK       I    between atoms: C3_4  and  N1_6 
REMARK    3  A    between atoms: C6_9  and  O3_10 
REMARK    4  A    between atoms: C7_12  and  C8_13 
REMARK    5  A    between atoms: C8_13  and  O4_14 
REMARK    6  A    between atoms: O4_14  and  C9_15 
REMARK       I    between atoms: C9_15  and  N2_17 
REMARK    7  A    between atoms: N2_17  and  C10_19 
ROOT
HETATM    1  C3  UNL     1       6.046   0.021  -0.284  1.00  0.00     0.367 C 
HETATM    2  O2  UNL     1       6.933   0.695   0.300  1.00  0.00    -0.238 OA
HETATM    3  N1  UNL     1       4.683   0.417  -0.332  1.00  0.00    -0.320 N 
HETATM    4  C4  UNL     1       4.183   1.627   0.282  1.00  0.00     0.132 C 
HETATM    5  C5  UNL     1       3.066   2.015  -0.655  1.00  0.00     0.060 C 
HETATM    6  C6  UNL     1       2.493   0.682  -1.042  1.00  0.00     0.085 C 
HETATM    7  C7  UNL     1       1.449   0.190  -0.067  1.00  0.00     0.047 C 
HETATM    8  C16 UNL     1       1.676  -1.326  -0.112  1.00  0.00     0.012 C 
HETATM    9  C17 UNL     1       3.163  -1.503  -0.218  1.00  0.00     0.029 C 
HETATM   10  C18 UNL     1       3.630  -0.314  -0.985  1.00  0.00     0.124 C 
ENDROOT
BRANCH   7  11
HETATM   11  C8  UNL     1       0.110   0.542  -0.592  1.00  0.00     0.188 C 
BRANCH  11  12
HETATM   12  O4  UNL     1      -0.965   0.140   0.224  1.00  0.00    -0.304 OA
BRANCH  12  13
HETATM   13  C9  UNL     1      -2.283   0.346  -0.037  1.00  0.00     0.360 C 
HETATM   14  O5  UNL     1      -2.586   0.946  -1.094  1.00  0.00    -0.239 OA
HETATM   15  N2  UNL     1      -3.359  -0.069   0.801  1.00  0.00    -0.332 N 
ATOM     16  H2  UNL     1      -3.146  -0.560   1.669  1.00  0.00     0.165 HD
BRANCH  15  17
HETATM   17  C10 UNL     1      -4.742   0.183   0.462  1.00  0.00     0.086 C 
HETATM   18  C11 UNL     1      -5.432  -1.113   0.242  1.00  0.00     0.025 C 
HETATM   19  C12 UNL     1      -6.820  -1.174   0.851  1.00  0.00     0.002 C 
HETATM   20  C13 UNL     1      -7.518   0.103   0.479  1.00  0.00     0.000 C 
HETATM   21  C14 UNL     1      -6.882   1.302   1.145  1.00  0.00     0.002 C 
HETATM   22  C15 UNL     1      -5.421   1.104   1.423  1.00  0.00     0.025 C 
ENDBRANCH  15  17
ENDBRANCH  12  13
ENDBRANCH  11  12
ENDBRANCH   7  11
BRANCH   6  23
HETATM   23  O3  UNL     1       1.992   0.773  -2.334  1.00  0.00    -0.387 OA
ATOM     24  H3  UNL     1       1.630  -0.070  -2.579  1.00  0.00     0.210 HD
ENDBRANCH   6  23
BRANCH   1  25
HETATM   25  O1  UNL     1       6.489  -1.164  -0.895  1.00  0.00    -0.275 OA
BRANCH  25  26
HETATM   26  C2  UNL     1       7.809  -1.556  -0.853  1.00  0.00     0.137 C 
HETATM   27  C1  UNL     1       8.243  -2.311   0.124  1.00  0.00     0.038 C 
ENDBRANCH  25  26
ENDBRANCH   1  25
TORSDOF 7
