REMARK  8 active torsions:
REMARK  status: ('A' for Active; 'I' for Inactive)
REMARK    1  A    between atoms: N1_1  and  C1_4 
REMARK    2  A    between atoms: C3_7  and  C4_8 
REMARK    3  A    between atoms: C4_8  and  C5_9 
REMARK    4  A    between atoms: C5_9  and  C6_10 
REMARK    5  A    between atoms: C12_18  and  N3_19 
REMARK    6  A    between atoms: N3_19  and  C13_21 
REMARK    7  A    between atoms: C13_21  and  C14_22 
REMARK    8  A    between atoms: C14_22  and  N4_23 
ROOT
HETATM    1  C1  UNL     1       0.528   1.915  -1.328  1.00  0.00     0.112 A 
HETATM    2  S1  UNL     1      -0.893   2.861  -1.575  1.00  0.00    -0.079 SA
HETATM    3  C2  UNL     1      -2.115   2.447  -0.447  1.00  0.00     0.077 A 
HETATM    4  C3  UNL     1      -1.743   1.456   0.429  1.00  0.00     0.017 A 
HETATM    5  N2  UNL     1      -0.588   0.825   0.481  1.00  0.00    -0.344 N 
ATOM      6  H2  UNL     1      -0.503   0.115   1.209  1.00  0.00     0.167 HD
HETATM    7  C12 UNL     1       0.508   0.996  -0.310  1.00  0.00     0.135 A 
ENDROOT
BRANCH   7   8
HETATM    8  N3  UNL     1       1.492   0.275  -0.034  1.00  0.00    -0.372 N 
ATOM      9  H3  UNL     1       1.241  -0.324   0.752  1.00  0.00     0.161 HD
BRANCH   8  10
HETATM   10  C13 UNL     1       2.784  -0.008  -0.398  1.00  0.00     0.151 C 
BRANCH  10  11
HETATM   11  C14 UNL     1       3.565  -0.320   0.908  1.00  0.00     0.292 C 
BRANCH  11  12
HETATM   12  N4  UNL     1       4.938  -0.637   0.651  1.00  0.00     0.091 N 
HETATM   13  C15 UNL     1       5.118  -1.902  -0.012  1.00  0.00     0.287 C 
HETATM   14  C16 UNL     1       6.481  -2.052  -0.598  1.00  0.00     0.170 C 
HETATM   15  S2  UNL     1       7.732  -1.145   0.266  1.00  0.00     0.147 S 
HETATM   16  O1  UNL     1       8.175  -1.796   1.520  1.00  0.00    -0.228 OA
HETATM   17  O2  UNL     1       8.897  -0.980  -0.673  1.00  0.00    -0.228 OA
HETATM   18  C17 UNL     1       7.046   0.485   0.567  1.00  0.00     0.170 C 
HETATM   19  C18 UNL     1       5.642   0.454   0.003  1.00  0.00     0.287 C 
ENDBRANCH  11  12
ENDBRANCH  10  11
ENDBRANCH   8  10
ENDBRANCH   7   8
BRANCH   1  20
HETATM   20  N1  UNL     1       1.586   2.026  -2.049  1.00  0.00    -0.390 N 
ATOM     21  H12 UNL     1       1.601   2.709  -2.806  1.00  0.00     0.157 HD
ATOM     22  H11 UNL     1       2.426   1.467  -1.903  1.00  0.00     0.157 HD
ENDBRANCH   1  20
BRANCH   4  23
HETATM   23  C4  UNL     1      -2.806   1.042   1.437  1.00  0.00     0.058 C 
BRANCH  23  24
HETATM   24  C5  UNL     1      -3.562  -0.106   0.891  1.00  0.00     0.010 C 
BRANCH  24  25
HETATM   25  C6  UNL     1      -4.351   0.092  -0.350  1.00  0.00    -0.014 C 
HETATM   26  C7  UNL     1      -4.982  -1.266  -0.682  1.00  0.00     0.004 C 
HETATM   27  C8  UNL     1      -5.945  -1.727   0.357  1.00  0.00     0.000 C 
HETATM   28  C9  UNL     1      -6.937  -0.708   0.804  1.00  0.00     0.000 C 
HETATM   29  C10 UNL     1      -6.347   0.647   1.059  1.00  0.00     0.000 C 
HETATM   30  C11 UNL     1      -5.522   1.040  -0.146  1.00  0.00     0.004 C 
ENDBRANCH  24  25
ENDBRANCH  23  24
ENDBRANCH   4  23
TORSDOF 8
