REMARK  9 active torsions:
REMARK  status: ('A' for Active; 'I' for Inactive)
REMARK    1  A    between atoms: C2_2  and  O2_4 
REMARK    2  A    between atoms: O2_4  and  C3_5 
REMARK    3  A    between atoms: C4_6  and  O3_7 
REMARK    4  A    between atoms: O3_7  and  C5_8 
REMARK    5  A    between atoms: C5_8  and  C6_9 
REMARK    6  A    between atoms: C6_9  and  C7_10 
REMARK    7  A    between atoms: C7_10  and  C8_11 
REMARK    8  A    between atoms: C8_11  and  N1_12 
REMARK    9  A    between atoms: C9_16  and  O4_17 
ROOT
HETATM    1  C3  UNL     1       0.871   2.366   0.099  1.00  0.00     0.089 C 
HETATM    2  C4  UNL     1       1.311   1.102  -0.127  1.00  0.00     0.105 C 
HETATM    3  C9  UNL     1       0.252   0.186  -0.626  1.00  0.00     0.182 C 
HETATM    4  C10 UNL     1      -0.875   0.233   0.389  1.00  0.00     0.038 C 
HETATM    5  C11 UNL     1      -1.490   1.596   0.372  1.00  0.00    -0.031 C 
HETATM    6  C12 UNL     1      -1.770   2.022   1.826  1.00  0.00     0.016 C 
HETATM    7  C13 UNL     1      -2.713   1.735  -0.474  1.00  0.00     0.010 C 
HETATM    8  C14 UNL     1      -3.318   0.455  -0.947  1.00  0.00     0.007 C 
HETATM    9  C15 UNL     1      -3.203  -0.526   0.173  1.00  0.00     0.010 C 
HETATM   10  C16 UNL     1      -4.262  -1.533   0.164  1.00  0.00     0.120 C 
HETATM   11  C17 UNL     1      -4.454  -2.479  -0.916  1.00  0.00     0.266 C 
HETATM   12  O5  UNL     1      -4.521  -2.537  -2.161  1.00  0.00    -0.265 OA
HETATM   13  O6  UNL     1      -4.558  -3.480   0.075  1.00  0.00    -0.315 OA
HETATM   14  C18 UNL     1      -4.092  -2.641   1.146  1.00  0.00     0.145 C 
HETATM   15  C19 UNL     1      -2.714  -2.886   1.624  1.00  0.00     0.034 C 
HETATM   16  C20 UNL     1      -1.836  -1.665   1.723  1.00  0.00     0.012 C 
HETATM   17  C21 UNL     1      -1.793  -0.936   0.358  1.00  0.00    -0.032 C 
HETATM   18  C22 UNL     1      -1.231  -1.962  -0.574  1.00  0.00     0.016 C 
HETATM   19  C23 UNL     1      -0.521   2.647  -0.166  1.00  0.00     0.077 C 
ENDROOT
BRANCH   2  20
HETATM   20  O3  UNL     1       2.616   0.821   0.117  1.00  0.00    -0.350 OA
BRANCH  20  21
HETATM   21  C5  UNL     1       3.644   0.524  -0.738  1.00  0.00     0.175 C 
BRANCH  21  22
HETATM   22  C6  UNL     1       3.533  -0.716  -1.547  1.00  0.00     0.028 C 
BRANCH  22  23
HETATM   23  C7  UNL     1       3.486  -1.995  -0.740  1.00  0.00     0.029 C 
BRANCH  23  24
HETATM   24  C8  UNL     1       4.735  -2.171   0.098  1.00  0.00     0.230 C 
BRANCH  24  25
HETATM   25  N1  UNL     1       4.598  -3.413   0.829  1.00  0.00    -0.079 N 
ATOM     26  H13 UNL     1       3.740  -3.458   1.379  1.00  0.00     0.274 HD
ATOM     27  H12 UNL     1       4.410  -4.212   0.223  1.00  0.00     0.274 HD
ATOM     28  H11 UNL     1       5.439  -3.532   1.393  1.00  0.00     0.274 HD
ENDBRANCH  24  25
ENDBRANCH  23  24
ENDBRANCH  22  23
ENDBRANCH  21  22
ENDBRANCH  20  21
ENDBRANCH   2  20
BRANCH   1  29
HETATM   29  O2  UNL     1       1.797   3.270   0.563  1.00  0.00    -0.281 OA
BRANCH  29  30
HETATM   30  C2  UNL     1       2.507   4.031  -0.340  1.00  0.00     0.259 C 
HETATM   31  C1  UNL     1       3.532   5.035   0.027  1.00  0.00     0.126 C 
HETATM   32  O1  UNL     1       2.251   3.843  -1.549  1.00  0.00    -0.265 OA
ENDBRANCH  29  30
ENDBRANCH   1  29
BRANCH   3  33
HETATM   33  O4  UNL     1      -0.111   0.656  -1.879  1.00  0.00    -0.388 OA
ATOM     34  H4  UNL     1      -0.788   0.071  -2.198  1.00  0.00     0.210 HD
ENDBRANCH   3  33
TORSDOF 9
