REMARK  9 active torsions:
REMARK  status: ('A' for Active; 'I' for Inactive)
REMARK    1  A    between atoms: C4_4  and  C5_5 
REMARK    2  A    between atoms: C5_5  and  N1_6 
REMARK    3  A    between atoms: N1_6  and  C6_8 
REMARK    4  A    between atoms: C10_14  and  C11_15 
REMARK    5  A    between atoms: C14_21  and  C15_22 
REMARK    6  A    between atoms: C15_22  and  C16_24 
REMARK    7  A    between atoms: C19_27  and  N4_28 
REMARK    8  A    between atoms: N4_28  and  C20_30 
REMARK    9  A    between atoms: C20_30  and  C21_31 
ROOT
HETATM    1  C11 UNL     1      -1.043  -1.252  -0.058  1.00  0.00     0.066 A 
HETATM    2  C12 UNL     1      -0.992  -1.829   1.175  1.00  0.00     0.148 A 
HETATM    3  N2  UNL     1       0.072  -1.273   1.844  1.00  0.00    -0.247 N 
HETATM    4  N3  UNL     1       0.544  -1.488   3.058  1.00  0.00    -0.303 N 
ATOM      5  H3  UNL     1       0.071  -2.178   3.641  1.00  0.00     0.186 HD
HETATM    6  C13 UNL     1       1.591  -0.863   3.561  1.00  0.00     0.125 A 
HETATM    7  C14 UNL     1       2.286   0.100   2.806  1.00  0.00     0.058 A 
HETATM    8  C19 UNL     1       1.789   0.328   1.522  1.00  0.00     0.093 A 
HETATM    9  C27 UNL     1       0.674  -0.371   1.055  1.00  0.00     0.155 A 
HETATM   10  N6  UNL     1      -0.025  -0.382  -0.089  1.00  0.00    -0.337 N 
ATOM     11  H6  UNL     1       0.194   0.206  -0.893  1.00  0.00     0.167 HD
ENDROOT
BRANCH   1  12
HETATM   12  C10 UNL     1      -2.012  -1.529  -1.122  1.00  0.00     0.055 A 
HETATM   13  C9  UNL     1      -1.754  -2.512  -2.056  1.00  0.00     0.052 A 
HETATM   14  C8  UNL     1      -2.662  -2.780  -3.062  1.00  0.00     0.069 A 
HETATM   15 CL1  UNL     1      -0.272  -3.460  -2.011  1.00  0.00    -0.083 Cl
HETATM   16  C7  UNL     1      -3.835  -2.066  -3.140  1.00  0.00     0.147 A 
HETATM   17  C6  UNL     1      -4.063  -1.092  -2.193  1.00  0.00     0.107 A 
HETATM   18  F1  UNL     1      -4.717  -2.344  -4.138  1.00  0.00    -0.204 F 
HETATM   19  C28 UNL     1      -3.178  -0.796  -1.173  1.00  0.00     0.160 A 
HETATM   20  F2  UNL     1      -3.470   0.185  -0.267  1.00  0.00    -0.203 F 
BRANCH  17  21
HETATM   21  N1  UNL     1      -5.285  -0.352  -2.279  1.00  0.00    -0.382 N 
ATOM     22  H1  UNL     1      -5.336   0.508  -2.824  1.00  0.00     0.160 HD
BRANCH  21  23
HETATM   23  C5  UNL     1      -6.433  -0.846  -1.583  1.00  0.00     0.147 C 
BRANCH  23  24
HETATM   24  C4  UNL     1      -7.613   0.028  -1.775  1.00  0.00    -0.005 C 
HETATM   25  C2  UNL     1      -8.226   0.620  -0.759  1.00  0.00    -0.090 C 
HETATM   26  C1  UNL     1      -7.731   0.413   0.632  1.00  0.00     0.042 C 
HETATM   27  C3  UNL     1      -9.411   1.491  -0.992  1.00  0.00     0.042 C 
ENDBRANCH  23  24
ENDBRANCH  21  23
ENDBRANCH  17  21
ENDBRANCH   1  12
BRANCH   8  28
HETATM   28  N4  UNL     1       2.394   1.148   0.803  1.00  0.00    -0.365 N 
ATOM     29  H4  UNL     1       3.202   1.554   1.275  1.00  0.00     0.165 HD
BRANCH  28  30
HETATM   30  C20 UNL     1       2.235   1.636  -0.471  1.00  0.00     0.066 C 
BRANCH  30  31
HETATM   31  C21 UNL     1       3.330   1.302  -1.484  1.00  0.00     0.027 C 
HETATM   32  C22 UNL     1       4.676   1.798  -1.101  1.00  0.00     0.040 C 
HETATM   33  C23 UNL     1       5.688   0.741  -0.776  1.00  0.00     0.272 C 
HETATM   34  N5  UNL     1       5.083  -0.433  -0.177  1.00  0.00     0.084 N 
HETATM   35  C24 UNL     1       6.147  -1.406   0.005  1.00  0.00     0.309 C 
HETATM   36  C25 UNL     1       4.078  -1.021  -1.006  1.00  0.00     0.272 C 
HETATM   37  C26 UNL     1       3.362  -0.106  -1.930  1.00  0.00     0.040 C 
ENDBRANCH  30  31
ENDBRANCH  28  30
ENDBRANCH   8  28
BRANCH   7  38
HETATM   38  C15 UNL     1       3.387   0.789   3.378  1.00  0.00     0.167 C 
HETATM   39  O1  UNL     1       3.958   0.231   4.400  1.00  0.00    -0.292 OA
BRANCH  38  40
HETATM   40  C16 UNL     1       3.981   2.062   2.983  1.00  0.00     0.061 A 
HETATM   41  C17 UNL     1       4.822   2.825   3.960  1.00  0.00     0.013 A 
HETATM   42  C18 UNL     1       5.504   2.062   2.882  1.00  0.00     0.013 A 
ENDBRANCH  38  40
ENDBRANCH   7  38
TORSDOF 9
