REMARK  7 active torsions:
REMARK  status: ('A' for Active; 'I' for Inactive)
REMARK    1  A    between atoms: N1_2  and  C2_3 
REMARK    2  A    between atoms: N1_2  and  S1_10 
REMARK    3  A    between atoms: C2_3  and  C3_4 
REMARK    4  A    between atoms: C2_3  and  C6_7 
REMARK    5  A    between atoms: S1_10  and  N2_13 
REMARK    6  A    between atoms: C12_17  and  C13_18 
REMARK       I    between atoms: C13_18  and  N3_20 
REMARK    7  A    between atoms: N3_20  and  C14_22 
ROOT
HETATM    1  N2  UNL     1       0.543  -0.074  -0.031  1.00  0.00    -0.197 NA
HETATM    2  C9  UNL     1       0.444  -1.290  -0.785  1.00  0.00     0.108 C 
HETATM    3  C10 UNL     1       1.810  -1.861  -1.091  1.00  0.00     0.016 C 
HETATM    4  C11 UNL     1       2.760  -0.701  -1.282  1.00  0.00     0.016 C 
HETATM    5  C12 UNL     1       2.982  -0.116   0.104  1.00  0.00     0.092 C 
HETATM    6  C17 UNL     1       1.673  -0.042   0.862  1.00  0.00     0.122 C 
ENDROOT
BRANCH   1   7
HETATM    7  S1  UNL     1      -0.950   0.280   0.694  1.00  0.00     0.283 S 
HETATM    8  O1  UNL     1      -1.316  -0.931   1.546  1.00  0.00    -0.194 OA
HETATM    9  O2  UNL     1      -0.802   1.497   1.560  1.00  0.00    -0.194 OA
BRANCH   7  10
HETATM   10  N1  UNL     1      -2.197   0.529  -0.416  1.00  0.00    -0.196 NA
HETATM   11  C1  UNL     1      -2.268   1.873  -0.931  1.00  0.00     0.131 C 
BRANCH  10  12
HETATM   12  C2  UNL     1      -3.467  -0.013  -0.058  1.00  0.00     0.083 C 
BRANCH  12  13
HETATM   13  C3  UNL     1      -3.978  -0.996  -1.029  1.00  0.00     0.005 A 
HETATM   14  C4  UNL     1      -3.238  -2.287  -1.349  1.00  0.00     0.007 A 
HETATM   15  C5  UNL     1      -4.554  -2.310  -0.675  1.00  0.00     0.007 A 
ENDBRANCH  12  13
BRANCH  12  16
HETATM   16  C6  UNL     1      -4.411   1.115   0.243  1.00  0.00     0.005 A 
HETATM   17  C7  UNL     1      -5.807   0.895   0.646  1.00  0.00     0.007 A 
HETATM   18  C8  UNL     1      -5.484   1.545  -0.688  1.00  0.00     0.007 A 
ENDBRANCH  12  16
ENDBRANCH  10  12
ENDBRANCH   7  10
ENDBRANCH   1   7
BRANCH   5  19
HETATM   19  C13 UNL     1       3.651   1.178  -0.013  1.00  0.00     0.229 C 
HETATM   20  O3  UNL     1       3.089   2.207   0.435  1.00  0.00    -0.273 OA
HETATM   21  N3  UNL     1       4.924   1.323  -0.616  1.00  0.00    -0.307 N 
ATOM     22  H3  UNL     1       4.983   1.601  -1.596  1.00  0.00     0.171 HD
BRANCH  21  23
HETATM   23  C14 UNL     1       6.030   1.107   0.059  1.00  0.00     0.150 A 
HETATM   24  N4  UNL     1       6.140   0.741   1.334  1.00  0.00    -0.346 N 
HETATM   25  C15 UNL     1       7.338   0.571   1.837  1.00  0.00     0.097 A 
ATOM     26  H4  UNL     1       5.309   0.596   1.908  1.00  0.00     0.167 HD
HETATM   27  C16 UNL     1       8.409   0.786   1.007  1.00  0.00     0.070 A 
HETATM   28  S2  UNL     1       7.645   1.219  -0.454  1.00  0.00    -0.064 SA
ENDBRANCH  21  23
ENDBRANCH   5  19
TORSDOF 7
