REMARK  3 active torsions:
REMARK  status: ('A' for Active; 'I' for Inactive)
REMARK    1  A    between atoms: N2_4  and  N3_6 
REMARK    2  A    between atoms: C1_8  and  N4_9 
REMARK    3  A    between atoms: C3_11  and  C4_12 
ROOT
HETATM    1  N3  UNL     1       1.833   0.652   0.364  1.00  0.00    -0.282 N 
ATOM      2  H3  UNL     1       1.153   1.321   0.726  1.00  0.00     0.189 HD
HETATM    3  C1  UNL     1       1.415  -0.424  -0.208  1.00  0.00     0.197 C 
ENDROOT
BRANCH   3   4
HETATM    4  N4  UNL     1       0.016  -0.616  -0.300  1.00  0.00    -0.363 N 
HETATM    5  C2  UNL     1      -1.096  -1.638  -0.190  1.00  0.00     0.155 A 
HETATM    6  C3  UNL     1      -1.340  -0.175  -0.523  1.00  0.00     0.141 A 
BRANCH   6   7
HETATM    7  C4  UNL     1      -2.049   0.562   0.542  1.00  0.00     0.080 C 
HETATM    8  N5  UNL     1      -2.735   1.588   0.224  1.00  0.00    -0.409 N 
ATOM      9  H52 UNL     1      -2.783   1.881  -0.752  1.00  0.00     0.155 HD
ATOM     10  H51 UNL     1      -3.225   2.097   0.960  1.00  0.00     0.155 HD
ENDBRANCH   6   7
ENDBRANCH   3   4
BRANCH   1  11
HETATM   11  N2  UNL     1       3.193   0.923   0.500  1.00  0.00    -0.248 N 
HETATM   12  N1  UNL     1       3.600   2.112   0.380  1.00  0.00    -0.331 N 
ATOM     13  H12 UNL     1       2.928   2.854   0.186  1.00  0.00     0.178 HD
ATOM     14  H11 UNL     1       4.596   2.310   0.480  1.00  0.00     0.178 HD
ATOM     15  H2  UNL     1       3.852   0.169   0.694  1.00  0.00     0.207 HD
ENDBRANCH   1  11
TORSDOF 3
