REMARK  4 active torsions:
REMARK  status: ('A' for Active; 'I' for Inactive)
REMARK    1  A    between atoms: N2_4  and  N3_6 
REMARK    2  A    between atoms: N3_6  and  C1_8 
REMARK    3  A    between atoms: N4_9  and  C2_11 
REMARK    4  A    between atoms: C2_11  and  C3_12 
ROOT
HETATM    1  N3  UNL     1       2.466  -0.724  -0.340  1.00  0.00    -0.283 N 
ATOM      2  H3  UNL     1       2.507  -1.577  -0.897  1.00  0.00     0.189 HD
ENDROOT
BRANCH   1   3
HETATM    3  N2  UNL     1       3.648  -0.248   0.226  1.00  0.00    -0.248 N 
HETATM    4  N1  UNL     1       3.653  -0.005   1.469  1.00  0.00    -0.331 N 
ATOM      5  H12 UNL     1       2.811  -0.158   2.024  1.00  0.00     0.178 HD
ATOM      6  H11 UNL     1       4.518   0.343   1.883  1.00  0.00     0.178 HD
ATOM      7  H2  UNL     1       4.482  -0.100  -0.343  1.00  0.00     0.207 HD
ENDBRANCH   1   3
BRANCH   1   8
HETATM    8  C1  UNL     1       1.206  -0.084  -0.182  1.00  0.00     0.194 C 
HETATM    9  N4  UNL     1       0.717   0.066   0.983  1.00  0.00    -0.385 N 
ATOM     10  H4  UNL     1       1.269  -0.290   1.763  1.00  0.00     0.160 HD
BRANCH   9  11
HETATM   11  C2  UNL     1      -0.527   0.683   1.304  1.00  0.00     0.125 C 
BRANCH  11  12
HETATM   12  C3  UNL     1      -1.454   0.686   0.117  1.00  0.00     0.003 A 
HETATM   13  C4  UNL     1      -1.818  -0.670  -0.439  1.00  0.00     0.007 A 
HETATM   14  C5  UNL     1      -2.845   0.193   0.220  1.00  0.00     0.007 A 
ENDBRANCH  11  12
ENDBRANCH   9  11
ENDBRANCH   1   8
TORSDOF 4
