REMARK  3 active torsions:
REMARK  status: ('A' for Active; 'I' for Inactive)
REMARK    1  A    between atoms: C4_4  and  C5_5 
REMARK    2  A    between atoms: C9_11  and  C10_12 
REMARK    3  A    between atoms: C12_16  and  O5_17 
ROOT
HETATM    1  C1  UNL     1       1.195   2.498  -0.011  1.00  0.00     0.011 C 
HETATM    2  C2  UNL     1       0.488   1.186   0.265  1.00  0.00     0.002 C 
HETATM    3  C3  UNL     1      -0.674   1.099  -0.678  1.00  0.00     0.026 C 
HETATM    4  C4  UNL     1      -1.589  -0.042  -0.441  1.00  0.00     0.052 C 
HETATM    5  C6  UNL     1      -1.251  -1.186  -1.385  1.00  0.00     0.028 C 
HETATM    6  C7  UNL     1      -0.011  -1.758  -0.706  1.00  0.00     0.022 C 
HETATM    7  C8  UNL     1       1.147  -0.867  -1.007  1.00  0.00     0.028 C 
HETATM    8  C9  UNL     1       1.390  -0.001   0.209  1.00  0.00     0.055 C 
HETATM    9  C11 UNL     1       0.995  -0.941   1.326  1.00  0.00     0.059 C 
HETATM   10  C12 UNL     1      -0.254  -1.584   0.781  1.00  0.00     0.064 C 
HETATM   11  C13 UNL     1      -1.448  -0.697   0.901  1.00  0.00     0.058 C 
ENDROOT
BRANCH   4  12
HETATM   12  C5  UNL     1      -2.997   0.380  -0.597  1.00  0.00     0.182 C 
HETATM   13  O1  UNL     1      -3.758  -0.133  -1.447  1.00  0.00    -0.647 OA
HETATM   14  O2  UNL     1      -3.488   1.375   0.223  1.00  0.00    -0.647 OA
ENDBRANCH   4  12
BRANCH  10  15
HETATM   15  O5  UNL     1      -0.435  -2.813   1.420  1.00  0.00    -0.389 OA
ATOM     16  H5  UNL     1      -0.587  -2.704   2.351  1.00  0.00     0.210 HD
ENDBRANCH  10  15
BRANCH   8  17
HETATM   17  C10 UNL     1       2.809   0.276   0.296  1.00  0.00     0.182 C 
HETATM   18  O3  UNL     1       3.471  -0.217   1.240  1.00  0.00    -0.647 OA
HETATM   19  O4  UNL     1       3.503   1.065  -0.611  1.00  0.00    -0.647 OA
ENDBRANCH   8  17
TORSDOF 3
