REMARK  7 active torsions:
REMARK  status: ('A' for Active; 'I' for Inactive)
REMARK    1  A    between atoms: C2_2  and  C3_3 
REMARK    2  A    between atoms: C3_3  and  C4_4 
REMARK    3  A    between atoms: C7_8  and  C8_9 
REMARK    4  A    between atoms: C11_13  and  C12_14 
REMARK    5  A    between atoms: C12_14  and  C13_15 
REMARK    6  A    between atoms: C14_16  and  O1_17 
REMARK    7  A    between atoms: C15_21  and  O2_22 
ROOT
HETATM    1  C4  UNL     1      -0.331   0.959   0.371  1.00  0.00    -0.010 A 
HETATM    2  C5  UNL     1      -1.510   1.718   0.532  1.00  0.00     0.057 A 
HETATM    3  C6  UNL     1      -2.745   1.156   0.346  1.00  0.00     0.140 A 
HETATM    4  F1  UNL     1      -3.897   1.875   0.499  1.00  0.00    -0.204 F 
HETATM    5  C7  UNL     1      -2.769  -0.181  -0.006  1.00  0.00     0.050 A 
HETATM    6  N1  UNL     1      -1.650  -0.893  -0.159  1.00  0.00    -0.351 N 
HETATM    7  C10 UNL     1      -1.838  -2.273  -0.595  1.00  0.00     0.156 C 
HETATM    8  C11 UNL     1      -0.384  -0.357   0.024  1.00  0.00     0.045 A 
ENDROOT
BRANCH   8   9
HETATM    9  C12 UNL     1       0.613  -1.127  -0.125  1.00  0.00     0.047 C 
BRANCH   9  10
HETATM   10  C13 UNL     1       2.030  -1.139  -0.054  1.00  0.00     0.027 A 
HETATM   11  C14 UNL     1       2.896  -0.930  -1.129  1.00  0.00     0.153 A 
HETATM   12  N2  UNL     1       4.168  -1.067  -0.717  1.00  0.00    -0.317 N 
HETATM   13  C15 UNL     1       4.194  -1.360   0.592  1.00  0.00     0.148 A 
ATOM     14  H2  UNL     1       4.991  -0.964  -1.311  1.00  0.00     0.170 HD
HETATM   15  C16 UNL     1       2.893  -1.406   1.008  1.00  0.00     0.003 A 
HETATM   16  C17 UNL     1       2.426  -1.695   2.375  1.00  0.00     0.054 C 
BRANCH  11  17
HETATM   17  O1  UNL     1       2.494  -0.625  -2.430  1.00  0.00    -0.345 OA
ATOM     18  H1  UNL     1       3.083  -0.483  -3.161  1.00  0.00     0.219 HD
ENDBRANCH  11  17
BRANCH  13  19
HETATM   19  O2  UNL     1       5.339  -1.577   1.384  1.00  0.00    -0.346 OA
ATOM     20  H2  UNL     1       5.357  -1.784   2.311  1.00  0.00     0.219 HD
ENDBRANCH  13  19
ENDBRANCH   9  10
ENDBRANCH   8   9
BRANCH   1  21
HETATM   21  C3  UNL     1       0.771   1.605   0.573  1.00  0.00    -0.013 C 
BRANCH  21  22
HETATM   22  C2  UNL     1       0.791   3.076   0.959  1.00  0.00     0.023 C 
HETATM   23  C1  UNL     1       0.655   3.918  -0.287  1.00  0.00     0.009 C 
ENDBRANCH  21  22
ENDBRANCH   1  21
BRANCH   5  24
HETATM   24  C8  UNL     1      -4.137  -0.747  -0.182  1.00  0.00     0.056 C 
HETATM   25  C9  UNL     1      -4.705  -0.387  -1.524  1.00  0.00     0.011 C 
ENDBRANCH   5  24
TORSDOF 7
