REMARK  0 active torsions:
REMARK  status: ('A' for Active; 'I' for Inactive)
ROOT
HETATM    1  C1  UNL     1       3.085   0.660   0.464  1.00  0.00     0.011 C 
HETATM    2  C2  UNL     1       2.494   0.000  -0.736  1.00  0.00    -0.001 C 
HETATM    3  C3  UNL     1       2.270  -1.469  -0.484  1.00  0.00     0.008 C 
HETATM    4  C4  UNL     1       1.129  -1.626   0.516  1.00  0.00     0.026 C 
HETATM    5  C5  UNL     1      -0.119  -1.136  -0.167  1.00  0.00     0.089 C 
HETATM    6  C6  UNL     1      -1.288  -1.390   0.743  1.00  0.00     0.067 C 
HETATM    7  C7  UNL     1      -2.603  -0.977   0.116  1.00  0.00     0.119 C 
HETATM    8 CL1  UNL     1      -3.884  -2.137   0.532  1.00  0.00    -0.101 Cl
HETATM    9 CL2  UNL     1      -2.396  -0.818  -1.627  1.00  0.00    -0.101 Cl
HETATM   10  C8  UNL     1      -2.964   0.372   0.687  1.00  0.00     0.086 C 
HETATM   11  C9  UNL     1      -2.056   1.438   0.241  1.00  0.00     0.015 A 
HETATM   12  C10 UNL     1      -2.407   2.759   0.283  1.00  0.00     0.178 A 
HETATM   13  O1  UNL     1      -1.402   3.441  -0.173  1.00  0.00    -0.248 OA
HETATM   14  N1  UNL     1      -0.417   2.638  -0.508  1.00  0.00    -0.245 N 
ATOM     15  H1  UNL     1       0.481   2.933  -0.891  1.00  0.00     0.196 HD
HETATM   16  C11 UNL     1      -0.782   1.360  -0.265  1.00  0.00     0.132 A 
HETATM   17  N2  UNL     1       0.055   0.238  -0.516  1.00  0.00    -0.360 N 
HETATM   18  C12 UNL     1       1.233   0.635  -1.235  1.00  0.00     0.129 C 
ENDROOT
TORSDOF 0
