REMARK  11 active torsions:
REMARK  status: ('A' for Active; 'I' for Inactive)
REMARK    1  A    between atoms: N2_5  and  C4_6 
REMARK    2  A    between atoms: N6_15  and  C7_16 
REMARK    3  A    between atoms: N8_25  and  C14_26 
REMARK    4  A    between atoms: C14_26  and  C15_27 
REMARK    5  A    between atoms: C15_27  and  C16_28 
REMARK    6  A    between atoms: C16_28  and  C17_29 
REMARK    7  A    between atoms: C17_29  and  C18_30 
REMARK    8  A    between atoms: C18_30  and  N9_31 
REMARK    9  A    between atoms: N10_34  and  C21_35 
REMARK   10  A    between atoms: C21_35  and  C22_36 
REMARK   11  A    between atoms: C22_36  and  O1_37 
ROOT
HETATM    1  C7  UNL     1       2.667  -1.221  -2.207  1.00  0.00     0.062 A 
HETATM    2  C8  UNL     1       2.128  -1.853  -1.110  1.00  0.00     0.034 A 
HETATM    3  C9  UNL     1       1.089  -1.242  -0.446  1.00  0.00     0.034 A 
HETATM    4  C10 UNL     1       0.585  -0.025  -0.856  1.00  0.00     0.062 A 
HETATM    5  C11 UNL     1       1.148   0.578  -1.957  1.00  0.00     0.062 A 
HETATM    6  C12 UNL     1       2.196  -0.008  -2.650  1.00  0.00     0.063 A 
HETATM    7  N7  UNL     1       0.470   1.739  -2.129  1.00  0.00    -0.350 N 
ATOM      8  H7  UNL     1       0.648   2.421  -2.866  1.00  0.00     0.166 HD
HETATM    9  C13 UNL     1      -0.470   1.852  -1.181  1.00  0.00     0.183 A 
HETATM   10  N8  UNL     1      -0.409   0.781  -0.398  1.00  0.00    -0.341 N 
ENDROOT
BRANCH   1  11
HETATM   11  N6  UNL     1       3.735  -1.844  -2.893  1.00  0.00    -0.223 N 
HETATM   12  N5  UNL     1       3.650  -2.787  -3.816  1.00  0.00    -0.233 N 
HETATM   13  N4  UNL     1       4.859  -3.118  -4.225  1.00  0.00    -0.281 N 
ATOM     14  H5  UNL     1       2.781  -3.196  -4.159  1.00  0.00     0.209 HD
HETATM   15  C6  UNL     1       5.765  -2.388  -3.566  1.00  0.00     0.111 A 
ATOM     16  H4  UNL     1       5.070  -3.821  -4.933  1.00  0.00     0.188 HD
HETATM   17  C5  UNL     1       7.137  -2.295  -3.566  1.00  0.00     0.141 A 
HETATM   18  C25 UNL     1       5.040  -1.574  -2.715  1.00  0.00     0.173 A 
HETATM   19  N3  UNL     1       7.736  -1.420  -2.743  1.00  0.00    -0.199 N 
HETATM   20  C4  UNL     1       7.053  -0.621  -1.910  1.00  0.00     0.681 A 
ATOM     21  H3  UNL     1       8.754  -1.360  -2.751  1.00  0.00     0.183 HD
HETATM   22  N11 UNL     1       5.714  -0.709  -1.907  1.00  0.00    -0.172 N 
ATOM     23  H11 UNL     1       5.182  -0.107  -1.278  1.00  0.00     0.186 HD
BRANCH  20  24
HETATM   24  N2  UNL     1       7.686   0.294  -1.051  1.00  0.00    -0.214 N 
HETATM   25  C3  UNL     1       6.933   1.132  -0.157  1.00  0.00     0.171 C 
HETATM   26  C2  UNL     1       7.501   0.923   1.228  1.00  0.00     0.292 C 
HETATM   27  N1  UNL     1       8.915   1.118   1.295  1.00  0.00     0.087 N 
HETATM   28  C1  UNL     1       9.343   0.662   2.628  1.00  0.00     0.310 C 
HETATM   29  C27 UNL     1       9.669   0.353   0.343  1.00  0.00     0.292 C 
HETATM   30  C26 UNL     1       9.120   0.406  -1.055  1.00  0.00     0.171 C 
ENDBRANCH  20  24
ENDBRANCH   1  11
BRANCH  10  31
HETATM   31  C14 UNL     1      -1.222   0.445   0.767  1.00  0.00     0.130 C 
BRANCH  31  32
HETATM   32  C15 UNL     1      -2.438  -0.349   0.291  1.00  0.00     0.021 C 
BRANCH  32  33
HETATM   33  C16 UNL     1      -3.317  -0.724   1.472  1.00  0.00     0.007 C 
BRANCH  33  34
HETATM   34  C17 UNL     1      -3.842   0.433   2.227  1.00  0.00     0.044 C 
BRANCH  34  35
HETATM   35  C18 UNL     1      -4.730   1.356   1.491  1.00  0.00     0.058 C 
BRANCH  35  36
HETATM   36  N9  UNL     1      -5.955   0.888   1.053  1.00  0.00    -0.390 N 
HETATM   37  C19 UNL     1      -6.158  -0.029   0.041  1.00  0.00     0.152 C 
HETATM   38  C20 UNL     1      -7.387   0.303  -0.835  1.00  0.00     0.292 C 
HETATM   39  N10 UNL     1      -8.535   0.631   0.020  1.00  0.00     0.093 N 
HETATM   40  C23 UNL     1      -8.205   1.658   0.956  1.00  0.00     0.292 C 
HETATM   41  C24 UNL     1      -7.063   1.270   1.871  1.00  0.00     0.152 C 
BRANCH  39  42
HETATM   42  C21 UNL     1      -9.012  -0.595   0.575  1.00  0.00     0.298 C 
BRANCH  42  43
HETATM   43  C22 UNL     1     -10.195  -0.339   1.452  1.00  0.00     0.194 C 
BRANCH  43  44
HETATM   44  O1  UNL     1     -10.600  -1.598   1.946  1.00  0.00    -0.399 OA
ATOM     45  H1  UNL     1     -11.352  -1.435   2.503  1.00  0.00     0.209 HD
ENDBRANCH  43  44
ENDBRANCH  42  43
ENDBRANCH  39  42
ENDBRANCH  35  36
ENDBRANCH  34  35
ENDBRANCH  33  34
ENDBRANCH  32  33
ENDBRANCH  31  32
ENDBRANCH  10  31
TORSDOF 11
