REMARK  6 active torsions:
REMARK  status: ('A' for Active; 'I' for Inactive)
REMARK    1  A    between atoms: N2_7  and  N3_8 
REMARK    2  A    between atoms: N4_11  and  C3_12 
REMARK    3  A    between atoms: C3_12  and  C4_13 
REMARK    4  A    between atoms: C4_13  and  C5_14 
REMARK    5  A    between atoms: C5_14  and  C6_15 
REMARK    6  A    between atoms: C6_15  and  O2_16 
ROOT
HETATM    1  N1  UNL     1      -3.684   1.711  -0.918  1.00  0.00    -0.393 N 
ATOM      2  H11 UNL     1      -4.529   1.261  -1.269  1.00  0.00     0.156 HD
ATOM      3  H12 UNL     1      -3.483   2.707  -1.006  1.00  0.00     0.156 HD
HETATM    4  C1  UNL     1      -2.791   1.000  -0.321  1.00  0.00     0.126 C 
HETATM    5  C2  UNL     1      -1.578   1.646   0.182  1.00  0.00     0.310 C 
HETATM    6  O1  UNL     1      -1.678   2.895   0.257  1.00  0.00    -0.262 OA
HETATM    7  N2  UNL     1      -0.353   1.037   0.576  1.00  0.00    -0.145 N 
HETATM    8  N4  UNL     1       0.062  -0.227   0.293  1.00  0.00    -0.209 N 
HETATM    9  N5  UNL     1      -0.878  -1.227   0.515  1.00  0.00    -0.268 N 
ATOM     10  H5  UNL     1      -0.501  -2.012   1.046  1.00  0.00     0.190 HD
HETATM   11  C7  UNL     1      -2.245  -1.404   0.170  1.00  0.00     0.159 C 
HETATM   12  N6  UNL     1      -2.799  -2.712   0.206  1.00  0.00    -0.079 NA
HETATM   13  C8  UNL     1      -3.081  -0.439  -0.194  1.00  0.00     0.120 C 
HETATM   14  N7  UNL     1      -4.397  -0.808  -0.498  1.00  0.00    -0.096 NA
ENDROOT
BRANCH   8  15
HETATM   15  C3  UNL     1       0.843  -0.425  -0.875  1.00  0.00     0.172 C 
BRANCH  15  16
HETATM   16  C4  UNL     1       2.186   0.213  -0.785  1.00  0.00     0.026 C 
BRANCH  16  17
HETATM   17  C5  UNL     1       3.004  -0.387   0.309  1.00  0.00     0.028 C 
BRANCH  17  18
HETATM   18  C6  UNL     1       4.365   0.309   0.372  1.00  0.00     0.164 C 
BRANCH  18  19
HETATM   19  O2  UNL     1       4.970   0.110  -0.863  1.00  0.00    -0.401 OA
ATOM     20  H2  UNL     1       5.815   0.542  -0.824  1.00  0.00     0.209 HD
ENDBRANCH  18  19
ENDBRANCH  17  18
ENDBRANCH  16  17
ENDBRANCH  15  16
ENDBRANCH   8  15
BRANCH   7  21
HETATM   21  N3  UNL     1       0.474   1.848   1.327  1.00  0.00    -0.319 N 
ATOM     22  H32 UNL     1       0.163   2.796   1.539  1.00  0.00     0.179 HD
ATOM     23  H31 UNL     1       1.352   1.412   1.609  1.00  0.00     0.179 HD
ENDBRANCH   7  21
TORSDOF 6
