REMARK  10 active torsions:
REMARK  status: ('A' for Active; 'I' for Inactive)
REMARK    1  A    between atoms: C4_7  and  S1_8 
REMARK    2  A    between atoms: S1_8  and  C5_9 
REMARK    3  A    between atoms: C5_9  and  C6_10 
REMARK    4  A    between atoms: N3_11  and  C7_13 
REMARK    5  A    between atoms: C8_16  and  N5_17 
REMARK       I    between atoms: N8_28  and  C13_29 
REMARK    6  A    between atoms: C14_32  and  C15_33 
REMARK    7  A    between atoms: C15_33  and  C16_38 
REMARK    8  A    between atoms: N10_34  and  O3_36 
REMARK    9  A    between atoms: C16_38  and  N11_39 
REMARK   10  A    between atoms: C16_38  and  C17_43 
ROOT
HETATM    1  C5  UNL     1      -0.004  -0.228   0.053  1.00  0.00     0.125 C 
ENDROOT
BRANCH   1   2
HETATM    2  S1  UNL     1      -1.620   0.262  -0.549  1.00  0.00    -0.105 SA
BRANCH   2   3
HETATM    3  C4  UNL     1      -2.974  -0.655   0.092  1.00  0.00     0.101 A 
HETATM    4  N2  UNL     1      -3.000  -1.670   0.966  1.00  0.00    -0.289 N 
HETATM    5  N1  UNL     1      -4.241  -2.038   1.144  1.00  0.00    -0.302 N 
HETATM    6  C3  UNL     1      -1.802  -2.229   1.587  1.00  0.00     0.178 C 
HETATM    7  C2  UNL     1      -5.097  -1.269   0.380  1.00  0.00     0.037 A 
ATOM      8  H1  UNL     1      -4.538  -2.792   1.764  1.00  0.00     0.187 HD
HETATM    9  C1  UNL     1      -6.572  -1.520   0.347  1.00  0.00     0.070 C 
HETATM   10  C14 UNL     1      -4.309  -0.392  -0.286  1.00  0.00     0.050 A 
BRANCH  10  11
HETATM   11  C15 UNL     1      -4.727   0.686  -1.179  1.00  0.00     0.087 C 
HETATM   12  N10 UNL     1      -3.734   1.358  -1.729  1.00  0.00    -0.270 N 
ATOM     13  H10 UNL     1      -2.776   1.090  -1.504  1.00  0.00     0.194 HD
BRANCH  12  14
HETATM   14  O3  UNL     1      -3.937   2.376  -2.569  1.00  0.00    -0.290 OA
ATOM     15  H3  UNL     1      -3.222   2.860  -2.965  1.00  0.00     0.244 HD
ENDBRANCH  12  14
BRANCH  11  16
HETATM   16  C16 UNL     1      -6.049   1.206  -1.444  1.00  0.00     0.335 C 
BRANCH  16  17
HETATM   17  N11 UNL     1      -6.159   1.737  -2.795  1.00  0.00    -0.060 N 
ATOM     18 3H11 UNL     1      -5.440   2.437  -2.979  1.00  0.00     0.275 HD
ATOM     19 2H11 UNL     1      -5.886   1.043  -3.491  1.00  0.00     0.275 HD
ATOM     20 1H11 UNL     1      -7.092   2.104  -2.982  1.00  0.00     0.275 HD
ENDBRANCH  16  17
BRANCH  16  21
HETATM   21  C17 UNL     1      -6.611   2.124  -0.433  1.00  0.00     0.210 C 
HETATM   22  O4  UNL     1      -7.363   3.054  -0.815  1.00  0.00    -0.646 OA
HETATM   23  O5  UNL     1      -6.329   1.985   0.896  1.00  0.00    -0.646 OA
ENDBRANCH  16  21
ENDBRANCH  11  16
ENDBRANCH  10  11
ENDBRANCH   2   3
ENDBRANCH   1   2
BRANCH   1  24
HETATM   24  C6  UNL     1       1.005   0.703  -0.636  1.00  0.00     0.073 C 
HETATM   25  N3  UNL     1       2.328   0.538  -0.346  1.00  0.00    -0.353 N 
ATOM     26  H3  UNL     1       2.832   1.241  -0.886  1.00  0.00     0.166 HD
BRANCH  25  27
HETATM   27  C7  UNL     1       3.174  -0.090   0.283  1.00  0.00     0.151 A 
HETATM   28  N4  UNL     1       2.986  -1.117   1.134  1.00  0.00    -0.174 N 
HETATM   29  C8  UNL     1       4.020  -1.712   1.756  1.00  0.00     0.679 A 
ATOM     30  H4  UNL     1       2.039  -1.451   1.311  1.00  0.00     0.186 HD
HETATM   31  N6  UNL     1       5.292  -1.351   1.593  1.00  0.00    -0.174 N 
HETATM   32  C9  UNL     1       5.551  -0.325   0.752  1.00  0.00     0.166 A 
ATOM     33  H6  UNL     1       6.044  -1.832   2.086  1.00  0.00     0.186 HD
HETATM   34  C10 UNL     1       4.523   0.300   0.104  1.00  0.00     0.129 A 
HETATM   35  N8  UNL     1       6.726   0.238   0.406  1.00  0.00    -0.199 N 
HETATM   36  N7  UNL     1       5.075   1.266  -0.653  1.00  0.00    -0.297 N 
HETATM   37  C11 UNL     1       4.325   2.178  -1.512  1.00  0.00     0.161 C 
HETATM   38  C12 UNL     1       6.402   1.223  -0.467  1.00  0.00     0.338 A 
HETATM   39  O1  UNL     1       7.194   2.027  -1.059  1.00  0.00    -0.246 OA
HETATM   40  C13 UNL     1       8.046  -0.042   0.793  1.00  0.00     0.344 C 
HETATM   41  N9  UNL     1       8.475  -1.037   1.686  1.00  0.00    -0.039 NA
HETATM   42  O2  UNL     1       9.008   0.657   0.308  1.00  0.00    -0.250 OA
BRANCH  29  43
HETATM   43  N5  UNL     1       3.781  -2.693   2.561  1.00  0.00    -0.234 N 
ATOM     44  H52 UNL     1       2.807  -2.969   2.686  1.00  0.00     0.174 HD
ATOM     45  H51 UNL     1       4.565  -3.144   3.033  1.00  0.00     0.174 HD
ENDBRANCH  29  43
ENDBRANCH  25  27
ENDBRANCH   1  24
TORSDOF 10
