REMARK  5 active torsions:
REMARK  status: ('A' for Active; 'I' for Inactive)
REMARK    1  A    between atoms: C4_5  and  C5_6 
REMARK    2  A    between atoms: C5_6  and  N1_7 
REMARK    3  A    between atoms: N1_7  and  N2_9 
REMARK    4  A    between atoms: C6_14  and  C7_15 
REMARK    5  A    between atoms: C7_15  and  N4_16 
REMARK       I    between atoms: N4_16  and  C8_18 
ROOT
HETATM    1  C1  UNL     1      -2.935  -1.579  -0.023  1.00  0.00     0.078 C 
HETATM    2  C2  UNL     1      -1.409  -1.529  -0.035  1.00  0.00     0.158 C 
HETATM    3  C3  UNL     1      -0.920  -2.939  -0.113  1.00  0.00     0.078 C 
HETATM    4  O1  UNL     1      -1.011  -0.856   1.107  1.00  0.00    -0.346 OA
HETATM    5  C4  UNL     1      -0.588   0.403   0.721  1.00  0.00     0.175 C 
HETATM    6  C6  UNL     1      -0.023   0.101  -0.671  1.00  0.00     0.173 C 
HETATM    7  O2  UNL     1      -0.924  -0.827  -1.131  1.00  0.00    -0.346 OA
ENDROOT
BRANCH   5   8
HETATM    8  C5  UNL     1      -1.739   1.371   0.522  1.00  0.00     0.175 C 
BRANCH   8   9
HETATM    9  N1  UNL     1      -1.165   2.643   0.123  1.00  0.00    -0.320 N 
ATOM     10  H1  UNL     1      -0.158   2.766   0.022  1.00  0.00     0.181 HD
BRANCH   9  11
HETATM   11  N2  UNL     1      -2.059   3.692  -0.116  1.00  0.00    -0.254 N 
HETATM   12  N3  UNL     1      -3.042   3.802   0.676  1.00  0.00    -0.331 N 
ATOM     13  H32 UNL     1      -3.162   3.147   1.448  1.00  0.00     0.178 HD
ATOM     14  H31 UNL     1      -3.694   4.567   0.502  1.00  0.00     0.178 HD
ATOM     15  H2  UNL     1      -1.926   4.339  -0.893  1.00  0.00     0.207 HD
ENDBRANCH   9  11
ENDBRANCH   8   9
ENDBRANCH   5   8
BRANCH   6  16
HETATM   16  C7  UNL     1       1.367  -0.473  -0.480  1.00  0.00     0.157 C 
BRANCH  16  17
HETATM   17  N4  UNL     1       2.241   0.578   0.005  1.00  0.00    -0.362 N 
HETATM   18  C8  UNL     1       3.611   0.311   0.270  1.00  0.00     0.181 C 
HETATM   19  N5  UNL     1       4.184   0.946   1.215  1.00  0.00    -0.374 N 
HETATM   20  N6  UNL     1       4.279  -0.644  -0.522  1.00  0.00    -0.064 NA
ATOM     21  H52 UNL     1       3.700   1.637   1.788  1.00  0.00     0.158 HD
ATOM     22  H51 UNL     1       5.168   0.754   1.405  1.00  0.00     0.158 HD
ATOM     23  H4  UNL     1       1.869   1.516   0.157  1.00  0.00     0.162 HD
ENDBRANCH  16  17
ENDBRANCH   6  16
TORSDOF 5
