REMARK  12 active torsions:
REMARK  status: ('A' for Active; 'I' for Inactive)
REMARK    1  A    between atoms: C2_2  and  N1_4 
REMARK    2  A    between atoms: N2_7  and  C6_8 
REMARK    3  A    between atoms: C9_11  and  N3_12 
REMARK    4  A    between atoms: N3_12  and  C10_14 
REMARK    5  A    between atoms: C13_19  and  C14_20 
REMARK       I    between atoms: C14_20  and  N5_22 
REMARK    6  A    between atoms: N5_22  and  C15_24 
REMARK    7  A    between atoms: C15_24  and  C16_25 
REMARK    8  A    between atoms: C16_25  and  N6_26 
REMARK    9  A    between atoms: C25_37  and  N8_38 
REMARK   10  A    between atoms: N8_38  and  C26_40 
REMARK   11  A    between atoms: C26_40  and  C27_41 
REMARK   12  A    between atoms: C27_41  and  C28_42 
ROOT
HETATM    1  C10 UNL     1       0.876   2.856   0.762  1.00  0.00     0.151 A 
HETATM    2  N4  UNL     1      -0.004   1.975   0.260  1.00  0.00    -0.338 N 
ATOM      3  H4  UNL     1       0.319   1.034   0.035  1.00  0.00     0.167 HD
HETATM    4  C11 UNL     1      -1.303   2.286   0.041  1.00  0.00     0.061 A 
HETATM    5  C12 UNL     1      -2.208   1.392  -0.484  1.00  0.00     0.049 A 
HETATM    6  C13 UNL     1      -3.539   1.676  -0.732  1.00  0.00     0.034 A 
HETATM    7  C22 UNL     1      -3.984   2.926  -0.436  1.00  0.00     0.019 A 
HETATM    8  C23 UNL     1      -3.099   3.881   0.105  1.00  0.00     0.033 A 
HETATM    9  C24 UNL     1      -1.783   3.549   0.333  1.00  0.00     0.060 A 
HETATM   10  N7  UNL     1      -0.917   4.465   0.844  1.00  0.00    -0.338 N 
ATOM     11  H7  UNL     1      -1.241   5.405   1.070  1.00  0.00     0.167 HD
HETATM   12  C25 UNL     1       0.360   4.129   1.049  1.00  0.00     0.146 A 
ENDROOT
BRANCH   1  13
HETATM   13  N3  UNL     1       2.091   2.593   0.964  1.00  0.00    -0.337 N 
ATOM     14  H3  UNL     1       2.643   3.359   1.350  1.00  0.00     0.167 HD
BRANCH  13  15
HETATM   15  C9  UNL     1       2.798   1.400   0.736  1.00  0.00     0.074 A 
HETATM   16  C8  UNL     1       3.301   0.644   1.796  1.00  0.00     0.035 A 
HETATM   17  C7  UNL     1       4.007  -0.519   1.596  1.00  0.00     0.033 A 
HETATM   18  C6  UNL     1       4.251  -0.996   0.300  1.00  0.00     0.055 A 
HETATM   19  C32 UNL     1       3.762  -0.264  -0.750  1.00  0.00     0.101 A 
HETATM   20  C31 UNL     1       3.047   0.915  -0.530  1.00  0.00     0.167 A 
HETATM   21 CL1  UNL     1       4.070  -0.837  -2.377  1.00  0.00    -0.079 Cl
HETATM   22  F1  UNL     1       2.615   1.562  -1.627  1.00  0.00    -0.202 F 
BRANCH  18  23
HETATM   23  N2  UNL     1       4.982  -2.207   0.192  1.00  0.00    -0.376 N 
HETATM   24  C5  UNL     1       4.312  -3.386  -0.293  1.00  0.00     0.153 C 
HETATM   25  C4  UNL     1       5.162  -4.631  -0.254  1.00  0.00     0.292 C 
HETATM   26  N1  UNL     1       6.161  -4.488   0.752  1.00  0.00     0.095 N 
HETATM   27  C34 UNL     1       7.084  -3.448   0.278  1.00  0.00     0.292 C 
HETATM   28  C33 UNL     1       6.374  -2.141   0.588  1.00  0.00     0.153 C 
BRANCH  26  29
HETATM   29  C2  UNL     1       6.853  -5.679   1.127  1.00  0.00     0.215 C 
HETATM   30  C1  UNL     1       7.643  -6.312  -0.003  1.00  0.00     0.042 C 
HETATM   31  C3  UNL     1       5.978  -6.661   1.853  1.00  0.00     0.042 C 
ENDBRANCH  26  29
ENDBRANCH  18  23
ENDBRANCH  13  15
ENDBRANCH   1  13
BRANCH  12  32
HETATM   32  N8  UNL     1       1.188   4.988   1.533  1.00  0.00    -0.373 N 
ATOM     33  H8  UNL     1       2.158   4.709   1.681  1.00  0.00     0.161 HD
BRANCH  32  34
HETATM   34  C26 UNL     1       0.789   6.331   1.873  1.00  0.00     0.127 C 
BRANCH  34  35
HETATM   35  C27 UNL     1       0.775   7.241   0.688  1.00  0.00     0.078 C 
BRANCH  35  36
HETATM   36  C28 UNL     1       0.354   8.600   1.117  1.00  0.00     0.027 A 
HETATM   37  C29 UNL     1       0.241   9.668   0.273  1.00  0.00     0.114 A 
HETATM   38  N9  UNL     1      -0.158  10.728   0.984  1.00  0.00    -0.360 N 
HETATM   39  C30 UNL     1      -0.291  10.313   2.266  1.00  0.00     0.180 A 
ATOM     40  H9  UNL     1      -0.329  11.669   0.629  1.00  0.00     0.166 HD
HETATM   41  N10 UNL     1       0.022   9.015   2.342  1.00  0.00    -0.355 N 
ATOM     42  H10 UNL     1       0.009   8.443   3.186  1.00  0.00     0.166 HD
ENDBRANCH  35  36
ENDBRANCH  34  35
ENDBRANCH  32  34
ENDBRANCH  12  32
BRANCH   6  43
HETATM   43  C14 UNL     1      -4.401   0.628  -1.314  1.00  0.00     0.251 C 
HETATM   44  O1  UNL     1      -3.769  -0.368  -1.782  1.00  0.00    -0.268 OA
HETATM   45  N5  UNL     1      -5.782   0.800  -1.309  1.00  0.00    -0.355 N 
ATOM     46  H5  UNL     1      -6.089   1.674  -0.883  1.00  0.00     0.162 HD
BRANCH  45  47
HETATM   47  C15 UNL     1      -6.852  -0.018  -1.789  1.00  0.00     0.153 C 
BRANCH  47  48
HETATM   48  C16 UNL     1      -7.045  -1.364  -1.187  1.00  0.00     0.292 C 
BRANCH  48  49
HETATM   49  N6  UNL     1      -6.012  -2.280  -1.470  1.00  0.00     0.090 N 
HETATM   50  C17 UNL     1      -6.016  -2.748  -2.846  1.00  0.00     0.272 C 
HETATM   51  C18 UNL     1      -6.038  -4.264  -2.943  1.00  0.00     0.030 C 
HETATM   52  C19 UNL     1      -7.237  -4.721  -2.120  1.00  0.00     0.003 C 
HETATM   53  C20 UNL     1      -6.881  -4.448  -0.680  1.00  0.00     0.030 C 
HETATM   54  C21 UNL     1      -5.877  -3.350  -0.520  1.00  0.00     0.272 C 
ENDBRANCH  48  49
ENDBRANCH  47  48
ENDBRANCH  45  47
ENDBRANCH   6  43
TORSDOF 12
