REMARK  1 active torsions:
REMARK  status: ('A' for Active; 'I' for Inactive)
REMARK    1  A    between atoms: O1_1  and  C1_3 
ROOT
HETATM    1  C1  UNL     1       3.792  -0.817  -0.426  1.00  0.00     0.079 A 
HETATM    2  C2  UNL     1       4.932   0.012  -0.444  1.00  0.00     0.037 A 
HETATM    3  C3  UNL     1       4.770   1.352  -0.293  1.00  0.00     0.005 A 
HETATM    4  C4  UNL     1       3.538   1.900  -0.126  1.00  0.00     0.030 A 
HETATM    5  C5  UNL     1       2.405   1.104  -0.105  1.00  0.00     0.048 A 
HETATM    6  N1  UNL     1       1.179   1.585   0.055  1.00  0.00    -0.341 N 
ATOM      7  H1  UNL     1       1.067   2.592   0.168  1.00  0.00     0.167 HD
HETATM    8  C6  UNL     1       0.077   0.816   0.076  1.00  0.00     0.123 A 
HETATM    9  C7  UNL     1      -1.161   1.376   0.245  1.00  0.00     0.020 A 
HETATM   10  C8  UNL     1      -1.260   2.757   0.395  1.00  0.00     0.016 A 
HETATM   11  C9  UNL     1      -2.482   3.369   0.568  1.00  0.00     0.001 A 
HETATM   12  C10 UNL     1      -3.593   2.581   0.588  1.00  0.00     0.001 A 
HETATM   13  C11 UNL     1      -3.549   1.210   0.444  1.00  0.00     0.013 A 
HETATM   14  C12 UNL     1      -2.321   0.616   0.273  1.00  0.00    -0.010 A 
HETATM   15  C13 UNL     1      -2.167  -0.747   0.119  1.00  0.00     0.002 A 
HETATM   16  C14 UNL     1      -3.272  -1.536   0.139  1.00  0.00     0.014 A 
HETATM   17  C15 UNL     1      -3.209  -2.922  -0.008  1.00  0.00     0.001 A 
HETATM   18  C16 UNL     1      -1.968  -3.461  -0.176  1.00  0.00     0.002 A 
HETATM   19  C17 UNL     1      -0.818  -2.681  -0.200  1.00  0.00     0.031 A 
HETATM   20  C18 UNL     1      -0.891  -1.320  -0.054  1.00  0.00     0.051 A 
HETATM   21  N2  UNL     1       0.208  -0.522  -0.072  1.00  0.00    -0.306 N 
HETATM   22  C19 UNL     1       1.432  -1.056  -0.237  1.00  0.00     0.115 A 
HETATM   23  C20 UNL     1       2.556  -0.254  -0.257  1.00  0.00     0.040 A 
ENDROOT
BRANCH   1  24
HETATM   24  O1  UNL     1       3.996  -2.170  -0.583  1.00  0.00    -0.360 OA
ATOM     25  H1  UNL     1       3.228  -2.729  -0.571  1.00  0.00     0.217 HD
ENDBRANCH   1  24
TORSDOF 1
