REMARK  1 active torsions:
REMARK  status: ('A' for Active; 'I' for Inactive)
REMARK    1  A    between atoms: N2_18  and  O1_19 
ROOT
HETATM    1  N1  UNL     1       0.560   3.588   1.229  1.00  0.00    -0.397 N 
ATOM      2  H11 UNL     1       1.483   4.021   1.255  1.00  0.00     0.156 HD
ATOM      3  H12 UNL     1      -0.206   4.180   1.552  1.00  0.00     0.156 HD
HETATM    4  C1  UNL     1       0.313   2.411   0.838  1.00  0.00     0.057 A 
HETATM    5  C2  UNL     1      -1.013   1.789   0.800  1.00  0.00     0.044 A 
HETATM    6  C3  UNL     1      -1.178   0.553   0.376  1.00  0.00    -0.012 A 
HETATM    7  C4  UNL     1      -0.123  -0.259  -0.068  1.00  0.00    -0.011 A 
HETATM    8  C5  UNL     1      -0.368  -1.533  -0.495  1.00  0.00     0.014 A 
HETATM    9  C6  UNL     1      -1.683  -2.014  -0.483  1.00  0.00     0.013 A 
HETATM   10  C7  UNL     1      -2.698  -1.215  -0.049  1.00  0.00    -0.025 A 
HETATM   11  C8  UNL     1      -3.997  -1.690  -0.037  1.00  0.00     0.012 A 
HETATM   12  C9  UNL     1      -5.068  -0.932   0.389  1.00  0.00     0.001 A 
HETATM   13  C10 UNL     1      -4.854   0.357   0.826  1.00  0.00     0.001 A 
HETATM   14  C11 UNL     1      -3.562   0.840   0.818  1.00  0.00     0.013 A 
HETATM   15  C12 UNL     1      -2.488   0.081   0.391  1.00  0.00    -0.015 A 
HETATM   16  C13 UNL     1       1.123   0.202  -0.078  1.00  0.00     0.019 A 
HETATM   17  C14 UNL     1       1.412   1.562   0.375  1.00  0.00     0.101 A 
HETATM   18  N2  UNL     1       2.670   1.761   0.268  1.00  0.00    -0.221 N 
HETATM   19  C15 UNL     1       3.335   0.625  -0.238  1.00  0.00     0.074 A 
HETATM   20  C16 UNL     1       4.682   0.399  -0.511  1.00  0.00     0.033 A 
HETATM   21  C17 UNL     1       5.057  -0.829  -1.009  1.00  0.00     0.002 A 
HETATM   22  C18 UNL     1       4.157  -1.830  -1.244  1.00  0.00     0.001 A 
HETATM   23  C19 UNL     1       2.826  -1.602  -0.973  1.00  0.00     0.015 A 
HETATM   24  C20 UNL     1       2.403  -0.392  -0.474  1.00  0.00     0.007 A 
ENDROOT
BRANCH  18  25
HETATM   25  O1  UNL     1       3.256   2.980   0.627  1.00  0.00    -0.282 OA
ATOM     26  H1  UNL     1       4.191   3.128   0.547  1.00  0.00     0.245 HD
ENDBRANCH  18  25
TORSDOF 1
