REMARK  4 active torsions:
REMARK  status: ('A' for Active; 'I' for Inactive)
REMARK    1  A    between atoms: C6_8  and  C7_9 
REMARK    2  A    between atoms: N2_19  and  C13_20 
REMARK    3  A    between atoms: C13_20  and  C14_21 
REMARK    4  A    between atoms: C14_21  and  N3_22 
ROOT
HETATM    1  C1  UNL     1      -4.440  -3.242  -1.137  1.00  0.00     0.034 C 
HETATM    2  C2  UNL     1      -3.183  -2.423  -1.476  1.00  0.00     0.046 C 
HETATM    3 CL1  UNL     1      -3.181  -2.333  -3.277  1.00  0.00    -0.118 Cl
HETATM    4  C3  UNL     1      -2.020  -3.255  -1.088  1.00  0.00     0.106 C 
HETATM    5  S1  UNL     1      -0.535  -2.294  -1.600  1.00  0.00    -0.108 SA
HETATM    6  C4  UNL     1      -0.778  -0.724  -0.829  1.00  0.00     0.096 A 
HETATM    7  C5  UNL     1      -2.060  -0.334  -0.622  1.00  0.00     0.008 A 
HETATM    8  C6  UNL     1      -1.965   0.912  -0.009  1.00  0.00     0.069 A 
HETATM    9  N1  UNL     1      -0.670   1.174   0.105  1.00  0.00    -0.296 N 
ATOM     10  H1  UNL     1      -0.289   2.025   0.520  1.00  0.00     0.187 HD
HETATM   11  N2  UNL     1       0.065   0.191  -0.388  1.00  0.00    -0.283 N 
HETATM   12  C20 UNL     1      -3.282  -1.056  -0.963  1.00  0.00     0.070 C 
ENDROOT
BRANCH   8  13
HETATM   13  C7  UNL     1      -3.022   1.794   0.446  1.00  0.00     0.014 A 
HETATM   14  C8  UNL     1      -4.023   2.241  -0.375  1.00  0.00     0.017 A 
HETATM   15  C9  UNL     1      -5.028   3.091   0.074  1.00  0.00     0.025 A 
HETATM   16  C10 UNL     1      -5.011   3.490   1.383  1.00  0.00     0.035 A 
HETATM   17 CL2  UNL     1      -6.247   4.559   2.010  1.00  0.00    -0.084 Cl
HETATM   18  C11 UNL     1      -3.998   3.041   2.222  1.00  0.00     0.048 A 
HETATM   19  C12 UNL     1      -3.002   2.194   1.764  1.00  0.00     0.048 A 
HETATM   20 CL3  UNL     1      -1.763   1.675   2.889  1.00  0.00    -0.083 Cl
ENDBRANCH   8  13
BRANCH  11  21
HETATM   21  C13 UNL     1       1.487   0.271  -0.359  1.00  0.00     0.169 C 
BRANCH  21  22
HETATM   22  C14 UNL     1       2.201  -0.237   0.799  1.00  0.00     0.138 C 
BRANCH  22  23
HETATM   23  N3  UNL     1       3.629  -0.106   0.705  1.00  0.00    -0.411 N 
HETATM   24  C15 UNL     1       4.284  -0.896  -0.269  1.00  0.00     0.117 C 
HETATM   25  C16 UNL     1       5.680  -1.227   0.282  1.00  0.00     0.019 C 
HETATM   26  C17 UNL     1       6.336   0.078   0.601  1.00  0.00     0.003 C 
HETATM   27  C18 UNL     1       5.533   1.274   0.134  1.00  0.00     0.019 C 
HETATM   28  C19 UNL     1       4.136   1.226   0.726  1.00  0.00     0.117 C 
ENDBRANCH  22  23
ENDBRANCH  21  22
ENDBRANCH  11  21
TORSDOF 4
