REMARK  2 active torsions:
REMARK  status: ('A' for Active; 'I' for Inactive)
REMARK    1  A    between atoms: N1_1  and  C1_4 
REMARK    2  A    between atoms: C2_7  and  C3_8 
ROOT
HETATM    1  C3  UNL     1       1.532  -0.192  -0.059  1.00  0.00     0.057 A 
HETATM    2  S1  UNL     1       0.599  -1.625  -0.314  1.00  0.00    -0.090 SA
HETATM    3  C4  UNL     1      -0.959  -0.957  -0.227  1.00  0.00    -0.008 A 
HETATM    4  C5  UNL     1      -0.715   0.357  -0.004  1.00  0.00    -0.019 A 
HETATM    5  C6  UNL     1       0.591   0.750   0.083  1.00  0.00     0.073 A 
HETATM    6  N3  UNL     1       0.945   2.147   0.323  1.00  0.00    -0.100 NA
HETATM    7  C7  UNL     1      -1.841   1.367   0.147  1.00  0.00     0.042 C 
HETATM    8  C8  UNL     1      -2.987   0.998  -0.746  1.00  0.00     0.005 C 
HETATM    9  C9  UNL     1      -3.953   0.079  -0.038  1.00  0.00     0.001 C 
HETATM   10  C10 UNL     1      -3.270  -1.130   0.543  1.00  0.00     0.005 C 
HETATM   11  C11 UNL     1      -2.241  -1.723  -0.377  1.00  0.00     0.046 C 
ENDROOT
BRANCH   1  12
HETATM   12  C2  UNL     1       3.034  -0.107  -0.020  1.00  0.00     0.059 A 
HETATM   13  N2  UNL     1       3.766  -1.194  -0.190  1.00  0.00    -0.335 N 
HETATM   14  C1  UNL     1       5.082  -1.086  -0.150  1.00  0.00     0.142 A 
ATOM     15  H2  UNL     1       3.323  -2.099  -0.349  1.00  0.00     0.168 HD
HETATM   16  S2  UNL     1       5.346   0.563   0.131  1.00  0.00    -0.064 SA
HETATM   17  C12 UNL     1       3.700   1.063   0.187  1.00  0.00     0.084 A 
BRANCH  14  18
HETATM   18  N1  UNL     1       5.962  -2.060  -0.298  1.00  0.00    -0.380 N 
ATOM     19  H12 UNL     1       5.803  -3.053  -0.467  1.00  0.00     0.158 HD
ATOM     20  H11 UNL     1       6.978  -1.977  -0.267  1.00  0.00     0.158 HD
ENDBRANCH  14  18
ENDBRANCH   1  12
TORSDOF 2
