REMARK  6 active torsions:
REMARK  status: ('A' for Active; 'I' for Inactive)
REMARK    1  A    between atoms: C2_2  and  C4_4 
REMARK    2  A    between atoms: C4_4  and  C5_5 
REMARK    3  A    between atoms: C5_5  and  C6_6 
REMARK    4  A    between atoms: C5_5  and  N1_8 
REMARK       I    between atoms: N1_8  and  C7_10 
REMARK       I    between atoms: C7_10  and  N2_12 
REMARK    5  A    between atoms: N2_12  and  C8_14 
REMARK    6  A    between atoms: C8_14  and  C10_16 
REMARK       I    between atoms: C10_16  and  N3_18 
ROOT
HETATM    1  N1  UNL     1      -1.294  -0.628  -0.694  1.00  0.00    -0.336 N 
ATOM      2  H1  UNL     1      -1.337  -1.606  -0.979  1.00  0.00     0.164 HD
HETATM    3  C7  UNL     1      -0.077  -0.078  -0.212  1.00  0.00     0.317 C 
HETATM    4  O1  UNL     1       0.023   1.123   0.151  1.00  0.00    -0.247 OA
HETATM    5  N2  UNL     1       1.081  -0.888  -0.127  1.00  0.00    -0.330 N 
ATOM      6  H2  UNL     1       1.036  -1.866  -0.413  1.00  0.00     0.165 HD
ENDROOT
BRANCH   1   7
HETATM    7  C5  UNL     1      -2.508   0.232  -0.781  1.00  0.00     0.115 C 
BRANCH   7   8
HETATM    8  C4  UNL     1      -3.443  -0.281   0.195  1.00  0.00     0.031 C 
BRANCH   8   9
HETATM    9  C2  UNL     1      -4.700   0.313   0.613  1.00  0.00    -0.021 C 
HETATM   10  C1  UNL     1      -5.807   0.496  -0.383  1.00  0.00     0.009 C 
HETATM   11  C3  UNL     1      -5.291  -0.649   1.682  1.00  0.00     0.009 C 
ENDBRANCH   8   9
ENDBRANCH   7   8
BRANCH   7  12
HETATM   12  C6  UNL     1      -2.820   0.476  -2.192  1.00  0.00     0.247 C 
HETATM   13  F1  UNL     1      -3.779   1.397  -2.495  1.00  0.00    -0.253 F 
ENDBRANCH   7  12
ENDBRANCH   1   7
BRANCH   5  14
HETATM   14  C8  UNL     1       2.315  -0.345   0.358  1.00  0.00     0.174 C 
HETATM   15  C9  UNL     1       2.757  -1.155   1.561  1.00  0.00     0.042 C 
BRANCH  14  16
HETATM   16  C10 UNL     1       3.391  -0.376  -0.670  1.00  0.00     0.242 C 
HETATM   17  O2  UNL     1       3.145  -0.839  -1.792  1.00  0.00    -0.271 OA
HETATM   18  N3  UNL     1       4.662   0.122  -0.349  1.00  0.00    -0.350 N 
HETATM   19  C11 UNL     1       5.351   0.727   0.791  1.00  0.00     0.127 C 
HETATM   20  C13 UNL     1       5.920   0.252  -1.074  1.00  0.00     0.127 C 
HETATM   21  C12 UNL     1       6.637   0.115   0.245  1.00  0.00     0.040 C 
ENDBRANCH  14  16
ENDBRANCH   5  14
TORSDOF 6
