REMARK  9 active torsions:
REMARK  status: ('A' for Active; 'I' for Inactive)
REMARK    1  A    between atoms: C2_2  and  C3_3 
REMARK    2  A    between atoms: C3_3  and  C4_4 
REMARK    3  A    between atoms: C5_5  and  C6_6 
REMARK    4  A    between atoms: C6_6  and  C7_7 
REMARK    5  A    between atoms: C9_9  and  O1_10 
REMARK    6  A    between atoms: O1_10  and  C10_11 
REMARK    7  A    between atoms: C10_11  and  C11_12 
REMARK    8  A    between atoms: C13_17  and  C14_18 
REMARK    9  A    between atoms: C15_19  and  N2_20 
ROOT
HETATM    1  O1  UNL     1      -0.797  -0.066   0.841  1.00  0.00    -0.379 OA
ENDROOT
BRANCH   1   2
HETATM    2  C9  UNL     1      -0.348   0.665  -0.267  1.00  0.00     0.167 C 
HETATM    3  C8  UNL     1       0.569  -0.098  -1.162  1.00  0.00     0.049 C 
HETATM    4  C7  UNL     1       1.713   0.624  -0.521  1.00  0.00     0.040 C 
HETATM    5  C16 UNL     1       0.765   1.602   0.044  1.00  0.00     0.013 C 
HETATM    6  N4  UNL     1       0.898   2.761   0.571  1.00  0.00    -0.403 N 
ATOM      7  H42 UNL     1       1.661   3.403   0.784  1.00  0.00     0.155 HD
ATOM      8  H41 UNL     1       0.242   3.438   0.962  1.00  0.00     0.155 HD
BRANCH   4   9
HETATM    9  C6  UNL     1       2.388  -0.257   0.520  1.00  0.00     0.037 C 
BRANCH   9  10
HETATM   10  C5  UNL     1       3.524   0.452   1.160  1.00  0.00    -0.030 C 
HETATM   11  C4  UNL     1       4.738  -0.001   1.101  1.00  0.00    -0.027 C 
BRANCH  11  12
HETATM   12  C3  UNL     1       5.260  -1.212   0.451  1.00  0.00     0.053 C 
BRANCH  12  13
HETATM   13  C2  UNL     1       6.264  -0.843  -0.580  1.00  0.00    -0.033 C 
HETATM   14  C1  UNL     1       6.550   0.420  -0.795  1.00  0.00     0.007 C 
ENDBRANCH  12  13
ENDBRANCH  11  12
ENDBRANCH   9  10
ENDBRANCH   4   9
ENDBRANCH   1   2
BRANCH   1  15
HETATM   15  C10 UNL     1      -2.163   0.013   0.948  1.00  0.00     0.185 C 
BRANCH  15  16
HETATM   16  C11 UNL     1      -2.879  -0.530  -0.239  1.00  0.00     0.128 C 
HETATM   17  C12 UNL     1      -2.669  -1.937  -0.587  1.00  0.00     0.226 C 
HETATM   18  O2  UNL     1      -1.798  -2.837  -0.608  1.00  0.00    -0.273 OA
HETATM   19  N1  UNL     1      -4.059  -1.974  -0.981  1.00  0.00    -0.352 N 
HETATM   20  C13 UNL     1      -4.289  -1.025   0.111  1.00  0.00     0.124 C 
ATOM     21  H1  UNL     1      -4.620  -2.444  -1.691  1.00  0.00     0.163 HD
BRANCH  20  22
HETATM   22  C14 UNL     1      -5.320  -0.021  -0.152  1.00  0.00     0.018 C 
HETATM   23  C15 UNL     1      -5.935   0.550   0.860  1.00  0.00     0.104 C 
BRANCH  23  24
HETATM   24  N2  UNL     1      -6.929   1.517   0.657  1.00  0.00    -0.319 N 
HETATM   25  N3  UNL     1      -8.110   1.116   0.369  1.00  0.00    -0.345 N 
ATOM     26  H32 UNL     1      -8.306   0.118   0.293  1.00  0.00     0.176 HD
ATOM     27  H31 UNL     1      -8.833   1.820   0.221  1.00  0.00     0.176 HD
ATOM     28  H2  UNL     1      -6.717   2.512   0.736  1.00  0.00     0.185 HD
ENDBRANCH  23  24
ENDBRANCH  20  22
ENDBRANCH  15  16
ENDBRANCH   1  15
TORSDOF 9
