REMARK  9 active torsions:
REMARK  status: ('A' for Active; 'I' for Inactive)
REMARK    1  A    between atoms: C2_2  and  C3_3 
REMARK    2  A    between atoms: C3_3  and  C4_4 
REMARK    3  A    between atoms: C4_4  and  C5_5 
REMARK    4  A    between atoms: C5_5  and  C6_6 
REMARK    5  A    between atoms: C6_6  and  C7_7 
REMARK    6  A    between atoms: C7_7  and  C8_8 
REMARK    7  A    between atoms: C8_8  and  C9_9 
REMARK    8  A    between atoms: C9_9  and  N1_10 
REMARK    9  A    between atoms: N1_10  and  C10_12 
REMARK       I    between atoms: N3_16  and  C12_18 
ROOT
HETATM    1  C10 UNL     1      -2.833   1.400  -0.881  1.00  0.00     0.698 A 
HETATM    2  N2  UNL     1      -3.406   0.415  -0.174  1.00  0.00    -0.022 N 
ATOM      3  H2  UNL     1      -2.807  -0.256   0.307  1.00  0.00     0.203 HD
HETATM    4  C11 UNL     1      -4.745   0.278  -0.074  1.00  0.00     0.703 A 
HETATM    5  N3  UNL     1      -5.325  -0.658   0.600  1.00  0.00    -0.163 N 
ATOM      6  H3  UNL     1      -6.341  -0.729   0.652  1.00  0.00     0.187 HD
HETATM    7  C12 UNL     1      -4.469  -1.595   1.273  1.00  0.00     0.200 C 
HETATM    8  N4  UNL     1      -4.018  -1.225   2.436  1.00  0.00    -0.373 N 
ATOM      9  H41 UNL     1      -3.410  -1.890   2.914  1.00  0.00     0.158 HD
ATOM     10  H42 UNL     1      -4.254  -0.324   2.851  1.00  0.00     0.158 HD
HETATM   11  N5  UNL     1      -4.142  -2.842   0.699  1.00  0.00    -0.063 NA
HETATM   12  N6  UNL     1      -5.481   1.214  -0.744  1.00  0.00    -0.140 N 
ATOM     13  H6  UNL     1      -6.499   1.158  -0.702  1.00  0.00     0.189 HD
HETATM   14  C13 UNL     1      -4.918   2.205  -1.456  1.00  0.00     0.354 A 
HETATM   15  O1  UNL     1      -5.617   3.055  -2.065  1.00  0.00    -0.245 OA
HETATM   16  N7  UNL     1      -3.577   2.307  -1.531  1.00  0.00    -0.136 N 
HETATM   17  C14 UNL     1      -2.977   3.385  -2.307  1.00  0.00     0.180 C 
ENDROOT
BRANCH   1  18
HETATM   18  N1  UNL     1      -1.555   1.504  -0.957  1.00  0.00    -0.225 N 
ATOM     19  H1  UNL     1      -1.169   2.271  -1.508  1.00  0.00     0.177 HD
BRANCH  18  20
HETATM   20  C9  UNL     1      -0.622   0.593  -0.304  1.00  0.00     0.138 C 
BRANCH  20  21
HETATM   21  C8  UNL     1       0.697   1.286  -0.250  1.00  0.00     0.020 C 
BRANCH  21  22
HETATM   22  C7  UNL     1       1.721   0.429   0.432  1.00  0.00     0.002 C 
BRANCH  22  23
HETATM   23  C6  UNL     1       1.909  -0.853  -0.328  1.00  0.00     0.000 C 
BRANCH  23  24
HETATM   24  C5  UNL     1       2.949  -1.761   0.312  1.00  0.00     0.000 C 
BRANCH  24  25
HETATM   25  C4  UNL     1       4.283  -1.096   0.374  1.00  0.00     0.004 C 
BRANCH  25  26
HETATM   26  C3  UNL     1       5.289  -2.042   1.010  1.00  0.00     0.026 C 
BRANCH  26  27
HETATM   27  C2  UNL     1       6.620  -1.418   1.088  1.00  0.00    -0.037 C 
HETATM   28  C1  UNL     1       6.793  -0.184   0.631  1.00  0.00     0.007 C 
ENDBRANCH  26  27
ENDBRANCH  25  26
ENDBRANCH  24  25
ENDBRANCH  23  24
ENDBRANCH  22  23
ENDBRANCH  21  22
ENDBRANCH  20  21
ENDBRANCH  18  20
ENDBRANCH   1  18
TORSDOF 9
