REMARK  3 active torsions:
REMARK  status: ('A' for Active; 'I' for Inactive)
REMARK    1  A    between atoms: C1_2  and  C2_5 
REMARK    2  A    between atoms: C3_9  and  N2_10 
REMARK    3  A    between atoms: N2_10  and  C4_12 
ROOT
HETATM    1  C2  UNL     1       4.056  -0.212  -0.334  1.00  0.00     0.177 A 
HETATM    2  N1  UNL     1       3.356  -0.764  -1.333  1.00  0.00    -0.240 N 
ATOM      3  H1  UNL     1       3.765  -1.233  -2.141  1.00  0.00     0.196 HD
HETATM    4  O1  UNL     1       2.093  -0.618  -1.128  1.00  0.00    -0.199 OA
HETATM    5  C3  UNL     1       1.904   0.016  -0.016  1.00  0.00     0.245 A 
HETATM    6  N3  UNL     1       3.130   0.281   0.499  1.00  0.00    -0.304 N 
ATOM      7  H3  UNL     1       3.316   0.773   1.373  1.00  0.00     0.171 HD
ENDROOT
BRANCH   5   8
HETATM    8  N2  UNL     1       0.833   0.380   0.593  1.00  0.00    -0.345 N 
ATOM      9  H2  UNL     1       1.020   0.871   1.467  1.00  0.00     0.164 HD
BRANCH   8  10
HETATM   10  C4  UNL     1      -0.513   0.253   0.325  1.00  0.00     0.038 C 
HETATM   11  C5  UNL     1      -1.255   1.594   0.322  1.00  0.00     0.036 C 
HETATM   12  C6  UNL     1      -2.577   1.176  -0.290  1.00  0.00    -0.011 C 
HETATM   13  C7  UNL     1      -3.306   0.167   0.575  1.00  0.00     0.009 C 
HETATM   14  C11 UNL     1      -2.057   0.467  -1.536  1.00  0.00     0.012 C 
HETATM   15  C8  UNL     1      -2.414  -1.011   0.880  1.00  0.00    -0.011 C 
HETATM   16  C9  UNL     1      -1.831  -1.638  -0.360  1.00  0.00     0.012 C 
HETATM   17  C12 UNL     1      -1.149  -0.483   1.537  1.00  0.00     0.036 C 
HETATM   18  C10 UNL     1      -1.002  -0.438  -0.884  1.00  0.00     0.014 C 
ENDBRANCH   8  10
ENDBRANCH   5   8
BRANCH   1  19
HETATM   19  C1  UNL     1       5.546  -0.135  -0.179  1.00  0.00     0.316 C 
HETATM   20  F1  UNL     1       6.142  -1.276  -0.706  1.00  0.00    -0.198 F 
HETATM   21 CL1  UNL     1       5.999   0.184   1.486  1.00  0.00    -0.058 Cl
HETATM   22 CL2  UNL     1       6.073   1.253  -1.161  1.00  0.00    -0.058 Cl
ENDBRANCH   1  19
TORSDOF 3
