REMARK  17 active torsions:
REMARK  status: ('A' for Active; 'I' for Inactive)
REMARK    1  A    between atoms: C2_2  and  C3_3 
REMARK    2  A    between atoms: C3_3  and  C4_4 
REMARK    3  A    between atoms: C4_4  and  C5_5 
REMARK    4  A    between atoms: C5_5  and  C6_6 
REMARK    5  A    between atoms: C6_6  and  C7_7 
REMARK    6  A    between atoms: C7_7  and  C8_8 
REMARK    7  A    between atoms: C8_8  and  C9_9 
REMARK    8  A    between atoms: C9_9  and  C10_10 
REMARK    9  A    between atoms: C10_10  and  N1_11 
REMARK   10  A    between atoms: N1_11  and  C11_12 
REMARK   11  A    between atoms: C11_12  and  C12_13 
REMARK       I    between atoms: C12_13  and  N2_15 
REMARK   12  A    between atoms: N2_15  and  C13_17 
REMARK   13  A    between atoms: C13_17  and  C14_18 
REMARK   14  A    between atoms: C14_18  and  N3_19 
REMARK   15  A    between atoms: C14_18  and  N4_23 
REMARK   16  A    between atoms: C21_34  and  C23_36 
REMARK   17  A    between atoms: C23_36  and  N6_37 
ROOT
HETATM    1  N1  UNL     1      -0.338   0.500   0.381  1.00  0.00    -0.035 N 
HETATM    2  C15 UNL     1       0.552   0.076  -0.646  1.00  0.00     0.241 C 
HETATM    3  C16 UNL     1       0.081  -1.274  -1.243  1.00  0.00     0.056 C 
HETATM    4  C17 UNL     1      -1.201  -0.951  -1.950  1.00  0.00     0.241 C 
HETATM    5  N5  UNL     1      -2.169  -0.447  -1.025  1.00  0.00    -0.042 N 
HETATM    6  C18 UNL     1      -3.157   0.276  -1.847  1.00  0.00     0.239 C 
HETATM    7  C19 UNL     1      -3.698  -0.552  -2.971  1.00  0.00     0.029 C 
HETATM    8  C20 UNL     1      -4.464  -1.723  -2.416  1.00  0.00     0.014 C 
HETATM    9  C21 UNL     1      -4.174  -1.972  -0.985  1.00  0.00    -0.004 C 
HETATM   10  C22 UNL     1      -5.340  -1.387  -0.164  1.00  0.00     0.018 C 
HETATM   11  C25 UNL     1      -2.863  -1.576  -0.446  1.00  0.00     0.250 C 
HETATM   12  C26 UNL     1      -1.735   0.396   0.005  1.00  0.00     0.473 C 
ENDROOT
BRANCH   1  13
HETATM   13  C10 UNL     1      -0.230  -0.317   1.567  1.00  0.00     0.240 C 
BRANCH  13  14
HETATM   14  C9  UNL     1       1.039  -0.822   2.067  1.00  0.00     0.028 C 
BRANCH  14  15
HETATM   15  C8  UNL     1       2.080   0.164   2.508  1.00  0.00     0.002 C 
BRANCH  15  16
HETATM   16  C7  UNL     1       3.295  -0.525   3.108  1.00  0.00     0.000 C 
BRANCH  16  17
HETATM   17  C6  UNL     1       4.019  -1.411   2.144  1.00  0.00     0.000 C 
BRANCH  17  18
HETATM   18  C5  UNL     1       4.585  -0.633   0.969  1.00  0.00     0.000 C 
BRANCH  18  19
HETATM   19  C4  UNL     1       5.313  -1.577   0.048  1.00  0.00     0.000 C 
BRANCH  19  20
HETATM   20  C3  UNL     1       5.888  -0.818  -1.127  1.00  0.00    -0.000 C 
BRANCH  20  21
HETATM   21  C2  UNL     1       6.865   0.252  -0.710  1.00  0.00    -0.005 C 
HETATM   22  C1  UNL     1       7.367   0.919  -1.994  1.00  0.00     0.005 C 
ENDBRANCH  20  21
ENDBRANCH  19  20
ENDBRANCH  18  19
ENDBRANCH  17  18
ENDBRANCH  16  17
ENDBRANCH  15  16
ENDBRANCH  14  15
ENDBRANCH  13  14
ENDBRANCH   1  13
BRANCH   1  23
HETATM   23  C11 UNL     1      -0.105   1.873   0.726  1.00  0.00     0.341 C 
BRANCH  23  24
HETATM   24  C12 UNL     1      -0.205   2.899  -0.319  1.00  0.00     0.243 C 
HETATM   25  O1  UNL     1      -0.483   2.708  -1.505  1.00  0.00    -0.272 OA
HETATM   26  N2  UNL     1       0.049   4.233   0.100  1.00  0.00    -0.356 N 
ATOM     27  H2  UNL     1       0.285   4.443   1.070  1.00  0.00     0.162 HD
BRANCH  26  28
HETATM   28  C13 UNL     1      -0.037   5.282  -0.889  1.00  0.00     0.184 C 
BRANCH  28  29
HETATM   29  C14 UNL     1       0.274   6.639  -0.297  1.00  0.00     0.395 C 
BRANCH  29  30
HETATM   30  N3  UNL     1       1.610   6.682   0.255  1.00  0.00    -0.049 N 
ATOM     31  H33 UNL     1       1.758   5.936   0.934  1.00  0.00     0.276 HD
ATOM     32  H32 UNL     1       2.308   6.407  -0.436  1.00  0.00     0.276 HD
ATOM     33  H31 UNL     1       1.820   7.597   0.654  1.00  0.00     0.276 HD
ENDBRANCH  29  30
BRANCH  29  34
HETATM   34  N4  UNL     1      -0.686   6.879   0.751  1.00  0.00    -0.049 N 
ATOM     35  H43 UNL     1      -1.652   6.794   0.435  1.00  0.00     0.276 HD
ATOM     36  H42 UNL     1      -0.710   6.135   1.449  1.00  0.00     0.276 HD
ATOM     37  H41 UNL     1      -0.476   7.794   1.150  1.00  0.00     0.276 HD
ENDBRANCH  29  34
ENDBRANCH  28  29
ENDBRANCH  26  28
ENDBRANCH  23  24
ENDBRANCH   1  23
BRANCH   9  38
HETATM   38  C23 UNL     1      -4.271  -3.503  -0.790  1.00  0.00     0.132 C 
BRANCH  38  39
HETATM   39  N6  UNL     1      -4.005  -3.871   0.560  1.00  0.00    -0.366 N 
HETATM   40  C24 UNL     1      -4.600  -4.836   1.169  1.00  0.00     0.196 C 
HETATM   41  N7  UNL     1      -5.583  -5.584   0.450  1.00  0.00    -0.067 NA
HETATM   42  N8  UNL     1      -4.339  -5.199   2.506  1.00  0.00    -0.067 NA
ATOM     43  H6  UNL     1      -3.302  -3.339   1.074  1.00  0.00     0.161 HD
ENDBRANCH  38  39
ENDBRANCH   9  38
TORSDOF 17
