REMARK  3 active torsions:
REMARK  status: ('A' for Active; 'I' for Inactive)
REMARK    1  A    between atoms: C2_2  and  O1_3 
REMARK    2  A    between atoms: C2_2  and  C3_6 
REMARK    3  A    between atoms: C4_7  and  N1_8 
ROOT
HETATM    1  C3  UNL     1       1.064   0.186  -0.227  1.00  0.00     0.226 C 
HETATM    2  C4  UNL     1      -0.353   0.265  -0.292  1.00  0.00     0.216 C 
HETATM    3  C8  UNL     1      -0.779   1.607   0.348  1.00  0.00     0.055 C 
HETATM    4  C9  UNL     1       0.245   2.665   0.347  1.00  0.00     0.134 C 
HETATM    5  N2  UNL     1       0.706   2.884  -1.012  1.00  0.00    -0.319 N 
ATOM      6  H2  UNL     1       0.501   3.669  -1.630  1.00  0.00     0.172 HD
HETATM    7  S1  UNL     1       1.668   1.520  -1.328  1.00  0.00     0.238 S 
HETATM    8  O2  UNL     1       3.085   1.768  -0.907  1.00  0.00    -0.205 OA
HETATM    9  O3  UNL     1       1.589   1.052  -2.746  1.00  0.00    -0.205 OA
ENDROOT
BRANCH   1  10
HETATM   10  C2  UNL     1       1.946  -0.921  -0.573  1.00  0.00     0.220 C 
HETATM   11  C1  UNL     1       1.837  -2.218   0.148  1.00  0.00     0.086 C 
HETATM   12  F1  UNL     1       2.058  -1.136  -1.968  1.00  0.00    -0.211 F 
BRANCH  10  13
HETATM   13  O1  UNL     1       3.304  -0.527  -0.323  1.00  0.00    -0.361 OA
ATOM     14  H1  UNL     1       3.374   0.301  -0.783  1.00  0.00     0.213 HD
ENDBRANCH  10  13
ENDBRANCH   1  10
BRANCH   2  15
HETATM   15  N1  UNL     1      -1.311  -0.622   0.245  1.00  0.00    -0.073 N 
HETATM   16  C5  UNL     1      -1.466  -1.906  -0.328  1.00  0.00     0.272 C 
HETATM   17  C6  UNL     1      -1.322  -0.736   1.692  1.00  0.00     0.272 C 
HETATM   18  C7  UNL     1      -2.616   0.056  -0.018  1.00  0.00     0.272 C 
ENDBRANCH   2  15
TORSDOF 3
