REMARK  12 active torsions:
REMARK  status: ('A' for Active; 'I' for Inactive)
REMARK    1  A    between atoms: C2_2  and  O1_3 
REMARK    2  A    between atoms: O1_3  and  C3_4 
REMARK    3  A    between atoms: C3_4  and  C4_6 
REMARK    4  A    between atoms: N2_11  and  C7_12 
REMARK    5  A    between atoms: C8_15  and  N4_16 
REMARK    6  A    between atoms: N4_16  and  C9_18 
REMARK    7  A    between atoms: C9_18  and  C10_19 
REMARK    8  A    between atoms: C10_19  and  N5_20 
REMARK    9  A    between atoms: N5_20  and  C11_22 
REMARK   10  A    between atoms: C12_25  and  N7_26 
REMARK   11  A    between atoms: C13_30  and  N9_31 
REMARK   12  A    between atoms: C15_43  and  C16_44 
ROOT
HETATM    1  C7  UNL     1      -2.746  -0.315  -1.192  1.00  0.00     0.706 A 
HETATM    2  N3  UNL     1      -1.440  -0.013  -1.144  1.00  0.00    -0.022 N 
ATOM      3  H3  UNL     1      -1.104   0.820  -1.627  1.00  0.00     0.203 HD
HETATM    4  C8  UNL     1      -0.561  -0.783  -0.473  1.00  0.00     0.694 A 
HETATM    5  N13 UNL     1      -0.995  -1.875   0.163  1.00  0.00    -0.175 N 
ATOM      6  H13 UNL     1      -0.329  -2.457   0.671  1.00  0.00     0.186 HD
HETATM    7  C15 UNL     1      -2.306  -2.224   0.145  1.00  0.00     0.148 A 
HETATM    8  N15 UNL     1      -3.134  -1.443  -0.524  1.00  0.00    -0.174 N 
ATOM      9  H15 UNL     1      -4.122  -1.696  -0.544  1.00  0.00     0.186 HD
ENDROOT
BRANCH   4  10
HETATM   10  N4  UNL     1       0.707  -0.453  -0.450  1.00  0.00    -0.224 N 
ATOM     11  H4  UNL     1       1.020   0.385  -0.940  1.00  0.00     0.177 HD
BRANCH  10  12
HETATM   12  C9  UNL     1       1.659  -1.260   0.259  1.00  0.00     0.158 C 
BRANCH  12  13
HETATM   13  C10 UNL     1       2.606  -1.985  -0.654  1.00  0.00     0.158 C 
BRANCH  13  14
HETATM   14  N5  UNL     1       3.397  -1.131  -1.498  1.00  0.00    -0.224 N 
ATOM     15  H5  UNL     1       3.259  -1.226  -2.504  1.00  0.00     0.177 HD
BRANCH  14  16
HETATM   16  C11 UNL     1       4.339  -0.181  -1.078  1.00  0.00     0.707 A 
HETATM   17  N6  UNL     1       4.591   0.010   0.222  1.00  0.00    -0.021 N 
HETATM   18  C12 UNL     1       5.475   0.899   0.676  1.00  0.00     0.727 A 
ATOM     19  H6  UNL     1       4.080  -0.554   0.901  1.00  0.00     0.203 HD
HETATM   20  N8  UNL     1       6.171   1.663  -0.208  1.00  0.00     0.202 N 
HETATM   21  C13 UNL     1       7.102   2.616  -0.063  1.00  0.00     0.727 A 
HETATM   22  C14 UNL     1       5.943   1.498  -1.546  1.00  0.00     0.748 A 
HETATM   23  N10 UNL     1       7.448   3.039  -1.323  1.00  0.00    -0.117 N 
HETATM   24  N11 UNL     1       6.746   2.361  -2.195  1.00  0.00    -0.116 N 
ATOM     25  H10 UNL     1       8.136   3.760  -1.542  1.00  0.00     0.206 HD
ATOM     26  H11 UNL     1       6.799   2.470  -3.208  1.00  0.00     0.206 HD
HETATM   27  N12 UNL     1       5.041   0.589  -1.947  1.00  0.00    -0.019 N 
ATOM     28  H12 UNL     1       4.876   0.472  -2.947  1.00  0.00     0.203 HD
BRANCH  18  29
HETATM   29  N7  UNL     1       5.674   1.036   1.964  1.00  0.00    -0.233 N 
ATOM     30  H72 UNL     1       5.152   0.463   2.627  1.00  0.00     0.174 HD
ATOM     31  H71 UNL     1       6.350   1.716   2.311  1.00  0.00     0.174 HD
ENDBRANCH  18  29
BRANCH  21  32
HETATM   32  N9  UNL     1       7.603   3.076   1.003  1.00  0.00    -0.232 N 
ATOM     33  H92 UNL     1       7.346   2.762   1.939  1.00  0.00     0.174 HD
ATOM     34  H91 UNL     1       8.312   3.801   1.113  1.00  0.00     0.174 HD
ENDBRANCH  21  32
ENDBRANCH  14  16
ENDBRANCH  13  14
ENDBRANCH  12  13
ENDBRANCH  10  12
ENDBRANCH   4  10
BRANCH   1  35
HETATM   35  N2  UNL     1      -3.726   0.451  -1.879  1.00  0.00    -0.135 N 
HETATM   36  C4  UNL     1      -4.319   1.589  -1.466  1.00  0.00     0.204 A 
HETATM   37  N1  UNL     1      -5.189   2.008  -2.398  1.00  0.00    -0.345 N 
HETATM   38  C5  UNL     1      -5.169   1.156  -3.410  1.00  0.00     0.108 A 
ATOM     39  H1  UNL     1      -5.769   2.845  -2.336  1.00  0.00     0.167 HD
HETATM   40  C6  UNL     1      -4.254   0.176  -3.093  1.00  0.00     0.134 A 
BRANCH  36  41
HETATM   41  C3  UNL     1      -4.010   2.222  -0.177  1.00  0.00     0.328 C 
HETATM   42  O2  UNL     1      -3.169   1.726   0.611  1.00  0.00    -0.256 OA
BRANCH  41  43
HETATM   43  O1  UNL     1      -4.630   3.394   0.229  1.00  0.00    -0.316 OA
BRANCH  43  44
HETATM   44  C2  UNL     1      -4.345   4.017   1.467  1.00  0.00     0.175 C 
HETATM   45  C1  UNL     1      -2.918   4.421   1.620  1.00  0.00     0.034 C 
ENDBRANCH  43  44
ENDBRANCH  41  43
ENDBRANCH  36  41
ENDBRANCH   1  35
BRANCH   7  46
HETATM   46  C16 UNL     1      -2.776  -3.407   0.832  1.00  0.00     0.024 A 
HETATM   47  C17 UNL     1      -1.843  -4.189   1.522  1.00  0.00     0.018 A 
HETATM   48  C18 UNL     1      -2.247  -5.323   2.189  1.00  0.00     0.018 A 
HETATM   49  C19 UNL     1      -3.571  -5.703   2.188  1.00  0.00     0.087 A 
HETATM   50  N14 UNL     1      -4.459  -4.953   1.528  1.00  0.00    -0.374 N 
HETATM   51  C20 UNL     1      -4.066  -3.823   0.862  1.00  0.00     0.102 A 
ATOM     52  H14 UNL     1      -5.442  -5.226   1.520  1.00  0.00     0.164 HD
ENDBRANCH   7  46
TORSDOF 12
