REMARK  11 active torsions:
REMARK  status: ('A' for Active; 'I' for Inactive)
REMARK    1  A    between atoms: N1_1  and  C1_4 
REMARK    2  A    between atoms: N5_17  and  C6_18 
REMARK    3  A    between atoms: C6_18  and  C7_19 
REMARK    4  A    between atoms: C7_19  and  C8_20 
REMARK    5  A    between atoms: C8_20  and  C9_21 
REMARK    6  A    between atoms: C9_21  and  N6_22 
REMARK    7  A    between atoms: C9_21  and  C16_36 
REMARK    8  A    between atoms: N6_22  and  C10_24 
REMARK    9  A    between atoms: C13_27  and  N7_28 
REMARK   10  A    between atoms: C15_32  and  N8_33 
REMARK   11  A    between atoms: N12_46  and  N13_47 
ROOT
HETATM    1  C7  UNL     1      -0.732  -2.284   0.107  1.00  0.00     0.023 C 
ENDROOT
BRANCH   1   2
HETATM    2  C6  UNL     1      -2.219  -2.451  -0.066  1.00  0.00     0.149 C 
BRANCH   2   3
HETATM    3  N5  UNL     1      -3.019  -1.635   0.817  1.00  0.00    -0.167 N 
HETATM    4  C2  UNL     1      -3.515  -0.449   0.406  1.00  0.00     0.160 A 
HETATM    5  N2  UNL     1      -3.341  -0.036  -0.855  1.00  0.00    -0.173 N 
HETATM    6  C3  UNL     1      -4.227   0.318   1.327  1.00  0.00     0.148 A 
HETATM    7  C1  UNL     1      -3.881   1.159  -1.209  1.00  0.00     0.701 A 
ATOM      8  H2  UNL     1      -2.821  -0.599  -1.527  1.00  0.00     0.186 HD
HETATM    9  N12 UNL     1      -4.569   1.915  -0.339  1.00  0.00    -0.054 N 
HETATM   10  C18 UNL     1      -4.763   1.537   0.921  1.00  0.00     0.301 A 
HETATM   11  O6  UNL     1      -5.398   2.203   1.776  1.00  0.00    -0.264 OA
HETATM   12  C4  UNL     1      -4.403  -0.142   2.596  1.00  0.00     0.279 A 
HETATM   13  O1  UNL     1      -5.052   0.583   3.396  1.00  0.00    -0.266 OA
HETATM   14  N3  UNL     1      -3.886  -1.327   2.937  1.00  0.00    -0.155 N 
HETATM   15  C5  UNL     1      -3.199  -2.098   2.097  1.00  0.00     0.682 A 
ATOM     16  H3  UNL     1      -4.025  -1.658   3.892  1.00  0.00     0.187 HD
HETATM   17  N4  UNL     1      -2.693  -3.242   2.385  1.00  0.00    -0.234 N 
ATOM     18  H42 UNL     1      -2.827  -3.586   3.336  1.00  0.00     0.174 HD
ATOM     19  H41 UNL     1      -2.167  -3.833   1.741  1.00  0.00     0.174 HD
BRANCH   7  20
HETATM   20  N1  UNL     1      -3.721   1.569  -2.417  1.00  0.00    -0.233 N 
ATOM     21  H12 UNL     1      -3.198   0.995  -3.078  1.00  0.00     0.174 HD
ATOM     22  H11 UNL     1      -4.127   2.466  -2.683  1.00  0.00     0.174 HD
ENDBRANCH   7  20
BRANCH   9  23
HETATM   23  N13 UNL     1      -5.109   3.151  -0.764  1.00  0.00    -0.321 N 
ATOM     24 2H13 UNL     1      -4.960   3.441  -1.731  1.00  0.00     0.178 HD
ATOM     25 1H13 UNL     1      -5.632   3.725  -0.103  1.00  0.00     0.178 HD
ENDBRANCH   9  23
ENDBRANCH   2   3
ENDBRANCH   1   2
BRANCH   1  26
HETATM   26  C8  UNL     1      -0.195  -0.924  -0.092  1.00  0.00     0.034 C 
BRANCH  26  27
HETATM   27  C9  UNL     1       1.309  -0.840   0.092  1.00  0.00     0.151 C 
BRANCH  27  28
HETATM   28  N6  UNL     1       1.748   0.547  -0.120  1.00  0.00    -0.376 N 
ATOM     29  H6  UNL     1       1.072   1.205  -0.509  1.00  0.00     0.160 HD
BRANCH  28  30
HETATM   30  C10 UNL     1       3.025   1.025   0.174  1.00  0.00     0.062 A 
HETATM   31  C11 UNL     1       3.951   0.151   0.773  1.00  0.00     0.034 A 
HETATM   32  C12 UNL     1       5.241   0.548   1.077  1.00  0.00     0.038 A 
HETATM   33  C13 UNL     1       5.637   1.818   0.796  1.00  0.00     0.105 A 
HETATM   34  C14 UNL     1       4.766   2.695   0.216  1.00  0.00     0.074 A 
HETATM   35  C15 UNL     1       3.434   2.290  -0.100  1.00  0.00     0.131 A 
BRANCH  33  36
HETATM   36  N7  UNL     1       6.971   2.281   1.092  1.00  0.00    -0.116 N 
HETATM   37  O2  UNL     1       7.807   1.520   1.622  1.00  0.00    -0.532 OA
HETATM   38  O3  UNL     1       7.355   3.564   0.803  1.00  0.00    -0.532 OA
ENDBRANCH  33  36
BRANCH  35  39
HETATM   39  N8  UNL     1       2.624   3.262  -0.695  1.00  0.00    -0.113 N 
HETATM   40  O4  UNL     1       3.175   4.147  -1.423  1.00  0.00    -0.532 OA
HETATM   41  O5  UNL     1       1.294   3.345  -0.567  1.00  0.00    -0.532 OA
ENDBRANCH  35  39
ENDBRANCH  28  30
ENDBRANCH  27  28
BRANCH  27  42
HETATM   42  C16 UNL     1       2.011  -1.667  -0.916  1.00  0.00     0.120 A 
HETATM   43  N9  UNL     1       2.293  -1.355  -2.192  1.00  0.00    -0.338 N 
HETATM   44  C17 UNL     1       2.917  -2.377  -2.796  1.00  0.00     0.198 A 
ATOM     45  H9  UNL     1       2.065  -0.467  -2.638  1.00  0.00     0.168 HD
HETATM   46  N10 UNL     1       3.022  -3.342  -1.870  1.00  0.00    -0.295 N 
HETATM   47  N11 UNL     1       2.476  -2.912  -0.738  1.00  0.00    -0.286 N 
ATOM     48  H10 UNL     1       3.451  -4.256  -2.012  1.00  0.00     0.187 HD
ATOM     49  H11 UNL     1       2.419  -3.445   0.130  1.00  0.00     0.188 HD
ENDBRANCH  27  42
ENDBRANCH  26  27
ENDBRANCH   1  26
TORSDOF 11
