REMARK  13 active torsions:
REMARK  status: ('A' for Active; 'I' for Inactive)
REMARK    1  A    between atoms: C2_2  and  C3_3 
REMARK    2  A    between atoms: C3_3  and  C4_4 
REMARK    3  A    between atoms: C7_7  and  C8_8 
REMARK    4  A    between atoms: C8_8  and  C9_9 
REMARK    5  A    between atoms: C9_9  and  C10_10 
REMARK    6  A    between atoms: C10_10  and  C11_11 
REMARK    7  A    between atoms: C19_19  and  C20_20 
REMARK    8  A    between atoms: C21_21  and  C23_23 
REMARK    9  A    between atoms: C23_23  and  O1_24 
REMARK   10  A    between atoms: C24_26  and  C25_27 
REMARK   11  A    between atoms: C25_27  and  C26_28 
REMARK   12  A    between atoms: C26_28  and  C27_29 
REMARK       I    between atoms: C27_29  and  N1_31 
REMARK   13  A    between atoms: C29_37  and  O3_38 
ROOT
HETATM    1  C4  UNL     1      -1.086  -0.257  -2.677  1.00  0.00     0.047 A 
HETATM    2  C5  UNL     1      -0.051   0.626  -2.433  1.00  0.00    -0.028 A 
HETATM    3  C6  UNL     1       0.930   0.947  -3.468  1.00  0.00     0.051 C 
HETATM    4  C7  UNL     1       0.021   1.313  -1.213  1.00  0.00    -0.037 A 
HETATM    5  C19 UNL     1      -0.955   1.081  -0.295  1.00  0.00    -0.002 A 
HETATM    6  C24 UNL     1      -2.023   0.180  -0.543  1.00  0.00     0.052 A 
HETATM    7  N4  UNL     1      -2.087  -0.471  -1.719  1.00  0.00    -0.301 N 
HETATM    8  C29 UNL     1      -3.133  -1.077  -2.067  1.00  0.00     0.231 C 
ENDROOT
BRANCH   4   9
HETATM    9  C8  UNL     1       1.108   2.274  -0.960  1.00  0.00     0.040 C 
BRANCH   9  10
HETATM   10  C9  UNL     1       2.421   1.597  -0.749  1.00  0.00     0.009 C 
BRANCH  10  11
HETATM   11  C10 UNL     1       2.441   0.632   0.413  1.00  0.00     0.039 C 
BRANCH  11  12
HETATM   12  C11 UNL     1       3.778   0.029   0.520  1.00  0.00    -0.057 A 
HETATM   13  C12 UNL     1       4.033  -1.135  -0.169  1.00  0.00     0.013 A 
HETATM   14  C13 UNL     1       5.280  -1.695  -0.068  1.00  0.00    -0.061 A 
HETATM   15  C14 UNL     1       5.568  -2.944  -0.801  1.00  0.00     0.048 C 
HETATM   16  C15 UNL     1       6.241  -1.084   0.715  1.00  0.00     0.013 A 
HETATM   17  C16 UNL     1       5.976   0.080   1.400  1.00  0.00    -0.061 A 
HETATM   18  C17 UNL     1       7.044   0.714   2.239  1.00  0.00     0.048 C 
HETATM   19  C18 UNL     1       4.723   0.656   1.307  1.00  0.00     0.013 A 
ENDBRANCH  11  12
ENDBRANCH  10  11
ENDBRANCH   9  10
ENDBRANCH   4   9
BRANCH   5  20
HETATM   20  C20 UNL     1      -0.943   1.839   0.924  1.00  0.00     0.019 C 
HETATM   21  C21 UNL     1      -0.809   1.522   2.168  1.00  0.00    -0.060 C 
HETATM   22  C22 UNL     1      -0.609   0.154   2.676  1.00  0.00     0.045 C 
BRANCH  21  23
HETATM   23  C23 UNL     1      -0.847   2.577   3.264  1.00  0.00     0.198 C 
BRANCH  23  24
HETATM   24  O1  UNL     1      -1.037   3.836   2.720  1.00  0.00    -0.397 OA
ATOM     25  H1  UNL     1      -1.061   4.495   3.404  1.00  0.00     0.209 HD
ENDBRANCH  23  24
ENDBRANCH  21  23
ENDBRANCH   5  20
BRANCH   1  26
HETATM   26  C3  UNL     1      -1.134  -1.038  -3.720  1.00  0.00     0.030 C 
BRANCH  26  27
HETATM   27  C2  UNL     1      -0.292  -1.256  -4.832  1.00  0.00    -0.008 C 
HETATM   28  C1  UNL     1      -0.699  -2.173  -5.769  1.00  0.00     0.011 C 
ENDBRANCH  26  27
ENDBRANCH   1  26
BRANCH   6  29
HETATM   29  C25 UNL     1      -3.013   0.074   0.494  1.00  0.00     0.036 C 
BRANCH  29  30
HETATM   30  C26 UNL     1      -3.800  -0.851   0.911  1.00  0.00     0.077 C 
BRANCH  30  31
HETATM   31  C27 UNL     1      -4.725  -0.568   2.049  1.00  0.00     0.247 C 
HETATM   32  O2  UNL     1      -4.734   0.565   2.594  1.00  0.00    -0.268 OA
HETATM   33  N1  UNL     1      -5.598  -1.554   2.530  1.00  0.00    -0.300 N 
HETATM   34  C28 UNL     1      -6.858  -1.368   2.699  1.00  0.00     0.203 C 
ATOM     35  H1  UNL     1      -5.211  -2.470   2.758  1.00  0.00     0.171 HD
HETATM   36  N2  UNL     1      -7.669  -2.414   3.188  1.00  0.00    -0.066 NA
HETATM   37  N3  UNL     1      -7.409  -0.099   2.386  1.00  0.00    -0.066 NA
ENDBRANCH  30  31
ENDBRANCH  29  30
ENDBRANCH   6  29
BRANCH   8  38
HETATM   38  O3  UNL     1      -3.613  -1.640  -3.227  1.00  0.00    -0.356 OA
ATOM     39  H3  UNL     1      -4.403  -2.098  -3.490  1.00  0.00     0.218 HD
ENDBRANCH   8  38
TORSDOF 13
