REMARK  10 active torsions:
REMARK  status: ('A' for Active; 'I' for Inactive)
REMARK    1  A    between atoms: N3_6  and  C3_7 
REMARK    2  A    between atoms: C3_7  and  C4_8 
REMARK    3  A    between atoms: C6_12  and  C7_13 
REMARK    4  A    between atoms: C7_13  and  C8_14 
REMARK    5  A    between atoms: C8_14  and  C9_15 
REMARK    6  A    between atoms: C9_15  and  N5_16 
REMARK    7  A    between atoms: N8_23  and  C12_24 
REMARK    8  A    between atoms: C12_24  and  C13_25 
REMARK    9  A    between atoms: C14_26  and  C15_27 
REMARK   10  A    between atoms: C15_27  and  N9_28 
ROOT
HETATM    1  C4  UNL     1       0.240   1.348   0.630  1.00  0.00     0.049 A 
HETATM    2  C5  UNL     1      -0.019   1.057   1.952  1.00  0.00     0.116 A 
HETATM    3  N4  UNL     1      -0.461  -0.210   1.958  1.00  0.00    -0.354 N 
ATOM      4  H4  UNL     1      -0.743  -0.737   2.785  1.00  0.00     0.166 HD
HETATM    5  C6  UNL     1      -0.471  -0.677   0.676  1.00  0.00     0.084 A 
HETATM    6  N8  UNL     1      -0.039   0.281  -0.141  1.00  0.00    -0.326 N 
ENDROOT
BRANCH   5   7
HETATM    7  C7  UNL     1      -0.890  -2.063   0.378  1.00  0.00     0.078 C 
BRANCH   7   8
HETATM    8  C8  UNL     1      -2.371  -2.248   0.258  1.00  0.00     0.029 C 
BRANCH   8   9
HETATM    9  C9  UNL     1      -3.053  -1.454  -0.795  1.00  0.00     0.150 C 
BRANCH   9  10
HETATM   10  N5  UNL     1      -4.465  -1.732  -0.792  1.00  0.00    -0.287 N 
HETATM   11  C10 UNL     1      -5.120  -2.692  -1.496  1.00  0.00     0.201 A 
HETATM   12  N6  UNL     1      -6.421  -2.583  -1.184  1.00  0.00    -0.346 N 
HETATM   13  C11 UNL     1      -6.564  -1.586  -0.314  1.00  0.00     0.198 A 
ATOM     14  H6  UNL     1      -7.173  -3.166  -1.552  1.00  0.00     0.167 HD
HETATM   15  N7  UNL     1      -5.356  -1.066  -0.077  1.00  0.00    -0.293 N 
ATOM     16  H7  UNL     1      -5.155  -0.287   0.550  1.00  0.00     0.188 HD
ENDBRANCH   9  10
ENDBRANCH   8   9
ENDBRANCH   7   8
ENDBRANCH   5   7
BRANCH   6  17
HETATM   17  C12 UNL     1       0.148   0.223  -1.560  1.00  0.00     0.224 C 
BRANCH  17  18
HETATM   18  C13 UNL     1       1.541  -0.275  -1.761  1.00  0.00    -0.085 C 
HETATM   19  C14 UNL     1       2.659  -0.695  -1.921  1.00  0.00    -0.085 C 
BRANCH  19  20
HETATM   20  C15 UNL     1       4.009  -1.228  -2.106  1.00  0.00     0.221 C 
BRANCH  20  21
HETATM   21  N9  UNL     1       4.587  -1.398  -0.799  1.00  0.00    -0.356 N 
HETATM   22  C16 UNL     1       4.439  -2.562  -0.135  1.00  0.00     0.091 A 
HETATM   23  C17 UNL     1       4.991  -2.750   1.135  1.00  0.00     0.017 A 
HETATM   24  C18 UNL     1       5.706  -1.739   1.744  1.00  0.00     0.003 A 
HETATM   25  C19 UNL     1       5.845  -0.558   1.048  1.00  0.00     0.017 A 
HETATM   26  C20 UNL     1       5.284  -0.410  -0.207  1.00  0.00     0.091 A 
ENDBRANCH  20  21
ENDBRANCH  19  20
ENDBRANCH  17  18
ENDBRANCH   6  17
BRANCH   1  27
HETATM   27  C3  UNL     1       0.753   2.663   0.191  1.00  0.00     0.210 C 
BRANCH  27  28
HETATM   28  N3  UNL     1      -0.311   3.629  -0.030  1.00  0.00    -0.265 N 
HETATM   29  N1  UNL     1      -0.918   4.524   0.762  1.00  0.00    -0.234 N 
HETATM   30  C1  UNL     1      -0.798   4.918   2.141  1.00  0.00     0.200 C 
HETATM   31  N2  UNL     1      -1.667   4.885  -0.256  1.00  0.00    -0.278 N 
HETATM   32  C2  UNL     1      -1.075   3.998  -1.071  1.00  0.00     0.220 A 
ATOM     33  H2  UNL     1      -2.410   5.573  -0.379  1.00  0.00     0.189 HD
ENDBRANCH  27  28
ENDBRANCH   1  27
TORSDOF 10
