REMARK  11 active torsions:
REMARK  status: ('A' for Active; 'I' for Inactive)
REMARK    1  A    between atoms: C2_2  and  C3_3 
REMARK    2  A    between atoms: C2_2  and  C24_28 
REMARK    3  A    between atoms: C4_4  and  C5_5 
REMARK    4  A    between atoms: C7_7  and  O1_8 
REMARK    5  A    between atoms: O1_8  and  C8_9 
REMARK    6  A    between atoms: C8_9  and  C9_11 
REMARK    7  A    between atoms: C20_22  and  O3_23 
REMARK    8  A    between atoms: C24_28  and  O4_29 
REMARK    9  A    between atoms: C24_28  and  C25_31 
REMARK   10  A    between atoms: C26_32  and  O5_33 
REMARK   11  A    between atoms: C26_32  and  C27_35 
ROOT
HETATM    1  C5  UNL     1       0.950  -0.033  -0.885  1.00  0.00     0.015 C 
HETATM    2  C6  UNL     1      -0.266  -0.387  -1.724  1.00  0.00     0.042 C 
HETATM    3  C7  UNL     1      -1.475  -0.007  -0.861  1.00  0.00     0.137 C 
HETATM    4  C14 UNL     1      -0.916   0.814   0.220  1.00  0.00     0.025 C 
HETATM    5  C15 UNL     1       0.500   1.241  -0.171  1.00  0.00     0.000 C 
HETATM    6  C16 UNL     1       0.517   2.415  -1.096  1.00  0.00     0.006 C 
HETATM    7  C17 UNL     1      -0.181   3.586  -0.443  1.00  0.00     0.012 C 
HETATM    8  C18 UNL     1      -1.609   3.200  -0.223  1.00  0.00    -0.014 C 
HETATM    9  C19 UNL     1      -2.411   3.102  -1.459  1.00  0.00     0.018 C 
HETATM   10  C20 UNL     1      -2.337   4.170   0.705  1.00  0.00     0.126 C 
HETATM   11  C21 UNL     1      -3.524   3.328   1.122  1.00  0.00     0.033 C 
HETATM   12  C22 UNL     1      -3.079   1.867   0.992  1.00  0.00     0.008 C 
HETATM   13  C23 UNL     1      -1.642   2.000   0.676  1.00  0.00     0.003 C 
ENDROOT
BRANCH   1  14
HETATM   14  C4  UNL     1       2.143   0.212  -1.688  1.00  0.00    -0.025 C 
HETATM   15  C3  UNL     1       3.288  -0.417  -1.503  1.00  0.00    -0.023 C 
BRANCH  15  16
HETATM   16  C2  UNL     1       3.591  -1.450  -0.496  1.00  0.00     0.036 C 
HETATM   17  C1  UNL     1       4.131  -2.723  -1.121  1.00  0.00     0.017 C 
BRANCH  16  18
HETATM   18  C24 UNL     1       4.736  -0.915   0.383  1.00  0.00     0.151 C 
BRANCH  18  19
HETATM   19  O4  UNL     1       4.256   0.257   0.960  1.00  0.00    -0.391 OA
ATOM     20  H4  UNL     1       4.963   0.587   1.502  1.00  0.00     0.210 HD
ENDBRANCH  18  19
BRANCH  18  21
HETATM   21  C25 UNL     1       5.956  -0.737  -0.404  1.00  0.00     0.049 C 
HETATM   22  C26 UNL     1       7.138  -0.505   0.094  1.00  0.00     0.141 C 
BRANCH  22  23
HETATM   23  O5  UNL     1       8.219  -0.357  -0.808  1.00  0.00    -0.355 OA
ATOM     24  H5  UNL     1       9.080  -0.188  -0.445  1.00  0.00     0.218 HD
ENDBRANCH  22  23
BRANCH  22  25
HETATM   25  C27 UNL     1       7.438  -0.385   1.499  1.00  0.00     0.233 C 
HETATM   26  O6  UNL     1       6.583  -0.492   2.408  1.00  0.00    -0.642 OA
HETATM   27  O7  UNL     1       8.762  -0.133   1.873  1.00  0.00    -0.642 OA
ENDBRANCH  22  25
ENDBRANCH  18  21
ENDBRANCH  16  18
ENDBRANCH  15  16
ENDBRANCH   1  14
BRANCH   3  28
HETATM   28  O1  UNL     1      -2.028  -1.205  -0.326  1.00  0.00    -0.315 OA
BRANCH  28  29
HETATM   29  C8  UNL     1      -3.284  -1.676  -0.603  1.00  0.00     0.263 C 
HETATM   30  O2  UNL     1      -4.020  -1.033  -1.375  1.00  0.00    -0.265 OA
BRANCH  29  31
HETATM   31  C9  UNL     1      -3.709  -2.951   0.043  1.00  0.00     0.085 C 
HETATM   32  C10 UNL     1      -5.099  -3.346  -0.345  1.00  0.00     0.014 C 
HETATM   33  C11 UNL     1      -5.558  -4.147   0.849  1.00  0.00     0.001 C 
HETATM   34  C12 UNL     1      -5.060  -3.331   2.014  1.00  0.00     0.001 C 
HETATM   35  C13 UNL     1      -3.751  -2.778   1.546  1.00  0.00     0.014 C 
ENDBRANCH  29  31
ENDBRANCH  28  29
ENDBRANCH   3  28
BRANCH  10  36
HETATM   36  O3  UNL     1      -1.487   4.428   1.773  1.00  0.00    -0.395 OA
ATOM     37  H3  UNL     1      -1.940   5.031   2.350  1.00  0.00     0.210 HD
ENDBRANCH  10  36
TORSDOF 11
