REMARK  7 active torsions:
REMARK  status: ('A' for Active; 'I' for Inactive)
REMARK    1  A    between atoms: C2_2  and  C3_3 
REMARK    2  A    between atoms: C3_3  and  C4_4 
REMARK    3  A    between atoms: C4_4  and  C5_5 
REMARK    4  A    between atoms: C4_4  and  N1_7 
REMARK    5  A    between atoms: C8_9  and  O1_10 
REMARK    6  A    between atoms: C9_12  and  O2_13 
REMARK    7  A    between atoms: C11_16  and  O3_17 
ROOT
HETATM    1  N1  UNL     1      -0.190   0.418   0.183  1.00  0.00    -0.364 N 
HETATM    2  C7  UNL     1       0.284  -0.408   1.215  1.00  0.00     0.097 C 
HETATM    3  C8  UNL     1       1.567   0.019   1.888  1.00  0.00     0.185 C 
HETATM    4  C9  UNL     1       2.717  -0.713   1.221  1.00  0.00     0.163 C 
HETATM    5  C10 UNL     1       2.532  -0.531  -0.256  1.00  0.00     0.106 C 
HETATM    6  C11 UNL     1       3.709  -0.082  -1.053  1.00  0.00     0.267 C 
HETATM    7  O4  UNL     1       2.870   0.845  -1.693  1.00  0.00    -0.350 OA
HETATM    8  C12 UNL     1       2.133   0.893  -0.483  1.00  0.00     0.174 C 
HETATM    9  C13 UNL     1       0.666   1.109  -0.651  1.00  0.00     0.096 C 
ENDROOT
BRANCH   1  10
HETATM   10  C4  UNL     1      -1.518   0.900   0.406  1.00  0.00     0.088 C 
BRANCH  10  11
HETATM   11  C3  UNL     1      -2.459  -0.239   0.437  1.00  0.00     0.025 C 
BRANCH  11  12
HETATM   12  C2  UNL     1      -2.844  -0.894  -0.850  1.00  0.00    -0.002 C 
HETATM   13  C1  UNL     1      -3.779  -2.078  -0.458  1.00  0.00     0.005 C 
ENDBRANCH  11  12
ENDBRANCH  10  11
BRANCH  10  14
HETATM   14  C5  UNL     1      -1.946   2.067  -0.357  1.00  0.00     0.021 C 
HETATM   15  C6  UNL     1      -2.209   1.990  -1.801  1.00  0.00     0.007 C 
ENDBRANCH  10  14
ENDBRANCH   1  10
BRANCH   3  16
HETATM   16  O1  UNL     1       1.570  -0.409   3.227  1.00  0.00    -0.388 OA
ATOM     17  H1  UNL     1       2.377  -0.140   3.650  1.00  0.00     0.210 HD
ENDBRANCH   3  16
BRANCH   4  18
HETATM   18  O2  UNL     1       2.811  -2.027   1.611  1.00  0.00    -0.392 OA
ATOM     19  H2  UNL     1       3.531  -2.485   1.193  1.00  0.00     0.210 HD
ENDBRANCH   4  18
BRANCH   6  20
HETATM   20  O3  UNL     1       4.134  -1.115  -1.917  1.00  0.00    -0.371 OA
ATOM     21  H3  UNL     1       4.884  -0.829  -2.425  1.00  0.00     0.212 HD
ENDBRANCH   6  20
TORSDOF 7
