REMARK  3 active torsions:
REMARK  status: ('A' for Active; 'I' for Inactive)
REMARK    1  A    between atoms: C2_2  and  C3_3 
REMARK    2  A    between atoms: C3_3  and  N1_4 
REMARK    3  A    between atoms: C5_6  and  O1_7 
ROOT
HETATM    1  N1  UNL     1       0.951  -0.430  -0.641  1.00  0.00     0.095 N 
HETATM    2  C4  UNL     1       0.300  -1.649  -0.200  1.00  0.00     0.305 C 
HETATM    3  C5  UNL     1      -0.481  -1.155   1.005  1.00  0.00     0.158 C 
HETATM    4  C6  UNL     1      -1.095   0.084   0.421  1.00  0.00     0.037 C 
HETATM    5  C7  UNL     1      -2.241  -0.208  -0.511  1.00  0.00     0.042 C 
HETATM    6  C8  UNL     1      -3.068   1.066  -0.341  1.00  0.00     0.168 C 
HETATM    7  O2  UNL     1      -2.898   1.459   0.957  1.00  0.00    -0.390 OA
HETATM    8  C9  UNL     1      -1.665   1.029   1.400  1.00  0.00     0.181 C 
HETATM    9  C10 UNL     1       0.107   0.667  -0.326  1.00  0.00     0.287 C 
ENDROOT
BRANCH   3  10
HETATM   10  O1  UNL     1      -1.398  -2.072   1.463  1.00  0.00    -0.393 OA
ATOM     11  H1  UNL     1      -1.887  -1.763   2.217  1.00  0.00     0.210 HD
ENDBRANCH   3  10
BRANCH   1  12
HETATM   12  C3  UNL     1       2.278  -0.355  -0.092  1.00  0.00     0.299 C 
BRANCH  12  13
HETATM   13  C2  UNL     1       3.028   0.839  -0.474  1.00  0.00    -0.007 C 
HETATM   14  C1  UNL     1       4.172   0.778  -1.132  1.00  0.00     0.008 C 
ENDBRANCH  12  13
ENDBRANCH   1  12
TORSDOF 3
