REMARK  5 active torsions:
REMARK  status: ('A' for Active; 'I' for Inactive)
REMARK    1  A    between atoms: N2_4  and  N3_6 
REMARK       I    between atoms: N3_6  and  C1_8 
REMARK       I    between atoms: C1_8  and  N6_17 
REMARK    2  A    between atoms: N4_9  and  C2_11 
REMARK    3  A    between atoms: C2_11  and  C3_12 
REMARK    4  A    between atoms: C3_12  and  C4_13 
REMARK    5  A    between atoms: N6_17  and  O1_21 
ROOT
HETATM    1  N3  UNL     1      -2.177  -0.427   1.211  1.00  0.00    -0.115 N 
ATOM      2  H3  UNL     1      -2.863  -1.144   1.447  1.00  0.00     0.207 HD
HETATM    3  C1  UNL     1      -1.205  -0.669   0.223  1.00  0.00     0.735 C 
HETATM    4  N4  UNL     1      -0.096  -0.035   0.233  1.00  0.00    -0.221 N 
ATOM      5  H4  UNL     1       0.102   0.656   0.956  1.00  0.00     0.177 HD
HETATM    6  N6  UNL     1      -1.467  -1.620  -0.783  1.00  0.00     0.010 N 
HETATM    7  N7  UNL     1      -1.169  -2.838  -0.638  1.00  0.00    -0.304 N 
ATOM      8  H71 UNL     1      -1.359  -3.526  -1.366  1.00  0.00     0.180 HD
ATOM      9  H72 UNL     1      -0.726  -3.161   0.222  1.00  0.00     0.180 HD
ENDROOT
BRANCH   1  10
HETATM   10  N2  UNL     1      -2.192   0.799   1.861  1.00  0.00    -0.235 N 
HETATM   11  N1  UNL     1      -2.186   1.922   1.268  1.00  0.00    -0.330 N 
ATOM     12  H12 UNL     1      -2.169   1.904   0.248  1.00  0.00     0.178 HD
ATOM     13  H11 UNL     1      -2.197   2.823   1.746  1.00  0.00     0.178 HD
ATOM     14  H2  UNL     1      -2.209   0.798   2.881  1.00  0.00     0.208 HD
ENDBRANCH   1  10
BRANCH   4  15
HETATM   15  C2  UNL     1       0.865  -0.316  -0.795  1.00  0.00     0.143 C 
BRANCH  15  16
HETATM   16  C3  UNL     1       1.645   0.911  -1.209  1.00  0.00     0.064 C 
BRANCH  16  17
HETATM   17  C4  UNL     1       2.406   1.513  -0.089  1.00  0.00     0.054 C 
HETATM   18  N5  UNL     1       2.724   0.840   0.928  1.00  0.00    -0.411 N 
ATOM     19  H52 UNL     1       2.443  -0.140   0.965  1.00  0.00     0.155 HD
ATOM     20  H51 UNL     1       3.248   1.254   1.699  1.00  0.00     0.155 HD
ENDBRANCH  16  17
ENDBRANCH  15  16
ENDBRANCH   4  15
BRANCH   6  21
HETATM   21  O1  UNL     1      -2.063  -1.185  -1.941  1.00  0.00    -0.255 OA
ATOM     22  H1  UNL     1      -2.240  -1.826  -2.619  1.00  0.00     0.247 HD
ENDBRANCH   6  21
TORSDOF 5
