REMARK  4 active torsions:
REMARK  status: ('A' for Active; 'I' for Inactive)
REMARK    1  A    between atoms: N1_1  and  C1_4 
REMARK    2  A    between atoms: C4_9  and  N3_10 
REMARK    3  A    between atoms: N3_10  and  C5_12 
REMARK    4  A    between atoms: C7_16  and  C8_17 
ROOT
HETATM    1  C1  UNL     1       3.644   0.531  -0.306  1.00  0.00     0.116 A 
HETATM    2  C2  UNL     1       3.902  -0.813  -0.199  1.00  0.00     0.136 A 
HETATM    3  N2  UNL     1       2.911  -1.707  -0.158  1.00  0.00    -0.368 N 
ATOM      4  H2  UNL     1       3.105  -2.705  -0.078  1.00  0.00     0.164 HD
HETATM    5  C3  UNL     1       1.631  -1.242  -0.226  1.00  0.00     0.136 A 
HETATM    6  C4  UNL     1       1.309   0.078  -0.332  1.00  0.00     0.119 A 
HETATM    7  N6  UNL     1       2.373   0.937  -0.369  1.00  0.00    -0.327 N 
ATOM      8  H6  UNL     1       2.187   1.937  -0.449  1.00  0.00     0.169 HD
ENDROOT
BRANCH   6   9
HETATM    9  N3  UNL     1      -0.007   0.581  -0.398  1.00  0.00    -0.355 N 
ATOM     10  H3  UNL     1      -0.167   1.585  -0.479  1.00  0.00     0.163 HD
BRANCH   9  11
HETATM   11  C5  UNL     1      -1.113  -0.316  -0.352  1.00  0.00     0.205 C 
HETATM   12  N4  UNL     1      -1.181  -1.017   0.919  1.00  0.00    -0.122 NA
HETATM   13  N5  UNL     1      -2.448  -1.579   0.937  1.00  0.00    -0.146 NA
HETATM   14  C6  UNL     1      -3.331  -0.678   0.258  1.00  0.00     0.145 C 
HETATM   15  C7  UNL     1      -2.449   0.404  -0.330  1.00  0.00     0.103 C 
BRANCH  15  16
HETATM   16  C8  UNL     1      -2.360   1.510   0.632  1.00  0.00     0.240 C 
HETATM   17  O1  UNL     1      -3.036   2.531   0.463  1.00  0.00    -0.306 OA
ENDBRANCH  15  16
ENDBRANCH   9  11
ENDBRANCH   6   9
BRANCH   1  18
HETATM   18  N1  UNL     1       4.652   1.328  -0.339  1.00  0.00    -0.384 N 
ATOM     19  H12 UNL     1       5.623   1.018  -0.291  1.00  0.00     0.157 HD
ATOM     20  H11 UNL     1       4.460   2.327  -0.419  1.00  0.00     0.157 HD
ENDBRANCH   1  18
TORSDOF 4
