REMARK  3 active torsions:
REMARK  status: ('A' for Active; 'I' for Inactive)
REMARK    1  A    between atoms: N1_4  and  C3_5 
REMARK    2  A    between atoms: C4_8  and  C5_9 
REMARK    3  A    between atoms: C10_18  and  N5_19 
ROOT
HETATM    1  C3  UNL     1       1.117  -0.313  -0.107  1.00  0.00     0.697 A 
HETATM    2  N2  UNL     1       1.025   1.044  -0.009  1.00  0.00    -0.175 N 
ATOM      3  H2  UNL     1       1.876   1.604   0.045  1.00  0.00     0.186 HD
HETATM    4  C4  UNL     1      -0.172   1.651   0.017  1.00  0.00     0.148 A 
HETATM    5  N4  UNL     1      -1.280   0.894  -0.056  1.00  0.00    -0.175 N 
ATOM      6  H4  UNL     1      -2.189   1.357  -0.037  1.00  0.00     0.186 HD
HETATM    7  C10 UNL     1      -1.243  -0.446  -0.153  1.00  0.00     0.696 A 
HETATM    8  N6  UNL     1      -0.026  -1.012  -0.176  1.00  0.00    -0.022 N 
ATOM      9  H6  UNL     1       0.033  -2.028  -0.250  1.00  0.00     0.203 HD
ENDROOT
BRANCH   1  10
HETATM   10  N1  UNL     1       2.396  -0.888  -0.129  1.00  0.00    -0.207 N 
HETATM   11  C2  UNL     1       3.604  -0.094  -0.053  1.00  0.00     0.244 C 
HETATM   12  C1  UNL     1       4.729  -0.811  -0.733  1.00  0.00     0.236 C 
HETATM   13  O1  UNL     1       5.425  -0.292  -1.622  1.00  0.00    -0.272 OA
HETATM   14  N7  UNL     1       4.962  -2.155  -0.294  1.00  0.00    -0.358 N 
HETATM   15  C16 UNL     1       3.829  -2.823   0.334  1.00  0.00     0.143 C 
ATOM     16  H7  UNL     1       5.864  -2.615  -0.414  1.00  0.00     0.162 HD
HETATM   17  C15 UNL     1       2.515  -2.326  -0.232  1.00  0.00     0.161 C 
ENDBRANCH   1  10
BRANCH   4  18
HETATM   18  C5  UNL     1      -0.196   3.103   0.122  1.00  0.00     0.024 A 
HETATM   19  C6  UNL     1       0.968   3.827   0.193  1.00  0.00     0.018 A 
HETATM   20  C7  UNL     1       0.894   5.196   0.292  1.00  0.00     0.018 A 
HETATM   21  C8  UNL     1      -0.327   5.833   0.320  1.00  0.00     0.087 A 
HETATM   22  N3  UNL     1      -1.465   5.121   0.250  1.00  0.00    -0.374 N 
HETATM   23  C9  UNL     1      -1.415   3.790   0.154  1.00  0.00     0.102 A 
ATOM     24  H3  UNL     1      -2.367   5.597   0.270  1.00  0.00     0.164 HD
ENDBRANCH   4  18
BRANCH   7  25
HETATM   25  N5  UNL     1      -2.448  -1.176  -0.225  1.00  0.00    -0.213 N 
HETATM   26  C11 UNL     1      -3.724  -0.487  -0.194  1.00  0.00     0.167 C 
HETATM   27  C12 UNL     1      -4.489  -1.083   0.990  1.00  0.00     0.188 C 
HETATM   28  O2  UNL     1      -4.587  -2.442   0.878  1.00  0.00    -0.388 OA
HETATM   29  C13 UNL     1      -3.993  -2.989  -0.231  1.00  0.00     0.188 C 
HETATM   30  C14 UNL     1      -2.507  -2.619  -0.331  1.00  0.00     0.167 C 
ENDBRANCH   7  25
TORSDOF 3
