REMARK  1 active torsions:
REMARK  status: ('A' for Active; 'I' for Inactive)
REMARK    1  A    between atoms: O1_1  and  N1_3 
ROOT
HETATM    1  N1  UNL     1       1.852  -0.488  -0.003  1.00  0.00    -0.228 N 
HETATM    2  C1  UNL     1       2.670   0.567   0.005  1.00  0.00     0.173 A 
HETATM    3  S1  UNL     1       1.585   1.886   0.015  1.00  0.00    -0.080 SA
HETATM    4  C2  UNL     1       0.121   1.012   0.008  1.00  0.00     0.035 A 
HETATM    5  C3  UNL     1      -1.244   1.365   0.010  1.00  0.00     0.021 A 
HETATM    6  C4  UNL     1      -2.198   0.379   0.002  1.00  0.00     0.002 A 
HETATM    7  C5  UNL     1      -1.755  -0.918  -0.007  1.00  0.00     0.002 A 
HETATM    8  C6  UNL     1      -0.442  -1.268  -0.010  1.00  0.00     0.033 A 
HETATM    9  C7  UNL     1       0.557  -0.282  -0.002  1.00  0.00     0.079 A 
ENDROOT
BRANCH   1  10
HETATM   10  O1  UNL     1       2.491  -1.756  -0.013  1.00  0.00    -0.282 OA
ATOM     11  H1  UNL     1       1.909  -2.507  -0.019  1.00  0.00     0.245 HD
ENDBRANCH   1  10
TORSDOF 1
