REMARK  4 active torsions:
REMARK  status: ('A' for Active; 'I' for Inactive)
REMARK    1  A    between atoms: O1_2  and  C2_3 
REMARK    2  A    between atoms: C8_9  and  N1_10 
REMARK    3  A    between atoms: N1_10  and  N2_12 
REMARK    4  A    between atoms: C9_14  and  C10_15 
ROOT
HETATM    1  C2  UNL     1       4.125  -0.635   0.452  1.00  0.00     0.069 A 
HETATM    2  C3  UNL     1       4.673   0.360  -0.326  1.00  0.00     0.038 A 
HETATM    3  C4  UNL     1       3.827   1.153  -1.072  1.00  0.00     0.029 A 
HETATM    4  C5  UNL     1       2.476   0.951  -1.035  1.00  0.00     0.094 A 
HETATM    5  C6  UNL     1       1.917  -0.015  -0.282  1.00  0.00     0.036 A 
HETATM    6  C7  UNL     1       2.762  -0.818   0.472  1.00  0.00     0.053 A 
HETATM    7  C8  UNL     1       0.477  -0.076  -0.371  1.00  0.00     0.141 A 
HETATM    8  N3  UNL     1      -0.104   0.874  -1.223  1.00  0.00    -0.264 N 
ATOM      9  H3  UNL     1      -1.097   0.993  -1.421  1.00  0.00     0.180 HD
HETATM   10  S1  UNL     1       1.199   1.799  -1.868  1.00  0.00     0.265 S 
HETATM   11  O2  UNL     1       1.307   1.671  -3.350  1.00  0.00    -0.200 OA
HETATM   12  O3  UNL     1       1.171   3.217  -1.400  1.00  0.00    -0.200 OA
ENDROOT
BRANCH   7  13
HETATM   13  N1  UNL     1      -0.269  -0.933   0.273  1.00  0.00    -0.285 N 
ATOM     14  H1  UNL     1       0.193  -1.608   0.883  1.00  0.00     0.188 HD
BRANCH  13  15
HETATM   15  N2  UNL     1      -1.641  -0.980   0.178  1.00  0.00    -0.309 N 
HETATM   16  C9  UNL     1      -2.418  -0.067   0.685  1.00  0.00     0.118 C 
ATOM     17  H2  UNL     1      -2.068  -1.766  -0.312  1.00  0.00     0.186 HD
BRANCH  16  18
HETATM   18  C10 UNL     1      -3.874  -0.162   0.557  1.00  0.00    -0.019 A 
HETATM   19  C11 UNL     1      -4.692   0.793   1.087  1.00  0.00     0.013 A 
HETATM   20  C12 UNL     1      -6.061   0.729   0.982  1.00  0.00     0.001 A 
HETATM   21  C13 UNL     1      -6.643  -0.323   0.327  1.00  0.00     0.000 A 
HETATM   22  C14 UNL     1      -5.844  -1.304  -0.219  1.00  0.00     0.001 A 
HETATM   23  C15 UNL     1      -4.477  -1.218  -0.101  1.00  0.00     0.013 A 
ENDBRANCH  16  18
ENDBRANCH  13  15
ENDBRANCH   7  13
BRANCH   1  24
HETATM   24  O1  UNL     1       4.980  -1.452   1.218  1.00  0.00    -0.356 OA
HETATM   25  C1  UNL     1       6.378  -1.233   1.170  1.00  0.00     0.210 C 
ENDBRANCH   1  24
TORSDOF 4
