REMARK  14 active torsions:
REMARK  status: ('A' for Active; 'I' for Inactive)
REMARK    1  A    between atoms: C2_2  and  N1_3 
REMARK    2  A    between atoms: N1_3  and  C3_4 
REMARK       I    between atoms: N1_3  and  C5_6 
REMARK    3  A    between atoms: C5_6  and  C6_8 
REMARK    4  A    between atoms: C6_8  and  N2_9 
REMARK    5  A    between atoms: N2_9  and  C7_11 
REMARK    6  A    between atoms: C9_15  and  C10_16 
REMARK    7  A    between atoms: C12_20  and  O2_21 
REMARK    8  A    between atoms: O2_21  and  C13_22 
REMARK    9  A    between atoms: C13_22  and  C14_23 
REMARK   10  A    between atoms: C14_23  and  C15_24 
REMARK   11  A    between atoms: C15_24  and  N5_25 
REMARK   12  A    between atoms: C18_28  and  O3_29 
REMARK   13  A    between atoms: C21_32  and  N6_33 
REMARK   14  A    between atoms: N6_33  and  C22_35 
ROOT
HETATM    1  C7  UNL     1      -2.925   0.059   0.165  1.00  0.00     0.679 A 
HETATM    2  N3  UNL     1      -2.541  -1.225   0.264  1.00  0.00    -0.201 N 
ATOM      3  H3  UNL     1      -3.258  -1.940   0.390  1.00  0.00     0.183 HD
HETATM    4  C8  UNL     1      -1.255  -1.609   0.204  1.00  0.00     0.122 A 
HETATM    5  C9  UNL     1      -0.287  -0.648   0.034  1.00  0.00     0.036 A 
HETATM    6  C21 UNL     1      -0.661   0.675  -0.070  1.00  0.00     0.134 A 
HETATM    7  N9  UNL     1      -1.964   1.003  -0.003  1.00  0.00    -0.176 N 
ATOM      8  H9  UNL     1      -2.236   1.983  -0.080  1.00  0.00     0.186 HD
ENDROOT
BRANCH   5   9
HETATM    9  C10 UNL     1       1.119  -1.020  -0.049  1.00  0.00    -0.003 A 
HETATM   10  C11 UNL     1       1.937  -0.548  -1.046  1.00  0.00     0.102 A 
HETATM   11  N4  UNL     1       3.256  -0.885  -1.129  1.00  0.00    -0.344 N 
HETATM   12  C12 UNL     1       3.821  -1.706  -0.224  1.00  0.00     0.176 A 
ATOM     13  H4  UNL     1       3.823  -0.509  -1.889  1.00  0.00     0.167 HD
HETATM   14  C18 UNL     1       3.021  -2.195   0.789  1.00  0.00     0.120 A 
HETATM   15  C20 UNL     1       1.682  -1.865   0.891  1.00  0.00     0.055 A 
BRANCH  12  16
HETATM   16  O2  UNL     1       5.142  -2.080  -0.257  1.00  0.00    -0.334 OA
BRANCH  16  17
HETATM   17  C13 UNL     1       6.050  -1.640  -1.251  1.00  0.00     0.179 C 
BRANCH  17  18
HETATM   18  C14 UNL     1       7.425  -2.190  -1.059  1.00  0.00     0.057 C 
BRANCH  18  19
HETATM   19  C15 UNL     1       8.045  -1.800   0.255  1.00  0.00     0.273 C 
BRANCH  19  20
HETATM   20  N5  UNL     1       8.153  -0.343   0.369  1.00  0.00     0.080 N 
HETATM   21  C16 UNL     1       9.130   0.141  -0.589  1.00  0.00     0.309 C 
HETATM   22  C17 UNL     1       8.584  -0.041   1.720  1.00  0.00     0.309 C 
ENDBRANCH  19  20
ENDBRANCH  18  19
ENDBRANCH  17  18
ENDBRANCH  16  17
ENDBRANCH  12  16
BRANCH  14  23
HETATM   23  O3  UNL     1       3.545  -3.045   1.751  1.00  0.00    -0.352 OA
HETATM   24  C19 UNL     1       2.766  -3.562   2.797  1.00  0.00     0.210 C 
ENDBRANCH  14  23
ENDBRANCH   5   9
BRANCH   6  25
HETATM   25  N6  UNL     1       0.241   1.615  -0.226  1.00  0.00    -0.341 N 
ATOM     26  H6  UNL     1       1.222   1.340  -0.268  1.00  0.00     0.167 HD
BRANCH  25  27
HETATM   27  C22 UNL     1      -0.073   2.979  -0.338  1.00  0.00     0.035 A 
HETATM   28  C23 UNL     1      -0.402   3.775   0.754  1.00  0.00     0.032 A 
HETATM   29  C24 UNL     1      -0.703   5.111   0.600  1.00  0.00     0.034 A 
HETATM   30  C25 UNL     1      -0.688   5.709  -0.642  1.00  0.00     0.060 A 
HETATM   31  N7  UNL     1      -0.926   6.947  -1.097  1.00  0.00    -0.351 N 
HETATM   32  C27 UNL     1      -0.365   4.936  -1.724  1.00  0.00     0.062 A 
HETATM   33  C26 UNL     1      -0.763   6.976  -2.430  1.00  0.00     0.181 A 
ATOM     34  H7  UNL     1      -1.190   7.745  -0.519  1.00  0.00     0.166 HD
HETATM   35  N8  UNL     1      -0.418   5.735  -2.814  1.00  0.00    -0.350 N 
ATOM     36  H8  UNL     1      -0.227   5.443  -3.772  1.00  0.00     0.166 HD
HETATM   37  C28 UNL     1      -0.064   3.598  -1.577  1.00  0.00     0.061 A 
ENDBRANCH  25  27
ENDBRANCH   6  25
BRANCH   1  38
HETATM   38  N2  UNL     1      -4.161   0.429   0.219  1.00  0.00    -0.217 N 
ATOM     39  H2  UNL     1      -4.413   1.414   0.139  1.00  0.00     0.178 HD
BRANCH  38  40
HETATM   40  C6  UNL     1      -5.175  -0.574   0.394  1.00  0.00     0.240 C 
BRANCH  40  41
HETATM   41  C5  UNL     1      -6.541  -0.002   0.430  1.00  0.00     0.237 C 
HETATM   42  N1  UNL     1      -7.641  -0.859   0.594  1.00  0.00    -0.351 N 
HETATM   43  O1  UNL     1      -6.640   1.248   0.310  1.00  0.00    -0.272 OA
BRANCH  42  44
HETATM   44  C2  UNL     1      -7.449  -2.274   0.723  1.00  0.00     0.121 C 
HETATM   45  C1  UNL     1      -7.469  -2.987  -0.612  1.00  0.00     0.026 C 
ENDBRANCH  42  44
BRANCH  42  46
HETATM   46  C3  UNL     1      -8.968  -0.309   0.632  1.00  0.00     0.121 C 
HETATM   47  C4  UNL     1      -9.602  -0.225  -0.736  1.00  0.00     0.026 C 
ENDBRANCH  42  46
ENDBRANCH  40  41
ENDBRANCH  38  40
ENDBRANCH   1  38
TORSDOF 14
