REMARK  0 active torsions:
REMARK  status: ('A' for Active; 'I' for Inactive)
ROOT
HETATM    1  C1  UNL     1      -0.090  -2.074   0.448  1.00  0.00     0.035 C 
HETATM    2  C2  UNL     1       0.407  -0.837  -0.231  1.00  0.00     0.107 C 
HETATM    3  N1  UNL     1       1.414  -0.130   0.526  1.00  0.00    -0.358 N 
ATOM      4  H1  UNL     1       2.036  -0.521   1.233  1.00  0.00     0.162 HD
HETATM    5  C3  UNL     1       1.362   1.220   0.086  1.00  0.00     0.185 C 
HETATM    6  N2  UNL     1       2.425   2.194   0.158  1.00  0.00    -0.064 NA
HETATM    7  N3  UNL     1       0.185   1.433  -0.396  1.00  0.00    -0.354 N 
ATOM      8  H3  UNL     1      -0.123   2.326  -0.782  1.00  0.00     0.163 HD
HETATM    9  C4  UNL     1      -0.647   0.249  -0.322  1.00  0.00     0.045 C 
HETATM   10  C5  UNL     1      -1.433   0.323   0.952  1.00  0.00     0.040 C 
HETATM   11  C6  UNL     1      -1.492   0.066  -1.539  1.00  0.00     0.040 C 
ENDROOT
TORSDOF 0
