REMARK  11 active torsions:
REMARK  status: ('A' for Active; 'I' for Inactive)
REMARK    1  A    between atoms: O1_2  and  C2_3 
REMARK    2  A    between atoms: C2_3  and  C3_4 
REMARK    3  A    between atoms: C3_4  and  C4_5 
REMARK    4  A    between atoms: C6_7  and  N1_8 
REMARK    5  A    between atoms: N1_8  and  C7_10 
REMARK    6  A    between atoms: C7_10  and  C8_11 
REMARK    7  A    between atoms: C8_11  and  N2_12 
REMARK    8  A    between atoms: N6_20  and  C11_22 
REMARK    9  A    between atoms: C11_22  and  C12_23 
REMARK   10  A    between atoms: C12_23  and  C13_24 
REMARK   11  A    between atoms: C16_27  and  O2_28 
ROOT
HETATM    1  C4  UNL     1      -1.232   2.315  -0.693  1.00  0.00    -0.049 A 
HETATM    2  C5  UNL     1      -2.290   1.450  -0.516  1.00  0.00     0.055 A 
HETATM    3  C6  UNL     1      -2.125   0.255   0.136  1.00  0.00     0.102 A 
HETATM    4  N5  UNL     1      -0.922  -0.080   0.610  1.00  0.00    -0.329 N 
ATOM      5  H5  UNL     1      -0.805  -0.970   1.095  1.00  0.00     0.169 HD
HETATM    6  C10 UNL     1       0.130   0.729   0.461  1.00  0.00     0.102 A 
HETATM    7  N6  UNL     1       1.290   0.355   0.944  1.00  0.00    -0.376 N 
ATOM      8  H6  UNL     1       2.103   0.962   0.838  1.00  0.00     0.161 HD
HETATM    9  C20 UNL     1      -0.005   1.928  -0.186  1.00  0.00     0.055 A 
ENDROOT
BRANCH   7  10
HETATM   10  C11 UNL     1       1.424  -0.910   1.624  1.00  0.00     0.126 C 
BRANCH  10  11
HETATM   11  C12 UNL     1       2.803  -0.940   2.248  1.00  0.00     0.058 C 
BRANCH  11  12
HETATM   12  C13 UNL     1       3.885  -0.816   1.262  1.00  0.00    -0.057 A 
HETATM   13  C14 UNL     1       4.350   0.462   0.936  1.00  0.00     0.010 A 
HETATM   14  C15 UNL     1       5.364   0.564   0.011  1.00  0.00     0.037 A 
HETATM   15  C16 UNL     1       5.942  -0.529  -0.608  1.00  0.00     0.068 A 
HETATM   16  C18 UNL     1       5.465  -1.782  -0.268  1.00  0.00     0.037 A 
HETATM   17  C19 UNL     1       4.443  -1.913   0.661  1.00  0.00     0.010 A 
BRANCH  15  18
HETATM   18  O2  UNL     1       6.957  -0.321  -1.525  1.00  0.00    -0.356 OA
HETATM   19  C17 UNL     1       7.605  -1.368  -2.205  1.00  0.00     0.210 C 
ENDBRANCH  15  18
ENDBRANCH  11  12
ENDBRANCH  10  11
ENDBRANCH   7  10
BRANCH   3  20
HETATM   20  N1  UNL     1      -3.207  -0.635   0.320  1.00  0.00    -0.375 N 
ATOM     21  H1  UNL     1      -4.130  -0.388  -0.037  1.00  0.00     0.161 HD
BRANCH  20  22
HETATM   22  C7  UNL     1      -3.021  -1.879   1.002  1.00  0.00     0.141 C 
BRANCH  22  23
HETATM   23  C8  UNL     1      -4.342  -2.614   1.046  1.00  0.00     0.141 C 
BRANCH  23  24
HETATM   24  N2  UNL     1      -4.769  -2.841  -0.316  1.00  0.00    -0.365 N 
HETATM   25  C9  UNL     1      -5.659  -3.699  -0.648  1.00  0.00     0.197 C 
HETATM   26  N3  UNL     1      -6.006  -3.845  -2.009  1.00  0.00    -0.067 NA
HETATM   27  N4  UNL     1      -6.299  -4.501   0.320  1.00  0.00    -0.067 NA
ATOM     28  H2  UNL     1      -4.337  -2.286  -1.055  1.00  0.00     0.161 HD
ENDBRANCH  23  24
ENDBRANCH  22  23
ENDBRANCH  20  22
ENDBRANCH   3  20
BRANCH   1  29
HETATM   29  C3  UNL     1      -1.374   3.631  -1.401  1.00  0.00     0.065 C 
BRANCH  29  30
HETATM   30  C2  UNL     1      -1.734   4.724  -0.412  1.00  0.00     0.171 C 
BRANCH  30  31
HETATM   31  O1  UNL     1      -1.887   5.965  -0.995  1.00  0.00    -0.396 OA
HETATM   32  C1  UNL     1      -0.771   6.448  -1.639  1.00  0.00     0.201 C 
ENDBRANCH  30  31
ENDBRANCH  29  30
ENDBRANCH   1  29
TORSDOF 11
