REMARK  12 active torsions:
REMARK  status: ('A' for Active; 'I' for Inactive)
REMARK    1  A    between atoms: C1_2  and  C2_4 
REMARK    2  A    between atoms: C4_7  and  C5_8 
REMARK    3  A    between atoms: C5_8  and  C6_9 
REMARK    4  A    between atoms: C6_9  and  C7_10 
REMARK    5  A    between atoms: C7_10  and  N2_11 
REMARK    6  A    between atoms: C7_10  and  C8_15 
REMARK    7  A    between atoms: C7_10  and  C17_24 
REMARK    8  A    between atoms: C8_15  and  C9_16 
REMARK    9  A    between atoms: C9_16  and  C10_17 
REMARK   10  A    between atoms: C10_17  and  C11_18 
REMARK   11  A    between atoms: C17_24  and  C18_25 
REMARK   12  A    between atoms: C18_25  and  N3_26 
ROOT
HETATM    1  C7  UNL     1       0.036  -0.549   0.840  1.00  0.00     0.125 C 
ENDROOT
BRANCH   1   2
HETATM    2  C6  UNL     1      -1.388  -1.058   0.814  1.00  0.00     0.045 C 
BRANCH   2   3
HETATM    3  C5  UNL     1      -1.572  -2.429   0.280  1.00  0.00     0.067 C 
BRANCH   3   4
HETATM    4  C4  UNL     1      -3.041  -2.827   0.306  1.00  0.00     0.051 A 
HETATM    5  S1  UNL     1      -3.917  -3.605   1.550  1.00  0.00    -0.086 SA
HETATM    6  C3  UNL     1      -5.442  -3.668   0.782  1.00  0.00     0.086 A 
HETATM    7  C2  UNL     1      -5.177  -3.065  -0.429  1.00  0.00     0.105 A 
HETATM    8  N6  UNL     1      -3.951  -2.661  -0.616  1.00  0.00    -0.349 N 
ATOM      9  H6  UNL     1      -3.699  -2.209  -1.495  1.00  0.00     0.166 HD
BRANCH   7  10
HETATM   10  C1  UNL     1      -6.245  -2.897  -1.448  1.00  0.00     0.281 C 
HETATM   11  N1  UNL     1      -5.927  -2.276  -2.669  1.00  0.00    -0.056 NA
HETATM   12  O1  UNL     1      -7.381  -3.304  -1.203  1.00  0.00    -0.269 OA
ENDBRANCH   7  10
ENDBRANCH   3   4
ENDBRANCH   2   3
ENDBRANCH   1   2
BRANCH   1  13
HETATM   13  N2  UNL     1       0.785  -1.453   1.687  1.00  0.00    -0.070 N 
ATOM     14  H23 UNL     1       0.380  -1.563   2.616  1.00  0.00     0.275 HD
ATOM     15  H22 UNL     1       0.711  -2.429   1.399  1.00  0.00     0.275 HD
ATOM     16  H21 UNL     1       1.745  -1.110   1.705  1.00  0.00     0.275 HD
ENDBRANCH   1  13
BRANCH   1  17
HETATM   17  C8  UNL     1       0.514  -0.418  -0.551  1.00  0.00     0.039 C 
BRANCH  17  18
HETATM   18  C9  UNL     1       1.881   0.091  -0.794  1.00  0.00     0.007 C 
BRANCH  18  19
HETATM   19  C10 UNL     1       3.016  -0.706  -0.223  1.00  0.00     0.038 C 
BRANCH  19  20
HETATM   20  C11 UNL     1       4.324  -0.045  -0.612  1.00  0.00    -0.058 A 
HETATM   21  C12 UNL     1       4.907   0.918   0.183  1.00  0.00     0.007 A 
HETATM   22  C13 UNL     1       6.092   1.461  -0.250  1.00  0.00     0.001 A 
HETATM   23  C14 UNL     1       6.670   1.055  -1.434  1.00  0.00     0.000 A 
HETATM   24  C15 UNL     1       6.055   0.081  -2.211  1.00  0.00     0.001 A 
HETATM   25  C16 UNL     1       4.878  -0.472  -1.801  1.00  0.00     0.007 A 
ENDBRANCH  19  20
ENDBRANCH  18  19
ENDBRANCH  17  18
ENDBRANCH   1  17
BRANCH   1  26
HETATM   26  C17 UNL     1       0.034   0.789   1.549  1.00  0.00     0.058 C 
BRANCH  26  27
HETATM   27  C18 UNL     1      -0.831   1.823   0.874  1.00  0.00     0.124 C 
BRANCH  27  28
HETATM   28  N3  UNL     1      -0.709   3.032   1.705  1.00  0.00    -0.367 N 
HETATM   29  C19 UNL     1      -1.105   4.181   1.257  1.00  0.00     0.196 C 
HETATM   30  N4  UNL     1      -1.664   4.305  -0.045  1.00  0.00    -0.067 NA
HETATM   31  N5  UNL     1      -0.947   5.290   2.131  1.00  0.00    -0.067 NA
ATOM     32  H3  UNL     1      -0.309   2.964   2.641  1.00  0.00     0.161 HD
ENDBRANCH  27  28
ENDBRANCH  26  27
ENDBRANCH   1  26
TORSDOF 12
