REMARK  7 active torsions:
REMARK  status: ('A' for Active; 'I' for Inactive)
REMARK    1  A    between atoms: N2_9  and  C7_10 
REMARK    2  A    between atoms: C7_10  and  N3_12 
REMARK       I    between atoms: N3_12  and  C8_14 
REMARK    3  A    between atoms: C8_14  and  C9_16 
REMARK    4  A    between atoms: C12_19  and  C13_20 
REMARK    5  A    between atoms: C13_20  and  O2_21 
REMARK    6  A    between atoms: O2_21  and  C14_22 
REMARK    7  A    between atoms: C16_26  and  C17_27 
ROOT
HETATM    1  C9  UNL     1       0.661   0.314  -1.659  1.00  0.00     0.078 C 
HETATM    2  C10 UNL     1       1.052   1.127  -0.446  1.00  0.00     0.014 C 
HETATM    3  C11 UNL     1       2.122   0.417   0.348  1.00  0.00     0.007 C 
HETATM    4  C12 UNL     1       2.919  -0.446  -0.603  1.00  0.00     0.010 C 
HETATM    5  C19 UNL     1       2.090  -1.628  -0.984  1.00  0.00     0.007 C 
HETATM    6  C20 UNL     1       0.683  -1.138  -1.288  1.00  0.00     0.014 C 
ENDROOT
BRANCH   1   7
HETATM    7  C8  UNL     1      -0.750   0.627  -2.094  1.00  0.00     0.228 C 
HETATM    8  N3  UNL     1      -1.819   0.423  -1.195  1.00  0.00    -0.303 N 
ATOM      9  H3  UNL     1      -1.635   0.067  -0.257  1.00  0.00     0.171 HD
HETATM   10  O1  UNL     1      -0.984   1.064  -3.245  1.00  0.00    -0.273 OA
BRANCH   8  11
HETATM   11  C7  UNL     1      -3.145   0.711  -1.593  1.00  0.00     0.176 C 
HETATM   12  S1  UNL     1      -3.515   1.280  -3.074  1.00  0.00    -0.041 SA
BRANCH  11  13
HETATM   13  N2  UNL     1      -4.233   0.511  -0.674  1.00  0.00    -0.353 N 
HETATM   14  C6  UNL     1      -5.559   0.814  -1.129  1.00  0.00     0.166 C 
HETATM   15  C5  UNL     1      -6.598   0.029  -0.425  1.00  0.00    -0.010 A 
HETATM   16  C2  UNL     1      -7.777  -0.517  -0.821  1.00  0.00    -0.037 A 
HETATM   17  C4  UNL     1      -6.389  -0.249   0.938  1.00  0.00     0.019 A 
HETATM   18  C1  UNL     1      -8.418  -0.488  -2.161  1.00  0.00     0.050 C 
HETATM   19  C3  UNL     1      -8.311  -1.137   0.292  1.00  0.00     0.095 A 
HETATM   20  N1  UNL     1      -7.453  -0.960   1.336  1.00  0.00    -0.368 N 
ATOM     21  H1  UNL     1      -7.599  -1.316   2.281  1.00  0.00     0.165 HD
HETATM   22  C22 UNL     1      -5.160   0.247   1.604  1.00  0.00     0.077 C 
HETATM   23  C21 UNL     1      -3.994   0.020   0.669  1.00  0.00     0.131 C 
ENDBRANCH  11  13
ENDBRANCH   8  11
ENDBRANCH   1   7
BRANCH   4  24
HETATM   24  C13 UNL     1       4.255  -0.810   0.008  1.00  0.00     0.183 C 
BRANCH  24  25
HETATM   25  O2  UNL     1       4.943   0.380   0.260  1.00  0.00    -0.322 OA
BRANCH  25  26
HETATM   26  C14 UNL     1       6.221   0.414   0.828  1.00  0.00     0.223 A 
HETATM   27  N4  UNL     1       6.871  -0.713   1.168  1.00  0.00    -0.332 N 
HETATM   28  C15 UNL     1       8.100  -0.704   1.715  1.00  0.00     0.105 A 
ATOM     29  H4  UNL     1       6.414  -1.610   1.005  1.00  0.00     0.168 HD
HETATM   30  C16 UNL     1       8.755   0.486   1.952  1.00  0.00     0.036 A 
HETATM   31  C18 UNL     1       8.081   1.638   1.600  1.00  0.00     0.105 A 
HETATM   32  N5  UNL     1       6.851   1.579   1.055  1.00  0.00    -0.332 N 
ATOM     33  H5  UNL     1       6.381   2.449   0.806  1.00  0.00     0.168 HD
BRANCH  30  34
HETATM   34  C17 UNL     1      10.119   0.560   2.555  1.00  0.00     0.389 C 
HETATM   35  F1  UNL     1      11.022   1.121   1.655  1.00  0.00    -0.209 F 
HETATM   36  F2  UNL     1      10.157   1.305   3.698  1.00  0.00    -0.209 F 
ENDBRANCH  30  34
ENDBRANCH  25  26
ENDBRANCH  24  25
ENDBRANCH   4  24
TORSDOF 7
