REMARK  3 active torsions:
REMARK  status: ('A' for Active; 'I' for Inactive)
REMARK    1  A    between atoms: C3_3  and  N1_4 
REMARK       I    between atoms: N1_4  and  C4_6 
REMARK       I    between atoms: C4_6  and  N3_10 
REMARK    2  A    between atoms: N3_10  and  N4_12 
REMARK    3  A    between atoms: N4_12  and  N5_14 
ROOT
HETATM    1  C1  UNL     1       4.525   0.780  -0.335  1.00  0.00     0.014 C 
HETATM    2  C2  UNL     1       3.325   0.749  -0.502  1.00  0.00    -0.097 C 
HETATM    3  C3  UNL     1       1.860   0.682  -0.723  1.00  0.00     0.231 C 
ENDROOT
BRANCH   3   4
HETATM    4  N1  UNL     1       1.264  -0.263   0.216  1.00  0.00    -0.215 N 
HETATM    5  C4  UNL     1      -0.059  -0.687   0.101  1.00  0.00     0.690 C 
HETATM    6  N2  UNL     1      -0.277  -1.947   0.252  1.00  0.00    -0.229 N 
HETATM    7  N3  UNL     1      -1.121   0.178  -0.163  1.00  0.00    -0.113 N 
HETATM    8  C5  UNL     1      -1.546  -2.603   0.176  1.00  0.00     0.165 C 
ATOM      9  H2  UNL     1       0.534  -2.535   0.445  1.00  0.00     0.177 HD
ATOM     10  H3  UNL     1      -1.412   0.265  -1.137  1.00  0.00     0.207 HD
ATOM     11  H1  UNL     1       1.834  -0.625   0.981  1.00  0.00     0.178 HD
BRANCH   7  12
HETATM   12  N4  UNL     1      -1.827   0.938   0.776  1.00  0.00    -0.168 N 
ATOM     13  H4  UNL     1      -1.864   0.647   1.753  1.00  0.00     0.215 HD
BRANCH  12  14
HETATM   14  N5  UNL     1      -2.477   2.093   0.363  1.00  0.00    -0.023 N 
HETATM   15  O1  UNL     1      -3.427   2.034  -0.425  1.00  0.00    -0.515 OA
HETATM   16  O2  UNL     1      -2.074   3.309   0.819  1.00  0.00    -0.515 OA
ENDBRANCH  12  14
ENDBRANCH   7  12
ENDBRANCH   3   4
TORSDOF 3
