REMARK  7 active torsions:
REMARK  status: ('A' for Active; 'I' for Inactive)
REMARK       I    between atoms: C2_4  and  N2_5 
REMARK       I    between atoms: C2_4  and  N3_16 
REMARK    1  A    between atoms: N2_5  and  C3_7 
REMARK    2  A    between atoms: C3_7  and  C4_8 
REMARK    3  A    between atoms: C5_9  and  C6_10 
REMARK    4  A    between atoms: C6_10  and  C7_11 
REMARK       I    between atoms: N3_16  and  C12_18 
REMARK    5  A    between atoms: C12_18  and  C13_20 
REMARK    6  A    between atoms: C13_20  and  C14_21 
REMARK    7  A    between atoms: C13_20  and  N4_23 
ROOT
HETATM    1  C1  UNL     1      -1.617   4.915  -0.465  1.00  0.00     0.165 C 
HETATM    2  N1  UNL     1      -0.730   3.802  -0.246  1.00  0.00    -0.231 N 
ATOM      3  H1  UNL     1       0.262   3.988  -0.102  1.00  0.00     0.177 HD
HETATM    4  C2  UNL     1      -1.139   2.581  -0.225  1.00  0.00     0.676 C 
HETATM    5  N2  UNL     1      -0.120   1.577   0.008  1.00  0.00    -0.223 N 
ATOM      6  H2  UNL     1      -0.074   1.063   0.888  1.00  0.00     0.178 HD
HETATM    7  N3  UNL     1      -2.501   2.223  -0.417  1.00  0.00    -0.158 N 
ATOM      8  H3  UNL     1      -3.184   2.963  -0.578  1.00  0.00     0.187 HD
HETATM    9  C12 UNL     1      -2.941   0.894  -0.394  1.00  0.00     0.259 C 
HETATM   10  O1  UNL     1      -2.053   0.006  -0.198  1.00  0.00    -0.270 OA
ENDROOT
BRANCH   5  11
HETATM   11  C3  UNL     1       0.807   1.337  -1.031  1.00  0.00     0.165 C 
BRANCH  11  12
HETATM   12  C4  UNL     1       1.806   0.305  -0.716  1.00  0.00    -0.011 C 
HETATM   13  C5  UNL     1       1.858  -0.349   0.410  1.00  0.00    -0.029 C 
BRANCH  13  14
HETATM   14  C6  UNL     1       2.869  -1.385   0.719  1.00  0.00     0.031 C 
BRANCH  14  15
HETATM   15  C7  UNL     1       3.881  -1.592  -0.364  1.00  0.00    -0.011 C 
HETATM   16  C8  UNL     1       4.795  -2.723   0.120  1.00  0.00     0.005 C 
HETATM   17  C9  UNL     1       5.835  -2.040   0.949  1.00  0.00     0.000 C 
HETATM   18  C10 UNL     1       6.108  -0.748   0.211  1.00  0.00     0.000 C 
HETATM   19  C11 UNL     1       4.806  -0.377  -0.410  1.00  0.00     0.005 C 
ENDBRANCH  14  15
ENDBRANCH  13  14
ENDBRANCH  11  12
ENDBRANCH   5  11
BRANCH   9  20
HETATM   20  C13 UNL     1      -4.314   0.386  -0.572  1.00  0.00     0.186 C 
BRANCH  20  21
HETATM   21  C14 UNL     1      -5.273   0.777   0.520  1.00  0.00     0.120 C 
HETATM   22 BR1  UNL     1      -5.495   2.684   0.680  1.00  0.00    -0.094 Br
ENDBRANCH  20  21
BRANCH  20  23
HETATM   23  N4  UNL     1      -4.351  -1.002  -0.878  1.00  0.00    -0.353 N 
HETATM   24  C15 UNL     1      -4.858  -2.001  -0.361  1.00  0.00     0.197 C 
HETATM   25  N5  UNL     1      -4.656  -3.271  -1.002  1.00  0.00    -0.067 NA
HETATM   26  N6  UNL     1      -5.632  -2.033   0.817  1.00  0.00    -0.067 NA
ATOM     27  H4  UNL     1      -3.835  -1.225  -1.729  1.00  0.00     0.162 HD
ENDBRANCH  20  23
ENDBRANCH   9  20
TORSDOF 7
