REMARK  1 active torsions:
REMARK  status: ('A' for Active; 'I' for Inactive)
REMARK    1  A    between atoms: N1_2  and  C2_4 
ROOT
HETATM    1  C2  UNL     1       0.851  -0.174   0.008  1.00  0.00     0.177 C 
HETATM    2  N2  UNL     1       1.170  -1.329  -0.450  1.00  0.00    -0.377 N 
ATOM      3  H21 UNL     1       2.040  -1.407  -0.977  1.00  0.00     0.158 HD
ATOM      4  H22 UNL     1       0.607  -2.169  -0.318  1.00  0.00     0.158 HD
HETATM    5  C3  UNL     1       1.644   1.008  -0.178  1.00  0.00     0.136 C 
HETATM    6  N3  UNL     1       2.281   1.957  -0.345  1.00  0.00    -0.188 NA
ENDROOT
BRANCH   1   7
HETATM    7  N1  UNL     1      -0.369  -0.065   0.747  1.00  0.00    -0.372 N 
HETATM    8  C1  UNL     1      -1.593  -0.029  -0.015  1.00  0.00     0.148 C 
ATOM      9  H1  UNL     1      -0.373  -0.015   1.766  1.00  0.00     0.161 HD
ENDBRANCH   1   7
TORSDOF 1
