REMARK  4 active torsions:
REMARK  status: ('A' for Active; 'I' for Inactive)
REMARK    1  A    between atoms: C2_2  and  C4_4 
REMARK    2  A    between atoms: C4_4  and  C5_5 
REMARK    3  A    between atoms: C9_12  and  O4_13 
REMARK    4  A    between atoms: C10_15  and  O5_16 
ROOT
HETATM    1  C5  UNL     1      -0.123   0.166  -0.082  1.00  0.00     0.157 C 
HETATM    2  O1  UNL     1       0.956   0.673   0.637  1.00  0.00    -0.343 OA
HETATM    3  C6  UNL     1       2.089   0.036   0.143  1.00  0.00     0.217 C 
HETATM    4  C7  UNL     1       2.677   0.861  -0.984  1.00  0.00     0.241 C 
HETATM    5  O2  UNL     1       3.282   1.884  -0.252  1.00  0.00    -0.361 OA
HETATM    6  C8  UNL     1       3.845   1.221   0.828  1.00  0.00     0.341 C 
HETATM    7  O3  UNL     1       3.087   0.099   1.083  1.00  0.00    -0.326 OA
HETATM    8  C9  UNL     1       1.692  -1.335  -0.271  1.00  0.00     0.214 C 
HETATM    9  C10 UNL     1       0.185  -1.313  -0.097  1.00  0.00     0.181 C 
ENDROOT
BRANCH   1  10
HETATM   10  C4  UNL     1      -1.369   0.473   0.716  1.00  0.00     0.038 C 
BRANCH  10  11
HETATM   11  C2  UNL     1      -2.626  -0.022   0.050  1.00  0.00    -0.020 C 
HETATM   12  C1  UNL     1      -3.787   0.349   0.950  1.00  0.00     0.009 C 
HETATM   13  C3  UNL     1      -2.847   0.617  -1.298  1.00  0.00     0.009 C 
ENDBRANCH  10  11
ENDBRANCH   1  10
BRANCH   9  14
HETATM   14  O5  UNL     1      -0.453  -1.954  -1.159  1.00  0.00    -0.390 OA
ATOM     15  H5  UNL     1      -0.259  -2.884  -1.168  1.00  0.00     0.210 HD
ENDBRANCH   9  14
BRANCH   8  16
HETATM   16  O4  UNL     1       2.229  -2.331   0.549  1.00  0.00    -0.387 OA
ATOM     17  H4  UNL     1       1.975  -3.207   0.284  1.00  0.00     0.210 HD
ENDBRANCH   8  16
TORSDOF 4
