REMARK  4 active torsions:
REMARK  status: ('A' for Active; 'I' for Inactive)
REMARK    1  A    between atoms: C2_7  and  C3_8 
REMARK    2  A    between atoms: C5_12  and  N5_13 
REMARK    3  A    between atoms: N5_13  and  C6_15 
REMARK    4  A    between atoms: C7_19  and  N7_20 
ROOT
HETATM    1  C3  UNL     1       1.105  -0.712  -0.134  1.00  0.00     0.155 A 
HETATM    2  N4  UNL     1       0.222   0.280   0.055  1.00  0.00    -0.334 N 
ATOM      3  H4  UNL     1       0.552   1.232   0.213  1.00  0.00     0.168 HD
HETATM    4  C4  UNL     1      -1.118   0.018   0.037  1.00  0.00     0.110 A 
HETATM    5  C5  UNL     1      -2.050   1.002   0.225  1.00  0.00     0.152 A 
HETATM    6  N6  UNL     1      -3.372   0.729   0.205  1.00  0.00    -0.174 N 
ATOM      7  H6  UNL     1      -4.058   1.470   0.346  1.00  0.00     0.186 HD
HETATM    8  C7  UNL     1      -3.766  -0.540  -0.005  1.00  0.00     0.678 A 
HETATM    9  N8  UNL     1      -2.899  -1.558  -0.198  1.00  0.00    -0.186 N 
ATOM     10  H8  UNL     1      -3.228  -2.510  -0.356  1.00  0.00     0.184 HD
HETATM   11  C8  UNL     1      -1.578  -1.267  -0.174  1.00  0.00     0.123 A 
HETATM   12  C9  UNL     1      -0.649  -2.260  -0.364  1.00  0.00     0.130 A 
HETATM   13  N9  UNL     1      -0.987  -3.486  -0.568  1.00  0.00    -0.384 N 
ATOM     14  H91 UNL     1      -0.297  -4.224  -0.709  1.00  0.00     0.157 HD
ATOM     15  H92 UNL     1      -1.983  -3.706  -0.586  1.00  0.00     0.157 HD
HETATM   16  N10 UNL     1       0.677  -1.967  -0.340  1.00  0.00    -0.324 N 
ATOM     17  H10 UNL     1       1.358  -2.713  -0.481  1.00  0.00     0.169 HD
ENDROOT
BRANCH   1  18
HETATM   18  C2  UNL     1       2.557  -0.470  -0.121  1.00  0.00     0.182 A 
HETATM   19  N3  UNL     1       3.537  -1.372  -0.296  1.00  0.00    -0.265 N 
HETATM   20  N2  UNL     1       4.715  -0.781  -0.218  1.00  0.00    -0.225 N 
ATOM     21  H3  UNL     1       3.392  -2.368  -0.464  1.00  0.00     0.190 HD
HETATM   22  N1  UNL     1       4.480   0.498   0.006  1.00  0.00    -0.223 N 
ATOM     23  H2  UNL     1       5.628  -1.226  -0.312  1.00  0.00     0.210 HD
HETATM   24  C1  UNL     1       5.472   1.543   0.166  1.00  0.00     0.202 C 
HETATM   25  N11 UNL     1       3.178   0.711   0.069  1.00  0.00    -0.264 N 
ATOM     26  H11 UNL     1       2.723   1.609   0.232  1.00  0.00     0.190 HD
ENDBRANCH   1  18
BRANCH   5  27
HETATM   27  N5  UNL     1      -1.664   2.206   0.424  1.00  0.00    -0.318 N 
ATOM     28  H5  UNL     1      -0.658   2.375   0.433  1.00  0.00     0.169 HD
BRANCH  27  29
HETATM   29  C6  UNL     1      -2.499   3.314   0.631  1.00  0.00     0.354 C 
HETATM   30  O1  UNL     1      -2.237   4.066   1.618  1.00  0.00    -0.283 OA
ENDBRANCH  27  29
ENDBRANCH   5  27
BRANCH   8  31
HETATM   31  N7  UNL     1      -5.026  -0.852  -0.033  1.00  0.00    -0.234 N 
ATOM     32  H72 UNL     1      -5.681  -0.083   0.113  1.00  0.00     0.174 HD
ATOM     33  H71 UNL     1      -5.325  -1.814  -0.192  1.00  0.00     0.174 HD
ENDBRANCH   8  31
TORSDOF 4
