REMARK  14 active torsions:
REMARK  status: ('A' for Active; 'I' for Inactive)
REMARK    1  A    between atoms: C2_2  and  C3_3 
REMARK    2  A    between atoms: C3_3  and  N1_4 
REMARK    3  A    between atoms: N1_4  and  C4_5 
REMARK       I    between atoms: N1_4  and  C6_7 
REMARK    4  A    between atoms: C6_7  and  C7_9 
REMARK    5  A    between atoms: C7_9  and  N2_10 
REMARK    6  A    between atoms: C7_9  and  C15_21 
REMARK       I    between atoms: N2_10  and  C8_12 
REMARK    7  A    between atoms: C8_12  and  C9_14 
REMARK    8  A    between atoms: C9_14  and  N3_15 
REMARK    9  A    between atoms: C15_21  and  N4_22 
REMARK       I    between atoms: N4_22  and  C16_24 
REMARK   10  A    between atoms: C16_24  and  O4_26 
REMARK   11  A    between atoms: O4_26  and  C17_27 
REMARK   12  A    between atoms: C21_35  and  O5_36 
REMARK   13  A    between atoms: O5_36  and  C22_37 
REMARK   14  A    between atoms: C22_37  and  C23_39 
ROOT
HETATM    1  C15 UNL     1       0.100  -1.181   0.648  1.00  0.00     0.131 C 
HETATM    2  C19 UNL     1       0.601   0.239   0.802  1.00  0.00     0.328 C 
HETATM    3  C20 UNL     1      -0.031   1.076   1.772  1.00  0.00     0.095 C 
HETATM    4  N5  UNL     1      -0.550   1.808   2.535  1.00  0.00    -0.195 NA
HETATM    5  N6  UNL     1       2.029   0.306   0.929  1.00  0.00    -0.021 N 
ATOM      6  H61 UNL     1       2.343  -0.117   1.802  1.00  0.00     0.282 HD
ATOM      7  H62 UNL     1       2.342   1.263   1.092  1.00  0.00     0.282 HD
HETATM    8  C21 UNL     1       2.702  -0.279  -0.209  1.00  0.00     0.263 C 
HETATM    9  C29 UNL     1       1.703  -0.679  -1.296  1.00  0.00     0.107 C 
HETATM   10  C30 UNL     1       0.928  -1.709  -0.536  1.00  0.00     0.160 C 
HETATM   11  O7  UNL     1       1.981  -2.489   0.031  1.00  0.00    -0.373 OA
HETATM   12  C31 UNL     1       3.079  -1.706   0.187  1.00  0.00     0.182 C 
HETATM   13  C32 UNL     1       3.731  -1.685   1.523  1.00  0.00     0.044 C 
ENDROOT
BRANCH   1  14
HETATM   14  C7  UNL     1      -1.395  -1.103   0.313  1.00  0.00     0.210 C 
BRANCH  14  15
HETATM   15  C6  UNL     1      -2.018  -2.397  -0.017  1.00  0.00     0.245 C 
HETATM   16  N1  UNL     1      -2.996  -3.112   0.758  1.00  0.00    -0.351 N 
HETATM   17  O1  UNL     1      -1.714  -3.020  -1.097  1.00  0.00    -0.271 OA
BRANCH  16  18
HETATM   18  C3  UNL     1      -3.561  -2.478   1.906  1.00  0.00     0.125 C 
BRANCH  18  19
HETATM   19  C2  UNL     1      -4.786  -1.660   1.692  1.00  0.00     0.015 C 
HETATM   20  C1  UNL     1      -6.000  -2.371   1.198  1.00  0.00     0.006 C 
ENDBRANCH  18  19
ENDBRANCH  16  18
BRANCH  16  21
HETATM   21  C4  UNL     1      -3.299  -4.507   0.398  1.00  0.00     0.121 C 
HETATM   22  C5  UNL     1      -4.333  -4.668  -0.661  1.00  0.00     0.026 C 
ENDBRANCH  16  21
ENDBRANCH  14  15
BRANCH  14  23
HETATM   23  N2  UNL     1      -1.493  -0.327  -0.965  1.00  0.00    -0.344 N 
HETATM   24  C8  UNL     1      -2.295   0.812  -1.116  1.00  0.00     0.235 C 
HETATM   25  O2  UNL     1      -3.013   1.296  -0.197  1.00  0.00    -0.272 OA
ATOM     26  H2  UNL     1      -0.948  -0.644  -1.766  1.00  0.00     0.163 HD
BRANCH  24  27
HETATM   27  C9  UNL     1      -2.323   1.516  -2.425  1.00  0.00     0.219 C 
BRANCH  27  28
HETATM   28  N3  UNL     1      -3.166   2.663  -2.466  1.00  0.00    -0.404 N 
HETATM   29  C10 UNL     1      -2.773   3.788  -1.708  1.00  0.00     0.117 C 
HETATM   30  C11 UNL     1      -3.480   5.026  -2.243  1.00  0.00     0.019 C 
HETATM   31  C12 UNL     1      -4.961   4.777  -2.304  1.00  0.00     0.003 C 
HETATM   32  C13 UNL     1      -5.276   3.467  -1.626  1.00  0.00     0.019 C 
HETATM   33  C14 UNL     1      -4.547   2.359  -2.374  1.00  0.00     0.117 C 
ENDBRANCH  27  28
ENDBRANCH  24  27
ENDBRANCH  14  23
ENDBRANCH   1  14
BRANCH   1  34
HETATM   34  N4  UNL     1       0.382  -2.053   1.742  1.00  0.00    -0.319 N 
HETATM   35  C16 UNL     1       0.111  -2.039   3.108  1.00  0.00     0.361 C 
HETATM   36  O3  UNL     1      -0.495  -1.198   3.788  1.00  0.00    -0.238 OA
ATOM     37  H4  UNL     1       0.905  -2.881   1.456  1.00  0.00     0.165 HD
BRANCH  35  38
HETATM   38  O4  UNL     1       0.576  -3.126   3.890  1.00  0.00    -0.304 OA
BRANCH  38  39
HETATM   39  C17 UNL     1       0.291  -3.098   5.298  1.00  0.00     0.176 C 
HETATM   40  C18 UNL     1       0.914  -1.867   5.917  1.00  0.00     0.034 C 
ENDBRANCH  38  39
ENDBRANCH  35  38
ENDBRANCH   1  34
BRANCH   8  41
HETATM   41  O5  UNL     1       3.799   0.423  -0.668  1.00  0.00    -0.278 OA
BRANCH  41  42
HETATM   42  C22 UNL     1       3.828   1.700  -1.133  1.00  0.00     0.265 C 
HETATM   43  O6  UNL     1       2.765   2.361  -1.174  1.00  0.00    -0.265 OA
BRANCH  42  44
HETATM   44  C23 UNL     1       5.098   2.317  -1.591  1.00  0.00     0.085 C 
HETATM   45  C24 UNL     1       6.027   2.297  -0.392  1.00  0.00     0.014 C 
HETATM   46  C25 UNL     1       7.440   2.666  -0.737  1.00  0.00     0.001 C 
HETATM   47  C26 UNL     1       7.973   1.914  -1.918  1.00  0.00     0.000 C 
HETATM   48  C27 UNL     1       7.035   2.144  -3.084  1.00  0.00     0.001 C 
HETATM   49  C28 UNL     1       5.714   1.516  -2.745  1.00  0.00     0.014 C 
ENDBRANCH  42  44
ENDBRANCH  41  42
ENDBRANCH   8  41
TORSDOF 14
