REMARK  3 active torsions:
REMARK  status: ('A' for Active; 'I' for Inactive)
REMARK    1  A    between atoms: C2_2  and  C3_3 
REMARK    2  A    between atoms: C4_6  and  C5_7 
REMARK    3  A    between atoms: C5_7  and  C6_9 
ROOT
HETATM    1  C3  UNL     1      -1.674   0.558   0.742  1.00  0.00     0.015 A 
HETATM    2  N1  UNL     1      -0.341   0.665   0.582  1.00  0.00    -0.355 N 
ATOM      3  H1  UNL     1       0.125   1.524   0.875  1.00  0.00     0.166 HD
HETATM    4  C4  UNL     1       0.394  -0.326   0.047  1.00  0.00     0.090 A 
HETATM    5  C10 UNL     1      -0.326  -1.463  -0.335  1.00  0.00    -0.025 A 
HETATM    6  C11 UNL     1       0.412  -2.531  -1.052  1.00  0.00     0.051 C 
HETATM    7  C12 UNL     1      -1.671  -1.612  -0.184  1.00  0.00    -0.046 A 
HETATM    8  C13 UNL     1      -2.440  -2.812  -0.565  1.00  0.00     0.049 C 
HETATM    9  C14 UNL     1      -2.389  -0.570   0.378  1.00  0.00    -0.033 A 
HETATM   10  C15 UNL     1      -3.841  -0.662   0.660  1.00  0.00     0.050 C 
ENDROOT
BRANCH   4  11
HETATM   11  C5  UNL     1       1.814  -0.344  -0.087  1.00  0.00     0.216 C 
HETATM   12  O1  UNL     1       2.385  -1.496   0.096  1.00  0.00    -0.285 OA
BRANCH  11  13
HETATM   13  C6  UNL     1       2.735   0.721  -0.406  1.00  0.00     0.109 A 
HETATM   14  C7  UNL     1       3.980   0.898   0.224  1.00  0.00     0.042 A 
HETATM   15  C8  UNL     1       4.489   0.035   1.334  1.00  0.00     0.071 C 
HETATM   16  N2  UNL     1       4.603   1.947  -0.272  1.00  0.00    -0.301 N 
HETATM   17  N3  UNL     1       3.822   2.479  -1.210  1.00  0.00    -0.266 N 
ATOM     18  H2  UNL     1       5.520   2.291   0.012  1.00  0.00     0.186 HD
HETATM   19  C9  UNL     1       2.679   1.758  -1.316  1.00  0.00     0.276 A 
ATOM     20  H3  UNL     1       4.049   3.304  -1.765  1.00  0.00     0.190 HD
HETATM   21  O2  UNL     1       1.739   1.992  -2.103  1.00  0.00    -0.266 OA
ENDBRANCH  11  13
ENDBRANCH   4  11
BRANCH   1  22
HETATM   22  C2  UNL     1      -2.486   1.737   1.231  1.00  0.00     0.053 C 
HETATM   23  C1  UNL     1      -3.186   2.350   0.020  1.00  0.00     0.011 C 
ENDBRANCH   1  22
TORSDOF 3
