REMARK  10 active torsions:
REMARK  status: ('A' for Active; 'I' for Inactive)
REMARK    1  A    between atoms: N1_1  and  C1_4 
REMARK    2  A    between atoms: C2_7  and  S1_8 
REMARK    3  A    between atoms: S1_8  and  N3_9 
REMARK    4  A    between atoms: N3_9  and  O1_11 
REMARK    5  A    between atoms: C3_13  and  O2_14 
REMARK    6  A    between atoms: O2_14  and  C4_15 
REMARK    7  A    between atoms: C4_15  and  N7_23 
REMARK    8  A    between atoms: N4_16  and  N5_18 
REMARK    9  A    between atoms: N5_18  and  N6_20 
REMARK   10  A    between atoms: N7_23  and  N8_25 
ROOT
HETATM    1  C1  UNL     1       3.369  -0.569  -0.427  1.00  0.00     0.679 A 
HETATM    2  N2  UNL     1       2.691   0.522  -0.829  1.00  0.00    -0.181 N 
ATOM      3  H2  UNL     1       3.102   1.128  -1.539  1.00  0.00     0.185 HD
HETATM    4  C2  UNL     1       1.470   0.840  -0.313  1.00  0.00     0.148 A 
HETATM    5  C3  UNL     1       0.887   0.041   0.649  1.00  0.00     0.183 A 
HETATM    6  C5  UNL     1       1.597  -1.073   1.050  1.00  0.00     0.296 A 
HETATM    7  O3  UNL     1       1.070  -1.808   1.931  1.00  0.00    -0.264 OA
HETATM    8  N9  UNL     1       2.803  -1.349   0.512  1.00  0.00    -0.154 N 
ATOM      9  H9  UNL     1       3.304  -2.179   0.829  1.00  0.00     0.187 HD
ENDROOT
BRANCH   5  10
HETATM   10  O2  UNL     1      -0.358   0.375   1.168  1.00  0.00    -0.269 OA
BRANCH  10  11
HETATM   11  C4  UNL     1      -1.477  -0.134   0.528  1.00  0.00     0.259 C 
HETATM   12  N4  UNL     1      -1.351  -0.349  -0.736  1.00  0.00    -0.249 N 
ATOM     13  H4  UNL     1      -0.456  -0.135  -1.176  1.00  0.00     0.192 HD
BRANCH  12  14
HETATM   14  N5  UNL     1      -2.375  -0.859  -1.535  1.00  0.00    -0.246 N 
ATOM     15  H5  UNL     1      -2.696  -1.822  -1.440  1.00  0.00     0.208 HD
BRANCH  14  16
HETATM   16  N6  UNL     1      -2.943   0.015  -2.477  1.00  0.00    -0.331 N 
ATOM     17  H62 UNL     1      -2.611   0.976  -2.560  1.00  0.00     0.178 HD
ATOM     18  H61 UNL     1      -3.692  -0.358  -3.061  1.00  0.00     0.178 HD
ENDBRANCH  14  16
ENDBRANCH  12  14
BRANCH  11  19
HETATM   19  N7  UNL     1      -2.675  -0.395   1.242  1.00  0.00    -0.270 N 
ATOM     20  H7  UNL     1      -3.323  -1.102   0.894  1.00  0.00     0.190 HD
BRANCH  19  21
HETATM   21  N8  UNL     1      -2.981   0.300   2.413  1.00  0.00    -0.342 N 
ATOM     22  H82 UNL     1      -2.322   1.003   2.747  1.00  0.00     0.176 HD
ATOM     23  H81 UNL     1      -3.842   0.112   2.926  1.00  0.00     0.176 HD
ENDBRANCH  19  21
ENDBRANCH  11  19
ENDBRANCH  10  11
ENDBRANCH   5  10
BRANCH   4  24
HETATM   24  S1  UNL     1       0.591   2.281  -0.856  1.00  0.00     0.029 SA
BRANCH  24  25
HETATM   25  N3  UNL     1       0.987   3.688   0.108  1.00  0.00    -0.236 N 
ATOM     26  H3  UNL     1       1.914   4.113   0.071  1.00  0.00     0.203 HD
BRANCH  25  27
HETATM   27  O1  UNL     1       0.133   4.127   0.806  1.00  0.00    -0.283 OA
ATOM     28  H1  UNL     1       0.348   4.890   1.329  1.00  0.00     0.245 HD
ENDBRANCH  25  27
ENDBRANCH  24  25
ENDBRANCH   4  24
BRANCH   1  29
HETATM   29  N1  UNL     1       4.526  -0.842  -0.936  1.00  0.00    -0.234 N 
ATOM     30  H12 UNL     1       4.955  -0.251  -1.648  1.00  0.00     0.174 HD
ATOM     31  H11 UNL     1       5.040  -1.669  -0.631  1.00  0.00     0.174 HD
ENDBRANCH   1  29
TORSDOF 10
