REMARK  9 active torsions:
REMARK  status: ('A' for Active; 'I' for Inactive)
REMARK    1  A    between atoms: N1_1  and  C1_5 
REMARK    2  A    between atoms: C1_5  and  C2_6 
REMARK    3  A    between atoms: C2_6  and  C3_7 
REMARK    4  A    between atoms: C3_7  and  C4_8 
REMARK    5  A    between atoms: C4_8  and  N2_9 
REMARK    6  A    between atoms: N3_12  and  C7_13 
REMARK    7  A    between atoms: C9_15  and  N4_16 
REMARK    8  A    between atoms: N4_16  and  C10_18 
REMARK    9  A    between atoms: C10_18  and  C11_19 
ROOT
HETATM    1  C7  UNL     1       0.075  -0.634   0.123  1.00  0.00     0.107 A 
HETATM    2  C8  UNL     1      -1.081   0.103  -0.009  1.00  0.00     0.096 A 
HETATM    3  C9  UNL     1      -2.311  -0.517   0.010  1.00  0.00     0.105 A 
HETATM    4  N6  UNL     1      -2.327  -1.874   0.162  1.00  0.00    -0.339 N 
ATOM      5  H6  UNL     1      -3.226  -2.356   0.178  1.00  0.00     0.168 HD
HETATM    6  C16 UNL     1      -1.204  -2.596   0.291  1.00  0.00     0.183 A 
HETATM    7  N7  UNL     1      -0.012  -1.977   0.271  1.00  0.00    -0.339 N 
ATOM      8  H7  UNL     1       0.841  -2.527   0.369  1.00  0.00     0.168 HD
ENDROOT
BRANCH   1   9
HETATM    9  N3  UNL     1       1.321   0.012   0.076  1.00  0.00    -0.364 N 
HETATM   10  C6  UNL     1       2.080  -0.025  -1.162  1.00  0.00     0.154 C 
HETATM   11  C5  UNL     1       3.070   1.069  -1.320  1.00  0.00     0.292 C 
HETATM   12  N2  UNL     1       3.710   1.529  -0.119  1.00  0.00     0.091 N 
HETATM   13  C18 UNL     1       3.403   0.667   1.007  1.00  0.00     0.292 C 
HETATM   14  C17 UNL     1       1.887   0.720   1.203  1.00  0.00     0.154 C 
BRANCH  12  15
HETATM   15  C4  UNL     1       5.147   1.679  -0.287  1.00  0.00     0.272 C 
BRANCH  15  16
HETATM   16  C3  UNL     1       5.823   0.327  -0.443  1.00  0.00     0.032 C 
BRANCH  16  17
HETATM   17  C2  UNL     1       7.306   0.534  -0.632  1.00  0.00     0.029 C 
BRANCH  17  18
HETATM   18  C1  UNL     1       7.973  -0.803  -0.783  1.00  0.00     0.229 C 
BRANCH  18  19
HETATM   19  N1  UNL     1       7.761  -1.613   0.382  1.00  0.00    -0.079 N 
ATOM     20  H13 UNL     1       8.060  -1.136   1.233  1.00  0.00     0.274 HD
ATOM     21  H12 UNL     1       6.769  -1.709   0.600  1.00  0.00     0.274 HD
ATOM     22  H11 UNL     1       8.214  -2.521   0.279  1.00  0.00     0.274 HD
ENDBRANCH  18  19
ENDBRANCH  17  18
ENDBRANCH  16  17
ENDBRANCH  15  16
ENDBRANCH  12  15
ENDBRANCH   1   9
BRANCH   3  23
HETATM   23  N4  UNL     1      -3.397   0.171  -0.114  1.00  0.00    -0.374 N 
ATOM     24  H4  UNL     1      -3.378   1.185  -0.227  1.00  0.00     0.161 HD
BRANCH  23  25
HETATM   25  C10 UNL     1      -4.634  -0.562  -0.085  1.00  0.00     0.146 C 
BRANCH  25  26
HETATM   26  C11 UNL     1      -5.764   0.144  -0.813  1.00  0.00     0.098 C 
HETATM   27  C12 UNL     1      -6.107   1.479  -0.263  1.00  0.00     0.027 C 
HETATM   28  C13 UNL     1      -7.263   1.530   0.681  1.00  0.00     0.007 C 
HETATM   29  C14 UNL     1      -7.927   0.213   0.930  1.00  0.00     0.044 C 
HETATM   30  C15 UNL     1      -8.011  -0.645  -0.298  1.00  0.00     0.056 C 
HETATM   31  N5  UNL     1      -6.819  -0.769  -1.037  1.00  0.00    -0.396 N 
ATOM     32  H5  UNL     1      -6.718  -1.512  -1.729  1.00  0.00     0.159 HD
ENDBRANCH  25  26
ENDBRANCH  23  25
ENDBRANCH   3  23
TORSDOF 9
