REMARK  6 active torsions:
REMARK  status: ('A' for Active; 'I' for Inactive)
REMARK    1  A    between atoms: C3_4  and  N2_5 
REMARK    2  A    between atoms: N2_5  and  C4_7 
REMARK    3  A    between atoms: C4_7  and  C5_8 
REMARK    4  A    between atoms: C5_8  and  C6_9 
REMARK    5  A    between atoms: C6_9  and  N3_10 
REMARK    6  A    between atoms: C13_20  and  N5_21 
ROOT
HETATM    1  N1  UNL     1       4.484  -1.060   3.429  1.00  0.00    -0.191 NA
HETATM    2  C1  UNL     1       4.326  -0.608   2.375  1.00  0.00     0.109 C 
HETATM    3  C2  UNL     1       4.117  -0.064   1.049  1.00  0.00     0.157 A 
HETATM    4  C3  UNL     1       3.153  -0.610   0.208  1.00  0.00     0.143 A 
HETATM    5  N4  UNL     1       3.036  -0.040  -0.992  1.00  0.00    -0.175 N 
ATOM      6  H4  UNL     1       2.343  -0.403  -1.647  1.00  0.00     0.186 HD
HETATM    7  C13 UNL     1       3.817   1.016  -1.370  1.00  0.00     0.680 A 
HETATM    8  N6  UNL     1       4.751   1.554  -0.569  1.00  0.00    -0.155 N 
ATOM      9  H6  UNL     1       5.326   2.343  -0.866  1.00  0.00     0.187 HD
HETATM   10  C14 UNL     1       4.886   0.995   0.645  1.00  0.00     0.284 A 
HETATM   11  O2  UNL     1       5.763   1.490   1.412  1.00  0.00    -0.266 OA
ENDROOT
BRANCH   4  12
HETATM   12  N2  UNL     1       2.409  -1.717   0.643  1.00  0.00    -0.374 N 
ATOM     13  H2  UNL     1       2.664  -2.080   1.561  1.00  0.00     0.161 HD
BRANCH  12  14
HETATM   14  C4  UNL     1       1.352  -2.406  -0.009  1.00  0.00     0.123 C 
BRANCH  14  15
HETATM   15  C5  UNL     1      -0.028  -1.901   0.185  1.00  0.00     0.039 C 
BRANCH  15  16
HETATM   16  C6  UNL     1      -0.288  -0.493  -0.242  1.00  0.00     0.127 C 
BRANCH  16  17
HETATM   17  N3  UNL     1      -1.691  -0.117  -0.005  1.00  0.00    -0.352 N 
HETATM   18  C7  UNL     1      -2.022   0.467   1.275  1.00  0.00     0.125 C 
HETATM   19  C8  UNL     1      -2.998   1.615   1.134  1.00  0.00     0.020 C 
HETATM   20  C9  UNL     1      -4.392   1.169   0.826  1.00  0.00     0.002 C 
HETATM   21  C10 UNL     1      -4.638   0.936  -0.645  1.00  0.00     0.009 C 
HETATM   22  C11 UNL     1      -4.115  -0.447  -1.005  1.00  0.00     0.103 C 
HETATM   23  C12 UNL     1      -2.613  -0.361  -1.061  1.00  0.00     0.219 C 
HETATM   24  O1  UNL     1      -2.080  -0.524  -2.187  1.00  0.00    -0.273 OA
ENDBRANCH  16  17
ENDBRANCH  15  16
ENDBRANCH  14  15
ENDBRANCH  12  14
ENDBRANCH   4  12
BRANCH   7  25
HETATM   25  N5  UNL     1       3.671   1.542  -2.547  1.00  0.00    -0.234 N 
ATOM     26  H52 UNL     1       2.962   1.133  -3.155  1.00  0.00     0.174 HD
ATOM     27  H51 UNL     1       4.254   2.330  -2.829  1.00  0.00     0.174 HD
ENDBRANCH   7  25
TORSDOF 6
