REMARK  8 active torsions:
REMARK  status: ('A' for Active; 'I' for Inactive)
REMARK    1  A    between atoms: C2_2  and  C3_3 
REMARK    2  A    between atoms: C3_3  and  N1_4 
REMARK    3  A    between atoms: N1_4  and  C4_6 
REMARK    4  A    between atoms: C4_6  and  N2_8 
REMARK       I    between atoms: N2_8  and  C5_10 
REMARK       I    between atoms: C5_10  and  N4_15 
REMARK    5  A    between atoms: N3_11  and  O1_13 
REMARK    6  A    between atoms: N4_15  and  C6_17 
REMARK    7  A    between atoms: C6_17  and  C8_19 
REMARK    8  A    between atoms: C8_19  and  N5_20 
ROOT
HETATM    1  N2  UNL     1       1.905   1.163   0.261  1.00  0.00    -0.165 N 
ATOM      2  H2  UNL     1       1.773   0.682   1.151  1.00  0.00     0.186 HD
HETATM    3  C5  UNL     1       1.165   2.330  -0.046  1.00  0.00     0.700 C 
HETATM    4  N3  UNL     1       1.372   3.440   0.578  1.00  0.00    -0.099 N 
ATOM      5  H3  UNL     1       2.092   3.438   1.301  1.00  0.00     0.213 HD
HETATM    6  N4  UNL     1       0.192   2.286  -1.055  1.00  0.00    -0.218 N 
ATOM      7  H4  UNL     1       0.418   2.692  -1.963  1.00  0.00     0.178 HD
ENDROOT
BRANCH   1   8
HETATM    8  C4  UNL     1       2.833   0.677  -0.693  1.00  0.00     0.186 C 
HETATM    9  S1  UNL     1       3.021   1.459  -2.096  1.00  0.00    -0.040 SA
BRANCH   8  10
HETATM   10  N1  UNL     1       3.579  -0.491  -0.398  1.00  0.00    -0.367 N 
ATOM     11  H1  UNL     1       4.253  -0.855  -1.072  1.00  0.00     0.161 HD
BRANCH  10  12
HETATM   12  C3  UNL     1       3.377  -1.162   0.866  1.00  0.00     0.121 C 
BRANCH  12  13
HETATM   13  C2  UNL     1       4.319  -2.350   0.904  1.00  0.00     0.015 C 
HETATM   14  C1  UNL     1       5.736  -1.803   0.786  1.00  0.00     0.006 C 
ENDBRANCH  12  13
ENDBRANCH  10  12
ENDBRANCH   8  10
ENDBRANCH   1   8
BRANCH   4  15
HETATM   15  O1  UNL     1       0.724   4.604   0.363  1.00  0.00    -0.276 OA
ATOM     16  H1  UNL     1       0.876   5.421   0.823  1.00  0.00     0.245 HD
ENDBRANCH   4  15
BRANCH   6  17
HETATM   17  C6  UNL     1      -1.106   1.699  -0.876  1.00  0.00     0.113 C 
HETATM   18  C7  UNL     1      -1.766   2.447   0.293  1.00  0.00     0.034 C 
BRANCH  17  19
HETATM   19  C8  UNL     1      -0.983   0.238  -0.566  1.00  0.00     0.142 C 
BRANCH  19  20
HETATM   20  N5  UNL     1      -2.227  -0.424  -0.390  1.00  0.00    -0.410 N 
HETATM   21  C9  UNL     1      -2.154  -1.802  -0.034  1.00  0.00     0.117 C 
HETATM   22  C10 UNL     1      -3.293  -2.032   0.972  1.00  0.00     0.019 C 
HETATM   23  C11 UNL     1      -4.434  -1.089   0.576  1.00  0.00     0.003 C 
HETATM   24  C12 UNL     1      -4.480  -0.926  -0.945  1.00  0.00     0.019 C 
HETATM   25  C13 UNL     1      -3.256  -0.097  -1.311  1.00  0.00     0.117 C 
ENDBRANCH  19  20
ENDBRANCH  17  19
ENDBRANCH   6  17
TORSDOF 8
