REMARK  7 active torsions:
REMARK  status: ('A' for Active; 'I' for Inactive)
REMARK    1  A    between atoms: C2_2  and  C4_4 
REMARK    2  A    between atoms: C4_4  and  N1_5 
REMARK    3  A    between atoms: C4_4  and  C18_27 
REMARK       I    between atoms: N1_5  and  C5_7 
REMARK    4  A    between atoms: C5_7  and  C6_9 
REMARK       I    between atoms: N2_13  and  C10_14 
REMARK    5  A    between atoms: C10_14  and  C11_16 
REMARK    6  A    between atoms: C11_16  and  N3_17 
REMARK    7  A    between atoms: C11_16  and  C12_21 
ROOT
HETATM    1  C6  UNL     1       0.487   1.558  -0.583  1.00  0.00     0.179 C 
HETATM    2  C7  UNL     1       1.283   2.846  -0.894  1.00  0.00     0.037 C 
HETATM    3  C8  UNL     1       0.790   3.835   0.100  1.00  0.00     0.022 C 
HETATM    4  C9  UNL     1      -0.137   3.101   1.023  1.00  0.00     0.127 C 
HETATM    5  N2  UNL     1      -0.618   1.953   0.222  1.00  0.00    -0.337 N 
HETATM    6  C10 UNL     1      -1.909   1.439   0.339  1.00  0.00     0.251 C 
HETATM    7  O2  UNL     1      -2.691   2.084   1.139  1.00  0.00    -0.271 OA
ENDROOT
BRANCH   1   8
HETATM    8  C5  UNL     1       1.441   0.675   0.125  1.00  0.00     0.241 C 
HETATM    9  N1  UNL     1       2.602   0.154  -0.497  1.00  0.00    -0.344 N 
ATOM     10  H1  UNL     1       2.792   0.394  -1.470  1.00  0.00     0.163 HD
HETATM   11  O1  UNL     1       1.224   0.369   1.321  1.00  0.00    -0.271 OA
BRANCH   9  12
HETATM   12  C4  UNL     1       3.528  -0.710   0.207  1.00  0.00     0.189 C 
BRANCH  12  13
HETATM   13  C2  UNL     1       4.885  -0.055   0.360  1.00  0.00     0.010 C 
HETATM   14  C1  UNL     1       5.858  -0.946   1.094  1.00  0.00     0.012 C 
HETATM   15  C3  UNL     1       5.503   0.289  -0.972  1.00  0.00     0.012 C 
ENDBRANCH  12  13
BRANCH  12  16
HETATM   16  C18 UNL     1       3.650  -2.031  -0.447  1.00  0.00     0.197 C 
HETATM   17  O3  UNL     1       3.001  -2.301  -1.488  1.00  0.00    -0.646 OA
HETATM   18  O4  UNL     1       4.481  -2.987   0.080  1.00  0.00    -0.646 OA
ENDBRANCH  12  16
ENDBRANCH   9  12
ENDBRANCH   1   8
BRANCH   6  19
HETATM   19  C11 UNL     1      -2.398   0.266  -0.363  1.00  0.00     0.278 C 
BRANCH  19  20
HETATM   20  N3  UNL     1      -1.368  -0.560  -0.907  1.00  0.00    -0.066 N 
ATOM     21  H33 UNL     1      -0.753  -0.014  -1.510  1.00  0.00     0.275 HD
ATOM     22  H32 UNL     1      -0.705  -0.829  -0.180  1.00  0.00     0.275 HD
ATOM     23  H31 UNL     1      -1.712  -1.384  -1.400  1.00  0.00     0.275 HD
ENDBRANCH  19  20
BRANCH  19  24
HETATM   24  C12 UNL     1      -3.286  -0.651   0.502  1.00  0.00     0.025 C 
HETATM   25  C13 UNL     1      -4.491   0.034   1.008  1.00  0.00     0.007 C 
HETATM   26  C14 UNL     1      -5.752  -0.726   1.117  1.00  0.00     0.000 C 
HETATM   27  C15 UNL     1      -5.826  -2.023   0.399  1.00  0.00     0.000 C 
HETATM   28  C16 UNL     1      -4.496  -2.774   0.408  1.00  0.00     0.000 C 
HETATM   29  C17 UNL     1      -3.550  -1.865  -0.349  1.00  0.00     0.007 C 
ENDBRANCH  19  24
ENDBRANCH   6  19
TORSDOF 7
