REMARK  9 active torsions:
REMARK  status: ('A' for Active; 'I' for Inactive)
REMARK    1  A    between atoms: C1_2  and  C2_4 
REMARK    2  A    between atoms: N2_6  and  C4_7 
REMARK    3  A    between atoms: C6_9  and  C7_10 
REMARK    4  A    between atoms: C7_10  and  O2_11 
REMARK    5  A    between atoms: C7_10  and  O3_13 
REMARK    6  A    between atoms: C8_15  and  O4_16 
REMARK    7  A    between atoms: C9_18  and  O5_19 
REMARK    8  A    between atoms: C9_18  and  C10_21 
REMARK    9  A    between atoms: C10_21  and  O6_22 
ROOT
HETATM    1  C4  UNL     1       0.153  -0.321   0.088  1.00  0.00     0.236 C 
HETATM    2  C5  UNL     1      -0.974  -1.209   0.423  1.00  0.00     0.066 C 
HETATM    3  C6  UNL     1      -2.163  -0.737  -0.439  1.00  0.00     0.079 C 
HETATM    4  C8  UNL     1      -2.440   0.676  -0.016  1.00  0.00     0.191 C 
HETATM    5  C9  UNL     1      -1.226   1.528  -0.189  1.00  0.00     0.212 C 
HETATM    6  O7  UNL     1      -0.077   1.024   0.377  1.00  0.00    -0.326 OA
ENDROOT
BRANCH   1   7
HETATM    7  N2  UNL     1       1.444  -0.644   0.575  1.00  0.00    -0.281 N 
HETATM    8  C3  UNL     1       2.496   0.047   0.041  1.00  0.00     0.120 A 
HETATM    9  C2  UNL     1       3.784  -0.209   0.462  1.00  0.00     0.113 A 
HETATM   10  C12 UNL     1       4.019  -1.167   1.427  1.00  0.00     0.266 A 
HETATM   11  N3  UNL     1       2.962  -1.842   1.945  1.00  0.00    -0.274 N 
HETATM   12  O9  UNL     1       5.189  -1.403   1.812  1.00  0.00    -0.267 OA
HETATM   13  C11 UNL     1       1.727  -1.556   1.502  1.00  0.00     0.331 A 
ATOM     14  H3  UNL     1       3.103  -2.556   2.660  1.00  0.00     0.173 HD
HETATM   15  O8  UNL     1       0.766  -2.188   1.991  1.00  0.00    -0.246 OA
BRANCH   9  16
HETATM   16  C1  UNL     1       4.903   0.539  -0.119  1.00  0.00     0.271 C 
HETATM   17  N1  UNL     1       4.647   1.524  -1.113  1.00  0.00    -0.057 NA
HETATM   18  O1  UNL     1       6.085   0.353   0.219  1.00  0.00    -0.271 OA
ENDBRANCH   9  16
ENDBRANCH   1   7
BRANCH   3  19
HETATM   19  C7  UNL     1      -3.351  -1.620  -0.036  1.00  0.00     0.260 C 
BRANCH  19  20
HETATM   20  O2  UNL     1      -3.059  -2.960  -0.281  1.00  0.00    -0.371 OA
ATOM     21  H2  UNL     1      -3.795  -3.507  -0.031  1.00  0.00     0.212 HD
ENDBRANCH  19  20
BRANCH  19  22
HETATM   22  O3  UNL     1      -4.433  -1.273  -0.809  1.00  0.00    -0.371 OA
ATOM     23  H3  UNL     1      -5.169  -1.820  -0.559  1.00  0.00     0.212 HD
ENDBRANCH  19  22
ENDBRANCH   3  19
BRANCH   5  24
HETATM   24  O5  UNL     1      -1.484   2.746   0.486  1.00  0.00    -0.362 OA
ATOM     25  H5  UNL     1      -0.712   3.288   0.376  1.00  0.00     0.213 HD
ENDBRANCH   5  24
BRANCH   5  26
HETATM   26  C10 UNL     1      -1.004   1.938  -1.645  1.00  0.00     0.235 C 
BRANCH  26  27
HETATM   27  O6  UNL     1      -2.137   2.564  -2.126  1.00  0.00    -0.395 OA
ATOM     28  H6  UNL     1      -1.999   2.819  -3.031  1.00  0.00     0.209 HD
ENDBRANCH  26  27
ENDBRANCH   5  26
BRANCH   4  29
HETATM   29  O4  UNL     1      -3.488   1.160  -0.752  1.00  0.00    -0.389 OA
ATOM     30  H4  UNL     1      -3.663   2.054  -0.484  1.00  0.00     0.210 HD
ENDBRANCH   4  29
TORSDOF 9
