REMARK  7 active torsions:
REMARK  status: ('A' for Active; 'I' for Inactive)
REMARK       I    between atoms: N1_1  and  C1_5 
REMARK       I    between atoms: C1_5  and  N2_6 
REMARK       I    between atoms: C1_5  and  N3_10 
REMARK       I    between atoms: N3_10  and  C2_12 
REMARK    1  A    between atoms: C2_12  and  C3_14 
REMARK    2  A    between atoms: C3_14  and  N4_15 
REMARK    3  A    between atoms: C3_14  and  N5_19 
REMARK    4  A    between atoms: C5_23  and  C6_24 
REMARK    5  A    between atoms: C8_33  and  C9_34 
REMARK    6  A    between atoms: C9_34  and  O4_35 
REMARK    7  A    between atoms: C9_34  and  O5_37 
ROOT
HETATM    1  N5  UNL     1       0.478  -0.091  -0.029  1.00  0.00    -0.314 N 
HETATM    2  C4  UNL     1       1.885   0.156   0.198  1.00  0.00     0.119 C 
HETATM    3  N6  UNL     1       2.611   1.210   0.325  1.00  0.00    -0.323 N 
ATOM      4  H6  UNL     1       2.143   2.113   0.246  1.00  0.00     0.169 HD
HETATM    5  C5  UNL     1       3.991   1.221   0.563  1.00  0.00     0.199 C 
HETATM    6  N7  UNL     1       4.624   0.131   0.686  1.00  0.00    -0.283 N 
ATOM      7  H7  UNL     1       5.630   0.144   0.853  1.00  0.00     0.188 HD
HETATM    8  N8  UNL     1       3.954  -1.084   0.595  1.00  0.00    -0.313 N 
ATOM      9  H8  UNL     1       4.440  -1.941   0.858  1.00  0.00     0.182 HD
HETATM   10  C7  UNL     1       2.631  -1.158   0.152  1.00  0.00     0.230 C 
HETATM   11  S1  UNL     1       1.574  -1.995   1.356  1.00  0.00    -0.104 SA
HETATM   12  C8  UNL     1       0.031  -1.323   0.523  1.00  0.00     0.207 C 
ENDROOT
BRANCH   1  13
HETATM   13  C3  UNL     1      -0.281   0.907  -0.725  1.00  0.00     0.379 C 
BRANCH  13  14
HETATM   14  C2  UNL     1      -1.716   0.802  -0.716  1.00  0.00     0.271 C 
HETATM   15  N3  UNL     1      -2.526   0.699   0.442  1.00  0.00    -0.308 N 
HETATM   16  C1  UNL     1      -3.969   0.593   0.423  1.00  0.00     0.482 C 
ATOM     17  H3  UNL     1      -2.061   0.700   1.350  1.00  0.00     0.166 HD
HETATM   18  N1  UNL     1      -4.427  -0.663   1.014  1.00  0.00    -0.033 N 
HETATM   19  N2  UNL     1      -4.607   1.730   1.072  1.00  0.00    -0.033 N 
ATOM     20  H13 UNL     1      -4.289  -0.678   2.024  1.00  0.00     0.278 HD
ATOM     21  H12 UNL     1      -5.444  -0.740   0.997  1.00  0.00     0.278 HD
ATOM     22  H11 UNL     1      -3.980  -1.459   0.559  1.00  0.00     0.278 HD
ATOM     23  H23 UNL     1      -5.624   1.653   1.055  1.00  0.00     0.278 HD
ATOM     24  H22 UNL     1      -4.469   1.715   2.082  1.00  0.00     0.278 HD
ATOM     25  H21 UNL     1      -4.287   2.606   0.660  1.00  0.00     0.278 HD
HETATM   26  O1  UNL     1      -2.363   0.799  -1.823  1.00  0.00    -0.269 OA
ENDBRANCH  13  14
BRANCH  13  27
HETATM   27  N4  UNL     1       0.188   1.075  -2.106  1.00  0.00    -0.049 N 
ATOM     28  H43 UNL     1      -0.148   0.334  -2.720  1.00  0.00     0.277 HD
ATOM     29  H42 UNL     1      -0.259   1.864  -2.572  1.00  0.00     0.277 HD
ATOM     30  H41 UNL     1       1.205   1.149  -2.112  1.00  0.00     0.277 HD
ENDBRANCH  13  27
ENDBRANCH   1  13
BRANCH  12  31
HETATM   31  C9  UNL     1      -0.385  -2.427  -0.363  1.00  0.00     0.286 C 
BRANCH  31  32
HETATM   32  O4  UNL     1       0.583  -2.892  -1.253  1.00  0.00    -0.369 OA
ATOM     33  H4  UNL     1       0.315  -3.603  -1.823  1.00  0.00     0.212 HD
ENDBRANCH  31  32
BRANCH  31  34
HETATM   34  O5  UNL     1      -1.540  -2.296  -1.081  1.00  0.00    -0.369 OA
ATOM     35  H5  UNL     1      -1.808  -3.007  -1.651  1.00  0.00     0.212 HD
ENDBRANCH  31  34
ENDBRANCH  12  31
BRANCH   5  36
HETATM   36  C6  UNL     1       4.771   2.463   0.682  1.00  0.00     0.246 C 
HETATM   37  O2  UNL     1       4.150   3.540   0.562  1.00  0.00    -0.642 OA
HETATM   38  O3  UNL     1       6.133   2.462   0.917  1.00  0.00    -0.642 OA
ENDBRANCH   5  36
TORSDOF 7
