REMARK  17 active torsions:
REMARK  status: ('A' for Active; 'I' for Inactive)
REMARK    1  A    between atoms: N1_1  and  C1_5 
REMARK    2  A    between atoms: C1_5  and  C2_6 
REMARK    3  A    between atoms: C2_6  and  C3_7 
REMARK    4  A    between atoms: C3_7  and  C4_8 
REMARK    5  A    between atoms: C4_8  and  C5_9 
REMARK    6  A    between atoms: C5_9  and  C6_10 
REMARK    7  A    between atoms: C6_10  and  C7_11 
REMARK    8  A    between atoms: C7_11  and  C8_12 
REMARK    9  A    between atoms: C8_12  and  C9_13 
REMARK   10  A    between atoms: C9_13  and  C10_14 
REMARK   11  A    between atoms: C10_14  and  C11_15 
REMARK   12  A    between atoms: C11_15  and  C12_16 
REMARK   13  A    between atoms: C12_16  and  C13_17 
REMARK   14  A    between atoms: C13_17  and  N2_18 
REMARK   15  A    between atoms: N2_18  and  C14_21 
REMARK   16  A    between atoms: C14_21  and  C15_22 
REMARK   17  A    between atoms: C15_22  and  C16_23 
ROOT
HETATM    1  C10 UNL     1      -1.033  -2.367   0.952  1.00  0.00    -0.031 C 
ENDROOT
BRANCH   1   2
HETATM    2  C9  UNL     1      -2.473  -2.419   0.755  1.00  0.00    -0.031 C 
BRANCH   2   3
HETATM    3  C8  UNL     1      -3.390  -1.325   1.100  1.00  0.00     0.027 C 
BRANCH   3   4
HETATM    4  C7  UNL     1      -3.249  -0.086   0.298  1.00  0.00     0.004 C 
BRANCH   4   5
HETATM    5  C6  UNL     1      -4.236   1.021   0.732  1.00  0.00     0.000 C 
BRANCH   5   6
HETATM    6  C5  UNL     1      -5.630   0.526   0.560  1.00  0.00     0.000 C 
BRANCH   6   7
HETATM    7  C4  UNL     1      -6.667   1.573   0.959  1.00  0.00     0.000 C 
BRANCH   7   8
HETATM    8  C3  UNL     1      -6.552   2.822   0.132  1.00  0.00     0.002 C 
BRANCH   8   9
HETATM    9  C2  UNL     1      -6.736   2.691  -1.323  1.00  0.00     0.027 C 
BRANCH   9  10
HETATM   10  C1  UNL     1      -8.035   2.229  -1.850  1.00  0.00     0.229 C 
BRANCH  10  11
HETATM   11  N1  UNL     1      -8.517   0.953  -1.490  1.00  0.00    -0.079 N 
ATOM     12  H13 UNL     1      -7.806   0.259  -1.722  1.00  0.00     0.274 HD
ATOM     13  H12 UNL     1      -8.537   0.888  -0.472  1.00  0.00     0.274 HD
ATOM     14  H11 UNL     1      -9.415   0.634  -1.854  1.00  0.00     0.274 HD
ENDBRANCH  10  11
ENDBRANCH   9  10
ENDBRANCH   8   9
ENDBRANCH   7   8
ENDBRANCH   6   7
ENDBRANCH   5   6
ENDBRANCH   4   5
ENDBRANCH   3   4
ENDBRANCH   2   3
ENDBRANCH   1   2
BRANCH   1  15
HETATM   15  C11 UNL     1      -0.192  -1.328   0.324  1.00  0.00     0.028 C 
BRANCH  15  16
HETATM   16  C12 UNL     1       1.314  -1.606   0.624  1.00  0.00     0.031 C 
BRANCH  16  17
HETATM   17  C13 UNL     1       2.079  -0.516  -0.046  1.00  0.00     0.232 C 
BRANCH  17  18
HETATM   18  N2  UNL     1       3.502  -0.607   0.122  1.00  0.00    -0.075 N 
ATOM     19  H22 UNL     1       3.957   0.262  -0.158  1.00  0.00     0.277 HD
ATOM     20  H21 UNL     1       3.751  -0.615   1.111  1.00  0.00     0.277 HD
BRANCH  18  21
HETATM   21  C14 UNL     1       4.086  -1.737  -0.564  1.00  0.00     0.232 C 
BRANCH  21  22
HETATM   22  C15 UNL     1       5.550  -1.739  -0.336  1.00  0.00     0.032 C 
BRANCH  22  23
HETATM   23  C16 UNL     1       6.327  -0.571  -0.797  1.00  0.00    -0.013 C 
HETATM   24  C17 UNL     1       7.790  -0.800  -0.458  1.00  0.00     0.005 C 
HETATM   25  C18 UNL     1       8.231   0.039   0.726  1.00  0.00     0.000 C 
HETATM   26  C19 UNL     1       8.216   1.515   0.391  1.00  0.00     0.000 C 
HETATM   27  C20 UNL     1       7.071   1.737  -0.566  1.00  0.00     0.000 C 
HETATM   28  C21 UNL     1       5.919   0.759  -0.294  1.00  0.00     0.005 C 
ENDBRANCH  22  23
ENDBRANCH  21  22
ENDBRANCH  18  21
ENDBRANCH  17  18
ENDBRANCH  16  17
ENDBRANCH  15  16
ENDBRANCH   1  15
TORSDOF 17
