REMARK  17 active torsions:
REMARK  status: ('A' for Active; 'I' for Inactive)
REMARK    1  A    between atoms: N1_1  and  C1_4 
REMARK    2  A    between atoms: C3_8  and  C4_9 
REMARK    3  A    between atoms: C4_9  and  C5_10 
REMARK    4  A    between atoms: C5_10  and  C6_11 
REMARK    5  A    between atoms: C6_11  and  C7_12 
REMARK    6  A    between atoms: C7_12  and  C8_13 
REMARK    7  A    between atoms: C8_13  and  C9_14 
REMARK    8  A    between atoms: C9_14  and  C10_15 
REMARK    9  A    between atoms: C10_15  and  C11_16 
REMARK   10  A    between atoms: C11_16  and  C12_17 
REMARK   11  A    between atoms: C12_17  and  C13_18 
REMARK   12  A    between atoms: C13_18  and  C14_19 
REMARK   13  A    between atoms: C14_19  and  C15_20 
REMARK   14  A    between atoms: C15_20  and  C16_21 
REMARK   15  A    between atoms: C16_21  and  O1_22 
REMARK   16  A    between atoms: O1_22  and  C17_23 
REMARK   17  A    between atoms: C17_23  and  C18_24 
ROOT
HETATM    1  C8  UNL     1      -2.921  -1.734  -0.318  1.00  0.00     0.000 C 
ENDROOT
BRANCH   1   2
HETATM    2  C7  UNL     1      -3.911  -1.445   0.716  1.00  0.00     0.000 C 
BRANCH   2   3
HETATM    3  C6  UNL     1      -4.141  -0.005   0.994  1.00  0.00     0.000 C 
BRANCH   3   4
HETATM    4  C5  UNL     1      -5.263   0.213   2.003  1.00  0.00     0.006 C 
BRANCH   4   5
HETATM    5  C4  UNL     1      -6.584  -0.306   1.607  1.00  0.00     0.067 C 
BRANCH   5   6
HETATM    6  C3  UNL     1      -7.178   0.337   0.411  1.00  0.00     0.072 A 
HETATM    7  C2  UNL     1      -6.788   1.462  -0.275  1.00  0.00     0.124 A 
HETATM    8  N2  UNL     1      -7.632   1.668  -1.311  1.00  0.00    -0.330 N 
HETATM    9  C1  UNL     1      -8.523   0.672  -1.243  1.00  0.00     0.222 A 
ATOM     10  H2  UNL     1      -7.597   2.422  -1.998  1.00  0.00     0.168 HD
HETATM   11  O2  UNL     1      -8.259  -0.104  -0.240  1.00  0.00    -0.283 OA
BRANCH   9  12
HETATM   12  N1  UNL     1      -9.505   0.557  -2.109  1.00  0.00    -0.365 N 
ATOM     13  H12 UNL     1      -9.713   1.168  -2.899  1.00  0.00     0.159 HD
ATOM     14  H11 UNL     1     -10.184  -0.202  -2.057  1.00  0.00     0.159 HD
ENDBRANCH   9  12
ENDBRANCH   5   6
ENDBRANCH   4   5
ENDBRANCH   3   4
ENDBRANCH   2   3
ENDBRANCH   1   2
BRANCH   1  15
HETATM   15  C9  UNL     1      -1.527  -1.294  -0.264  1.00  0.00     0.000 C 
BRANCH  15  16
HETATM   16  C10 UNL     1      -1.172   0.131  -0.339  1.00  0.00     0.000 C 
BRANCH  16  17
HETATM   17  C11 UNL     1       0.354   0.278  -0.213  1.00  0.00     0.000 C 
BRANCH  17  18
HETATM   18  C12 UNL     1       1.053  -0.446  -1.325  1.00  0.00     0.000 C 
BRANCH  18  19
HETATM   19  C13 UNL     1       2.567  -0.247  -1.227  1.00  0.00     0.000 C 
BRANCH  19  20
HETATM   20  C14 UNL     1       3.054  -0.785   0.079  1.00  0.00     0.002 C 
BRANCH  20  21
HETATM   21  C15 UNL     1       4.564  -0.614   0.150  1.00  0.00     0.026 C 
BRANCH  21  22
HETATM   22  C16 UNL     1       4.951   0.828   0.051  1.00  0.00     0.167 C 
BRANCH  22  23
HETATM   23  O1  UNL     1       6.312   0.988   0.139  1.00  0.00    -0.391 OA
BRANCH  23  24
HETATM   24  C17 UNL     1       7.031   0.342  -0.849  1.00  0.00     0.172 C 
BRANCH  24  25
HETATM   25  C18 UNL     1       8.508   0.624  -0.629  1.00  0.00     0.009 A 
HETATM   26  C19 UNL     1       9.153   0.216   0.636  1.00  0.00     0.007 A 
HETATM   27  C20 UNL     1       8.827   1.652   0.391  1.00  0.00     0.007 A 
ENDBRANCH  24  25
ENDBRANCH  23  24
ENDBRANCH  22  23
ENDBRANCH  21  22
ENDBRANCH  20  21
ENDBRANCH  19  20
ENDBRANCH  18  19
ENDBRANCH  17  18
ENDBRANCH  16  17
ENDBRANCH  15  16
ENDBRANCH   1  15
TORSDOF 17
