REMARK  16 active torsions:
REMARK  status: ('A' for Active; 'I' for Inactive)
REMARK    1  A    between atoms: C2_2  and  O1_3 
REMARK    2  A    between atoms: O1_3  and  C3_4 
REMARK    3  A    between atoms: C3_4  and  C4_6 
REMARK    4  A    between atoms: C6_8  and  O3_9 
REMARK    5  A    between atoms: C7_11  and  N1_12 
REMARK    6  A    between atoms: N1_12  and  C9_14 
REMARK    7  A    between atoms: N1_12  and  C17_24 
REMARK    8  A    between atoms: C9_14  and  C10_15 
REMARK    9  A    between atoms: C10_15  and  C11_16 
REMARK   10  A    between atoms: C11_16  and  C13_18 
REMARK   11  A    between atoms: C13_18  and  O4_19 
REMARK   12  A    between atoms: C13_18  and  C14_21 
REMARK   13  A    between atoms: C17_24  and  O5_25 
REMARK   14  A    between atoms: O5_25  and  C18_26 
REMARK   15  A    between atoms: C18_26  and  C19_28 
REMARK   16  A    between atoms: C23_32  and  O7_34 
ROOT
HETATM    1  N1  UNL     1       0.182  -0.425  -0.332  1.00  0.00    -0.040 N 
HETATM    2  C8  UNL     1       0.114  -0.715   1.089  1.00  0.00     0.276 C 
ENDROOT
BRANCH   1   3
HETATM    3  C7  UNL     1      -0.696   0.603  -0.756  1.00  0.00     0.262 C 
HETATM    4  C6  UNL     1      -2.089   0.143  -1.136  1.00  0.00     0.103 A 
HETATM    5  C5  UNL     1      -2.902   1.450  -1.158  1.00  0.00     0.051 A 
HETATM    6  C25 UNL     1      -2.721   0.624  -2.312  1.00  0.00     0.004 A 
HETATM    7  C4  UNL     1      -1.994   2.530  -0.685  1.00  0.00     0.129 C 
HETATM    8  C23 UNL     1      -0.967   1.737   0.146  1.00  0.00     0.099 C 
HETATM    9  C24 UNL     1       0.161   2.691   0.379  1.00  0.00     0.049 C 
HETATM   10  C26 UNL     1      -3.626   0.050  -3.244  1.00  0.00     0.018 A 
HETATM   11  C27 UNL     1      -2.356   0.865  -3.647  1.00  0.00    -0.006 A 
HETATM   12  C28 UNL     1      -2.676   2.205  -4.285  1.00  0.00     0.011 C 
BRANCH   4  13
HETATM   13  O3  UNL     1      -2.713  -0.854  -0.391  1.00  0.00    -0.386 OA
ATOM     14  H3  UNL     1      -2.211  -1.661  -0.377  1.00  0.00     0.210 HD
ENDBRANCH   4  13
BRANCH   7  15
HETATM   15  C3  UNL     1      -2.679   3.530   0.173  1.00  0.00     0.266 C 
HETATM   16  O2  UNL     1      -2.728   4.746  -0.143  1.00  0.00    -0.265 OA
BRANCH  15  17
HETATM   17  O1  UNL     1      -3.294   3.158   1.361  1.00  0.00    -0.321 OA
BRANCH  17  18
HETATM   18  C2  UNL     1      -3.933   4.110   2.154  1.00  0.00     0.174 C 
HETATM   19  C1  UNL     1      -5.059   4.829   1.482  1.00  0.00     0.034 C 
ENDBRANCH  17  18
ENDBRANCH  15  17
ENDBRANCH   7  15
BRANCH   8  20
HETATM   20  O7  UNL     1      -1.569   1.451   1.334  1.00  0.00    -0.387 OA
ATOM     21  H7  UNL     1      -0.936   0.962   1.846  1.00  0.00     0.210 HD
ENDBRANCH   8  20
ENDBRANCH   1   3
BRANCH   1  22
HETATM   22  C9  UNL     1       1.530  -0.063  -0.733  1.00  0.00     0.240 C 
BRANCH  22  23
HETATM   23  C10 UNL     1       2.559  -0.259   0.332  1.00  0.00     0.034 C 
BRANCH  23  24
HETATM   24  C11 UNL     1       3.919   0.148  -0.201  1.00  0.00     0.012 C 
HETATM   25  C12 UNL     1       4.250  -0.700  -1.385  1.00  0.00     0.012 C 
BRANCH  24  26
HETATM   26  C13 UNL     1       4.999  -0.006   0.834  1.00  0.00     0.125 C 
BRANCH  26  27
HETATM   27  O4  UNL     1       6.202   0.400   0.225  1.00  0.00    -0.395 OA
ATOM     28  H4  UNL     1       6.884   0.303   0.879  1.00  0.00     0.210 HD
ENDBRANCH  26  27
BRANCH  26  29
HETATM   29  C14 UNL     1       4.806   0.911   2.024  1.00  0.00     0.006 C 
HETATM   30  C15 UNL     1       4.812   2.364   1.567  1.00  0.00     0.012 C 
HETATM   31  C16 UNL     1       6.023   0.711   2.927  1.00  0.00     0.012 C 
ENDBRANCH  26  29
ENDBRANCH  24  26
ENDBRANCH  23  24
ENDBRANCH  22  23
ENDBRANCH   1  22
BRANCH   1  32
HETATM   32  C17 UNL     1      -0.115  -1.684  -1.015  1.00  0.00     0.415 C 
BRANCH  32  33
HETATM   33  O5  UNL     1      -0.498  -2.695  -0.103  1.00  0.00    -0.293 OA
BRANCH  33  34
HETATM   34  C18 UNL     1      -0.829  -3.972  -0.474  1.00  0.00     0.268 C 
HETATM   35  O6  UNL     1      -0.803  -4.294  -1.674  1.00  0.00    -0.264 OA
BRANCH  34  36
HETATM   36  C19 UNL     1      -1.226  -4.991   0.556  1.00  0.00     0.037 C 
HETATM   37  C20 UNL     1      -0.118  -5.222   1.547  1.00  0.00     0.025 C 
HETATM   38  C21 UNL     1      -2.431  -4.454   1.339  1.00  0.00     0.025 C 
HETATM   39  C22 UNL     1      -1.681  -6.264  -0.124  1.00  0.00     0.025 C 
ENDBRANCH  34  36
ENDBRANCH  33  34
ENDBRANCH  32  33
ENDBRANCH   1  32
TORSDOF 16
