REMARK  12 active torsions:
REMARK  status: ('A' for Active; 'I' for Inactive)
REMARK    1  A    between atoms: C3_4  and  N1_5 
REMARK    2  A    between atoms: N1_5  and  C4_7 
REMARK    3  A    between atoms: C4_7  and  C5_8 
REMARK    4  A    between atoms: C5_8  and  C6_9 
REMARK       I    between atoms: C6_9  and  N2_11 
REMARK    5  A    between atoms: N2_11  and  C7_13 
REMARK    6  A    between atoms: C7_13  and  C8_14 
REMARK    7  A    between atoms: N3_17  and  C11_18 
REMARK    8  A    between atoms: C11_18  and  C12_19 
REMARK       I    between atoms: C12_19  and  N4_21 
REMARK    9  A    between atoms: N4_21  and  C13_23 
REMARK   10  A    between atoms: C13_23  and  C14_24 
REMARK   11  A    between atoms: C14_24  and  C15_25 
REMARK   12  A    between atoms: N5_35  and  O3_36 
ROOT
HETATM    1  C7  UNL     1      -1.186  -1.233  -2.122  1.00  0.00     0.128 C 
ENDROOT
BRANCH   1   2
HETATM    2  N2  UNL     1      -1.727  -2.160  -1.177  1.00  0.00    -0.361 N 
HETATM    3  C6  UNL     1      -3.102  -2.162  -0.856  1.00  0.00     0.219 C 
HETATM    4  O1  UNL     1      -3.872  -1.343  -1.406  1.00  0.00    -0.274 OA
ATOM      5  H2  UNL     1      -1.107  -2.833  -0.726  1.00  0.00     0.162 HD
BRANCH   3   6
HETATM    6  C5  UNL     1      -3.633  -3.148   0.146  1.00  0.00     0.122 C 
BRANCH   6   7
HETATM    7  C4  UNL     1      -5.153  -2.808   0.285  1.00  0.00     0.129 C 
BRANCH   7   8
HETATM    8  N1  UNL     1      -5.216  -1.471   0.756  1.00  0.00    -0.382 N 
ATOM      9  H1  UNL     1      -4.308  -1.044   0.939  1.00  0.00     0.160 HD
BRANCH   8  10
HETATM   10  C3  UNL     1      -6.322  -0.629   1.015  1.00  0.00     0.095 A 
HETATM   11  S1  UNL     1      -6.062   0.987   1.615  1.00  0.00    -0.074 SA
HETATM   12  C2  UNL     1      -7.494   1.847   1.860  1.00  0.00     0.005 A 
HETATM   13  C1  UNL     1      -7.536   3.254   2.370  1.00  0.00     0.058 C 
HETATM   14  C25 UNL     1      -8.640   1.152   1.552  1.00  0.00     0.049 A 
HETATM   15  N5  UNL     1      -8.673  -0.089   1.100  1.00  0.00    -0.230 N 
HETATM   16  C26 UNL     1      -9.925   1.924   1.773  1.00  0.00     0.072 C 
HETATM   17  C23 UNL     1      -7.653  -0.920   0.846  1.00  0.00     0.070 A 
HETATM   18  C24 UNL     1      -8.007  -2.291   0.326  1.00  0.00     0.074 C 
BRANCH  15  19
HETATM   19  O3  UNL     1      -9.846  -0.534   0.879  1.00  0.00    -0.283 OA
ATOM     20  H3  UNL     1     -10.569   0.055   1.059  1.00  0.00     0.245 HD
ENDBRANCH  15  19
ENDBRANCH   8  10
ENDBRANCH   7   8
ENDBRANCH   6   7
ENDBRANCH   3   6
ENDBRANCH   1   2
BRANCH   1  21
HETATM   21  C8  UNL     1      -1.363   0.203  -1.683  1.00  0.00     0.013 C 
HETATM   22  C9  UNL     1      -0.675   0.426  -0.374  1.00  0.00     0.051 C 
HETATM   23  C10 UNL     1       0.806   0.152  -0.414  1.00  0.00     0.064 C 
HETATM   24  N3  UNL     1       1.425   0.614  -1.585  1.00  0.00    -0.365 N 
HETATM   25  C21 UNL     1       0.703   1.421  -2.486  1.00  0.00     0.064 C 
HETATM   26  C22 UNL     1      -0.711   1.056  -2.756  1.00  0.00     0.051 C 
BRANCH  24  27
HETATM   27  C11 UNL     1       2.633   0.025  -2.014  1.00  0.00     0.229 C 
BRANCH  27  28
HETATM   28  C12 UNL     1       3.745   0.368  -1.102  1.00  0.00     0.235 C 
HETATM   29  O2  UNL     1       3.526   1.102  -0.116  1.00  0.00    -0.272 OA
HETATM   30  N4  UNL     1       5.063  -0.114  -1.316  1.00  0.00    -0.359 N 
ATOM     31  H4  UNL     1       5.268  -0.716  -2.113  1.00  0.00     0.162 HD
BRANCH  30  32
HETATM   32  C13 UNL     1       6.108   0.256  -0.396  1.00  0.00     0.127 C 
BRANCH  32  33
HETATM   33  C14 UNL     1       7.434  -0.338  -0.765  1.00  0.00     0.053 C 
BRANCH  33  34
HETATM   34  C15 UNL     1       8.445   0.113   0.240  1.00  0.00    -0.082 C 
HETATM   35  C16 UNL     1       9.517   0.820  -0.131  1.00  0.00    -0.024 C 
HETATM   36  C17 UNL     1      10.560   1.301   0.812  1.00  0.00     0.027 C 
HETATM   37  C18 UNL     1       9.977   1.309   2.210  1.00  0.00     0.004 C 
HETATM   38  C19 UNL     1       9.447  -0.097   2.477  1.00  0.00     0.005 C 
HETATM   39  C20 UNL     1       8.194  -0.264   1.656  1.00  0.00     0.034 C 
ENDBRANCH  33  34
ENDBRANCH  32  33
ENDBRANCH  30  32
ENDBRANCH  27  28
ENDBRANCH  24  27
ENDBRANCH   1  21
TORSDOF 12
