REMARK  9 active torsions:
REMARK  status: ('A' for Active; 'I' for Inactive)
REMARK    1  A    between atoms: N1_2  and  C2_4 
REMARK    2  A    between atoms: C3_8  and  N3_9 
REMARK    3  A    between atoms: N3_9  and  C4_11 
REMARK    4  A    between atoms: C4_11  and  C5_12 
REMARK    5  A    between atoms: C5_12  and  N4_13 
REMARK    6  A    between atoms: N4_13  and  C6_15 
REMARK    7  A    between atoms: C6_15  and  C7_16 
REMARK    8  A    between atoms: C7_16  and  C8_17 
REMARK    9  A    between atoms: C8_17  and  N5_18 
ROOT
HETATM    1  C4  UNL     1       1.135   0.088   0.889  1.00  0.00     0.141 C 
ENDROOT
BRANCH   1   2
HETATM    2  N3  UNL     1       2.177   0.736   0.092  1.00  0.00    -0.367 N 
ATOM      3  H3  UNL     1       1.973   1.331  -0.711  1.00  0.00     0.161 HD
BRANCH   2   4
HETATM    4  C3  UNL     1       3.402   0.482   0.503  1.00  0.00     0.176 A 
HETATM    5  S1  UNL     1       3.952  -0.473   1.804  1.00  0.00     0.039 SA
HETATM    6  N2  UNL     1       5.609  -0.242   1.599  1.00  0.00    -0.157 N 
HETATM    7  C2  UNL     1       5.664   0.563   0.534  1.00  0.00     0.686 A 
ATOM      8  H2  UNL     1       6.378  -0.622   2.151  1.00  0.00     0.193 HD
HETATM    9  N6  UNL     1       4.547   0.930  -0.021  1.00  0.00    -0.169 N 
ATOM     10  H6  UNL     1       4.545   1.544  -0.835  1.00  0.00     0.186 HD
BRANCH   7  11
HETATM   11  N1  UNL     1       6.856   0.945   0.100  1.00  0.00    -0.230 N 
HETATM   12  C1  UNL     1       7.004   1.815  -1.045  1.00  0.00     0.165 C 
ATOM     13  H1  UNL     1       7.691   0.617   0.586  1.00  0.00     0.177 HD
ENDBRANCH   7  11
ENDBRANCH   2   4
ENDBRANCH   1   2
BRANCH   1  14
HETATM   14  C5  UNL     1       0.971  -1.312   0.392  1.00  0.00     0.133 C 
BRANCH  14  15
HETATM   15  N4  UNL     1       0.590  -1.408  -0.980  1.00  0.00    -0.420 N 
ATOM     16  H4  UNL     1       1.215  -1.777  -1.697  1.00  0.00     0.153 HD
BRANCH  15  17
HETATM   17  C6  UNL     1      -0.740  -0.946  -1.279  1.00  0.00     0.115 C 
BRANCH  17  18
HETATM   18  C7  UNL     1      -1.809  -1.839  -0.688  1.00  0.00     0.038 C 
BRANCH  18  19
HETATM   19  C8  UNL     1      -3.164  -1.349  -1.007  1.00  0.00     0.118 C 
BRANCH  19  20
HETATM   20  N5  UNL     1      -3.508  -0.055  -0.552  1.00  0.00    -0.408 N 
HETATM   21  C9  UNL     1      -4.816   0.383  -0.879  1.00  0.00     0.143 C 
HETATM   22  C10 UNL     1      -5.598   1.027   0.207  1.00  0.00     0.187 C 
HETATM   23  O1  UNL     1      -4.769   1.811   0.995  1.00  0.00    -0.388 OA
HETATM   24  C11 UNL     1      -3.929   0.907   1.685  1.00  0.00     0.187 C 
HETATM   25  C12 UNL     1      -2.928   0.424   0.625  1.00  0.00     0.143 C 
ENDBRANCH  19  20
ENDBRANCH  18  19
ENDBRANCH  17  18
ENDBRANCH  15  17
ENDBRANCH  14  15
ENDBRANCH   1  14
TORSDOF 9
