REMARK  16 active torsions:
REMARK  status: ('A' for Active; 'I' for Inactive)
REMARK    1  A    between atoms: C2_2  and  C3_3 
REMARK    2  A    between atoms: C3_3  and  C4_4 
REMARK    3  A    between atoms: C4_4  and  C5_5 
REMARK    4  A    between atoms: C5_5  and  C6_6 
REMARK    5  A    between atoms: C6_6  and  C7_7 
REMARK    6  A    between atoms: C8_10  and  O1_11 
REMARK    7  A    between atoms: C9_13  and  C10_14 
REMARK    8  A    between atoms: C10_14  and  C11_15 
REMARK    9  A    between atoms: C11_15  and  C12_16 
REMARK   10  A    between atoms: C12_16  and  C13_17 
REMARK   11  A    between atoms: C13_17  and  O2_18 
REMARK   12  A    between atoms: C15_24  and  C16_25 
REMARK   13  A    between atoms: C18_32  and  C19_33 
REMARK   14  A    between atoms: C19_33  and  O6_34 
REMARK   15  A    between atoms: O6_34  and  C20_35 
REMARK   16  A    between atoms: C20_35  and  C21_36 
ROOT
HETATM    1  C7  UNL     1      -0.622  -1.380   0.195  1.00  0.00     0.175 C 
HETATM    2  N1  UNL     1      -0.069  -1.347  -1.135  1.00  0.00    -0.359 N 
ATOM      3  H1  UNL     1      -0.571  -0.738  -1.781  1.00  0.00     0.162 HD
HETATM    4  C8  UNL     1       1.026  -1.995  -1.697  1.00  0.00     0.135 C 
HETATM    5  C9  UNL     1       2.467  -1.903  -1.314  1.00  0.00     0.159 C 
HETATM    6  N2  UNL     1       3.047  -0.750  -1.936  1.00  0.00    -0.347 N 
ATOM      7  H2  UNL     1       3.181  -0.862  -2.941  1.00  0.00     0.163 HD
HETATM    8  C14 UNL     1       3.464   0.482  -1.466  1.00  0.00     0.250 C 
HETATM    9  O3  UNL     1       4.623   0.878  -1.855  1.00  0.00    -0.271 OA
HETATM   10  C15 UNL     1       2.775   1.441  -0.569  1.00  0.00     0.266 C 
HETATM   11  N4  UNL     1       1.872   2.314  -1.292  1.00  0.00    -0.339 N 
ATOM     12  H4  UNL     1       2.271   3.194  -1.618  1.00  0.00     0.163 HD
HETATM   13  C17 UNL     1       0.525   2.105  -1.600  1.00  0.00     0.243 C 
HETATM   14  O5  UNL     1       0.169   2.164  -2.840  1.00  0.00    -0.271 OA
HETATM   15  C18 UNL     1      -0.596   1.815  -0.674  1.00  0.00     0.200 C 
HETATM   16  N5  UNL     1      -0.251   1.165   0.534  1.00  0.00    -0.344 N 
ATOM     17  H5  UNL     1       0.268   1.744   1.194  1.00  0.00     0.163 HD
HETATM   18  C22 UNL     1      -0.503  -0.145   0.978  1.00  0.00     0.241 C 
HETATM   19  O9  UNL     1      -0.656  -0.331   2.255  1.00  0.00    -0.271 OA
ENDROOT
BRANCH   1  20
HETATM   20  C6  UNL     1      -2.132  -1.653   0.022  1.00  0.00     0.035 C 
BRANCH  20  21
HETATM   21  C5  UNL     1      -2.887  -1.723   1.292  1.00  0.00     0.002 C 
BRANCH  21  22
HETATM   22  C4  UNL     1      -4.359  -2.039   0.991  1.00  0.00     0.000 C 
BRANCH  22  23
HETATM   23  C3  UNL     1      -5.001  -0.993   0.126  1.00  0.00    -0.000 C 
BRANCH  23  24
HETATM   24  C2  UNL     1      -6.469  -1.346  -0.137  1.00  0.00    -0.005 C 
HETATM   25  C1  UNL     1      -7.118  -0.292  -1.009  1.00  0.00     0.005 C 
ENDBRANCH  23  24
ENDBRANCH  22  23
ENDBRANCH  21  22
ENDBRANCH  20  21
ENDBRANCH   1  20
BRANCH   4  26
HETATM   26  O1  UNL     1       0.754  -2.790  -2.697  1.00  0.00    -0.348 OA
ATOM     27  H1  UNL     1       1.502  -3.233  -3.081  1.00  0.00     0.219 HD
ENDBRANCH   4  26
BRANCH   5  28
HETATM   28  C10 UNL     1       2.760  -2.183   0.099  1.00  0.00     0.034 C 
BRANCH  28  29
HETATM   29  C11 UNL     1       4.220  -2.113   0.432  1.00  0.00     0.004 C 
BRANCH  29  30
HETATM   30  C12 UNL     1       5.020  -3.116  -0.372  1.00  0.00     0.026 C 
BRANCH  30  31
HETATM   31  C13 UNL     1       6.495  -3.050  -0.006  1.00  0.00     0.164 C 
BRANCH  31  32
HETATM   32  O2  UNL     1       6.632  -3.336   1.347  1.00  0.00    -0.401 OA
ATOM     33  H2  UNL     1       7.553  -3.295   1.576  1.00  0.00     0.209 HD
ENDBRANCH  31  32
ENDBRANCH  30  31
ENDBRANCH  29  30
ENDBRANCH  28  29
ENDBRANCH   5  28
BRANCH  15  34
HETATM   34  C19 UNL     1      -1.115   3.219  -0.255  1.00  0.00     0.203 C 
BRANCH  34  35
HETATM   35  O6  UNL     1      -1.481   3.945  -1.344  1.00  0.00    -0.378 OA
BRANCH  35  36
HETATM   36  C20 UNL     1      -1.936   5.190  -0.991  1.00  0.00     0.280 C 
BRANCH  36  37
HETATM   37  C21 UNL     1      -3.163   5.224  -0.190  1.00  0.00     0.197 C 
HETATM   38  O7  UNL     1      -3.634   6.330   0.257  1.00  0.00    -0.646 OA
HETATM   39  O8  UNL     1      -3.907   4.110   0.147  1.00  0.00    -0.646 OA
ENDBRANCH  36  37
ENDBRANCH  35  36
ENDBRANCH  34  35
ENDBRANCH  15  34
BRANCH  10  40
HETATM   40  C16 UNL     1       3.808   2.329   0.088  1.00  0.00     0.263 C 
HETATM   41  N3  UNL     1       4.849   1.790   0.891  1.00  0.00    -0.060 NA
HETATM   42  O4  UNL     1       3.726   3.559  -0.092  1.00  0.00    -0.274 OA
ENDBRANCH  10  40
TORSDOF 16
