REMARK  6 active torsions:
REMARK  status: ('A' for Active; 'I' for Inactive)
REMARK    1  A    between atoms: C2_2  and  C3_3 
REMARK    2  A    between atoms: C3_3  and  N1_6 
REMARK    3  A    between atoms: C6_7  and  O1_8 
REMARK    4  A    between atoms: C7_10  and  N2_11 
REMARK       I    between atoms: N3_13  and  C8_15 
REMARK    5  A    between atoms: C8_15  and  C9_17 
REMARK    6  A    between atoms: N4_23  and  C14_24 
ROOT
HETATM    1  N1  UNL     1      -1.976  -0.184   0.268  1.00  0.00    -0.292 N 
HETATM    2  C6  UNL     1      -0.673  -0.544   0.358  1.00  0.00     0.192 A 
HETATM    3  C7  UNL     1       0.095   0.598   0.261  1.00  0.00     0.178 A 
HETATM    4  N4  UNL     1      -0.751   1.656   0.113  1.00  0.00    -0.282 N 
HETATM    5  C17 UNL     1      -1.988   1.147   0.121  1.00  0.00     0.186 A 
HETATM    6  S1  UNL     1      -3.322   2.092  -0.033  1.00  0.00    -0.040 SA
ENDROOT
BRANCH   3   7
HETATM    7  N2  UNL     1       1.506   0.608   0.314  1.00  0.00    -0.279 N 
HETATM    8  N3  UNL     1       2.109  -0.250   0.990  1.00  0.00    -0.262 N 
HETATM    9  C8  UNL     1       3.501  -0.370   1.141  1.00  0.00     0.294 C 
ATOM     10  H3  UNL     1       1.534  -0.933   1.483  1.00  0.00     0.190 HD
HETATM   11  O2  UNL     1       4.002  -0.043   2.247  1.00  0.00    -0.264 OA
ATOM     12  H2  UNL     1       2.031   1.316  -0.200  1.00  0.00     0.189 HD
BRANCH   9  13
HETATM   13  C9  UNL     1       4.324  -0.854   0.061  1.00  0.00     0.150 A 
HETATM   14  O3  UNL     1       3.908  -1.221  -1.128  1.00  0.00    -0.317 OA
HETATM   15  C10 UNL     1       4.889  -1.610  -1.883  1.00  0.00     0.143 A 
HETATM   16  C11 UNL     1       6.039  -1.498  -1.156  1.00  0.00     0.034 A 
HETATM   17  C12 UNL     1       5.709  -1.017   0.089  1.00  0.00    -0.021 A 
HETATM   18  C13 UNL     1       6.649  -0.750   1.180  1.00  0.00     0.051 C 
ENDBRANCH   9  13
ENDBRANCH   3   7
BRANCH   2  19
HETATM   19  O1  UNL     1      -0.178  -1.831   0.518  1.00  0.00    -0.343 OA
ATOM     20  H1  UNL     1       0.736  -2.083   0.581  1.00  0.00     0.219 HD
ENDBRANCH   2  19
BRANCH   4  21
HETATM   21  C14 UNL     1      -0.269   3.000  -0.016  1.00  0.00     0.111 C 
HETATM   22  C15 UNL     1       0.131   3.279  -1.461  1.00  0.00     0.056 C 
HETATM   23  C16 UNL     1      -1.224   4.054   0.410  1.00  0.00     0.056 C 
HETATM   24 CL1  UNL     1       1.234   3.226   0.947  1.00  0.00    -0.096 Cl
ENDBRANCH   4  21
BRANCH   1  25
HETATM   25  C3  UNL     1      -3.136  -1.064   0.321  1.00  0.00     0.034 C 
HETATM   26  C4  UNL     1      -2.765  -2.422   0.819  1.00  0.00     0.039 C 
HETATM   27  C5  UNL     1      -4.217  -0.517   1.230  1.00  0.00     0.039 C 
BRANCH  25  28
HETATM   28  C2  UNL     1      -3.712  -1.152  -1.080  1.00  0.00     0.026 C 
HETATM   29  C1  UNL     1      -4.947  -2.010  -1.127  1.00  0.00     0.007 C 
ENDBRANCH  25  28
ENDBRANCH   1  25
TORSDOF 6
