REMARK  8 active torsions:
REMARK  status: ('A' for Active; 'I' for Inactive)
REMARK    1  A    between atoms: C1_4  and  N2_5 
REMARK    2  A    between atoms: N2_5  and  C2_7 
REMARK    3  A    between atoms: C10_17  and  O2_18 
REMARK    4  A    between atoms: C11_22  and  C12_23 
REMARK    5  A    between atoms: C12_23  and  C13_24 
REMARK    6  A    between atoms: C13_24  and  C14_25 
REMARK    7  A    between atoms: C14_25  and  C15_26 
REMARK    8  A    between atoms: C15_26  and  N5_27 
REMARK       I    between atoms: N5_27  and  C16_29 
ROOT
HETATM    1  C2  UNL     1      -1.596  -0.893  -1.154  1.00  0.00     0.113 C 
HETATM    2  C3  UNL     1      -2.740  -0.930  -0.240  1.00  0.00     0.130 C 
HETATM    3  C4  UNL     1      -3.424   0.285   0.158  1.00  0.00     0.222 C 
HETATM    4  O1  UNL     1      -4.709   0.168   0.302  1.00  0.00    -0.273 OA
HETATM    5  N3  UNL     1      -2.964   1.582   0.422  1.00  0.00    -0.340 N 
HETATM    6  C5  UNL     1      -3.359   2.297   1.657  1.00  0.00     0.127 C 
HETATM    7  C6  UNL     1      -4.440   3.324   1.337  1.00  0.00     0.020 C 
HETATM    8  C7  UNL     1      -4.319   3.589  -0.164  1.00  0.00     0.004 C 
HETATM    9  C8  UNL     1      -2.884   3.753  -0.508  1.00  0.00     0.034 C 
HETATM   10  C9  UNL     1      -2.100   2.418  -0.396  1.00  0.00     0.161 C 
HETATM   11  C10 UNL     1      -0.803   2.747   0.246  1.00  0.00     0.135 C 
HETATM   12  N4  UNL     1       0.020   1.943   1.039  1.00  0.00    -0.359 N 
ATOM     13  H4  UNL     1       0.128   2.262   2.002  1.00  0.00     0.162 HD
HETATM   14  C11 UNL     1       0.747   0.728   0.717  1.00  0.00     0.175 C 
HETATM   15  C17 UNL     1       0.080  -0.474   1.261  1.00  0.00     0.243 C 
HETATM   16  O3  UNL     1      -0.379  -0.339   2.452  1.00  0.00    -0.271 OA
HETATM   17  N8  UNL     1      -0.103  -1.708   0.643  1.00  0.00    -0.344 N 
HETATM   18  C18 UNL     1       0.029  -3.059   1.233  1.00  0.00     0.126 C 
HETATM   19  C19 UNL     1      -0.960  -3.857   0.458  1.00  0.00     0.022 C 
HETATM   20  C20 UNL     1      -0.909  -3.293  -0.920  1.00  0.00     0.029 C 
HETATM   21  C21 UNL     1      -0.474  -1.868  -0.738  1.00  0.00     0.110 C 
ENDROOT
BRANCH  14  22
HETATM   22  C12 UNL     1       2.120   0.785   1.423  1.00  0.00     0.035 C 
BRANCH  22  23
HETATM   23  C13 UNL     1       2.985  -0.385   1.178  1.00  0.00     0.004 C 
BRANCH  23  24
HETATM   24  C14 UNL     1       3.346  -0.596  -0.269  1.00  0.00     0.020 C 
BRANCH  24  25
HETATM   25  C15 UNL     1       4.237  -1.806  -0.456  1.00  0.00     0.122 C 
BRANCH  25  26
HETATM   26  N5  UNL     1       5.471  -1.695   0.258  1.00  0.00    -0.365 N 
HETATM   27  C16 UNL     1       6.488  -0.751  -0.085  1.00  0.00     0.181 C 
HETATM   28  N6  UNL     1       7.229  -0.290   0.848  1.00  0.00    -0.374 N 
HETATM   29  N7  UNL     1       6.640  -0.360  -1.442  1.00  0.00    -0.064 NA
ATOM     30  H62 UNL     1       7.120  -0.571   1.822  1.00  0.00     0.158 HD
ATOM     31  H61 UNL     1       7.955   0.384   0.603  1.00  0.00     0.158 HD
ATOM     32  H5  UNL     1       5.633  -2.318   1.049  1.00  0.00     0.162 HD
ENDBRANCH  25  26
ENDBRANCH  24  25
ENDBRANCH  23  24
ENDBRANCH  22  23
ENDBRANCH  14  22
BRANCH  11  33
HETATM   33  O2  UNL     1      -0.399   3.965   0.023  1.00  0.00    -0.348 OA
ATOM     34  H2  UNL     1       0.431   4.176   0.434  1.00  0.00     0.219 HD
ENDBRANCH  11  33
BRANCH   1  35
HETATM   35  N2  UNL     1      -1.984  -1.332  -2.507  1.00  0.00    -0.379 N 
ATOM     36  H2  UNL     1      -1.533  -2.138  -2.939  1.00  0.00     0.160 HD
BRANCH  35  37
HETATM   37  C1  UNL     1      -3.001  -0.611  -3.202  1.00  0.00     0.169 C 
HETATM   38  N1  UNL     1      -4.182  -1.031  -3.397  1.00  0.00    -0.396 N 
ATOM     39  H12 UNL     1      -4.405  -1.954  -3.023  1.00  0.00     0.156 HD
ATOM     40  H11 UNL     1      -4.909  -0.516  -3.894  1.00  0.00     0.156 HD
ENDBRANCH  35  37
ENDBRANCH   1  35
TORSDOF 8
