REMARK  9 active torsions:
REMARK  status: ('A' for Active; 'I' for Inactive)
REMARK    1  A    between atoms: C2_2  and  O1_3 
REMARK    2  A    between atoms: O1_3  and  C3_4 
REMARK    3  A    between atoms: C3_4  and  O3_6 
REMARK    4  A    between atoms: O3_6  and  C4_7 
REMARK    5  A    between atoms: C7_10  and  C8_11 
REMARK    6  A    between atoms: C9_13  and  O5_14 
REMARK    7  A    between atoms: O5_14  and  C10_15 
REMARK    8  A    between atoms: C16_22  and  C17_23 
REMARK    9  A    between atoms: C18_26  and  N1_27 
ROOT
HETATM    1  C8  UNL     1      -0.415  -0.577  -0.086  1.00  0.00     0.192 C 
HETATM    2  O4  UNL     1      -1.246   0.004  -1.041  1.00  0.00    -0.326 OA
HETATM    3  C9  UNL     1      -2.549  -0.413  -0.664  1.00  0.00     0.420 C 
HETATM    4  O6  UNL     1      -2.643  -1.748  -1.037  1.00  0.00    -0.320 OA
HETATM    5  C16 UNL     1      -1.845  -2.612  -0.326  1.00  0.00     0.259 C 
HETATM    6  C18 UNL     1      -0.447  -2.083  -0.098  1.00  0.00     0.229 C 
ENDROOT
BRANCH   1   7
HETATM    7  C7  UNL     1       0.934   0.007  -0.015  1.00  0.00    -0.027 A 
HETATM    8  C6  UNL     1       1.604   0.373  -1.156  1.00  0.00     0.012 A 
HETATM    9  C5  UNL     1       2.874   0.915  -1.092  1.00  0.00     0.038 A 
HETATM   10  C4  UNL     1       3.519   1.109   0.109  1.00  0.00     0.081 A 
HETATM   11  C20 UNL     1       2.862   0.749   1.260  1.00  0.00     0.038 A 
HETATM   12  C19 UNL     1       1.583   0.205   1.187  1.00  0.00     0.012 A 
BRANCH  10  13
HETATM   13  O3  UNL     1       4.790   1.658   0.080  1.00  0.00    -0.255 OA
BRANCH  13  14
HETATM   14  C3  UNL     1       5.873   0.809  -0.009  1.00  0.00     0.416 C 
HETATM   15  O2  UNL     1       5.682  -0.414  -0.061  1.00  0.00    -0.229 OA
BRANCH  14  16
HETATM   16  O1  UNL     1       7.191   1.258  -0.045  1.00  0.00    -0.268 OA
BRANCH  16  17
HETATM   17  C2  UNL     1       8.228   0.337  -0.136  1.00  0.00     0.137 C 
HETATM   18  C1  UNL     1       9.463   0.820  -0.167  1.00  0.00     0.038 C 
ENDBRANCH  16  17
ENDBRANCH  14  16
ENDBRANCH  13  14
ENDBRANCH  10  13
ENDBRANCH   1   7
BRANCH   6  19
HETATM   19  N1  UNL     1       0.396  -2.644  -1.112  1.00  0.00    -0.144 N 
HETATM   20  O9  UNL     1       1.365  -3.347  -0.810  1.00  0.00    -0.536 OA
HETATM   21  O10 UNL     1       0.127  -2.400  -2.426  1.00  0.00    -0.536 OA
ENDBRANCH   6  19
BRANCH   3  22
HETATM   22  O5  UNL     1      -3.534   0.296  -1.324  1.00  0.00    -0.297 OA
BRANCH  22  23
HETATM   23  C10 UNL     1      -4.539   1.046  -0.763  1.00  0.00     0.074 A 
HETATM   24  C11 UNL     1      -4.694   1.189   0.598  1.00  0.00     0.037 A 
HETATM   25  C12 UNL     1      -5.723   1.957   1.144  1.00  0.00     0.003 A 
HETATM   26  C13 UNL     1      -6.612   2.592   0.314  1.00  0.00     0.000 A 
HETATM   27  C14 UNL     1      -6.495   2.477  -1.052  1.00  0.00     0.003 A 
HETATM   28  C15 UNL     1      -5.474   1.717  -1.557  1.00  0.00     0.037 A 
ENDBRANCH  22  23
ENDBRANCH   3  22
BRANCH   5  29
HETATM   29  C17 UNL     1      -2.511  -2.929   0.956  1.00  0.00     0.205 C 
HETATM   30  O7  UNL     1      -2.007  -3.695   1.810  1.00  0.00    -0.646 OA
HETATM   31  O8  UNL     1      -3.742  -2.370   1.251  1.00  0.00    -0.646 OA
ENDBRANCH   5  29
TORSDOF 9
