REMARK  16 active torsions:
REMARK  status: ('A' for Active; 'I' for Inactive)
REMARK    1  A    between atoms: C2_2  and  C3_3 
REMARK    2  A    between atoms: C3_3  and  C4_4 
REMARK    3  A    between atoms: C4_4  and  N1_5 
REMARK    4  A    between atoms: N1_5  and  C5_6 
REMARK       I    between atoms: N1_5  and  C8_11 
REMARK    5  A    between atoms: C5_6  and  C6_7 
REMARK    6  A    between atoms: C6_7  and  C7_8 
REMARK    7  A    between atoms: C8_11  and  C9_13 
REMARK    8  A    between atoms: C11_15  and  C12_16 
REMARK    9  A    between atoms: C13_17  and  C14_18 
REMARK   10  A    between atoms: C15_19  and  O3_20 
REMARK   11  A    between atoms: C18_23  and  O4_24 
REMARK   12  A    between atoms: O4_24  and  C19_25 
REMARK   13  A    between atoms: C19_25  and  C20_26 
REMARK   14  A    between atoms: C20_26  and  O5_27 
REMARK   15  A    between atoms: C25_36  and  N5_37 
REMARK   16  A    between atoms: N5_37  and  C26_39 
ROOT
HETATM    1  C9  UNL     1      -1.880   0.304  -1.742  1.00  0.00     0.077 A 
HETATM    2  C10 UNL     1      -0.605   0.002  -1.354  1.00  0.00     0.043 A 
HETATM    3  C11 UNL     1       0.317   1.003  -1.145  1.00  0.00     0.034 A 
HETATM    4  C24 UNL     1      -0.086   2.306  -1.338  1.00  0.00     0.110 A 
HETATM    5  N4  UNL     1      -1.321   2.585  -1.712  1.00  0.00    -0.350 N 
ATOM      6  H4  UNL     1      -1.585   3.561  -1.845  1.00  0.00     0.166 HD
HETATM    7  C25 UNL     1      -2.255   1.619  -1.927  1.00  0.00     0.122 A 
ENDROOT
BRANCH   3   8
HETATM    8  C12 UNL     1       1.650   0.669  -0.739  1.00  0.00    -0.060 C 
HETATM    9  C13 UNL     1       2.775   0.404  -0.384  1.00  0.00    -0.057 C 
BRANCH   9  10
HETATM   10  C14 UNL     1       4.122   0.107   0.059  1.00  0.00     0.073 A 
HETATM   11  C15 UNL     1       5.062   1.113   0.006  1.00  0.00     0.093 A 
HETATM   12  C17 UNL     1       6.337   0.812   0.433  1.00  0.00     0.094 A 
HETATM   13  C18 UNL     1       6.649  -0.448   0.893  1.00  0.00     0.145 A 
HETATM   14  N3  UNL     1       5.695  -1.403   0.928  1.00  0.00    -0.339 N 
HETATM   15  C22 UNL     1       4.442  -1.166   0.526  1.00  0.00     0.029 A 
ATOM     16  H3  UNL     1       5.937  -2.332   1.271  1.00  0.00     0.168 HD
HETATM   17  C23 UNL     1       3.362  -2.194   0.549  1.00  0.00     0.070 C 
BRANCH  11  18
HETATM   18  O3  UNL     1       4.743   2.381  -0.459  1.00  0.00    -0.354 OA
HETATM   19  C16 UNL     1       5.655   3.436  -0.535  1.00  0.00     0.210 C 
ENDBRANCH  11  18
BRANCH  13  20
HETATM   20  O4  UNL     1       7.933  -0.778   1.332  1.00  0.00    -0.334 OA
BRANCH  20  21
HETATM   21  C19 UNL     1       8.255  -2.057   1.800  1.00  0.00     0.203 C 
BRANCH  21  22
HETATM   22  C20 UNL     1       9.714  -2.150   2.214  1.00  0.00     0.193 C 
BRANCH  22  23
HETATM   23  O5  UNL     1      10.535  -1.866   1.125  1.00  0.00    -0.394 OA
HETATM   24  C21 UNL     1      11.863  -1.957   1.529  1.00  0.00     0.201 C 
ENDBRANCH  22  23
ENDBRANCH  21  22
ENDBRANCH  20  21
ENDBRANCH  13  20
ENDBRANCH   9  10
ENDBRANCH   3   8
BRANCH   1  25
HETATM   25  C8  UNL     1      -2.867  -0.726  -1.986  1.00  0.00     0.257 C 
HETATM   26  N1  UNL     1      -3.763  -1.275  -1.040  1.00  0.00    -0.347 N 
HETATM   27  O2  UNL     1      -2.923  -1.178  -3.190  1.00  0.00    -0.267 OA
BRANCH  26  28
HETATM   28  C4  UNL     1      -4.681  -2.287  -1.514  1.00  0.00     0.130 C 
BRANCH  28  29
HETATM   29  C3  UNL     1      -4.192  -3.688  -1.446  1.00  0.00     0.046 C 
BRANCH  29  30
HETATM   30  C2  UNL     1      -5.286  -4.550  -1.987  1.00  0.00    -0.035 C 
HETATM   31  C1  UNL     1      -5.867  -5.501  -1.276  1.00  0.00     0.007 C 
ENDBRANCH  29  30
ENDBRANCH  28  29
ENDBRANCH  26  28
BRANCH  26  32
HETATM   32  C5  UNL     1      -3.753  -0.837   0.321  1.00  0.00     0.135 C 
BRANCH  32  33
HETATM   33  C6  UNL     1      -2.883  -1.591   1.264  1.00  0.00     0.119 C 
BRANCH  33  34
HETATM   34  C7  UNL     1      -3.011  -0.978   2.622  1.00  0.00     0.232 C 
HETATM   35  N2  UNL     1      -2.288  -1.463   3.741  1.00  0.00    -0.062 NA
HETATM   36  O1  UNL     1      -3.780  -0.004   2.786  1.00  0.00    -0.277 OA
ENDBRANCH  33  34
ENDBRANCH  32  33
ENDBRANCH  26  32
ENDBRANCH   1  25
BRANCH   7  37
HETATM   37  N5  UNL     1      -3.568   1.962  -2.347  1.00  0.00    -0.328 N 
ATOM     38  H5  UNL     1      -3.884   1.657  -3.268  1.00  0.00     0.169 HD
BRANCH  37  39
HETATM   39  C26 UNL     1      -4.363   2.633  -1.620  1.00  0.00     0.107 A 
HETATM   40  C27 UNL     1      -5.651   2.949  -2.076  1.00  0.00     0.055 A 
HETATM   41  C28 UNL     1      -6.540   3.672  -1.323  1.00  0.00    -0.057 A 
HETATM   42  C29 UNL     1      -7.889   3.974  -1.862  1.00  0.00     0.048 C 
HETATM   43  C30 UNL     1      -6.183   4.118  -0.067  1.00  0.00     0.031 A 
HETATM   44  C31 UNL     1      -4.915   3.798   0.365  1.00  0.00     0.007 A 
HETATM   45  C32 UNL     1      -4.485   4.263   1.725  1.00  0.00     0.068 C 
HETATM   46  N6  UNL     1      -4.054   3.081  -0.401  1.00  0.00    -0.346 N 
ATOM     47  H6  UNL     1      -3.127   2.875  -0.028  1.00  0.00     0.167 HD
ENDBRANCH  37  39
ENDBRANCH   7  37
TORSDOF 16
