REMARK  16 active torsions:
REMARK  status: ('A' for Active; 'I' for Inactive)
REMARK    1  A    between atoms: C6_6  and  N1_7 
REMARK       I    between atoms: N1_7  and  C7_9 
REMARK       I    between atoms: C7_9  and  N2_11 
REMARK    2  A    between atoms: N2_11  and  C9_13 
REMARK    3  A    between atoms: C9_13  and  C10_14 
REMARK    4  A    between atoms: C10_14  and  C11_15 
REMARK    5  A    between atoms: C11_15  and  N3_16 
REMARK    6  A    between atoms: N3_16  and  C12_18 
REMARK    7  A    between atoms: C12_18  and  C13_19 
REMARK    8  A    between atoms: C13_19  and  S1_20 
REMARK    9  A    between atoms: S1_20  and  C14_21 
REMARK   10  A    between atoms: C14_21  and  C15_22 
REMARK   11  A    between atoms: N5_28  and  O3_29 
REMARK   12  A    between atoms: N6_31  and  C18_33 
REMARK   13  A    between atoms: C18_33  and  C19_34 
REMARK   14  A    between atoms: C19_34  and  C20_35 
REMARK   15  A    between atoms: C20_35  and  N7_36 
REMARK   16  A    between atoms: C25_41  and  O4_42 
ROOT
HETATM    1  C12 UNL     1      -1.899   1.624   1.372  1.00  0.00     0.082 C 
HETATM    2  N6  UNL     1      -2.592   0.670   1.054  1.00  0.00    -0.379 N 
ATOM      3  H6  UNL     1      -3.522   1.025   0.830  1.00  0.00     0.160 HD
ENDROOT
BRANCH   1   4
HETATM    4  N3  UNL     1      -0.539   1.624   1.765  1.00  0.00    -0.379 N 
ATOM      5  H3  UNL     1      -0.089   2.500   2.031  1.00  0.00     0.160 HD
BRANCH   4   6
HETATM    6  C11 UNL     1       0.213   0.397   1.792  1.00  0.00     0.122 C 
BRANCH   6   7
HETATM    7  C10 UNL     1       1.647   0.605   2.229  1.00  0.00     0.039 C 
BRANCH   7   8
HETATM    8  C9  UNL     1       2.426   1.542   1.346  1.00  0.00     0.128 C 
BRANCH   8   9
HETATM    9  N2  UNL     1       2.530   1.115  -0.023  1.00  0.00    -0.338 N 
HETATM   10  C7  UNL     1       3.578   0.282  -0.451  1.00  0.00     0.322 C 
HETATM   11  N1  UNL     1       4.557  -0.204   0.444  1.00  0.00    -0.308 N 
HETATM   12  O1  UNL     1       3.650  -0.043  -1.668  1.00  0.00    -0.247 OA
ATOM     13  H1  UNL     1       4.511   0.048   1.431  1.00  0.00     0.170 HD
HETATM   14  C8  UNL     1       1.526   1.593  -0.967  1.00  0.00     0.154 C 
BRANCH  11  15
HETATM   15  C6  UNL     1       5.627  -1.059  -0.032  1.00  0.00     0.048 A 
HETATM   16  C4  UNL     1       5.393  -2.427  -0.014  1.00  0.00    -0.034 A 
HETATM   17  C3  UNL     1       6.381  -3.275  -0.468  1.00  0.00     0.015 A 
HETATM   18  C5  UNL     1       4.098  -2.978   0.487  1.00  0.00     0.050 C 
HETATM   19  C2  UNL     1       7.585  -2.790  -0.934  1.00  0.00    -0.061 A 
HETATM   20  C1  UNL     1       8.651  -3.702  -1.428  1.00  0.00     0.048 C 
HETATM   21  C28 UNL     1       7.796  -1.416  -0.942  1.00  0.00     0.015 A 
HETATM   22  C26 UNL     1       6.819  -0.548  -0.491  1.00  0.00    -0.034 A 
HETATM   23  C27 UNL     1       7.038   0.927  -0.493  1.00  0.00     0.050 C 
ENDBRANCH  11  15
ENDBRANCH   8   9
ENDBRANCH   7   8
ENDBRANCH   6   7
ENDBRANCH   4   6
ENDBRANCH   1   4
BRANCH   1  24
HETATM   24  C13 UNL     1      -2.566   2.999   1.354  1.00  0.00     0.150 C 
BRANCH  24  25
HETATM   25  S1  UNL     1      -1.626   4.004   0.209  1.00  0.00    -0.155 SA
BRANCH  25  26
HETATM   26  C14 UNL     1      -2.218   5.655  -0.036  1.00  0.00     0.138 C 
BRANCH  26  27
HETATM   27  C15 UNL     1      -3.447   5.809  -0.815  1.00  0.00     0.101 A 
HETATM   28  C16 UNL     1      -4.019   7.067  -1.016  1.00  0.00     0.058 A 
HETATM   29  C17 UNL     1      -3.546   8.376  -0.496  1.00  0.00     0.072 C 
HETATM   30  N4  UNL     1      -5.094   6.851  -1.782  1.00  0.00    -0.242 N 
HETATM   31  O2  UNL     1      -5.214   5.588  -2.054  1.00  0.00    -0.128 OA
ATOM     32  H4  UNL     1      -5.731   7.578  -2.107  1.00  0.00     0.196 HD
HETATM   33  N5  UNL     1      -4.224   4.965  -1.473  1.00  0.00    -0.104 N 
BRANCH  33  34
HETATM   34  O3  UNL     1      -4.049   3.618  -1.586  1.00  0.00    -0.261 OA
ATOM     35  H3  UNL     1      -4.607   3.012  -2.059  1.00  0.00     0.247 HD
ENDBRANCH  33  34
ENDBRANCH  26  27
ENDBRANCH  25  26
ENDBRANCH  24  25
ENDBRANCH   1  24
BRANCH   2  36
HETATM   36  C18 UNL     1      -2.613  -0.698   0.878  1.00  0.00     0.122 C 
BRANCH  36  37
HETATM   37  C19 UNL     1      -2.675  -0.997  -0.634  1.00  0.00     0.050 C 
BRANCH  37  38
HETATM   38  C20 UNL     1      -2.692  -2.493  -0.760  1.00  0.00     0.277 C 
BRANCH  38  39
HETATM   39  N7  UNL     1      -3.821  -3.041  -0.089  1.00  0.00     0.117 N 
HETATM   40  C21 UNL     1      -3.723  -4.494  -0.168  1.00  0.00     0.276 C 
HETATM   41  C22 UNL     1      -4.836  -5.220   0.498  1.00  0.00     0.030 C 
HETATM   42  C23 UNL     1      -6.192  -4.620   0.227  1.00  0.00     0.006 C 
HETATM   43  C24 UNL     1      -6.129  -3.132   0.498  1.00  0.00     0.064 C 
HETATM   44  C25 UNL     1      -5.103  -2.568  -0.504  1.00  0.00     0.356 C 
BRANCH  44  45
HETATM   45  O4  UNL     1      -5.459  -3.026  -1.773  1.00  0.00    -0.368 OA
ATOM     46  H4  UNL     1      -6.312  -2.711  -2.049  1.00  0.00     0.212 HD
ENDBRANCH  44  45
ENDBRANCH  38  39
ENDBRANCH  37  38
ENDBRANCH  36  37
ENDBRANCH   2  36
TORSDOF 16
