REMARK  12 active torsions:
REMARK  status: ('A' for Active; 'I' for Inactive)
REMARK    1  A    between atoms: C6_7  and  O2_8 
REMARK    2  A    between atoms: C9_12  and  O3_13 
REMARK    3  A    between atoms: C11_16  and  C12_17 
REMARK    4  A    between atoms: C12_17  and  O4_18 
REMARK    5  A    between atoms: C13_20  and  C14_21 
REMARK    6  A    between atoms: C13_20  and  O5_23 
REMARK    7  A    between atoms: N1_25  and  C17_26 
REMARK    8  A    between atoms: C17_26  and  C18_27 
REMARK    9  A    between atoms: C18_27  and  O6_28 
REMARK   10  A    between atoms: O6_28  and  C19_29 
REMARK   11  A    between atoms: C19_29  and  O7_31 
REMARK   12  A    between atoms: O7_31  and  N2_32 
ROOT
HETATM    1  C1  UNL     1      -5.910  -0.688  -1.382  1.00  0.00     0.036 C 
HETATM    2  C2  UNL     1      -5.027   0.437  -1.075  1.00  0.00    -0.017 C 
HETATM    3  C3  UNL     1      -3.861   0.370  -0.482  1.00  0.00     0.024 C 
HETATM    4  C4  UNL     1      -3.086   1.611  -0.244  1.00  0.00     0.194 C 
HETATM    5  O1  UNL     1      -3.727   2.693  -0.138  1.00  0.00    -0.287 OA
HETATM    6  C5  UNL     1      -1.633   1.568  -0.139  1.00  0.00     0.058 A 
HETATM    7  C6  UNL     1      -0.918   2.740   0.086  1.00  0.00     0.089 A 
HETATM    8  C7  UNL     1       0.437   2.724   0.189  1.00  0.00     0.009 A 
HETATM    9  C8  UNL     1       1.102   1.501   0.064  1.00  0.00     0.093 A 
HETATM   10  C9  UNL     1       0.366   0.343  -0.161  1.00  0.00     0.102 A 
HETATM   11  C10 UNL     1      -1.023   0.349  -0.268  1.00  0.00     0.004 A 
HETATM   12  C11 UNL     1      -1.746  -0.914  -0.509  1.00  0.00     0.085 C 
HETATM   13  C13 UNL     1      -3.192  -0.861   0.005  1.00  0.00     0.100 C 
HETATM   14  N1  UNL     1       2.526   1.487   0.185  1.00  0.00    -0.291 N 
HETATM   15  N3  UNL     1       3.316   2.645   0.014  1.00  0.00    -0.333 N 
ATOM     16  H3  UNL     1       4.333   2.630   0.090  1.00  0.00     0.180 HD
HETATM   17  C21 UNL     1       2.596   3.825  -0.270  1.00  0.00     0.144 C 
HETATM   18  C22 UNL     1       1.268   3.933   0.425  1.00  0.00     0.065 C 
ENDROOT
BRANCH  14  19
HETATM   19  C17 UNL     1       3.185   0.233   0.479  1.00  0.00     0.175 C 
BRANCH  19  20
HETATM   20  C18 UNL     1       4.639   0.566   0.834  1.00  0.00     0.193 C 
BRANCH  20  21
HETATM   21  O6  UNL     1       5.383  -0.529   1.151  1.00  0.00    -0.358 OA
BRANCH  21  22
HETATM   22  C19 UNL     1       5.570  -1.492   0.229  1.00  0.00     0.283 C 
HETATM   23  C20 UNL     1       7.026  -1.728  -0.135  1.00  0.00     0.073 C 
BRANCH  22  24
HETATM   24  O7  UNL     1       5.080  -2.739   0.628  1.00  0.00    -0.255 OA
BRANCH  24  25
HETATM   25  N2  UNL     1       4.199  -3.279  -0.211  1.00  0.00    -0.308 N 
ATOM     26  H22 UNL     1       3.915  -2.809  -1.070  1.00  0.00     0.184 HD
ATOM     27  H21 UNL     1       3.841  -4.189   0.080  1.00  0.00     0.184 HD
ENDBRANCH  24  25
ENDBRANCH  22  24
ENDBRANCH  21  22
ENDBRANCH  20  21
ENDBRANCH  19  20
ENDBRANCH  14  19
BRANCH  10  28
HETATM   28  O3  UNL     1       1.036  -0.842  -0.280  1.00  0.00    -0.358 OA
ATOM     29  H3  UNL     1       0.533  -1.633  -0.434  1.00  0.00     0.217 HD
ENDBRANCH  10  28
BRANCH   7  30
HETATM   30  O2  UNL     1      -1.603   3.933   0.207  1.00  0.00    -0.359 OA
ATOM     31  H2  UNL     1      -1.115   4.733   0.361  1.00  0.00     0.217 HD
ENDBRANCH   7  30
BRANCH  12  32
HETATM   32  C12 UNL     1      -1.734  -1.228  -1.988  1.00  0.00     0.177 C 
BRANCH  32  33
HETATM   33  O4  UNL     1      -2.367  -0.162  -2.648  1.00  0.00    -0.400 OA
ATOM     34  H4  UNL     1      -2.359  -0.359  -3.577  1.00  0.00     0.209 HD
ENDBRANCH  32  33
ENDBRANCH  12  32
BRANCH  13  35
HETATM   35  C14 UNL     1      -3.113  -0.803   1.512  1.00  0.00     0.039 C 
HETATM   36  C15 UNL     1      -4.459  -0.713   2.162  1.00  0.00     0.008 C 
ENDBRANCH  13  35
BRANCH  13  37
HETATM   37  O5  UNL     1      -3.880  -1.948  -0.453  1.00  0.00    -0.379 OA
HETATM   38  C16 UNL     1      -3.430  -3.169  -0.054  1.00  0.00     0.203 C 
ENDBRANCH  13  37
TORSDOF 12
