REMARK  4 active torsions:
REMARK  status: ('A' for Active; 'I' for Inactive)
REMARK    1  A    between atoms: N1_2  and  C2_4 
REMARK    2  A    between atoms: C5_7  and  C6_8 
REMARK       I    between atoms: C6_8  and  N2_10 
REMARK    3  A    between atoms: C8_15  and  C9_16 
REMARK    4  A    between atoms: C12_19  and  C13_20 
ROOT
HETATM    1  C6  UNL     1      -3.735  -0.995   1.048  1.00  0.00     0.260 C 
HETATM    2  O1  UNL     1      -3.802  -2.244   1.139  1.00  0.00    -0.267 OA
HETATM    3  N2  UNL     1      -2.494  -0.327   1.216  1.00  0.00    -0.287 N 
ATOM      4  H2  UNL     1      -2.434   0.518   1.783  1.00  0.00     0.172 HD
HETATM    5  C7  UNL     1      -1.441  -0.805   0.640  1.00  0.00     0.251 A 
HETATM    6  N3  UNL     1      -0.212  -0.277   0.715  1.00  0.00    -0.304 N 
ATOM      7  H3  UNL     1       0.034   0.564   1.236  1.00  0.00     0.171 HD
HETATM    8  C8  UNL     1       0.650  -1.025  -0.002  1.00  0.00     0.139 A 
HETATM    9  N4  UNL     1      -0.119  -2.031  -0.514  1.00  0.00    -0.240 N 
ATOM     10  H4  UNL     1       0.216  -2.786  -1.113  1.00  0.00     0.196 HD
HETATM   11  O2  UNL     1      -1.342  -1.872  -0.117  1.00  0.00    -0.199 OA
ENDROOT
BRANCH   1  12
HETATM   12  C5  UNL     1      -4.917  -0.193   0.769  1.00  0.00     0.048 A 
HETATM   13  C4  UNL     1      -4.848   1.178   0.671  1.00  0.00     0.022 A 
HETATM   14  C3  UNL     1      -5.997   1.930   0.401  1.00  0.00     0.049 A 
HETATM   15  C2  UNL     1      -7.200   1.252   0.236  1.00  0.00     0.100 A 
HETATM   16  N5  UNL     1      -7.215  -0.088   0.341  1.00  0.00    -0.352 N 
HETATM   17  C21 UNL     1      -6.127  -0.835   0.600  1.00  0.00     0.106 A 
ATOM     18  H5  UNL     1      -8.106  -0.568   0.217  1.00  0.00     0.166 HD
BRANCH  15  19
HETATM   19  N1  UNL     1      -8.252   1.941  -0.012  1.00  0.00    -0.381 N 
HETATM   20  C1  UNL     1      -9.505   1.227  -0.183  1.00  0.00     0.147 C 
ATOM     21  H1  UNL     1      -8.210   2.957  -0.087  1.00  0.00     0.160 HD
ENDBRANCH  15  19
ENDBRANCH   1  12
BRANCH   8  22
HETATM   22  C9  UNL     1       2.078  -0.823  -0.200  1.00  0.00     0.010 A 
HETATM   23  C10 UNL     1       2.818  -1.678  -0.959  1.00  0.00     0.016 A 
HETATM   24  C11 UNL     1       4.192  -1.456  -1.132  1.00  0.00     0.013 A 
HETATM   25  C12 UNL     1       4.796  -0.373  -0.533  1.00  0.00    -0.026 A 
HETATM   26  C19 UNL     1       4.039   0.484   0.232  1.00  0.00     0.013 A 
HETATM   27  C20 UNL     1       2.683   0.258   0.397  1.00  0.00     0.016 A 
BRANCH  25  28
HETATM   28  C13 UNL     1       6.222  -0.084  -0.673  1.00  0.00    -0.026 A 
HETATM   29  C14 UNL     1       6.688   1.229  -0.648  1.00  0.00     0.012 A 
HETATM   30  C15 UNL     1       8.007   1.578  -0.772  1.00  0.00     0.001 A 
HETATM   31  C16 UNL     1       8.910   0.549  -0.930  1.00  0.00     0.000 A 
HETATM   32  C17 UNL     1       8.479  -0.779  -0.959  1.00  0.00     0.001 A 
HETATM   33  C18 UNL     1       7.147  -1.086  -0.831  1.00  0.00     0.012 A 
ENDBRANCH  25  28
ENDBRANCH   8  22
TORSDOF 4
