REMARK  5 active torsions:
REMARK  status: ('A' for Active; 'I' for Inactive)
REMARK    1  A    between atoms: C2_2  and  C3_3 
REMARK    2  A    between atoms: C2_2  and  O2_15 
REMARK    3  A    between atoms: C3_3  and  C4_4 
REMARK    4  A    between atoms: O2_15  and  C12_16 
REMARK       I    between atoms: C12_16  and  N3_18 
REMARK    5  A    between atoms: N3_18  and  C13_20 
ROOT
HETATM    1  O2  UNL     1       0.415   0.827   0.162  1.00  0.00    -0.299 OA
ENDROOT
BRANCH   1   2
HETATM    2  C2  UNL     1       1.198   1.866  -0.381  1.00  0.00     0.131 C 
HETATM    3  C1  UNL     1       1.692   2.723   0.722  1.00  0.00     0.040 C 
BRANCH   2   4
HETATM    4  C3  UNL     1       2.107   1.382  -1.403  1.00  0.00     0.070 C 
BRANCH   4   5
HETATM    5  C4  UNL     1       3.293   0.519  -1.059  1.00  0.00     0.260 C 
HETATM    6  C5  UNL     1       2.900  -0.723  -0.426  1.00  0.00     0.282 C 
HETATM    7  C6  UNL     1       3.566  -1.944  -1.103  1.00  0.00     0.208 C 
HETATM    8  N1  UNL     1       3.143  -0.976   0.927  1.00  0.00     0.120 N 
HETATM    9  O1  UNL     1       3.313  -2.941  -0.205  1.00  0.00    -0.360 OA
HETATM   10  C7  UNL     1       3.365  -2.406   1.053  1.00  0.00     0.441 C 
HETATM   11  C8  UNL     1       4.174  -0.299   1.602  1.00  0.00     0.277 C 
HETATM   12  C9  UNL     1       5.503  -0.255   0.947  1.00  0.00     0.060 C 
HETATM   13  C10 UNL     1       5.496   0.834  -0.045  1.00  0.00     0.274 C 
HETATM   14  N2  UNL     1       4.295   1.352  -0.520  1.00  0.00     0.091 N 
HETATM   15  C11 UNL     1       4.638   2.331  -1.574  1.00  0.00     0.310 C 
ENDBRANCH   4   5
ENDBRANCH   2   4
ENDBRANCH   1   2
BRANCH   1  16
HETATM   16  C12 UNL     1      -0.963   0.731  -0.003  1.00  0.00     0.361 C 
HETATM   17  O3  UNL     1      -1.471   1.650  -0.681  1.00  0.00    -0.238 OA
HETATM   18  N3  UNL     1      -1.744  -0.296   0.533  1.00  0.00    -0.328 N 
ATOM     19  H3  UNL     1      -1.267  -1.015   1.077  1.00  0.00     0.165 HD
BRANCH  18  20
HETATM   20  C13 UNL     1      -3.174  -0.419   0.376  1.00  0.00     0.036 C 
HETATM   21  C14 UNL     1      -3.949   0.754   0.920  1.00  0.00     0.035 C 
HETATM   22  C15 UNL     1      -5.412   0.530   0.666  1.00  0.00    -0.012 C 
HETATM   23  C16 UNL     1      -5.902  -0.665   1.438  1.00  0.00     0.009 C 
HETATM   24  C20 UNL     1      -5.766   0.344  -0.770  1.00  0.00     0.009 C 
HETATM   25  C17 UNL     1      -5.110  -1.855   0.936  1.00  0.00    -0.012 C 
HETATM   26  C18 UNL     1      -5.416  -2.070  -0.546  1.00  0.00     0.009 C 
HETATM   27  C22 UNL     1      -3.655  -1.635   1.161  1.00  0.00     0.035 C 
HETATM   28  C19 UNL     1      -4.992  -0.846  -1.296  1.00  0.00    -0.012 C 
HETATM   29  C21 UNL     1      -3.518  -0.570  -1.086  1.00  0.00     0.035 C 
ENDBRANCH  18  20
ENDBRANCH   1  16
TORSDOF 5
