REMARK  16 active torsions:
REMARK  status: ('A' for Active; 'I' for Inactive)
REMARK    1  A    between atoms: N1_2  and  C2_4 
REMARK    2  A    between atoms: C3_9  and  S1_10 
REMARK    3  A    between atoms: S1_10  and  C4_11 
REMARK    4  A    between atoms: C4_11  and  C5_12 
REMARK    5  A    between atoms: C5_12  and  C6_13 
REMARK    6  A    between atoms: C6_13  and  C7_14 
REMARK    7  A    between atoms: C7_14  and  C8_15 
REMARK    8  A    between atoms: C8_15  and  C9_16 
REMARK    9  A    between atoms: C9_16  and  C10_17 
REMARK   10  A    between atoms: C10_17  and  C11_18 
REMARK       I    between atoms: C11_18  and  N4_20 
REMARK       I    between atoms: N5_23  and  C14_24 
REMARK   11  A    between atoms: C14_24  and  C15_26 
REMARK   12  A    between atoms: C15_26  and  N6_27 
REMARK   13  A    between atoms: C15_26  and  C16_31 
REMARK   14  A    between atoms: C16_31  and  C17_32 
REMARK       I    between atoms: N7_35  and  C20_36 
REMARK   15  A    between atoms: C20_36  and  O4_38 
REMARK   16  A    between atoms: O4_38  and  C21_39 
ROOT
HETATM    1  C11 UNL     1       3.413  -0.470   0.312  1.00  0.00     0.219 C 
HETATM    2  O1  UNL     1       4.111   0.527   0.707  1.00  0.00    -0.273 OA
HETATM    3  N4  UNL     1       2.130  -0.215  -0.175  1.00  0.00    -0.349 N 
HETATM    4  C12 UNL     1       1.304  -1.331  -0.657  1.00  0.00     0.145 C 
HETATM    5  C13 UNL     1       0.456  -0.687  -1.766  1.00  0.00     0.145 C 
HETATM    6  N5  UNL     1      -0.487   0.195  -1.044  1.00  0.00    -0.347 N 
HETATM    7  C14 UNL     1      -1.848  -0.007  -1.311  1.00  0.00     0.250 C 
HETATM    8  O2  UNL     1      -2.188  -0.914  -2.172  1.00  0.00    -0.271 OA
HETATM    9  C27 UNL     1       0.100   1.153  -0.174  1.00  0.00     0.145 C 
HETATM   10  C28 UNL     1       1.622   1.136  -0.200  1.00  0.00     0.145 C 
ENDROOT
BRANCH   7  11
HETATM   11  C15 UNL     1      -2.989   0.704  -0.720  1.00  0.00     0.275 C 
BRANCH  11  12
HETATM   12  N6  UNL     1      -2.530   1.759   0.180  1.00  0.00    -0.066 N 
ATOM     13  H63 UNL     1      -1.898   1.398   0.895  1.00  0.00     0.275 HD
ATOM     14  H62 UNL     1      -1.886   2.399  -0.285  1.00  0.00     0.275 HD
ATOM     15  H61 UNL     1      -3.322   2.253   0.590  1.00  0.00     0.275 HD
ENDBRANCH  11  12
BRANCH  11  16
HETATM   16  C16 UNL     1      -3.914  -0.146   0.080  1.00  0.00     0.047 C 
BRANCH  16  17
HETATM   17  C17 UNL     1      -4.583  -1.270  -0.619  1.00  0.00    -0.009 C 
HETATM   18  C18 UNL     1      -5.484  -1.956   0.417  1.00  0.00     0.024 C 
HETATM   19  C19 UNL     1      -6.648  -1.077   0.819  1.00  0.00     0.128 C 
HETATM   20  N7  UNL     1      -7.285  -0.634  -0.402  1.00  0.00    -0.328 N 
HETATM   21  C20 UNL     1      -8.312   0.341  -0.388  1.00  0.00     0.363 C 
HETATM   22  C25 UNL     1      -6.818  -1.242  -1.630  1.00  0.00     0.128 C 
HETATM   23  O3  UNL     1      -8.866   0.738  -1.468  1.00  0.00    -0.238 OA
HETATM   24  C26 UNL     1      -5.367  -0.879  -1.816  1.00  0.00     0.024 C 
BRANCH  21  25
HETATM   25  O4  UNL     1      -8.759   0.902   0.778  1.00  0.00    -0.294 OA
BRANCH  25  26
HETATM   26  C21 UNL     1      -9.758   1.863   0.912  1.00  0.00     0.061 C 
HETATM   27  C22 UNL     1      -9.443   3.147   0.180  1.00  0.00     0.046 C 
HETATM   28  C23 UNL     1      -9.907   2.179   2.389  1.00  0.00     0.046 C 
HETATM   29  C24 UNL     1     -11.127   1.396   0.442  1.00  0.00     0.046 C 
ENDBRANCH  25  26
ENDBRANCH  21  25
ENDBRANCH  16  17
ENDBRANCH  11  16
ENDBRANCH   7  11
BRANCH   1  30
HETATM   30  C10 UNL     1       4.058  -1.803   0.420  1.00  0.00     0.103 C 
BRANCH  30  31
HETATM   31  C9  UNL     1       5.511  -1.667   0.864  1.00  0.00     0.009 C 
BRANCH  31  32
HETATM   32  C8  UNL     1       6.167  -2.999   0.992  1.00  0.00     0.000 C 
BRANCH  32  33
HETATM   33  C7  UNL     1       7.614  -2.898   1.423  1.00  0.00     0.000 C 
BRANCH  33  34
HETATM   34  C6  UNL     1       8.450  -2.110   0.405  1.00  0.00     0.001 C 
BRANCH  34  35
HETATM   35  C5  UNL     1       8.434  -2.769  -0.920  1.00  0.00     0.010 C 
BRANCH  35  36
HETATM   36  C4  UNL     1       9.221  -2.168  -2.022  1.00  0.00     0.081 C 
BRANCH  36  37
HETATM   37  S1  UNL     1       8.820  -0.552  -2.599  1.00  0.00    -0.103 SA
BRANCH  37  38
HETATM   38  C3  UNL     1       9.216   0.792  -1.519  1.00  0.00     0.130 A 
HETATM   39  N3  UNL     1      10.391   1.420  -1.422  1.00  0.00    -0.286 N 
HETATM   40  N2  UNL     1      10.540   2.411  -0.658  1.00  0.00    -0.279 N 
ATOM     41  H3  UNL     1      11.182   1.092  -1.976  1.00  0.00     0.188 HD
HETATM   42  C2  UNL     1       9.494   2.831   0.064  1.00  0.00     0.161 A 
ATOM     43  H2  UNL     1      11.441   2.884  -0.591  1.00  0.00     0.189 HD
HETATM   44  S2  UNL     1       8.283   1.729  -0.412  1.00  0.00    -0.027 SA
BRANCH  42  45
HETATM   45  N1  UNL     1       9.455   3.836   0.908  1.00  0.00    -0.374 N 
HETATM   46  C1  UNL     1       8.232   4.143   1.598  1.00  0.00     0.148 C 
ATOM     47  H1  UNL     1      10.290   4.397   1.074  1.00  0.00     0.161 HD
ENDBRANCH  42  45
ENDBRANCH  37  38
ENDBRANCH  36  37
ENDBRANCH  35  36
ENDBRANCH  34  35
ENDBRANCH  33  34
ENDBRANCH  32  33
ENDBRANCH  31  32
ENDBRANCH  30  31
ENDBRANCH   1  30
TORSDOF 16
