REMARK  9 active torsions:
REMARK  status: ('A' for Active; 'I' for Inactive)
REMARK    1  A    between atoms: O1_2  and  C2_3 
REMARK    2  A    between atoms: C5_6  and  C6_7 
REMARK    3  A    between atoms: C6_7  and  O2_8 
REMARK    4  A    between atoms: C6_7  and  N1_10 
REMARK    5  A    between atoms: N1_10  and  N2_11 
REMARK    6  A    between atoms: N1_10  and  C12_20 
REMARK    7  A    between atoms: N2_11  and  C7_13 
REMARK    8  A    between atoms: C7_13  and  C8_15 
REMARK    9  A    between atoms: C12_20  and  N3_22 
ROOT
HETATM    1  N1  UNL     1      -0.542  -0.196  -0.134  1.00  0.00    -0.205 N 
ENDROOT
BRANCH   1   2
HETATM    2  C6  UNL     1       0.462   0.694  -0.485  1.00  0.00     0.174 C 
BRANCH   2   3
HETATM    3  C5  UNL     1       1.900   0.675  -0.378  1.00  0.00     0.017 A 
HETATM    4  C4  UNL     1       2.643  -0.471  -0.338  1.00  0.00     0.018 A 
HETATM    5  C3  UNL     1       4.029  -0.442  -0.154  1.00  0.00     0.037 A 
HETATM    6  C2  UNL     1       4.682   0.757  -0.009  1.00  0.00     0.068 A 
HETATM    7  C16 UNL     1       3.968   1.947  -0.045  1.00  0.00     0.037 A 
HETATM    8  C15 UNL     1       2.614   1.867  -0.226  1.00  0.00     0.018 A 
BRANCH   6   9
HETATM    9  O1  UNL     1       6.051   0.872   0.178  1.00  0.00    -0.356 OA
HETATM   10  C1  UNL     1       6.908  -0.265   0.236  1.00  0.00     0.210 C 
ENDBRANCH   6   9
ENDBRANCH   2   3
BRANCH   2  11
HETATM   11  O2  UNL     1       0.035   1.821  -1.051  1.00  0.00    -0.344 OA
ATOM     12  H2  UNL     1      -0.912   1.834  -1.121  1.00  0.00     0.219 HD
ENDBRANCH   2  11
ENDBRANCH   1   2
BRANCH   1  13
HETATM   13  N2  UNL     1      -1.870   0.137  -0.633  1.00  0.00    -0.278 N 
ATOM     14  H2  UNL     1      -2.267  -0.319  -1.454  1.00  0.00     0.188 HD
BRANCH  13  15
HETATM   15  C7  UNL     1      -2.571   1.121   0.081  1.00  0.00     0.133 C 
HETATM   16  S1  UNL     1      -1.953   1.861   1.395  1.00  0.00    -0.058 SA
BRANCH  15  17
HETATM   17  C8  UNL     1      -3.930   1.504  -0.378  1.00  0.00     0.044 A 
HETATM   18  C9  UNL     1      -4.248   2.439  -1.330  1.00  0.00     0.022 A 
HETATM   19  C10 UNL     1      -5.559   2.626  -1.589  1.00  0.00     0.009 A 
HETATM   20  C11 UNL     1      -6.451   1.874  -0.884  1.00  0.00     0.050 A 
HETATM   21  S2  UNL     1      -5.451   0.926   0.119  1.00  0.00    -0.099 SA
ENDBRANCH  15  17
ENDBRANCH  13  15
ENDBRANCH   1  13
BRANCH   1  22
HETATM   22  C12 UNL     1      -0.480  -1.201   0.856  1.00  0.00     0.197 C 
HETATM   23  S3  UNL     1       0.725  -1.233   2.018  1.00  0.00    -0.039 SA
BRANCH  22  24
HETATM   24  N3  UNL     1      -1.354  -2.314   0.956  1.00  0.00    -0.365 N 
HETATM   25  C13 UNL     1      -2.402  -2.548   0.026  1.00  0.00     0.151 C 
HETATM   26  C14 UNL     1      -1.190  -3.257   2.046  1.00  0.00     0.151 C 
ENDBRANCH  22  24
ENDBRANCH   1  22
TORSDOF 9
