REMARK  9 active torsions:
REMARK  status: ('A' for Active; 'I' for Inactive)
REMARK    1  A    between atoms: C2_2  and  N1_3 
REMARK    2  A    between atoms: C2_2  and  C3_7 
REMARK       I    between atoms: C3_7  and  N2_9 
REMARK    3  A    between atoms: N2_9  and  C4_11 
REMARK    4  A    between atoms: C4_11  and  C5_12 
REMARK    5  A    between atoms: C4_11  and  C6_14 
REMARK    6  A    between atoms: C6_14  and  N4_18 
REMARK    7  A    between atoms: N4_18  and  C7_20 
REMARK    8  A    between atoms: C7_20  and  C8_21 
REMARK    9  A    between atoms: C10_25  and  C11_26 
ROOT
HETATM    1  C6  UNL     1      -0.752  -1.462   1.086  1.00  0.00     0.095 C 
HETATM    2  N3  UNL     1      -0.956  -2.514   1.862  1.00  0.00    -0.387 N 
ATOM      3  H31 UNL     1      -1.720  -2.455   2.536  1.00  0.00     0.157 HD
ATOM      4  H32 UNL     1      -0.328  -3.304   1.716  1.00  0.00     0.157 HD
ENDROOT
BRANCH   1   5
HETATM    5  C4  UNL     1       0.340  -1.546   0.123  1.00  0.00     0.161 C 
BRANCH   5   6
HETATM    6  N2  UNL     1       1.467  -0.682   0.374  1.00  0.00    -0.347 N 
HETATM    7  C3  UNL     1       1.953   0.129  -0.679  1.00  0.00     0.248 C 
HETATM    8  O1  UNL     1       1.395   0.081  -1.799  1.00  0.00    -0.271 OA
ATOM      9  H2  UNL     1       1.906  -0.656   1.294  1.00  0.00     0.163 HD
BRANCH   7  10
HETATM   10  C2  UNL     1       3.109   1.048  -0.523  1.00  0.00     0.270 C 
HETATM   11  C1  UNL     1       2.899   2.070   0.572  1.00  0.00     0.050 C 
BRANCH  10  12
HETATM   12  N1  UNL     1       3.386   1.772  -1.743  1.00  0.00    -0.067 N 
ATOM     13  H13 UNL     1       2.666   2.458  -1.971  1.00  0.00     0.275 HD
ATOM     14  H12 UNL     1       4.166   2.423  -1.651  1.00  0.00     0.275 HD
ATOM     15  H11 UNL     1       3.528   1.083  -2.481  1.00  0.00     0.275 HD
ENDBRANCH  10  12
ENDBRANCH   7  10
ENDBRANCH   5   6
BRANCH   5  16
HETATM   16  C5  UNL     1       0.921  -2.958   0.057  1.00  0.00     0.119 C 
HETATM   17  S1  UNL     1       1.718  -3.348   1.622  1.00  0.00    -0.095 SA
ENDBRANCH   5  16
ENDBRANCH   1   5
BRANCH   1  18
HETATM   18  N4  UNL     1      -1.622  -0.367   1.288  1.00  0.00    -0.360 N 
ATOM     19  H4  UNL     1      -1.764  -0.013   2.234  1.00  0.00     0.162 HD
BRANCH  18  20
HETATM   20  C7  UNL     1      -2.313   0.262   0.191  1.00  0.00     0.124 A 
HETATM   21  C9  UNL     1      -3.213   1.439   0.591  1.00  0.00     0.060 A 
HETATM   22  C10 UNL     1      -2.000   1.599  -0.307  1.00  0.00     0.127 A 
BRANCH  20  23
HETATM   23  C8  UNL     1      -3.094  -0.673  -0.697  1.00  0.00     0.260 C 
HETATM   24  N5  UNL     1      -3.082  -2.039  -0.385  1.00  0.00    -0.060 NA
HETATM   25  O2  UNL     1      -3.720  -0.196  -1.675  1.00  0.00    -0.274 OA
ENDBRANCH  20  23
BRANCH  22  26
HETATM   26  C11 UNL     1      -0.964   2.449   0.308  1.00  0.00     0.180 C 
HETATM   27  O3  UNL     1      -0.647   2.306   1.503  1.00  0.00    -0.648 OA
HETATM   28  O4  UNL     1      -0.337   3.415  -0.446  1.00  0.00    -0.648 OA
ENDBRANCH  22  26
ENDBRANCH  18  20
ENDBRANCH   1  18
TORSDOF 9
