REMARK  11 active torsions:
REMARK  status: ('A' for Active; 'I' for Inactive)
REMARK    1  A    between atoms: C2_2  and  C3_3 
REMARK    2  A    between atoms: C3_3  and  O1_4 
REMARK    3  A    between atoms: C7_9  and  N1_10 
REMARK    4  A    between atoms: C8_14  and  O2_15 
REMARK    5  A    between atoms: O2_15  and  C9_16 
REMARK    6  A    between atoms: C10_17  and  N2_18 
REMARK    7  A    between atoms: C12_23  and  N3_24 
REMARK    8  A    between atoms: C13_28  and  O3_29 
REMARK    9  A    between atoms: O3_29  and  C14_30 
REMARK   10  A    between atoms: C17_33  and  O4_34 
REMARK   11  A    between atoms: C19_38  and  O6_39 
ROOT
HETATM    1  C9  UNL     1      -0.425  -0.672  -0.628  1.00  0.00     0.183 C 
HETATM    2  C10 UNL     1       0.425  -1.888  -0.342  1.00  0.00     0.217 C 
HETATM    3  C11 UNL     1       1.487  -2.007  -1.418  1.00  0.00     0.071 C 
HETATM    4  C12 UNL     1       1.869  -0.739  -2.078  1.00  0.00     0.217 C 
HETATM    5  C13 UNL     1       1.736   0.483  -1.231  1.00  0.00     0.184 C 
HETATM    6  C19 UNL     1       0.485   0.503  -0.382  1.00  0.00     0.180 C 
ENDROOT
BRANCH   1   7
HETATM    7  O2  UNL     1      -1.552  -0.511   0.079  1.00  0.00    -0.371 OA
BRANCH   7   8
HETATM    8  C8  UNL     1      -2.781  -0.530  -0.576  1.00  0.00     0.186 C 
HETATM    9  C3  UNL     1      -3.530  -1.673  -0.001  1.00  0.00     0.085 C 
HETATM   10  C4  UNL     1      -4.993  -1.750  -0.190  1.00  0.00     0.040 C 
HETATM   11  C5  UNL     1      -5.643  -0.525  -0.720  1.00  0.00     0.005 C 
HETATM   12  C6  UNL     1      -4.945   0.738  -0.302  1.00  0.00     0.035 C 
HETATM   13  C7  UNL     1      -3.496   0.761  -0.542  1.00  0.00     0.215 C 
BRANCH   9  14
HETATM   14  C2  UNL     1      -3.092  -1.910   1.427  1.00  0.00     0.036 C 
HETATM   15  C1  UNL     1      -3.524  -0.889   2.413  1.00  0.00     0.008 C 
ENDBRANCH   9  14
BRANCH   9  16
HETATM   16  O1  UNL     1      -2.957  -2.824  -0.684  1.00  0.00    -0.387 OA
ATOM     17  H1  UNL     1      -3.232  -2.675  -1.581  1.00  0.00     0.210 HD
ENDBRANCH   9  16
BRANCH  13  18
HETATM   18  N1  UNL     1      -3.314   1.521  -1.791  1.00  0.00    -0.072 N 
ATOM     19  H13 UNL     1      -3.853   1.155  -2.576  1.00  0.00     0.274 HD
ATOM     20  H12 UNL     1      -3.741   2.447  -1.773  1.00  0.00     0.274 HD
ATOM     21  H11 UNL     1      -2.308   1.537  -1.958  1.00  0.00     0.274 HD
ENDBRANCH  13  18
ENDBRANCH   7   8
ENDBRANCH   1   7
BRANCH   2  22
HETATM   22  N2  UNL     1       1.056  -1.684   0.947  1.00  0.00    -0.072 N 
ATOM     23  H23 UNL     1       1.580  -0.811   1.000  1.00  0.00     0.274 HD
ATOM     24  H22 UNL     1       0.387  -1.482   1.690  1.00  0.00     0.274 HD
ATOM     25  H21 UNL     1       1.630  -2.505   1.140  1.00  0.00     0.274 HD
ENDBRANCH   2  22
BRANCH   6  26
HETATM   26  O6  UNL     1      -0.159   1.719  -0.431  1.00  0.00    -0.390 OA
ATOM     27  H6  UNL     1       0.415   2.460  -0.276  1.00  0.00     0.210 HD
ENDBRANCH   6  26
BRANCH   5  28
HETATM   28  O3  UNL     1       2.867   0.588  -0.444  1.00  0.00    -0.363 OA
BRANCH  28  29
HETATM   29  C14 UNL     1       3.633   1.699  -0.649  1.00  0.00     0.215 C 
HETATM   30  C15 UNL     1       3.617   2.544   0.604  1.00  0.00     0.077 C 
HETATM   31  C16 UNL     1       4.627   2.179   1.596  1.00  0.00     0.041 C 
HETATM   32  C17 UNL     1       5.890   1.874   1.354  1.00  0.00     0.188 C 
HETATM   33  O5  UNL     1       6.389   1.875   0.064  1.00  0.00    -0.253 OA
HETATM   34  S1  UNL     1       5.315   1.352  -1.204  1.00  0.00     0.030 SA
BRANCH  32  35
HETATM   35  O4  UNL     1       6.778   1.537   2.386  1.00  0.00    -0.335 OA
HETATM   36  C18 UNL     1       8.141   1.981   2.338  1.00  0.00     0.212 C 
ENDBRANCH  32  35
ENDBRANCH  28  29
ENDBRANCH   5  28
BRANCH   4  37
HETATM   37  N3  UNL     1       1.250  -0.569  -3.403  1.00  0.00    -0.072 N 
ATOM     38  H33 UNL     1       1.453  -1.368  -4.004  1.00  0.00     0.274 HD
ATOM     39  H32 UNL     1       0.236  -0.657  -3.345  1.00  0.00     0.274 HD
ATOM     40  H31 UNL     1       1.513   0.305  -3.858  1.00  0.00     0.274 HD
ENDBRANCH   4  37
TORSDOF 11
