REMARK  4 active torsions:
REMARK  status: ('A' for Active; 'I' for Inactive)
REMARK    1  A    between atoms: N1_1  and  C1_5 
REMARK    2  A    between atoms: C1_5  and  C2_6 
REMARK    3  A    between atoms: C8_12  and  C9_13 
REMARK    4  A    between atoms: C11_15  and  C12_16 
ROOT
HETATM    1  C2  UNL     1       1.220   0.100  -0.581  1.00  0.00     0.016 C 
HETATM    2  C3  UNL     1       0.456  -0.952  -1.252  1.00  0.00     0.011 C 
HETATM    3  C4  UNL     1      -0.951  -1.217  -0.899  1.00  0.00    -0.009 C 
HETATM    4  C5  UNL     1      -0.997  -2.016   0.372  1.00  0.00     0.010 C 
HETATM    5  C6  UNL     1      -1.178  -0.862   1.380  1.00  0.00    -0.013 C 
HETATM    6  C7  UNL     1       0.120  -0.258   1.590  1.00  0.00     0.010 C 
HETATM    7  C8  UNL     1       0.561   0.799   0.578  1.00  0.00    -0.004 C 
HETATM    8  C12 UNL     1      -1.811   0.040  -0.691  1.00  0.00    -0.006 C 
HETATM    9  C13 UNL     1      -2.295  -0.181   0.695  1.00  0.00     0.010 C 
ENDROOT
BRANCH   1  10
HETATM   10  C1  UNL     1       2.588  -0.445  -0.123  1.00  0.00     0.234 C 
BRANCH  10  11
HETATM   11  N1  UNL     1       3.360   0.585   0.547  1.00  0.00    -0.079 N 
ATOM     12  H13 UNL     1       3.462   1.417  -0.034  1.00  0.00     0.274 HD
ATOM     13  H12 UNL     1       2.842   1.000   1.321  1.00  0.00     0.274 HD
ATOM     14  H11 UNL     1       4.265   0.225   0.850  1.00  0.00     0.274 HD
ENDBRANCH  10  11
ENDBRANCH   1  10
BRANCH   7  15
HETATM   15  C9  UNL     1      -0.526   1.707   0.311  1.00  0.00    -0.005 A 
HETATM   16  C10 UNL     1      -0.963   2.587  -0.717  1.00  0.00     0.011 A 
HETATM   17  C11 UNL     1      -1.061   1.205  -1.047  1.00  0.00    -0.005 A 
ENDBRANCH   7  15
TORSDOF 4
