REMARK  8 active torsions:
REMARK  status: ('A' for Active; 'I' for Inactive)
REMARK    1  A    between atoms: C3_3  and  C4_4 
REMARK    2  A    between atoms: C4_4  and  C5_5 
REMARK    3  A    between atoms: C5_5  and  O2_7 
REMARK    4  A    between atoms: O2_7  and  C6_8 
REMARK    5  A    between atoms: C8_10  and  O3_11 
REMARK    6  A    between atoms: O3_11  and  C9_12 
REMARK    7  A    between atoms: C16_20  and  C17_22 
REMARK    8  A    between atoms: C17_22  and  O5_23 
ROOT
HETATM    1  C6  UNL     1      -1.259  -0.317   0.548  1.00  0.00     0.207 A 
HETATM    2  C7  UNL     1      -1.029   0.446  -0.691  1.00  0.00     0.109 C 
HETATM    3  C8  UNL     1      -0.313   1.784  -0.532  1.00  0.00     0.165 C 
HETATM    4  C11 UNL     1       0.410   2.153  -1.780  1.00  0.00    -0.058 C 
HETATM    5  C12 UNL     1      -0.506   2.767  -2.844  1.00  0.00     0.046 C 
HETATM    6  C13 UNL     1       1.659   2.023  -2.089  1.00  0.00    -0.022 C 
HETATM    7  C14 UNL     1       2.792   1.458  -1.296  1.00  0.00     0.030 C 
HETATM    8  C15 UNL     1       3.186   0.109  -1.744  1.00  0.00     0.050 C 
HETATM    9  C16 UNL     1       3.686  -0.890  -0.766  1.00  0.00     0.128 C 
HETATM   10  F1  UNL     1       3.396  -2.145  -1.352  1.00  0.00    -0.240 F 
HETATM   11  C18 UNL     1       3.091  -0.934   0.572  1.00  0.00     0.023 C 
HETATM   12  C19 UNL     1       4.039  -1.124   1.736  1.00  0.00     0.013 C 
HETATM   13  C20 UNL     1       2.076  -2.086   0.751  1.00  0.00     0.011 C 
HETATM   14  C21 UNL     1       0.764  -1.768   0.070  1.00  0.00     0.044 C 
HETATM   15  C22 UNL     1      -0.341  -1.366   0.961  1.00  0.00     0.118 A 
HETATM   16  C23 UNL     1      -0.882  -2.553   1.779  1.00  0.00     0.052 C 
HETATM   17  O6  UNL     1      -0.408  -0.184   1.644  1.00  0.00    -0.335 OA
ENDROOT
BRANCH   1  18
HETATM   18  O2  UNL     1      -2.629  -0.637   0.857  1.00  0.00    -0.280 OA
BRANCH  18  19
HETATM   19  C5  UNL     1      -3.622   0.265   1.058  1.00  0.00     0.265 C 
HETATM   20  O1  UNL     1      -3.349   1.485   0.974  1.00  0.00    -0.265 OA
BRANCH  19  21
HETATM   21  C4  UNL     1      -4.997  -0.225   1.370  1.00  0.00     0.138 C 
BRANCH  21  22
HETATM   22  C3  UNL     1      -5.850  -0.247   0.155  1.00  0.00    -0.021 C 
HETATM   23  C2  UNL     1      -6.408  -1.356  -0.311  1.00  0.00    -0.034 C 
HETATM   24  C1  UNL     1      -7.263  -1.403  -1.521  1.00  0.00     0.036 C 
ENDBRANCH  21  22
ENDBRANCH  19  21
ENDBRANCH  18  19
ENDBRANCH   1  18
BRANCH   3  25
HETATM   25  O3  UNL     1       0.414   1.914   0.644  1.00  0.00    -0.312 OA
BRANCH  25  26
HETATM   26  C9  UNL     1       0.184   2.848   1.645  1.00  0.00     0.255 C 
HETATM   27  C10 UNL     1       0.995   2.942   2.883  1.00  0.00     0.126 C 
HETATM   28  O4  UNL     1      -0.775   3.644   1.459  1.00  0.00    -0.266 OA
ENDBRANCH  25  26
ENDBRANCH   3  25
BRANCH   9  29
HETATM   29  C17 UNL     1       5.198  -0.834  -0.789  1.00  0.00     0.208 C 
BRANCH  29  30
HETATM   30  O5  UNL     1       5.836  -1.706   0.046  1.00  0.00    -0.398 OA
ATOM     31  H5  UNL     1       6.785  -1.671   0.032  1.00  0.00     0.209 HD
ENDBRANCH  29  30
ENDBRANCH   9  29
TORSDOF 8
