REMARK  14 active torsions:
REMARK  status: ('A' for Active; 'I' for Inactive)
REMARK    1  A    between atoms: C2_2  and  N1_3 
REMARK    2  A    between atoms: N1_3  and  C3_5 
REMARK    3  A    between atoms: C4_8  and  N3_9 
REMARK    4  A    between atoms: C7_12  and  N4_13 
REMARK    5  A    between atoms: C11_19  and  N6_20 
REMARK    6  A    between atoms: N6_20  and  C12_22 
REMARK    7  A    between atoms: C12_22  and  C13_23 
REMARK    8  A    between atoms: C13_23  and  S1_24 
REMARK    9  A    between atoms: S1_24  and  C14_25 
REMARK   10  A    between atoms: C14_25  and  C15_26 
REMARK   11  A    between atoms: C15_26  and  C16_27 
REMARK   12  A    between atoms: C16_27  and  C17_28 
REMARK   13  A    between atoms: C18_30  and  N7_31 
REMARK   14  A    between atoms: C19_36  and  N9_37 
ROOT
HETATM    1  C3  UNL     1      -1.911   1.935   1.410  1.00  0.00     0.707 A 
HETATM    2  N2  UNL     1      -2.949   1.346   0.774  1.00  0.00    -0.021 N 
ATOM      3  H2  UNL     1      -3.822   1.854   0.631  1.00  0.00     0.203 HD
HETATM    4  C4  UNL     1      -2.816   0.076   0.330  1.00  0.00     0.709 A 
HETATM    5  N5  UNL     1      -1.647  -0.521   0.554  1.00  0.00    -0.021 N 
ATOM      6  H5  UNL     1      -1.536  -1.479   0.223  1.00  0.00     0.203 HD
HETATM    7  C11 UNL     1      -0.602   0.044   1.184  1.00  0.00     0.707 A 
HETATM    8  N10 UNL     1      -0.738   1.302   1.622  1.00  0.00    -0.022 N 
ATOM      9  H10 UNL     1       0.028   1.771   2.105  1.00  0.00     0.203 HD
ENDROOT
BRANCH   7  10
HETATM   10  N6  UNL     1       0.479  -0.624   1.348  1.00  0.00    -0.224 N 
ATOM     11  H6  UNL     1       0.479  -1.574   0.978  1.00  0.00     0.177 HD
BRANCH  10  12
HETATM   12  C12 UNL     1       1.679  -0.200   1.984  1.00  0.00     0.148 C 
BRANCH  12  13
HETATM   13  C13 UNL     1       2.760   0.225   1.015  1.00  0.00     0.094 C 
BRANCH  13  14
HETATM   14  S1  UNL     1       3.136  -1.205  -0.052  1.00  0.00    -0.167 SA
BRANCH  14  15
HETATM   15  C14 UNL     1       4.433  -0.789  -1.241  1.00  0.00     0.074 C 
BRANCH  15  16
HETATM   16  C15 UNL     1       5.768  -0.545  -0.526  1.00  0.00     0.015 C 
BRANCH  16  17
HETATM   17  C16 UNL     1       6.753  -0.205  -1.588  1.00  0.00     0.051 C 
BRANCH  17  18
HETATM   18  C17 UNL     1       8.147   0.041  -1.072  1.00  0.00     0.036 A 
HETATM   19  S2  UNL     1       8.907   1.538  -0.722  1.00  0.00    -0.055 SA
HETATM   20  C18 UNL     1      10.396   0.937  -0.166  1.00  0.00     0.144 A 
HETATM   21  N8  UNL     1      10.254  -0.380  -0.270  1.00  0.00    -0.317 N 
HETATM   22  C19 UNL     1       9.130  -0.859  -0.725  1.00  0.00     0.189 A 
ATOM     23  H8  UNL     1      11.012  -1.006   0.002  1.00  0.00     0.169 HD
BRANCH  20  24
HETATM   24  N7  UNL     1      11.445   1.603   0.266  1.00  0.00    -0.380 N 
ATOM     25  H72 UNL     1      11.554   2.614   0.346  1.00  0.00     0.158 HD
ATOM     26  H71 UNL     1      12.339   1.242   0.600  1.00  0.00     0.158 HD
ENDBRANCH  20  24
BRANCH  22  27
HETATM   27  N9  UNL     1       8.916  -2.292  -0.902  1.00  0.00    -0.097 N 
HETATM   28  O1  UNL     1       7.875  -2.746  -1.389  1.00  0.00    -0.530 OA
HETATM   29  O2  UNL     1       9.874  -3.207  -0.550  1.00  0.00    -0.530 OA
ENDBRANCH  22  27
ENDBRANCH  17  18
ENDBRANCH  16  17
ENDBRANCH  15  16
ENDBRANCH  14  15
ENDBRANCH  13  14
ENDBRANCH  12  13
ENDBRANCH  10  12
ENDBRANCH   7  10
BRANCH   4  30
HETATM   30  N3  UNL     1      -3.872  -0.592  -0.341  1.00  0.00    -0.214 N 
HETATM   31  C5  UNL     1      -3.808  -1.937  -0.848  1.00  0.00     0.143 C 
HETATM   32  C6  UNL     1      -5.225  -2.339  -1.195  1.00  0.00     0.058 C 
HETATM   33  C7  UNL     1      -6.036  -1.308  -0.442  1.00  0.00     0.241 C 
HETATM   34  C10 UNL     1      -5.197  -0.066  -0.640  1.00  0.00     0.177 C 
BRANCH  33  35
HETATM   35  N4  UNL     1      -7.373  -1.194  -0.943  1.00  0.00     0.086 N 
HETATM   36  C8  UNL     1      -8.031  -2.472  -0.746  1.00  0.00     0.310 C 
HETATM   37  C9  UNL     1      -8.111  -0.108  -0.354  1.00  0.00     0.310 C 
ENDBRANCH  33  35
ENDBRANCH   4  30
BRANCH   1  38
HETATM   38  N1  UNL     1      -2.003   3.146   1.848  1.00  0.00    -0.225 N 
ATOM     39  H1  UNL     1      -1.201   3.559   2.323  1.00  0.00     0.177 HD
BRANCH  38  40
HETATM   40  C2  UNL     1      -3.201   3.937   1.689  1.00  0.00     0.133 C 
HETATM   41  C1  UNL     1      -4.259   3.463   2.683  1.00  0.00     0.027 C 
ENDBRANCH  38  40
ENDBRANCH   1  38
TORSDOF 14
