REMARK  9 active torsions:
REMARK  status: ('A' for Active; 'I' for Inactive)
REMARK    1  A    between atoms: O1_2  and  C2_3 
REMARK    2  A    between atoms: C2_3  and  C3_5 
REMARK    3  A    between atoms: C3_5  and  C6_8 
REMARK    4  A    between atoms: C8_10  and  C9_11 
REMARK    5  A    between atoms: C9_11  and  C11_14 
REMARK    6  A    between atoms: C11_14  and  O3_15 
REMARK    7  A    between atoms: C11_14  and  N2_17 
REMARK    8  A    between atoms: N2_17  and  C12_19 
REMARK    9  A    between atoms: C12_19  and  C13_20 
ROOT
HETATM    1  C9  UNL     1       0.344   0.839  -0.120  1.00  0.00     0.145 C 
HETATM    2  C10 UNL     1      -0.173   1.622   1.045  1.00  0.00     0.068 C 
HETATM    3  N1  UNL     1      -0.548   2.227   1.965  1.00  0.00    -0.197 NA
ENDROOT
BRANCH   1   4
HETATM    4  C8  UNL     1       1.772   0.541   0.267  1.00  0.00     0.013 A 
HETATM    5  C6  UNL     1       2.732  -0.205  -0.529  1.00  0.00     0.009 A 
HETATM    6  C7  UNL     1       2.158  -0.807   0.760  1.00  0.00     0.012 A 
BRANCH   5   7
HETATM    7  C3  UNL     1       4.199   0.227  -0.452  1.00  0.00     0.045 C 
HETATM    8  C4  UNL     1       4.606   0.775  -1.786  1.00  0.00     0.026 C 
HETATM    9  C5  UNL     1       4.409   1.270   0.603  1.00  0.00     0.026 C 
BRANCH   7  10
HETATM   10  C2  UNL     1       5.021  -0.948  -0.123  1.00  0.00     0.266 C 
HETATM   11  O2  UNL     1       4.516  -2.101   0.087  1.00  0.00    -0.264 OA
BRANCH  10  12
HETATM   12  O1  UNL     1       6.402  -0.789  -0.039  1.00  0.00    -0.326 OA
HETATM   13  C1  UNL     1       7.185  -1.926   0.278  1.00  0.00     0.213 C 
ENDBRANCH  10  12
ENDBRANCH   7  10
ENDBRANCH   5   7
ENDBRANCH   1   4
BRANCH   1  14
HETATM   14  C11 UNL     1      -0.498  -0.374  -0.296  1.00  0.00     0.231 C 
BRANCH  14  15
HETATM   15  O3  UNL     1       0.201  -1.125  -1.323  1.00  0.00    -0.376 OA
ATOM     16  H3  UNL     1      -0.337  -1.900  -1.435  1.00  0.00     0.212 HD
ENDBRANCH  14  15
BRANCH  14  17
HETATM   17  N2  UNL     1      -1.767  -0.160  -0.923  1.00  0.00    -0.395 N 
ATOM     18  H2  UNL     1      -1.975  -0.623  -1.808  1.00  0.00     0.155 HD
BRANCH  17  19
HETATM   19  C12 UNL     1      -2.723   0.671  -0.342  1.00  0.00     0.120 C 
BRANCH  19  20
HETATM   20  C13 UNL     1      -4.021   0.647  -1.166  1.00  0.00     0.003 C 
HETATM   21  C14 UNL     1      -5.035   1.586  -0.505  1.00  0.00     0.006 C 
HETATM   22  C15 UNL     1      -5.613   1.002   0.746  1.00  0.00     0.000 C 
HETATM   23  C16 UNL     1      -6.215  -0.352   0.455  1.00  0.00     0.000 C 
HETATM   24  C17 UNL     1      -5.052  -1.271   0.051  1.00  0.00     0.000 C 
HETATM   25  C18 UNL     1      -4.589  -0.721  -1.293  1.00  0.00     0.006 C 
ENDBRANCH  19  20
ENDBRANCH  17  19
ENDBRANCH  14  17
ENDBRANCH   1  14
TORSDOF 9
