REMARK  2 active torsions:
REMARK  status: ('A' for Active; 'I' for Inactive)
REMARK    1  A    between atoms: C4_4  and  O1_5 
REMARK    2  A    between atoms: O1_5  and  C5_6 
ROOT
HETATM    1  O1  UNL     1       0.766   0.182  -0.131  1.00  0.00    -0.377 OA
ENDROOT
BRANCH   1   2
HETATM    2  C4  UNL     1      -0.326  -0.471   0.480  1.00  0.00     0.122 C 
HETATM    3  C3  UNL     1      -1.223   0.534   1.155  1.00  0.00     0.032 C 
HETATM    4  C2  UNL     1      -2.677   0.309   0.785  1.00  0.00     0.002 C 
HETATM    5  C1  UNL     1      -2.904   0.340  -0.692  1.00  0.00     0.000 C 
HETATM    6  C9  UNL     1      -1.744  -0.214  -1.486  1.00  0.00     0.002 C 
HETATM    7  C8  UNL     1      -1.032  -1.223  -0.631  1.00  0.00     0.032 C 
ENDBRANCH   1   2
BRANCH   1   8
HETATM    8  C5  UNL     1       1.933  -0.243   0.455  1.00  0.00     0.173 C 
HETATM    9  C6  UNL     1       2.865   0.935   0.757  1.00  0.00     0.265 C 
HETATM   10  N1  UNL     1       3.166   0.938  -0.674  1.00  0.00    -0.070 N 
HETATM   11  C7  UNL     1       2.985  -0.519  -0.606  1.00  0.00     0.265 C 
ATOM     12  H12 UNL     1       2.643   1.515  -1.333  1.00  0.00     0.277 HD
ATOM     13  H11 UNL     1       4.019   1.358  -1.044  1.00  0.00     0.277 HD
ENDBRANCH   1   8
TORSDOF 2
