REMARK  8 active torsions:
REMARK  status: ('A' for Active; 'I' for Inactive)
REMARK    1  A    between atoms: C4_7  and  N3_8 
REMARK    2  A    between atoms: N3_8  and  N4_10 
REMARK    3  A    between atoms: N4_10  and  C5_12 
REMARK    4  A    between atoms: C5_12  and  C6_17 
REMARK    5  A    between atoms: N5_13  and  O1_15 
REMARK       I    between atoms: C6_17  and  N6_19 
REMARK    6  A    between atoms: N6_19  and  N7_21 
REMARK    7  A    between atoms: C7_23  and  C8_24 
REMARK    8  A    between atoms: C12_29  and  N8_30 
ROOT
HETATM    1  N1  UNL     1      -7.631   0.865  -3.116  1.00  0.00    -0.191 NA
HETATM    2  C1  UNL     1      -6.671   0.662  -2.488  1.00  0.00     0.101 C 
HETATM    3  C2  UNL     1      -5.497   0.406  -1.694  1.00  0.00     0.062 A 
HETATM    4  C3  UNL     1      -4.670   1.443  -1.279  1.00  0.00     0.112 A 
HETATM    5  N2  UNL     1      -3.583   1.156  -0.538  1.00  0.00    -0.348 N 
ATOM      6  H2  UNL     1      -2.979   1.920  -0.234  1.00  0.00     0.167 HD
HETATM    7  C4  UNL     1      -3.266  -0.098  -0.185  1.00  0.00     0.153 A 
HETATM    8  C12 UNL     1      -4.086  -1.128  -0.597  1.00  0.00     0.149 A 
HETATM    9  C13 UNL     1      -5.227  -0.905  -1.365  1.00  0.00     0.064 A 
ENDROOT
BRANCH   8  10
HETATM   10  N8  UNL     1      -3.724  -2.452  -0.209  1.00  0.00    -0.112 N 
HETATM   11  O4  UNL     1      -3.145  -2.590   0.878  1.00  0.00    -0.532 OA
HETATM   12  O5  UNL     1      -4.023  -3.523  -1.035  1.00  0.00    -0.532 OA
ENDBRANCH   8  10
BRANCH   7  13
HETATM   13  N3  UNL     1      -2.096  -0.332   0.605  1.00  0.00    -0.282 N 
ATOM     14  H3  UNL     1      -2.179  -0.320   1.622  1.00  0.00     0.188 HD
BRANCH  13  15
HETATM   15  N4  UNL     1      -0.850  -0.575   0.037  1.00  0.00    -0.278 N 
ATOM     16  H4  UNL     1      -0.746  -0.820  -0.948  1.00  0.00     0.189 HD
BRANCH  15  17
HETATM   17  C5  UNL     1       0.308  -0.460   0.932  1.00  0.00     0.210 C 
HETATM   18  N5  UNL     1       0.477  -1.463   1.681  1.00  0.00    -0.247 N 
ATOM     19  H5  UNL     1      -0.196  -2.223   1.582  1.00  0.00     0.196 HD
BRANCH  18  20
HETATM   20  O1  UNL     1       1.437  -1.634   2.584  1.00  0.00    -0.288 OA
ATOM     21  H1  UNL     1       1.564  -2.388   3.147  1.00  0.00     0.244 HD
ENDBRANCH  18  20
BRANCH  17  22
HETATM   22  C6  UNL     1       1.102   0.743   0.865  1.00  0.00     0.307 C 
HETATM   23  O2  UNL     1       0.710   1.619   0.007  1.00  0.00    -0.262 OA
HETATM   24  N6  UNL     1       2.233   0.995   1.657  1.00  0.00    -0.264 N 
ATOM     25  H6  UNL     1       2.547   0.305   2.339  1.00  0.00     0.190 HD
BRANCH  24  26
HETATM   26  N7  UNL     1       2.911   2.175   1.506  1.00  0.00    -0.306 N 
HETATM   27  C7  UNL     1       4.020   2.379   1.006  1.00  0.00     0.144 C 
ATOM     28  H7  UNL     1       2.430   3.003   1.857  1.00  0.00     0.186 HD
BRANCH  27  29
HETATM   29  C8  UNL     1       4.910   1.394   0.437  1.00  0.00     0.091 A 
HETATM   30  C9  UNL     1       4.731   0.035   0.329  1.00  0.00     0.040 A 
HETATM   31  C10 UNL     1       5.871  -0.486  -0.294  1.00  0.00     0.027 A 
HETATM   32  C11 UNL     1       6.681   0.573  -0.531  1.00  0.00     0.142 A 
HETATM   33  O3  UNL     1       6.117   1.661  -0.103  1.00  0.00    -0.321 OA
ENDBRANCH  27  29
ENDBRANCH  24  26
ENDBRANCH  17  22
ENDBRANCH  15  17
ENDBRANCH  13  15
ENDBRANCH   7  13
TORSDOF 8
