REMARK  9 active torsions:
REMARK  status: ('A' for Active; 'I' for Inactive)
REMARK    1  A    between atoms: C2_2  and  C3_3 
REMARK    2  A    between atoms: C3_3  and  C6_6 
REMARK    3  A    between atoms: C6_6  and  C7_7 
REMARK    4  A    between atoms: C6_6  and  O4_22 
REMARK    5  A    between atoms: C8_8  and  C9_9 
REMARK    6  A    between atoms: C10_10  and  C11_11 
REMARK    7  A    between atoms: C15_16  and  C16_17 
REMARK    8  A    between atoms: C16_17  and  O1_18 
REMARK    9  A    between atoms: O1_18  and  N1_19 
ROOT
HETATM    1  C9  UNL     1       0.590  -0.390  -0.735  1.00  0.00     0.001 C 
HETATM    2  C10 UNL     1       1.537  -1.158  -0.969  1.00  0.00     0.019 C 
ENDROOT
BRANCH   2   3
HETATM    3  C11 UNL     1       2.644  -1.282   0.018  1.00  0.00     0.013 A 
HETATM    4  S1  UNL     1       2.770  -0.400   1.482  1.00  0.00    -0.101 SA
HETATM    5  C12 UNL     1       4.145  -1.157   2.121  1.00  0.00     0.057 A 
HETATM    6  C13 UNL     1       4.475  -2.080   1.171  1.00  0.00    -0.046 A 
HETATM    7  C14 UNL     1       5.658  -3.027   1.376  1.00  0.00     0.049 C 
HETATM    8  C15 UNL     1       3.689  -2.142   0.069  1.00  0.00    -0.008 A 
BRANCH   8   9
HETATM    9  C16 UNL     1       3.944  -3.054  -1.136  1.00  0.00     0.248 C 
BRANCH   9  10
HETATM   10  O1  UNL     1       5.029  -3.879  -0.909  1.00  0.00    -0.217 OA
BRANCH  10  11
HETATM   11  N1  UNL     1       5.585  -4.787  -1.748  1.00  0.00     0.005 N 
HETATM   12  O2  UNL     1       5.294  -6.006  -1.606  1.00  0.00    -0.511 OA
HETATM   13  O3  UNL     1       6.432  -4.408  -2.744  1.00  0.00    -0.511 OA
ENDBRANCH  10  11
ENDBRANCH   9  10
ENDBRANCH   8   9
ENDBRANCH   2   3
BRANCH   1  14
HETATM   14  C8  UNL     1      -0.641   0.068  -1.285  1.00  0.00     0.002 C 
HETATM   15  C7  UNL     1      -1.336   0.968  -0.527  1.00  0.00     0.033 C 
BRANCH  15  16
HETATM   16  C6  UNL     1      -2.624   1.585  -0.885  1.00  0.00     0.053 C 
BRANCH  16  17
HETATM   17  C3  UNL     1      -3.432   1.908   0.361  1.00  0.00     0.001 C 
HETATM   18  C4  UNL     1      -4.790   2.418   0.140  1.00  0.00     0.022 C 
HETATM   19  C5  UNL     1      -3.549   0.657   1.238  1.00  0.00     0.022 C 
BRANCH  17  20
HETATM   20  C2  UNL     1      -2.646   2.917   1.192  1.00  0.00     0.011 C 
HETATM   21  C1  UNL     1      -3.323   3.114   2.524  1.00  0.00     0.006 C 
ENDBRANCH  17  20
ENDBRANCH  16  17
BRANCH  16  22
HETATM   22  O4  UNL     1      -3.308   1.135  -1.946  1.00  0.00    -0.359 OA
HETATM   23  C17 UNL     1      -3.323   1.987  -3.039  1.00  0.00     0.209 C 
ENDBRANCH  16  22
ENDBRANCH  15  16
ENDBRANCH   1  14
TORSDOF 9
