REMARK  5 active torsions:
REMARK  status: ('A' for Active; 'I' for Inactive)
REMARK    1  A    between atoms: C6_8  and  C7_9 
REMARK    2  A    between atoms: C7_9  and  C8_10 
REMARK    3  A    between atoms: C8_10  and  C9_11 
REMARK    4  A    between atoms: C10_12  and  N2_13 
REMARK    5  A    between atoms: C20_30  and  N6_31 
ROOT
HETATM    1  C9  UNL     1      -0.772   2.056  -0.935  1.00  0.00     0.030 A 
HETATM    2  C10 UNL     1      -1.861   1.556  -0.227  1.00  0.00     0.114 A 
HETATM    3  N4  UNL     1      -3.037   2.230  -0.329  1.00  0.00    -0.338 N 
ATOM      4  H4  UNL     1      -3.848   1.880   0.182  1.00  0.00     0.168 HD
HETATM    5  C19 UNL     1      -3.174   3.333  -1.072  1.00  0.00     0.183 A 
HETATM    6  N5  UNL     1      -2.114   3.804  -1.753  1.00  0.00    -0.338 N 
ATOM      7  H5  UNL     1      -2.219   4.645  -2.320  1.00  0.00     0.168 HD
HETATM    8  C20 UNL     1      -0.917   3.190  -1.703  1.00  0.00     0.109 A 
ENDROOT
BRANCH   2   9
HETATM    9  N2  UNL     1      -1.857   0.396   0.577  1.00  0.00    -0.361 N 
HETATM   10  C11 UNL     1      -2.088  -0.958   0.113  1.00  0.00     0.136 C 
HETATM   11  C12 UNL     1      -2.483  -1.756   1.334  1.00  0.00     0.002 C 
HETATM   12  C13 UNL     1      -3.837  -2.444   1.114  1.00  0.00     0.134 C 
HETATM   13  C15 UNL     1      -1.607  -2.952   1.543  1.00  0.00     0.115 C 
HETATM   14  C16 UNL     1      -2.588  -0.811   2.471  1.00  0.00     0.038 C 
HETATM   15  N3  UNL     1      -3.422  -3.508   0.178  1.00  0.00    -0.360 N 
HETATM   16  C14 UNL     1      -2.071  -3.805   0.362  1.00  0.00     0.218 C 
ATOM     17  H3  UNL     1      -4.033  -3.959  -0.503  1.00  0.00     0.162 HD
HETATM   18  O1  UNL     1      -1.308  -4.565  -0.229  1.00  0.00    -0.274 OA
HETATM   19  C17 UNL     1      -1.669   0.326   2.002  1.00  0.00     0.082 C 
HETATM   20  C18 UNL     1      -0.287  -0.078   2.443  1.00  0.00     0.032 C 
ENDBRANCH   2   9
BRANCH   1  21
HETATM   21  C8  UNL     1       0.504   1.369  -0.817  1.00  0.00     0.051 C 
BRANCH  21  22
HETATM   22  C7  UNL     1       1.550   1.548  -1.852  1.00  0.00     0.045 C 
BRANCH  22  23
HETATM   23  C6  UNL     1       2.746   0.671  -1.526  1.00  0.00    -0.035 A 
HETATM   24  C4  UNL     1       2.713  -0.668  -1.808  1.00  0.00     0.011 A 
HETATM   25  N1  UNL     1       3.809  -1.402  -1.450  1.00  0.00    -0.368 N 
HETATM   26  C5  UNL     1       1.578  -1.357  -2.494  1.00  0.00     0.068 C 
HETATM   27  C3  UNL     1       4.882  -0.863  -0.848  1.00  0.00     0.095 A 
ATOM     28  H1  UNL     1       3.812  -2.402  -1.649  1.00  0.00     0.165 HD
HETATM   29  C2  UNL     1       4.932   0.477  -0.560  1.00  0.00    -0.046 A 
HETATM   30  C1  UNL     1       6.135   1.066   0.107  1.00  0.00     0.049 C 
HETATM   31  C21 UNL     1       3.835   1.244  -0.913  1.00  0.00     0.017 A 
ENDBRANCH  22  23
ENDBRANCH  21  22
ENDBRANCH   1  21
BRANCH   8  32
HETATM   32  N6  UNL     1       0.028   3.718  -2.412  1.00  0.00    -0.385 N 
ATOM     33  H62 UNL     1       0.935   3.253  -2.374  1.00  0.00     0.157 HD
ATOM     34  H61 UNL     1      -0.079   4.558  -2.981  1.00  0.00     0.157 HD
ENDBRANCH   8  32
TORSDOF 5
