REMARK  2 active torsions:
REMARK  status: ('A' for Active; 'I' for Inactive)
REMARK    1  A    between atoms: C3_7  and  C4_8 
REMARK       I    between atoms: C4_8  and  N3_10 
REMARK    2  A    between atoms: N3_10  and  C5_12 
ROOT
HETATM    1  N1  UNL     1       8.259   1.068  -1.434  1.00  0.00    -0.188 NA
HETATM    2  C1  UNL     1       7.433   0.504  -0.859  1.00  0.00     0.139 C 
HETATM    3  C2  UNL     1       6.399  -0.197  -0.146  1.00  0.00     0.210 A 
HETATM    4  N2  UNL     1       6.543  -1.184   0.757  1.00  0.00    -0.234 N 
ATOM      5  H2  UNL     1       7.429  -1.581   1.069  1.00  0.00     0.197 HD
HETATM    6  O1  UNL     1       5.383  -1.541   1.159  1.00  0.00    -0.211 OA
HETATM    7  C3  UNL     1       4.433  -0.854   0.584  1.00  0.00     0.240 A 
HETATM    8  N4  UNL     1       5.076   0.010  -0.255  1.00  0.00    -0.306 N 
ATOM      9  H4  UNL     1       4.628   0.696  -0.862  1.00  0.00     0.170 HD
ENDROOT
BRANCH   7  10
HETATM   10  C4  UNL     1       2.993  -0.964   0.776  1.00  0.00     0.295 C 
HETATM   11  O2  UNL     1       2.573  -1.819   1.593  1.00  0.00    -0.264 OA
HETATM   12  N3  UNL     1       2.080  -0.153   0.083  1.00  0.00    -0.349 N 
ATOM     13  H3  UNL     1       2.460   0.530  -0.573  1.00  0.00     0.163 HD
BRANCH  12  14
HETATM   14  C5  UNL     1       0.656  -0.211   0.227  1.00  0.00     0.084 C 
HETATM   15  C6  UNL     1       0.052  -0.798  -1.072  1.00  0.00     0.025 C 
HETATM   16  C7  UNL     1      -1.379  -0.585  -0.902  1.00  0.00     0.002 C 
HETATM   17  C8  UNL     1      -2.475  -1.123  -1.706  1.00  0.00     0.000 C 
HETATM   18  C9  UNL     1      -3.731  -0.750  -0.885  1.00  0.00     0.000 C 
HETATM   19  C10 UNL     1      -3.706   0.569  -0.212  1.00  0.00     0.000 C 
HETATM   20  C11 UNL     1      -3.391   0.626   1.243  1.00  0.00     0.000 C 
HETATM   21  C12 UNL     1      -2.298   1.614   1.654  1.00  0.00     0.000 C 
HETATM   22  C13 UNL     1      -0.946   0.924   1.866  1.00  0.00     0.002 C 
HETATM   23  C14 UNL     1       0.013   1.026   0.731  1.00  0.00     0.025 C 
ENDBRANCH  12  14
ENDBRANCH   7  10
TORSDOF 2
