REMARK  5 active torsions:
REMARK  status: ('A' for Active; 'I' for Inactive)
REMARK    1  A    between atoms: C2_2  and  C4_5 
REMARK    2  A    between atoms: C4_5  and  O1_6 
REMARK    3  A    between atoms: C4_5  and  C5_8 
REMARK    4  A    between atoms: C4_5  and  C11_14 
REMARK    5  A    between atoms: C15_21  and  N2_22 
ROOT
HETATM    1  C11 UNL     1      -0.225  -0.451   0.544  1.00  0.00     0.006 C 
HETATM    2  C12 UNL     1      -0.039  -1.564   1.517  1.00  0.00     0.271 C 
HETATM    3  N1  UNL     1      -1.335  -2.088   2.006  1.00  0.00    -0.071 N 
ATOM      4  H11 UNL     1      -1.948  -1.379   2.409  1.00  0.00     0.277 HD
ATOM      5  H12 UNL     1      -1.264  -2.664   2.845  1.00  0.00     0.277 HD
HETATM    6  C13 UNL     1      -1.903  -2.786   0.840  1.00  0.00     0.238 C 
HETATM    7  C14 UNL     1      -2.229  -1.810  -0.259  1.00  0.00     0.085 C 
HETATM    8  C15 UNL     1      -1.674  -0.471   0.122  1.00  0.00     0.019 C 
ENDROOT
BRANCH   1   9
HETATM    9  C4  UNL     1       0.825  -0.185  -0.433  1.00  0.00     0.123 C 
BRANCH   9  10
HETATM   10  C2  UNL     1       1.303  -1.119  -1.443  1.00  0.00     0.131 C 
HETATM   11  C1  UNL     1       1.849  -2.442  -1.113  1.00  0.00     0.055 C 
HETATM   12  C3  UNL     1       0.479  -1.170  -2.732  1.00  0.00     0.055 C 
HETATM   13  F1  UNL     1       2.457  -0.446  -1.988  1.00  0.00    -0.240 F 
ENDBRANCH   9  10
BRANCH   9  14
HETATM   14  O1  UNL     1       0.357   0.932  -1.222  1.00  0.00    -0.381 OA
ATOM     15  H1  UNL     1       0.045   1.541  -0.563  1.00  0.00     0.211 HD
ENDBRANCH   9  14
BRANCH   9  16
HETATM   16  C5  UNL     1       2.047   0.496   0.223  1.00  0.00     0.028 C 
HETATM   17  C6  UNL     1       3.009  -0.351   0.914  1.00  0.00     0.008 C 
HETATM   18  C7  UNL     1       3.825   0.541   1.872  1.00  0.00     0.000 C 
HETATM   19  C8  UNL     1       4.045   1.845   1.186  1.00  0.00     0.000 C 
HETATM   20  C9  UNL     1       2.797   2.687   1.098  1.00  0.00     0.000 C 
HETATM   21  C10 UNL     1       1.609   1.716   1.048  1.00  0.00     0.008 C 
ENDBRANCH   9  16
ENDBRANCH   1   9
BRANCH   8  22
HETATM   22  N2  UNL     1      -2.189   0.633  -0.563  1.00  0.00    -0.359 N 
HETATM   23  C16 UNL     1      -2.252   1.891   0.128  1.00  0.00     0.154 C 
HETATM   24  C17 UNL     1      -3.703   2.263   0.370  1.00  0.00     0.188 C 
HETATM   25  O2  UNL     1      -4.216   2.524  -0.921  1.00  0.00    -0.385 OA
HETATM   26  C18 UNL     1      -4.362   1.294  -1.527  1.00  0.00     0.212 C 
HETATM   27  C19 UNL     1      -3.102   0.495  -1.612  1.00  0.00     0.090 C 
ENDBRANCH   8  22
TORSDOF 5
