REMARK  17 active torsions:
REMARK  status: ('A' for Active; 'I' for Inactive)
REMARK    1  A    between atoms: C2_2  and  C3_3 
REMARK    2  A    between atoms: C3_3  and  C4_4 
REMARK    3  A    between atoms: C4_4  and  C5_5 
REMARK    4  A    between atoms: C5_5  and  C6_6 
REMARK    5  A    between atoms: C6_6  and  C7_7 
REMARK    6  A    between atoms: C7_7  and  C8_8 
REMARK    7  A    between atoms: C8_8  and  C9_9 
REMARK    8  A    between atoms: C9_9  and  O1_10 
REMARK    9  A    between atoms: O1_10  and  C10_11 
REMARK   10  A    between atoms: C10_11  and  C11_12 
REMARK   11  A    between atoms: C11_12  and  O3_14 
REMARK   12  A    between atoms: C16_20  and  C17_21 
REMARK   13  A    between atoms: C17_21  and  O5_22 
REMARK   14  A    between atoms: O5_22  and  C18_23 
REMARK   15  A    between atoms: C18_23  and  C19_24 
REMARK   16  A    between atoms: C18_23  and  C21_29 
REMARK   17  A    between atoms: C20_25  and  O6_27 
ROOT
HETATM    1  C10 UNL     1      -0.520  -2.459  -0.160  1.00  0.00     0.277 C 
HETATM    2  C13 UNL     1      -0.344  -3.016  -1.492  1.00  0.00     0.056 C 
HETATM    3  C14 UNL     1      -1.338  -3.056  -2.397  1.00  0.00     0.055 C 
HETATM    4  C15 UNL     1      -2.581  -2.481  -1.869  1.00  0.00     0.180 C 
HETATM    5  O4  UNL     1      -3.331  -1.832  -2.642  1.00  0.00    -0.290 OA
HETATM    6  C16 UNL     1      -2.849  -2.724  -0.436  1.00  0.00     0.223 C 
HETATM    7  O7  UNL     1      -1.809  -2.726   0.407  1.00  0.00    -0.328 OA
ENDROOT
BRANCH   6   8
HETATM    8  C17 UNL     1      -3.822  -1.609   0.023  1.00  0.00     0.215 C 
BRANCH   8   9
HETATM    9  O5  UNL     1      -3.157  -0.423  -0.031  1.00  0.00    -0.347 OA
BRANCH   9  10
HETATM   10  C18 UNL     1      -3.644   0.869   0.290  1.00  0.00     0.082 C 
BRANCH  10  11
HETATM   11  C19 UNL     1      -2.822   1.687   0.906  1.00  0.00     0.089 C 
HETATM   12  C20 UNL     1      -2.868   2.996   1.408  1.00  0.00     0.152 C 
HETATM   13  N1  UNL     1      -3.958   3.871   1.426  1.00  0.00    -0.075 NA
BRANCH  12  14
HETATM   14  O6  UNL     1      -1.780   3.495   1.930  1.00  0.00    -0.348 OA
ATOM     15  H6  UNL     1      -1.811   4.382   2.270  1.00  0.00     0.219 HD
ENDBRANCH  12  14
ENDBRANCH  10  11
BRANCH  10  16
HETATM   16  C21 UNL     1      -4.996   1.225  -0.097  1.00  0.00    -0.003 A 
HETATM   17  C22 UNL     1      -5.314   2.373  -0.799  1.00  0.00     0.016 A 
HETATM   18  C23 UNL     1      -6.586   2.781  -1.090  1.00  0.00     0.024 A 
HETATM   19  C24 UNL     1      -7.661   1.996  -0.659  1.00  0.00     0.034 A 
HETATM   20 CL1  UNL     1      -9.310   2.467  -1.002  1.00  0.00    -0.084 Cl
HETATM   21  C25 UNL     1      -7.383   0.847   0.041  1.00  0.00     0.024 A 
HETATM   22  C26 UNL     1      -6.091   0.465   0.318  1.00  0.00     0.016 A 
ENDBRANCH  10  16
ENDBRANCH   9  10
ENDBRANCH   8   9
ENDBRANCH   6   8
BRANCH   1  23
HETATM   23  O1  UNL     1      -0.316  -1.173   0.057  1.00  0.00    -0.332 OA
BRANCH  23  24
HETATM   24  C9  UNL     1       0.644  -0.373  -0.293  1.00  0.00     0.266 C 
BRANCH  24  25
HETATM   25  C8  UNL     1       2.011  -0.620   0.076  1.00  0.00    -0.080 C 
BRANCH  25  26
HETATM   26  C7  UNL     1       3.191  -0.797   0.360  1.00  0.00    -0.104 C 
BRANCH  26  27
HETATM   27  C6  UNL     1       4.582  -1.027   0.715  1.00  0.00     0.094 C 
BRANCH  27  28
HETATM   28  C5  UNL     1       5.301   0.322   0.830  1.00  0.00     0.012 C 
BRANCH  28  29
HETATM   29  C4  UNL     1       5.217   1.011  -0.491  1.00  0.00     0.001 C 
BRANCH  29  30
HETATM   30  C3  UNL     1       5.891   2.363  -0.507  1.00  0.00    -0.000 C 
BRANCH  30  31
HETATM   31  C2  UNL     1       7.344   2.248  -0.183  1.00  0.00    -0.005 C 
HETATM   32  C1  UNL     1       7.943   3.653  -0.226  1.00  0.00     0.005 C 
ENDBRANCH  30  31
ENDBRANCH  29  30
ENDBRANCH  28  29
ENDBRANCH  27  28
ENDBRANCH  26  27
ENDBRANCH  25  26
ENDBRANCH  24  25
ENDBRANCH  23  24
ENDBRANCH   1  23
BRANCH   1  33
HETATM   33  C11 UNL     1       0.314  -3.309   0.778  1.00  0.00     0.326 C 
HETATM   34  O2  UNL     1       0.919  -2.906   1.771  1.00  0.00    -0.259 OA
BRANCH  33  35
HETATM   35  O3  UNL     1       0.405  -4.687   0.489  1.00  0.00    -0.322 OA
HETATM   36  C12 UNL     1       1.180  -5.524   1.346  1.00  0.00     0.213 C 
ENDBRANCH  33  35
ENDBRANCH   1  33
TORSDOF 17
