REMARK  16 active torsions:
REMARK  status: ('A' for Active; 'I' for Inactive)
REMARK    1  A    between atoms: O1_2  and  C2_3 
REMARK    2  A    between atoms: C5_8  and  C6_9 
REMARK    3  A    between atoms: C6_9  and  N2_10 
REMARK    4  A    between atoms: N3_13  and  C9_14 
REMARK    5  A    between atoms: C9_14  and  C10_15 
REMARK    6  A    between atoms: C10_15  and  O2_16 
REMARK    7  A    between atoms: C10_15  and  N4_18 
REMARK    8  A    between atoms: N4_18  and  C11_19 
REMARK    9  A    between atoms: C11_19  and  C12_20 
REMARK   10  A    between atoms: C12_20  and  C13_21 
REMARK   11  A    between atoms: C13_21  and  C14_22 
REMARK   12  A    between atoms: N6_34  and  C22_36 
REMARK   13  A    between atoms: C22_36  and  C23_37 
REMARK   14  A    between atoms: C23_37  and  C24_38 
REMARK   15  A    between atoms: C24_38  and  N7_39 
REMARK   16  A    between atoms: C32_47  and  O4_48 
ROOT
HETATM    1  C2  UNL     1      -4.187   4.878   1.074  1.00  0.00     0.103 A 
HETATM    2  C3  UNL     1      -2.942   4.426   0.762  1.00  0.00     0.070 A 
HETATM    3  C4  UNL     1      -2.665   3.106   0.363  1.00  0.00     0.048 A 
HETATM    4  N1  UNL     1      -1.416   2.762   0.040  1.00  0.00    -0.355 N 
ATOM      5  H1  UNL     1      -0.678   3.462   0.117  1.00  0.00     0.166 HD
HETATM    6  C5  UNL     1      -1.090   1.502  -0.392  1.00  0.00     0.045 A 
HETATM    7  C20 UNL     1      -2.115   0.630  -0.472  1.00  0.00     0.060 A 
HETATM    8  C21 UNL     1      -3.459   0.921  -0.150  1.00  0.00     0.046 A 
HETATM    9  N6  UNL     1      -4.429   0.194  -0.257  1.00  0.00    -0.368 N 
ATOM     10  H6  UNL     1      -5.208   0.762   0.077  1.00  0.00     0.165 HD
HETATM   11  C30 UNL     1      -3.716   2.243   0.288  1.00  0.00     0.020 A 
HETATM   12  C31 UNL     1      -4.997   2.655   0.593  1.00  0.00     0.055 A 
HETATM   13  C32 UNL     1      -5.241   3.964   0.987  1.00  0.00     0.102 A 
ENDROOT
BRANCH   6  14
HETATM   14  C6  UNL     1       0.269   1.254  -0.832  1.00  0.00     0.089 C 
BRANCH  14  15
HETATM   15  N2  UNL     1       0.782  -0.076  -0.922  1.00  0.00    -0.287 NA
HETATM   16  C7  UNL     1       1.975   0.139  -1.831  1.00  0.00     0.125 C 
HETATM   17  C8  UNL     1       2.828  -1.081  -1.930  1.00  0.00     0.287 C 
HETATM   18  N3  UNL     1       3.446  -1.358  -0.613  1.00  0.00     0.099 N 
HETATM   19  C18 UNL     1       2.390  -1.494   0.362  1.00  0.00     0.287 C 
HETATM   20  C19 UNL     1       1.329  -0.470   0.368  1.00  0.00     0.125 C 
BRANCH  18  21
HETATM   21  C9  UNL     1       4.386  -0.363  -0.239  1.00  0.00     0.371 C 
BRANCH  21  22
HETATM   22  C10 UNL     1       5.645  -0.354  -1.031  1.00  0.00     0.217 C 
BRANCH  22  23
HETATM   23  O2  UNL     1       5.729  -1.332  -1.895  1.00  0.00    -0.338 OA
ATOM     24  H2  UNL     1       6.533  -1.326  -2.401  1.00  0.00     0.220 HD
ENDBRANCH  22  23
BRANCH  22  25
HETATM   25  N4  UNL     1       6.635   0.510  -0.959  1.00  0.00    -0.400 NA
BRANCH  25  26
HETATM   26  C11 UNL     1       7.523   1.290  -0.872  1.00  0.00     0.158 C 
BRANCH  26  27
HETATM   27  C12 UNL     1       8.044   1.895   0.406  1.00  0.00     0.062 C 
BRANCH  27  28
HETATM   28  C13 UNL     1       9.471   1.610   0.658  1.00  0.00     0.040 C 
BRANCH  28  29
HETATM   29  C14 UNL     1       9.771   0.120   0.785  1.00  0.00     0.147 C 
HETATM   30  C15 UNL     1      11.226  -0.163   1.062  1.00  0.00     0.264 C 
HETATM   31  N5  UNL     1      11.852  -1.005   0.075  1.00  0.00    -0.071 N 
HETATM   32  C16 UNL     1      11.067  -2.184  -0.182  1.00  0.00     0.258 C 
ATOM     33  H52 UNL     1      12.048  -0.492  -0.784  1.00  0.00     0.277 HD
ATOM     34  H51 UNL     1      12.808  -1.242   0.338  1.00  0.00     0.277 HD
HETATM   35  C17 UNL     1       9.612  -1.843  -0.395  1.00  0.00     0.195 C 
HETATM   36  O3  UNL     1       9.387  -0.465  -0.436  1.00  0.00    -0.383 OA
ENDBRANCH  28  29
ENDBRANCH  27  28
ENDBRANCH  26  27
ENDBRANCH  25  26
ENDBRANCH  22  25
ENDBRANCH  21  22
ENDBRANCH  18  21
ENDBRANCH  14  15
ENDBRANCH   6  14
BRANCH   9  37
HETATM   37  C22 UNL     1      -5.012  -1.019  -0.604  1.00  0.00     0.066 C 
BRANCH  37  38
HETATM   38  C23 UNL     1      -6.457  -0.795  -0.983  1.00  0.00     0.089 C 
BRANCH  38  39
HETATM   39  C24 UNL     1      -7.285  -1.928  -1.398  1.00  0.00     0.068 C 
BRANCH  39  40
HETATM   40  N7  UNL     1      -7.631  -2.969  -0.577  1.00  0.00    -0.374 N 
HETATM   41  C25 UNL     1      -8.480  -3.991  -1.155  1.00  0.00     0.127 C 
HETATM   42  C26 UNL     1      -7.944  -5.369  -0.947  1.00  0.00     0.021 C 
HETATM   43  C27 UNL     1      -7.388  -5.621   0.423  1.00  0.00     0.007 C 
HETATM   44  C28 UNL     1      -6.391  -4.505   0.746  1.00  0.00     0.044 C 
HETATM   45  C29 UNL     1      -7.222  -3.222   0.723  1.00  0.00     0.063 C 
ENDBRANCH  39  40
ENDBRANCH  38  39
ENDBRANCH  37  38
ENDBRANCH   9  37
BRANCH   1  46
HETATM   46  O1  UNL     1      -4.428   6.214   1.471  1.00  0.00    -0.353 OA
HETATM   47  C1  UNL     1      -3.312   7.082   1.527  1.00  0.00     0.210 C 
ENDBRANCH   1  46
BRANCH  13  48
HETATM   48  O4  UNL     1      -6.503   4.449   1.306  1.00  0.00    -0.353 OA
HETATM   49  C33 UNL     1      -7.679   3.698   1.271  1.00  0.00     0.210 C 
ENDBRANCH  13  48
TORSDOF 16
