REMARK  9 active torsions:
REMARK  status: ('A' for Active; 'I' for Inactive)
REMARK    1  A    between atoms: C2_2  and  N1_4 
REMARK    2  A    between atoms: C4_5  and  N2_6 
REMARK    3  A    between atoms: N2_6  and  N3_8 
REMARK    4  A    between atoms: C5_11  and  C6_12 
REMARK    5  A    between atoms: C6_12  and  C7_13 
REMARK    6  A    between atoms: C6_12  and  N5_17 
REMARK    7  A    between atoms: C7_13  and  C8_14 
REMARK       I    between atoms: N5_17  and  C9_19 
REMARK    8  A    between atoms: C9_19  and  C10_21 
REMARK    9  A    between atoms: C11_24  and  N7_25 
ROOT
HETATM    1  C6  UNL     1       0.105   0.433  -1.477  1.00  0.00     0.167 C 
ENDROOT
BRANCH   1   2
HETATM    2  C5  UNL     1      -1.221  -0.141  -1.106  1.00  0.00     0.086 A 
HETATM    3  C4  UNL     1      -1.911  -0.103   0.077  1.00  0.00     0.151 A 
HETATM    4  N1  UNL     1      -3.094  -0.779  -0.029  1.00  0.00    -0.278 N 
HETATM    5  C14 UNL     1      -3.128  -1.250  -1.287  1.00  0.00     0.329 A 
HETATM    6  N9  UNL     1      -2.025  -0.875  -1.933  1.00  0.00    -0.306 N 
HETATM    7  O5  UNL     1      -4.118  -1.942  -1.698  1.00  0.00    -0.246 OA
ATOM      8  H9  UNL     1      -1.811  -1.103  -2.904  1.00  0.00     0.170 HD
BRANCH   3   9
HETATM    9  N2  UNL     1      -1.512   0.586   1.260  1.00  0.00    -0.290 N 
ATOM     10  H2  UNL     1      -1.667   1.594   1.285  1.00  0.00     0.188 HD
BRANCH   9  11
HETATM   11  N3  UNL     1      -0.934   0.012   2.376  1.00  0.00    -0.344 N 
ATOM     12  H32 UNL     1      -0.786  -0.996   2.333  1.00  0.00     0.176 HD
ATOM     13  H31 UNL     1      -0.649   0.505   3.222  1.00  0.00     0.176 HD
ENDBRANCH   9  11
ENDBRANCH   3   9
BRANCH   4  14
HETATM   14  C2  UNL     1      -4.114  -0.836   0.992  1.00  0.00     0.088 C 
HETATM   15  C1  UNL     1      -5.495  -0.847   0.340  1.00  0.00     0.032 C 
HETATM   16  C3  UNL     1      -4.032  -1.927   1.988  1.00  0.00     0.032 C 
ENDBRANCH   4  14
ENDBRANCH   1   2
BRANCH   1  17
HETATM   17  C7  UNL     1      -0.253   1.839  -1.914  1.00  0.00     0.075 C 
BRANCH  17  18
HETATM   18  C8  UNL     1       0.703   2.778  -2.354  1.00  0.00     0.253 C 
HETATM   19  N4  UNL     1       0.243   4.144  -2.544  1.00  0.00    -0.058 NA
HETATM   20  O1  UNL     1       1.903   2.590  -2.600  1.00  0.00    -0.272 OA
ENDBRANCH  17  18
ENDBRANCH   1  17
BRANCH   1  21
HETATM   21  N5  UNL     1       1.197   0.326  -0.623  1.00  0.00    -0.341 N 
HETATM   22  C9  UNL     1       2.444  -0.241  -1.083  1.00  0.00     0.286 C 
HETATM   23  O2  UNL     1       2.482  -0.629  -2.295  1.00  0.00    -0.264 OA
ATOM     24  H5  UNL     1       1.117   0.652   0.340  1.00  0.00     0.164 HD
BRANCH  22  25
HETATM   25  C10 UNL     1       3.622  -0.386  -0.291  1.00  0.00     0.178 A 
HETATM   26  N6  UNL     1       4.889  -0.463  -0.867  1.00  0.00    -0.318 N 
HETATM   27  C11 UNL     1       5.820  -0.618   0.068  1.00  0.00     0.191 A 
ATOM     28  H6  UNL     1       5.076  -0.408  -1.868  1.00  0.00     0.169 HD
HETATM   29  C12 UNL     1       5.145  -0.643   1.262  1.00  0.00     0.147 A 
HETATM   30  N8  UNL     1       3.804  -0.500   1.026  1.00  0.00    -0.339 N 
HETATM   31  C13 UNL     1       2.788  -0.495   2.071  1.00  0.00     0.157 C 
BRANCH  27  32
HETATM   32  N7  UNL     1       7.236  -0.731  -0.098  1.00  0.00    -0.096 N 
HETATM   33  O3  UNL     1       7.941  -0.916   0.894  1.00  0.00    -0.530 OA
HETATM   34  O4  UNL     1       7.789  -0.645  -1.361  1.00  0.00    -0.530 OA
ENDBRANCH  27  32
ENDBRANCH  22  25
ENDBRANCH   1  21
TORSDOF 9
