REMARK  4 active torsions:
REMARK  status: ('A' for Active; 'I' for Inactive)
REMARK    1  A    between atoms: C3_6  and  C4_7 
REMARK    2  A    between atoms: C4_7  and  C5_8 
REMARK    3  A    between atoms: C5_8  and  C6_9 
REMARK    4  A    between atoms: C6_9  and  C7_10 
ROOT
HETATM    1  C7  UNL     1      -1.598  -0.134   0.568  1.00  0.00     0.016 A 
HETATM    2  N3  UNL     1      -1.986   1.163   0.646  1.00  0.00    -0.345 N 
ATOM      3  H3  UNL     1      -1.272   1.887   0.729  1.00  0.00     0.167 HD
HETATM    4  C8  UNL     1      -3.284   1.529   0.618  1.00  0.00     0.104 A 
HETATM    5  N4  UNL     1      -3.581   2.785   0.694  1.00  0.00    -0.385 N 
ATOM      6  H41 UNL     1      -4.563   3.062   0.673  1.00  0.00     0.157 HD
ATOM      7  H42 UNL     1      -2.861   3.503   0.777  1.00  0.00     0.157 HD
HETATM    8  C9  UNL     1      -4.256   0.560   0.506  1.00  0.00    -0.018 A 
HETATM    9  C10 UNL     1      -5.698   0.976   0.476  1.00  0.00     0.052 C 
HETATM   10  C11 UNL     1      -3.902  -0.757   0.425  1.00  0.00     0.019 A 
HETATM   11  C12 UNL     1      -2.553  -1.087   0.458  1.00  0.00    -0.039 A 
HETATM   12  C13 UNL     1      -2.205  -2.503   0.374  1.00  0.00     0.050 C 
ENDROOT
BRANCH   1  13
HETATM   13  C6  UNL     1      -0.181  -0.472   0.601  1.00  0.00     0.057 C 
BRANCH  13  14
HETATM   14  C5  UNL     1       0.396  -0.816  -0.756  1.00  0.00     0.008 C 
BRANCH  14  15
HETATM   15  C4  UNL     1       1.850  -1.154  -0.645  1.00  0.00     0.024 C 
BRANCH  15  16
HETATM   16  C3  UNL     1       2.705  -0.076  -0.105  1.00  0.00     0.104 C 
HETATM   17  N2  UNL     1       2.701   1.143  -0.876  1.00  0.00    -0.136 NA
HETATM   18  N1  UNL     1       3.900   1.795  -0.487  1.00  0.00    -0.312 N 
HETATM   19  C2  UNL     1       4.764   0.951  -0.085  1.00  0.00    -0.002 C 
ATOM     20  H1  UNL     1       4.049   2.803  -0.524  1.00  0.00     0.181 HD
HETATM   21  C1  UNL     1       6.154   1.190   0.416  1.00  0.00     0.064 C 
HETATM   22  C14 UNL     1       4.180  -0.407  -0.184  1.00  0.00     0.076 C 
ENDBRANCH  15  16
ENDBRANCH  14  15
ENDBRANCH  13  14
ENDBRANCH   1  13
TORSDOF 4
