REMARK  0 active torsions:
REMARK  status: ('A' for Active; 'I' for Inactive)
ROOT
HETATM    1  C1  UNL     1      -2.685  -0.177  -1.156  1.00  0.00     0.015 C 
HETATM    2  C2  UNL     1      -2.055  -0.680   0.091  1.00  0.00    -0.048 C 
HETATM    3  C3  UNL     1      -3.183  -1.750   0.470  1.00  0.00     0.015 C 
HETATM    4  C4  UNL     1      -2.170   0.188   1.300  1.00  0.00     0.011 C 
HETATM    5  C5  UNL     1      -1.650   1.607   1.200  1.00  0.00     0.036 C 
HETATM    6  C6  UNL     1      -0.271   1.514   0.657  1.00  0.00     0.160 C 
HETATM    7  C7  UNL     1       0.441   2.773   0.240  1.00  0.00     0.035 C 
HETATM    8  C8  UNL     1       1.209   2.356  -1.031  1.00  0.00     0.008 C 
HETATM    9  C9  UNL     1       2.429   1.593  -0.843  1.00  0.00     0.058 C 
HETATM   10  C10 UNL     1       2.373   0.226  -0.274  1.00  0.00     0.047 A 
HETATM   11  N1  UNL     1       3.568  -0.314  -0.127  1.00  0.00    -0.333 N 
ATOM     12  H1  UNL     1       4.449   0.138  -0.372  1.00  0.00     0.168 HD
HETATM   13  C11 UNL     1       3.449  -1.601   0.416  1.00  0.00     0.191 A 
HETATM   14  N2  UNL     1       4.583  -2.467   0.702  1.00  0.00    -0.063 NA
HETATM   15  N3  UNL     1       2.231  -1.871   0.608  1.00  0.00    -0.326 N 
ATOM     16  H3  UNL     1       1.872  -2.744   0.995  1.00  0.00     0.165 HD
HETATM   17  C12 UNL     1       1.425  -0.743   0.191  1.00  0.00     0.209 A 
HETATM   18  C13 UNL     1       0.339  -1.229  -0.763  1.00  0.00     0.071 C 
HETATM   19  C14 UNL     1      -0.888  -1.571  -0.025  1.00  0.00     0.014 C 
HETATM   20  O1  UNL     1       0.750  -0.370   1.357  1.00  0.00    -0.201 OA
HETATM   21  O2  UNL     1       0.568   0.866   1.510  1.00  0.00    -0.233 OA
ENDROOT
TORSDOF 0
