REMARK  6 active torsions:
REMARK  status: ('A' for Active; 'I' for Inactive)
REMARK    1  A    between atoms: C4_9  and  C5_10 
REMARK       I    between atoms: C5_10  and  N3_12 
REMARK    2  A    between atoms: N3_12  and  C6_13 
REMARK    3  A    between atoms: N3_12  and  C7_15 
REMARK    4  A    between atoms: C7_15  and  C8_16 
REMARK    5  A    between atoms: C8_16  and  C9_17 
REMARK    6  A    between atoms: C9_17  and  N4_18 
ROOT
HETATM    1  C5  UNL     1       2.736   0.191  -0.285  1.00  0.00     0.245 C 
HETATM    2  O1  UNL     1       2.642  -0.781  -1.120  1.00  0.00    -0.271 OA
HETATM    3  N3  UNL     1       1.810   1.243  -0.346  1.00  0.00    -0.341 N 
ENDROOT
BRANCH   3   4
HETATM    4  C6  UNL     1       1.850   2.350   0.578  1.00  0.00     0.210 C 
HETATM    5 BR1  UNL     1       2.897   3.845  -0.039  1.00  0.00    -0.075 Br
ENDBRANCH   3   4
BRANCH   3   6
HETATM    6  C7  UNL     1       0.789   1.225  -1.358  1.00  0.00     0.128 C 
BRANCH   6   7
HETATM    7  C8  UNL     1      -0.497   0.595  -1.022  1.00  0.00     0.040 C 
BRANCH   7   8
HETATM    8  C9  UNL     1      -0.497  -0.847  -0.649  1.00  0.00     0.128 C 
BRANCH   8   9
HETATM    9  N4  UNL     1      -1.832  -1.248  -0.324  1.00  0.00    -0.371 N 
HETATM   10  C10 UNL     1      -2.797  -1.292  -1.337  1.00  0.00     0.091 C 
HETATM   11  C11 UNL     1      -3.832  -0.205  -1.160  1.00  0.00     0.281 C 
HETATM   12  N5  UNL     1      -4.473  -0.301   0.130  1.00  0.00    -0.066 N 
HETATM   13  C12 UNL     1      -5.865  -0.633  -0.064  1.00  0.00     0.272 C 
HETATM   14  C13 UNL     1      -4.441   0.980   0.825  1.00  0.00     0.272 C 
HETATM   15  C14 UNL     1      -3.817  -1.259   0.998  1.00  0.00     0.281 C 
HETATM   16  C15 UNL     1      -2.329  -0.953   0.955  1.00  0.00     0.091 C 
ENDBRANCH   8   9
ENDBRANCH   7   8
ENDBRANCH   6   7
ENDBRANCH   3   6
BRANCH   1  17
HETATM   17  C4  UNL     1       3.857   0.058   0.674  1.00  0.00     0.198 C 
HETATM   18  C2  UNL     1       5.138   0.647   0.084  1.00  0.00     0.111 C 
HETATM   19  C1  UNL     1       5.340   0.166  -1.337  1.00  0.00     0.034 C 
HETATM   20  N1  UNL     1       6.154  -0.004   0.900  1.00  0.00    -0.361 N 
HETATM   21  C3  UNL     1       5.649  -1.319   1.098  1.00  0.00     0.168 C 
ATOM     22  H1  UNL     1       7.027   0.392   1.249  1.00  0.00     0.162 HD
HETATM   23  S1  UNL     1       6.483  -2.631   1.638  1.00  0.00    -0.041 SA
HETATM   24  N2  UNL     1       4.278  -1.354   0.751  1.00  0.00    -0.352 N 
ATOM     25  H2  UNL     1       3.702  -2.180   0.588  1.00  0.00     0.162 HD
ENDBRANCH   1  17
TORSDOF 6
