REMARK  4 active torsions:
REMARK  status: ('A' for Active; 'I' for Inactive)
REMARK    1  A    between atoms: C2_2  and  N1_3 
REMARK    2  A    between atoms: C4_5  and  N2_6 
REMARK       I    between atoms: N2_6  and  C5_8 
REMARK    3  A    between atoms: C5_8  and  O2_10 
REMARK    4  A    between atoms: O2_10  and  C6_11 
ROOT
HETATM    1  N1  UNL     1       3.416   0.680   0.441  1.00  0.00    -0.299 N 
HETATM    2  C3  UNL     1       2.089   0.364   0.346  1.00  0.00     0.144 A 
HETATM    3  C4  UNL     1       1.420   1.434  -0.175  1.00  0.00     0.112 A 
HETATM    4  C10 UNL     1       2.404   2.401  -0.387  1.00  0.00     0.231 A 
HETATM    5  F1  UNL     1       2.138   3.619  -0.900  1.00  0.00    -0.182 F 
HETATM    6  N3  UNL     1       3.571   1.892  -0.001  1.00  0.00    -0.272 N 
ATOM      7  H3  UNL     1       4.463   2.385  -0.046  1.00  0.00     0.189 HD
ENDROOT
BRANCH   3   8
HETATM    8  N2  UNL     1       0.042   1.551  -0.445  1.00  0.00    -0.297 N 
HETATM    9  C5  UNL     1      -0.883   0.529  -0.203  1.00  0.00     0.366 C 
HETATM   10  O1  UNL     1      -0.604  -0.591   0.274  1.00  0.00    -0.238 OA
ATOM     11  H2  UNL     1      -0.300   2.428  -0.838  1.00  0.00     0.171 HD
BRANCH   9  12
HETATM   12  O2  UNL     1      -2.253   0.694  -0.490  1.00  0.00    -0.294 OA
BRANCH  12  13
HETATM   13  C6  UNL     1      -3.201  -0.312  -0.257  1.00  0.00     0.061 C 
HETATM   14  C7  UNL     1      -2.908  -1.578  -1.032  1.00  0.00     0.046 C 
HETATM   15  C8  UNL     1      -4.550   0.197  -0.778  1.00  0.00     0.046 C 
HETATM   16  C9  UNL     1      -3.399  -0.659   1.181  1.00  0.00     0.046 C 
ENDBRANCH  12  13
ENDBRANCH   9  12
ENDBRANCH   3   8
BRANCH   1  17
HETATM   17  C2  UNL     1       4.487  -0.159   0.939  1.00  0.00     0.143 C 
HETATM   18  C1  UNL     1       5.124  -0.985  -0.130  1.00  0.00     0.028 C 
ENDBRANCH   1  17
TORSDOF 4
