REMARK  6 active torsions:
REMARK  status: ('A' for Active; 'I' for Inactive)
REMARK    1  A    between atoms: C2_2  and  C4_4 
REMARK    2  A    between atoms: C4_4  and  C5_5 
REMARK    3  A    between atoms: C5_5  and  C13_23 
REMARK    4  A    between atoms: N1_6  and  O1_8 
REMARK    5  A    between atoms: O1_8  and  C6_9 
REMARK       I    between atoms: C6_9  and  N2_11 
REMARK    6  A    between atoms: N2_11  and  C7_13 
ROOT
HETATM    1  C13 UNL     1      -0.125  -1.166   1.893  1.00  0.00     0.136 C 
HETATM    2  C14 UNL     1      -0.050  -2.441   1.044  1.00  0.00     0.032 C 
HETATM    3  C15 UNL     1      -0.339  -1.554   3.309  1.00  0.00     0.069 C 
HETATM    4  N3  UNL     1      -0.511  -1.874   4.406  1.00  0.00    -0.197 NA
ENDROOT
BRANCH   1   5
HETATM    5  C5  UNL     1      -1.311  -0.419   1.406  1.00  0.00     0.028 C 
HETATM    6  N1  UNL     1      -1.162   0.756   0.932  1.00  0.00    -0.263 N 
ATOM      7  H1  UNL     1      -1.968   1.280   0.593  1.00  0.00     0.194 HD
BRANCH   5   8
HETATM    8  C4  UNL     1      -2.622  -1.109   1.505  1.00  0.00     0.060 C 
BRANCH   8   9
HETATM    9  C2  UNL     1      -3.765  -0.286   0.989  1.00  0.00    -0.017 C 
HETATM   10  C1  UNL     1      -3.638   0.098  -0.449  1.00  0.00     0.010 C 
HETATM   11  C3  UNL     1      -5.023  -1.131   1.140  1.00  0.00     0.010 C 
ENDBRANCH   8   9
ENDBRANCH   5   8
BRANCH   6  12
HETATM   12  O1  UNL     1       0.091   1.307   0.883  1.00  0.00    -0.181 OA
BRANCH  12  13
HETATM   13  C6  UNL     1       0.978   1.156  -0.147  1.00  0.00     0.387 C 
HETATM   14  O2  UNL     1       0.661   0.475  -1.130  1.00  0.00    -0.236 OA
HETATM   15  N2  UNL     1       2.255   1.782  -0.082  1.00  0.00    -0.296 N 
ATOM     16  H2  UNL     1       2.489   2.338   0.740  1.00  0.00     0.171 HD
BRANCH  15  17
HETATM   17  C7  UNL     1       3.216   1.658  -1.125  1.00  0.00     0.121 A 
HETATM   18  C8  UNL     1       4.160   0.650  -1.164  1.00  0.00     0.184 A 
HETATM   19  F1  UNL     1       4.174  -0.259  -0.171  1.00  0.00    -0.200 F 
HETATM   20  C9  UNL     1       5.088   0.546  -2.187  1.00  0.00     0.160 A 
HETATM   21  F2  UNL     1       5.984  -0.486  -2.142  1.00  0.00    -0.203 F 
HETATM   22  C10 UNL     1       5.090   1.460  -3.207  1.00  0.00     0.091 A 
HETATM   23  C11 UNL     1       4.165   2.476  -3.200  1.00  0.00     0.160 A 
HETATM   24  F3  UNL     1       4.199   3.362  -4.228  1.00  0.00    -0.203 F 
HETATM   25  C12 UNL     1       3.245   2.568  -2.173  1.00  0.00     0.184 A 
HETATM   26  F4  UNL     1       2.344   3.596  -2.209  1.00  0.00    -0.200 F 
ENDBRANCH  15  17
ENDBRANCH  12  13
ENDBRANCH   6  12
ENDBRANCH   1   5
TORSDOF 6
