REMARK  10 active torsions:
REMARK  status: ('A' for Active; 'I' for Inactive)
REMARK       I    between atoms: N1_5  and  C5_7 
REMARK    1  A    between atoms: C5_7  and  C6_9 
REMARK    2  A    between atoms: C8_11  and  C9_12 
REMARK    3  A    between atoms: N4_20  and  C14_21 
REMARK    4  A    between atoms: C14_21  and  C15_22 
REMARK       I    between atoms: C15_22  and  N5_24 
REMARK    5  A    between atoms: N5_24  and  C16_26 
REMARK    6  A    between atoms: C17_29  and  C18_30 
REMARK    7  A    between atoms: C18_30  and  C19_31 
REMARK       I    between atoms: C19_31  and  N7_33 
REMARK    8  A    between atoms: C23_38  and  N8_39 
REMARK    9  A    between atoms: N8_39  and  C24_41 
REMARK   10  A    between atoms: C24_41  and  C25_42 
ROOT
HETATM    1  C1  UNL     1       2.103   3.080  -4.064  1.00  0.00     0.069 C 
HETATM    2  C2  UNL     1       1.504   2.493  -2.823  1.00  0.00     0.026 A 
HETATM    3  C3  UNL     1       1.826   1.201  -2.446  1.00  0.00     0.074 A 
HETATM    4  C4  UNL     1       1.280   0.702  -1.294  1.00  0.00     0.128 A 
HETATM    5  N1  UNL     1       1.560  -0.500  -0.935  1.00  0.00    -0.307 N 
ATOM      6  H1  UNL     1       1.138  -0.839  -0.070  1.00  0.00     0.170 HD
HETATM    7  C5  UNL     1       2.400  -1.390  -1.634  1.00  0.00     0.275 C 
HETATM    8  O1  UNL     1       2.102  -1.729  -2.799  1.00  0.00    -0.266 OA
HETATM    9  N4  UNL     1       0.430   1.472  -0.534  1.00  0.00    -0.160 N 
HETATM   10  C23 UNL     1       0.123   2.719  -0.910  1.00  0.00     0.682 A 
HETATM   11  N9  UNL     1       0.680   3.188  -2.054  1.00  0.00    -0.196 N 
ATOM     12  H9  UNL     1       0.449   4.139  -2.341  1.00  0.00     0.184 HD
ENDROOT
BRANCH   9  13
HETATM   13  C14 UNL     1      -0.035   0.861   0.664  1.00  0.00     0.252 C 
BRANCH  13  14
HETATM   14  C15 UNL     1      -1.283   0.060   0.551  1.00  0.00     0.242 C 
HETATM   15  O2  UNL     1      -1.896   0.043  -0.531  1.00  0.00    -0.271 OA
HETATM   16  N5  UNL     1      -1.693  -0.628   1.670  1.00  0.00    -0.306 N 
ATOM     17  H5  UNL     1      -1.101  -0.518   2.493  1.00  0.00     0.171 HD
BRANCH  16  18
HETATM   18  C16 UNL     1      -2.715  -1.389   1.825  1.00  0.00     0.151 A 
HETATM   19  N6  UNL     1      -3.691  -1.756   1.000  1.00  0.00    -0.339 N 
HETATM   20  C17 UNL     1      -4.613  -2.598   1.413  1.00  0.00     0.026 A 
ATOM     21  H6  UNL     1      -3.725  -1.386   0.050  1.00  0.00     0.168 HD
HETATM   22  C22 UNL     1      -4.510  -3.054   2.703  1.00  0.00     0.078 A 
HETATM   23  S1  UNL     1      -3.121  -2.278   3.266  1.00  0.00    -0.064 SA
BRANCH  20  24
HETATM   24  C18 UNL     1      -5.782  -3.068   0.543  1.00  0.00     0.160 C 
BRANCH  24  25
HETATM   25  C19 UNL     1      -7.004  -2.284   0.910  1.00  0.00     0.224 C 
HETATM   26  O3  UNL     1      -6.896  -1.408   1.816  1.00  0.00    -0.273 OA
HETATM   27  N7  UNL     1      -8.218  -2.541   0.244  1.00  0.00    -0.361 N 
HETATM   28  C20 UNL     1      -8.279  -3.517  -0.793  1.00  0.00     0.152 C 
HETATM   29  C21 UNL     1      -9.394  -1.806   0.637  1.00  0.00     0.152 C 
ENDBRANCH  24  25
ENDBRANCH  20  24
ENDBRANCH  16  18
ENDBRANCH  13  14
ENDBRANCH   9  13
BRANCH  10  30
HETATM   30  N8  UNL     1      -0.691   3.418  -0.202  1.00  0.00    -0.225 N 
ATOM     31  H8  UNL     1      -1.088   2.999   0.639  1.00  0.00     0.177 HD
BRANCH  30  32
HETATM   32  C24 UNL     1      -1.070   4.774  -0.543  1.00  0.00     0.142 C 
BRANCH  32  33
HETATM   33  C25 UNL     1      -0.082   5.804  -0.062  1.00  0.00    -0.004 C 
HETATM   34  C26 UNL     1       0.057   5.759   1.456  1.00  0.00     0.011 C 
HETATM   35  C27 UNL     1      -0.631   7.175  -0.394  1.00  0.00     0.011 C 
ENDBRANCH  32  33
ENDBRANCH  30  32
ENDBRANCH  10  30
BRANCH   7  36
HETATM   36  C6  UNL     1       3.610  -1.904  -0.986  1.00  0.00     0.120 A 
HETATM   37  C7  UNL     1       4.036  -1.627   0.303  1.00  0.00     0.064 A 
HETATM   38  C8  UNL     1       5.215  -2.300   0.507  1.00  0.00     0.036 A 
HETATM   39  N2  UNL     1       5.484  -2.965  -0.638  1.00  0.00    -0.302 N 
HETATM   40  N3  UNL     1       4.529  -2.725  -1.512  1.00  0.00    -0.291 N 
ATOM     41  H2  UNL     1       6.298  -3.559  -0.800  1.00  0.00     0.186 HD
HETATM   42  C13 UNL     1       4.438  -3.247  -2.873  1.00  0.00     0.178 C 
BRANCH  38  43
HETATM   43  C9  UNL     1       6.029  -2.292   1.757  1.00  0.00    -0.007 C 
HETATM   44  C10 UNL     1       5.452  -3.319   2.698  1.00  0.00     0.021 C 
HETATM   45  C11 UNL     1       6.062  -0.942   2.426  1.00  0.00     0.021 C 
HETATM   46  C12 UNL     1       7.450  -2.722   1.394  1.00  0.00     0.021 C 
ENDBRANCH  38  43
ENDBRANCH   7  36
TORSDOF 10
