REMARK  7 active torsions:
REMARK  status: ('A' for Active; 'I' for Inactive)
REMARK    1  A    between atoms: N1_1  and  N2_4 
REMARK    2  A    between atoms: N2_4  and  C1_6 
REMARK    3  A    between atoms: C1_6  and  C2_7 
REMARK    4  A    between atoms: C4_9  and  C5_10 
REMARK    5  A    between atoms: C5_10  and  O1_11 
REMARK    6  A    between atoms: C6_16  and  C7_17 
REMARK    7  A    between atoms: C8_18  and  C9_19 
ROOT
HETATM    1  C2  UNL     1      -1.918  -0.449   0.354  1.00  0.00     0.041 C 
HETATM    2  C3  UNL     1      -2.245   0.738  -0.527  1.00  0.00     0.044 C 
HETATM    3  C4  UNL     1      -1.985   1.876   0.441  1.00  0.00     0.210 C 
HETATM    4  N3  UNL     1      -0.718   1.494   1.000  1.00  0.00    -0.061 N 
ATOM      5  H31 UNL     1      -0.533   1.928   1.904  1.00  0.00     0.278 HD
ATOM      6  H32 UNL     1       0.076   1.891   0.499  1.00  0.00     0.278 HD
HETATM    7  C6  UNL     1      -0.692   0.045   1.049  1.00  0.00     0.215 C 
ENDROOT
BRANCH   7   8
HETATM    8  C7  UNL     1       0.575  -0.380   0.425  1.00  0.00     0.008 C 
HETATM    9  C8  UNL     1       1.671   0.309   0.700  1.00  0.00     0.029 C 
BRANCH   9  10
HETATM   10  C9  UNL     1       2.961  -0.085   0.095  1.00  0.00     0.048 A 
HETATM   11  C10 UNL     1       4.184   0.509   0.267  1.00  0.00     0.118 A 
HETATM   12  N4  UNL     1       5.108  -0.148  -0.455  1.00  0.00    -0.360 N 
HETATM   13  C11 UNL     1       4.469  -1.149  -1.077  1.00  0.00     0.180 A 
ATOM     14  H4  UNL     1       6.102   0.072  -0.517  1.00  0.00     0.166 HD
HETATM   15  N5  UNL     1       3.161  -1.117  -0.746  1.00  0.00    -0.351 N 
ATOM     16  H5  UNL     1       2.446  -1.765  -1.077  1.00  0.00     0.166 HD
ENDBRANCH   9  10
ENDBRANCH   7   8
BRANCH   1  17
HETATM   17  C1  UNL     1      -1.759  -1.725  -0.387  1.00  0.00     0.145 C 
BRANCH  17  18
HETATM   18  N2  UNL     1      -1.455  -2.778   0.532  1.00  0.00    -0.342 N 
ATOM     19  H2  UNL     1      -1.372  -2.618   1.536  1.00  0.00     0.179 HD
BRANCH  18  20
HETATM   20  N1  UNL     1      -1.282  -4.020  -0.031  1.00  0.00    -0.349 N 
ATOM     21  H12 UNL     1      -1.368  -4.164  -1.037  1.00  0.00     0.176 HD
ATOM     22  H11 UNL     1      -1.065  -4.771   0.624  1.00  0.00     0.176 HD
ENDBRANCH  18  20
ENDBRANCH  17  18
ENDBRANCH   1  17
BRANCH   3  23
HETATM   23  C5  UNL     1      -1.922   3.206  -0.277  1.00  0.00     0.197 C 
BRANCH  23  24
HETATM   24  O1  UNL     1      -1.009   3.176  -1.328  1.00  0.00    -0.399 OA
ATOM     25  H1  UNL     1      -0.969   4.011  -1.779  1.00  0.00     0.209 HD
ENDBRANCH  23  24
ENDBRANCH   3  23
TORSDOF 7
