REMARK  8 active torsions:
REMARK  status: ('A' for Active; 'I' for Inactive)
REMARK    1  A    between atoms: N1_1  and  C1_5 
REMARK    2  A    between atoms: C1_5  and  C2_6 
REMARK    3  A    between atoms: C2_6  and  N2_7 
REMARK    4  A    between atoms: N2_7  and  C3_10 
REMARK    5  A    between atoms: C3_10  and  C4_11 
REMARK    6  A    between atoms: C4_11  and  C5_12 
REMARK    7  A    between atoms: C5_12  and  N3_13 
REMARK    8  A    between atoms: N3_13  and  C6_15 
ROOT
HETATM    1  N3  UNL     1       0.840   0.421   0.304  1.00  0.00    -0.375 N 
ATOM      2  H3  UNL     1       0.690   0.492   1.310  1.00  0.00     0.161 HD
ENDROOT
BRANCH   1   3
HETATM    3  C5  UNL     1      -0.304   0.576  -0.531  1.00  0.00     0.123 C 
BRANCH   3   4
HETATM    4  C4  UNL     1      -1.515   0.081   0.222  1.00  0.00     0.047 C 
BRANCH   4   5
HETATM    5  C3  UNL     1      -2.781   0.210  -0.594  1.00  0.00     0.234 C 
BRANCH   5   6
HETATM    6  N2  UNL     1      -3.904  -0.280   0.182  1.00  0.00    -0.073 N 
ATOM      7  H22 UNL     1      -3.986   0.179   1.089  1.00  0.00     0.277 HD
ATOM      8  H21 UNL     1      -3.763  -1.231   0.521  1.00  0.00     0.277 HD
BRANCH   6   9
HETATM    9  C2  UNL     1      -5.091  -0.147  -0.615  1.00  0.00     0.259 C 
BRANCH   9  10
HETATM   10  C1  UNL     1      -6.327  -0.644   0.133  1.00  0.00     0.257 C 
BRANCH  10  11
HETATM   11  N1  UNL     1      -6.524   0.108   1.346  1.00  0.00    -0.078 N 
ATOM     12  H13 UNL     1      -5.693   0.096   1.938  1.00  0.00     0.274 HD
ATOM     13  H12 UNL     1      -6.569   1.111   1.166  1.00  0.00     0.274 HD
ATOM     14  H11 UNL     1      -7.349  -0.224   1.845  1.00  0.00     0.274 HD
ENDBRANCH  10  11
ENDBRANCH   9  10
ENDBRANCH   6   9
ENDBRANCH   5   6
ENDBRANCH   4   5
ENDBRANCH   3   4
ENDBRANCH   1   3
BRANCH   1  15
HETATM   15  C6  UNL     1       2.041   0.200  -0.090  1.00  0.00     0.117 A 
HETATM   16  C7  UNL     1       2.428   0.075  -1.388  1.00  0.00     0.138 A 
HETATM   17  N4  UNL     1       3.717  -0.157  -1.690  1.00  0.00    -0.347 N 
HETATM   18  C8  UNL     1       4.672  -0.276  -0.750  1.00  0.00     0.124 A 
ATOM     19  H4  UNL     1       3.982  -0.246  -2.671  1.00  0.00     0.167 HD
HETATM   20  C9  UNL     1       4.289  -0.151   0.565  1.00  0.00     0.056 A 
HETATM   21  N6  UNL     1       6.089  -0.517  -0.817  1.00  0.00    -0.374 N 
HETATM   22  N5  UNL     1       2.981   0.084   0.866  1.00  0.00    -0.342 N 
HETATM   23  C10 UNL     1       5.512  -0.323   1.388  1.00  0.00     0.080 C 
ATOM     24  H5  UNL     1       2.706   0.175   1.844  1.00  0.00     0.167 HD
HETATM   25  C11 UNL     1       6.609   0.055   0.418  1.00  0.00     0.127 C 
ATOM     26  H6  UNL     1       6.611  -0.982  -1.560  1.00  0.00     0.161 HD
ENDBRANCH   1  15
TORSDOF 8
