REMARK  2 active torsions:
REMARK  status: ('A' for Active; 'I' for Inactive)
REMARK    1  A    between atoms: C14_15  and  C16_17 
REMARK    2  A    between atoms: C16_17  and  O2_18 
ROOT
HETATM    1  C1  UNL     1      -0.872   3.062   0.220  1.00  0.00     0.040 C 
HETATM    2  C2  UNL     1      -0.198   1.732   0.622  1.00  0.00     0.124 C 
HETATM    3  O1  UNL     1      -0.001   1.023  -0.435  1.00  0.00    -0.380 OA
HETATM    4  C3  UNL     1       0.969   0.356  -0.952  1.00  0.00     0.132 C 
HETATM    5  C4  UNL     1       0.342  -0.758  -1.822  1.00  0.00     0.036 C 
HETATM    6  C5  UNL     1      -1.180  -0.560  -1.915  1.00  0.00     0.040 C 
HETATM    7  C6  UNL     1      -1.827  -0.819  -0.543  1.00  0.00     0.058 C 
HETATM    8  C7  UNL     1      -2.644  -2.109  -0.736  1.00  0.00     0.046 C 
HETATM    9  C8  UNL     1      -2.763   0.287  -0.250  1.00  0.00     0.038 C 
HETATM   10  C9  UNL     1      -2.567   1.015   1.027  1.00  0.00     0.013 C 
HETATM   11  C10 UNL     1      -1.168   0.971   1.543  1.00  0.00     0.043 C 
HETATM   12  C11 UNL     1      -0.760  -0.482   1.513  1.00  0.00     0.129 C 
HETATM   13  C12 UNL     1       0.687  -0.546   1.984  1.00  0.00     0.033 C 
HETATM   14  C13 UNL     1       1.604  -1.132   0.987  1.00  0.00     0.016 C 
HETATM   15  C14 UNL     1       2.039  -0.296  -0.148  1.00  0.00     0.004 C 
HETATM   16  C15 UNL     1       2.709  -1.292  -1.126  1.00  0.00     0.020 C 
HETATM   17  O3  UNL     1      -0.846  -1.090   0.323  1.00  0.00    -0.375 OA
ENDROOT
BRANCH  15  18
HETATM   18  C16 UNL     1       3.189   0.659   0.210  1.00  0.00     0.175 C 
BRANCH  18  19
HETATM   19  O2  UNL     1       4.087  -0.078   0.944  1.00  0.00    -0.400 OA
ATOM     20  H2  UNL     1       4.798   0.512   1.165  1.00  0.00     0.209 HD
ENDBRANCH  18  19
ENDBRANCH  15  18
TORSDOF 2
