REMARK  8 active torsions:
REMARK  status: ('A' for Active; 'I' for Inactive)
REMARK    1  A    between atoms: C2_2  and  C3_3 
REMARK    2  A    between atoms: C3_3  and  N1_5 
REMARK    3  A    between atoms: C6_10  and  N3_11 
REMARK    4  A    between atoms: C10_15  and  C11_16 
REMARK    5  A    between atoms: C12_21  and  O1_22 
REMARK    6  A    between atoms: O1_22  and  C13_23 
REMARK    7  A    between atoms: C15_25  and  O2_27 
REMARK    8  A    between atoms: C17_29  and  N5_31 
ROOT
HETATM    1  N1  UNL     1      -3.235   2.508   0.249  1.00  0.00    -0.366 N 
ATOM      2  H1  UNL     1      -4.246   2.430   0.135  1.00  0.00     0.161 HD
HETATM    3  C5  UNL     1      -2.735   1.384   0.136  1.00  0.00     0.161 A 
HETATM    4  N2  UNL     1      -3.528   0.279  -0.105  1.00  0.00    -0.173 N 
ATOM      5  H2  UNL     1      -4.536   0.411  -0.188  1.00  0.00     0.186 HD
HETATM    6  C6  UNL     1      -3.039  -0.939  -0.233  1.00  0.00     0.684 A 
HETATM    7  N4  UNL     1      -1.726  -1.163  -0.131  1.00  0.00    -0.167 N 
ATOM      8  H4  UNL     1      -1.378  -2.116  -0.234  1.00  0.00     0.186 HD
HETATM    9  C12 UNL     1      -0.827  -0.145   0.109  1.00  0.00     0.201 A 
HETATM   10  C22 UNL     1      -1.386   1.119   0.236  1.00  0.00     0.211 A 
HETATM   11  F3  UNL     1      -0.483   2.115   0.472  1.00  0.00    -0.197 F 
ENDROOT
BRANCH   9  12
HETATM   12  O1  UNL     1       0.481  -0.487   0.193  1.00  0.00    -0.327 OA
BRANCH  12  13
HETATM   13  C13 UNL     1       1.665   0.129   0.405  1.00  0.00     0.136 C 
HETATM   14  C14 UNL     1       2.449  -0.554   1.526  1.00  0.00     0.072 C 
HETATM   15  C15 UNL     1       3.885  -0.561   1.093  1.00  0.00     0.092 C 
HETATM   16  C16 UNL     1       4.731   0.034   2.167  1.00  0.00     0.048 C 
HETATM   17  C17 UNL     1       3.925   0.208  -0.209  1.00  0.00     0.187 C 
HETATM   18  C18 UNL     1       3.880   1.688  -0.021  1.00  0.00     0.053 C 
HETATM   19  C21 UNL     1       2.572  -0.205  -0.802  1.00  0.00     0.077 C 
BRANCH  15  20
HETATM   20  O2  UNL     1       4.232  -1.880   0.791  1.00  0.00    -0.387 OA
ATOM     21  H2  UNL     1       5.142  -1.884   0.517  1.00  0.00     0.210 HD
ENDBRANCH  15  20
BRANCH  17  22
HETATM   22  N5  UNL     1       4.939  -0.253  -1.105  1.00  0.00     0.092 N 
HETATM   23  C19 UNL     1       6.276  -0.104  -0.592  1.00  0.00     0.310 C 
HETATM   24  C20 UNL     1       4.844   0.513  -2.328  1.00  0.00     0.310 C 
ENDBRANCH  17  22
ENDBRANCH  12  13
ENDBRANCH   9  12
BRANCH   6  25
HETATM   25  N3  UNL     1      -3.904  -2.065  -0.485  1.00  0.00    -0.207 N 
HETATM   26  C7  UNL     1      -5.344  -1.976  -0.621  1.00  0.00     0.142 C 
HETATM   27  C8  UNL     1      -5.890  -3.342  -0.283  1.00  0.00     0.023 C 
HETATM   28  C9  UNL     1      -4.670  -4.179   0.004  1.00  0.00     0.033 C 
HETATM   29  C10 UNL     1      -3.524  -3.440  -0.644  1.00  0.00     0.167 C 
BRANCH  29  30
HETATM   30  C11 UNL     1      -3.405  -3.853  -2.095  1.00  0.00     0.376 C 
HETATM   31  F1  UNL     1      -2.458  -3.103  -2.761  1.00  0.00    -0.212 F 
HETATM   32  F2  UNL     1      -4.614  -3.754  -2.760  1.00  0.00    -0.212 F 
ENDBRANCH  29  30
ENDBRANCH   6  25
BRANCH   1  33
HETATM   33  C3  UNL     1      -2.914   3.830   0.474  1.00  0.00     0.101 C 
HETATM   34  C4  UNL     1      -2.131   4.440  -0.683  1.00  0.00     0.036 C 
BRANCH  33  35
HETATM   35  C2  UNL     1      -2.312   4.181   1.789  1.00  0.00    -0.013 C 
HETATM   36  C1  UNL     1      -2.956   3.916   2.910  1.00  0.00     0.009 C 
ENDBRANCH  33  35
ENDBRANCH   1  33
TORSDOF 8
