REMARK  15 active torsions:
REMARK  status: ('A' for Active; 'I' for Inactive)
REMARK    1  A    between atoms: O1_2  and  C2_3 
REMARK    2  A    between atoms: C2_3  and  C3_5 
REMARK    3  A    between atoms: C3_5  and  N1_7 
REMARK    4  A    between atoms: N1_7  and  C5_9 
REMARK    5  A    between atoms: C6_12  and  N3_13 
REMARK    6  A    between atoms: C8_21  and  N6_22 
REMARK    7  A    between atoms: N6_22  and  C9_24 
REMARK    8  A    between atoms: C9_24  and  C10_26 
REMARK    9  A    between atoms: C10_26  and  C11_27 
REMARK   10  A    between atoms: C11_27  and  C12_28 
REMARK   11  A    between atoms: C12_28  and  C13_29 
REMARK   12  A    between atoms: C14_32  and  C15_33 
REMARK   13  A    between atoms: C15_33  and  O3_34 
REMARK   14  A    between atoms: C15_33  and  O4_36 
REMARK   15  A    between atoms: O4_36  and  C16_37 
ROOT
HETATM    1  C5  UNL     1       5.826   0.164  -1.643  1.00  0.00     0.714 A 
HETATM    2  N2  UNL     1       6.437   0.167  -2.835  1.00  0.00    -0.021 N 
ATOM      3  H2  UNL     1       7.454   0.196  -2.909  1.00  0.00     0.203 HD
HETATM    4  C6  UNL     1       5.658   0.130  -3.932  1.00  0.00     0.705 A 
HETATM    5  N4  UNL     1       4.329   0.092  -3.852  1.00  0.00    -0.021 N 
ATOM      6  H4  UNL     1       3.770   0.066  -4.705  1.00  0.00     0.203 HD
HETATM    7  C7  UNL     1       3.711   0.088  -2.638  1.00  0.00     0.719 A 
HETATM    8  N5  UNL     1       2.430   0.055  -2.262  1.00  0.00    -0.174 N 
ATOM      9  H5  UNL     1       1.633   0.023  -2.898  1.00  0.00     0.186 HD
HETATM   10  C8  UNL     1       2.344   0.070  -0.889  1.00  0.00     0.139 A 
HETATM   11  C21 UNL     1       3.632   0.114  -0.462  1.00  0.00     0.183 A 
HETATM   12  N8  UNL     1       4.473   0.125  -1.542  1.00  0.00     0.017 N 
ENDROOT
BRANCH  10  13
HETATM   13  N6  UNL     1       1.120   0.043  -0.197  1.00  0.00    -0.335 N 
ATOM     14  H6  UNL     1       0.287   0.007  -0.784  1.00  0.00     0.168 HD
BRANCH  13  15
HETATM   15  C9  UNL     1       0.883   0.058   1.179  1.00  0.00     0.079 C 
HETATM   16  S1  UNL     1       2.083   0.113   2.255  1.00  0.00    -0.065 SA
BRANCH  15  17
HETATM   17  C10 UNL     1      -0.532   0.021   1.700  1.00  0.00     0.070 C 
BRANCH  17  18
HETATM   18  C11 UNL     1      -1.315   1.189   1.198  1.00  0.00     0.013 C 
BRANCH  18  19
HETATM   19  C12 UNL     1      -2.729   1.274   1.639  1.00  0.00     0.065 C 
BRANCH  19  20
HETATM   20  C13 UNL     1      -3.560   0.138   1.163  1.00  0.00     0.051 A 
HETATM   21  N7  UNL     1      -4.836  -0.078   1.478  1.00  0.00    -0.353 N 
HETATM   22  C14 UNL     1      -5.458  -1.090   0.982  1.00  0.00     0.071 A 
ATOM     23  H7  UNL     1      -5.320   0.558   2.112  1.00  0.00     0.166 HD
HETATM   24  C20 UNL     1      -4.769  -1.919   0.134  1.00  0.00     0.081 A 
HETATM   25  S2  UNL     1      -3.229  -1.161   0.110  1.00  0.00    -0.086 SA
BRANCH  22  26
HETATM   26  C15 UNL     1      -6.914  -1.378   1.305  1.00  0.00     0.309 C 
BRANCH  26  27
HETATM   27  O3  UNL     1      -6.960  -2.761   1.581  1.00  0.00    -0.366 OA
ATOM     28  H3  UNL     1      -7.871  -2.941   1.783  1.00  0.00     0.213 HD
ENDBRANCH  26  27
BRANCH  26  29
HETATM   29  O4  UNL     1      -7.616  -1.054   0.173  1.00  0.00    -0.346 OA
BRANCH  29  30
HETATM   30  C16 UNL     1      -8.586  -0.123   0.288  1.00  0.00     0.053 C 
HETATM   31  C17 UNL     1      -8.043   1.207   0.762  1.00  0.00     0.045 C 
HETATM   32  C18 UNL     1      -9.157   0.129  -1.114  1.00  0.00     0.045 C 
HETATM   33  C19 UNL     1      -9.750  -0.494   1.159  1.00  0.00     0.045 C 
ENDBRANCH  29  30
ENDBRANCH  26  29
ENDBRANCH  22  26
ENDBRANCH  19  20
ENDBRANCH  18  19
ENDBRANCH  17  18
ENDBRANCH  15  17
ENDBRANCH  13  15
ENDBRANCH  10  13
BRANCH   1  34
HETATM   34  N1  UNL     1       6.487   0.197  -0.558  1.00  0.00    -0.211 N 
ATOM     35  H1  UNL     1       5.973   0.193   0.323  1.00  0.00     0.178 HD
BRANCH  34  36
HETATM   36  C3  UNL     1       7.920   0.240  -0.510  1.00  0.00     0.195 C 
HETATM   37  C4  UNL     1       8.423   1.628  -0.874  1.00  0.00     0.043 C 
BRANCH  36  38
HETATM   38  C2  UNL     1       8.396  -0.161   0.839  1.00  0.00     0.281 C 
HETATM   39  O2  UNL     1       7.552  -0.473   1.712  1.00  0.00    -0.263 OA
BRANCH  38  40
HETATM   40  O1  UNL     1       9.754  -0.194   1.143  1.00  0.00    -0.325 OA
HETATM   41  C1  UNL     1      10.143  -0.584   2.448  1.00  0.00     0.213 C 
ENDBRANCH  38  40
ENDBRANCH  36  38
ENDBRANCH  34  36
ENDBRANCH   1  34
BRANCH   4  42
HETATM   42  N3  UNL     1       6.291   0.135  -5.073  1.00  0.00    -0.234 N 
ATOM     43  H32 UNL     1       7.309   0.164  -5.134  1.00  0.00     0.174 HD
ATOM     44  H31 UNL     1       5.701   0.107  -5.904  1.00  0.00     0.174 HD
ENDBRANCH   4  42
TORSDOF 15
