REMARK  5 active torsions:
REMARK  status: ('A' for Active; 'I' for Inactive)
REMARK    1  A    between atoms: C2_5  and  C3_6 
REMARK    2  A    between atoms: C3_6  and  N2_7 
REMARK    3  A    between atoms: N3_14  and  C10_15 
REMARK    4  A    between atoms: C10_15  and  C11_16 
REMARK    5  A    between atoms: C11_16  and  O2_17 
ROOT
HETATM    1  O1  UNL     1      -3.336  -1.791  -1.036  1.00  0.00    -0.247 OA
HETATM    2  C1  UNL     1      -2.328  -1.165  -0.560  1.00  0.00     0.318 C 
HETATM    3  N1  UNL     1      -1.059  -1.460  -1.074  1.00  0.00    -0.337 N 
ATOM      4  H1  UNL     1      -0.851  -2.385  -1.450  1.00  0.00     0.164 HD
HETATM    5  C2  UNL     1      -0.024  -0.396  -1.059  1.00  0.00     0.116 C 
HETATM    6  C8  UNL     1      -0.536   0.784  -0.337  1.00  0.00     0.047 C 
HETATM    7  C9  UNL     1      -1.278   0.419   0.951  1.00  0.00     0.129 C 
HETATM    8  N3  UNL     1      -2.532  -0.186   0.478  1.00  0.00    -0.332 N 
ENDROOT
BRANCH   5   9
HETATM    9  C3  UNL     1       1.209  -1.047  -0.588  1.00  0.00     0.297 C 
BRANCH   9  10
HETATM   10  N2  UNL     1       2.377  -0.257  -0.521  1.00  0.00     0.090 N 
HETATM   11  C4  UNL     1       3.553  -1.148  -0.303  1.00  0.00     0.272 C 
HETATM   12  C5  UNL     1       4.656  -0.231   0.127  1.00  0.00     0.032 C 
HETATM   13  C6  UNL     1       3.908   0.703   1.061  1.00  0.00     0.032 C 
HETATM   14  C7  UNL     1       2.503   0.743   0.475  1.00  0.00     0.272 C 
ENDBRANCH   9  10
ENDBRANCH   5   9
BRANCH   8  15
HETATM   15  C10 UNL     1      -3.826   0.159   0.973  1.00  0.00     0.153 C 
BRANCH  15  16
HETATM   16  C11 UNL     1      -4.386   1.330   0.162  1.00  0.00     0.184 C 
BRANCH  16  17
HETATM   17  O2  UNL     1      -4.485   0.982  -1.162  1.00  0.00    -0.399 OA
ATOM     18  H2  UNL     1      -4.833   1.709  -1.665  1.00  0.00     0.209 HD
ENDBRANCH  16  17
ENDBRANCH  15  16
ENDBRANCH   8  15
TORSDOF 5
