REMARK  4 active torsions:
REMARK  status: ('A' for Active; 'I' for Inactive)
REMARK    1  A    between atoms: C2_5  and  C3_6 
REMARK    2  A    between atoms: C3_6  and  C4_7 
REMARK    3  A    between atoms: C4_7  and  O2_8 
REMARK    4  A    between atoms: C7_12  and  N2_13 
ROOT
HETATM    1  O1  UNL     1      -0.753   1.997   1.965  1.00  0.00    -0.271 OA
HETATM    2  C1  UNL     1       0.070   1.294   1.265  1.00  0.00     0.240 C 
HETATM    3  N1  UNL     1       1.224   0.738   1.861  1.00  0.00    -0.355 N 
ATOM      4  H1  UNL     1       1.203   0.433   2.834  1.00  0.00     0.162 HD
HETATM    5  C2  UNL     1       2.467   0.600   1.062  1.00  0.00     0.086 C 
HETATM    6  C5  UNL     1       2.152   1.128  -0.281  1.00  0.00     0.028 C 
HETATM    7  C6  UNL     1       0.921   0.434  -0.856  1.00  0.00     0.037 C 
HETATM    8  C7  UNL     1      -0.260   1.112  -0.148  1.00  0.00     0.175 C 
ENDROOT
BRANCH   8   9
HETATM    9  N2  UNL     1      -1.464   0.485  -0.474  1.00  0.00    -0.380 N 
HETATM   10  C8  UNL     1      -1.746  -0.825  -0.117  1.00  0.00     0.059 C 
HETATM   11  C9  UNL     1      -3.154  -1.114   0.324  1.00  0.00     0.044 C 
HETATM   12  C10 UNL     1      -4.172  -0.182  -0.279  1.00  0.00     0.007 C 
HETATM   13  C11 UNL     1      -3.601   0.459  -1.535  1.00  0.00     0.020 C 
HETATM   14  C12 UNL     1      -2.437   1.322  -1.038  1.00  0.00     0.123 C 
ENDBRANCH   8   9
BRANCH   5  15
HETATM   15  C3  UNL     1       2.978  -0.787   1.136  1.00  0.00     0.051 C 
BRANCH  15  16
HETATM   16  C4  UNL     1       4.236  -0.972   0.344  1.00  0.00     0.166 C 
BRANCH  16  17
HETATM   17  O2  UNL     1       4.128  -0.767  -1.002  1.00  0.00    -0.401 OA
ATOM     18  H2  UNL     1       4.926  -0.884  -1.504  1.00  0.00     0.209 HD
ENDBRANCH  16  17
ENDBRANCH  15  16
ENDBRANCH   5  15
TORSDOF 4
