REMARK  12 active torsions:
REMARK  status: ('A' for Active; 'I' for Inactive)
REMARK    1  A    between atoms: N1_1  and  C1_5 
REMARK    2  A    between atoms: C1_5  and  C2_6 
REMARK    3  A    between atoms: C2_6  and  C3_7 
REMARK    4  A    between atoms: C3_7  and  N2_8 
REMARK    5  A    between atoms: C3_7  and  C4_12 
REMARK    6  A    between atoms: C7_17  and  C8_18 
REMARK    7  A    between atoms: C8_18  and  N4_19 
REMARK    8  A    between atoms: N4_19  and  C9_22 
REMARK    9  A    between atoms: C9_22  and  C10_23 
REMARK   10  A    between atoms: C10_23  and  O1_24 
REMARK   11  A    between atoms: C10_23  and  C11_26 
REMARK   12  A    between atoms: C15_31  and  C16_32 
ROOT
HETATM    1  C8  UNL     1       0.367  -0.992  -0.063  1.00  0.00     0.154 C 
HETATM    2  C17 UNL     1       0.563  -1.007  -1.560  1.00  0.00     0.044 C 
HETATM    3  C18 UNL     1       0.718  -2.524  -1.471  1.00  0.00     0.005 C 
HETATM    4  C19 UNL     1      -0.017  -2.436  -0.125  1.00  0.00     0.044 C 
ENDROOT
BRANCH   1   5
HETATM    5  C7  UNL     1       1.659  -0.834   0.680  1.00  0.00    -0.006 A 
HETATM    6  C6  UNL     1       1.593  -0.689   2.045  1.00  0.00     0.097 A 
HETATM    7  N3  UNL     1       2.739  -0.533   2.776  1.00  0.00    -0.374 N 
HETATM    8  C5  UNL     1       3.955  -0.519   2.176  1.00  0.00     0.096 A 
ATOM      9  H3  UNL     1       2.678  -0.426   3.788  1.00  0.00     0.164 HD
HETATM   10  C4  UNL     1       4.068  -0.662   0.810  1.00  0.00    -0.012 A 
HETATM   11  C20 UNL     1       2.892  -0.817   0.098  1.00  0.00     0.021 A 
BRANCH  10  12
HETATM   12  C3  UNL     1       5.365  -0.649   0.110  1.00  0.00     0.219 C 
BRANCH  12  13
HETATM   13  C2  UNL     1       5.469   0.601  -0.759  1.00  0.00     0.065 C 
BRANCH  13  14
HETATM   14  C1  UNL     1       5.356   1.843   0.095  1.00  0.00     0.232 C 
BRANCH  14  15
HETATM   15  N1  UNL     1       6.385   1.939   1.079  1.00  0.00    -0.079 N 
ATOM     16  H13 UNL     1       6.414   1.100   1.659  1.00  0.00     0.274 HD
ATOM     17  H12 UNL     1       7.307   1.876   0.648  1.00  0.00     0.274 HD
ATOM     18  H11 UNL     1       6.309   2.777   1.655  1.00  0.00     0.274 HD
ENDBRANCH  14  15
ENDBRANCH  13  14
ENDBRANCH  12  13
BRANCH  12  19
HETATM   19  N2  UNL     1       5.484  -1.794  -0.795  1.00  0.00    -0.071 N 
ATOM     20  H23 UNL     1       4.810  -1.776  -1.560  1.00  0.00     0.275 HD
ATOM     21  H22 UNL     1       6.327  -1.770  -1.369  1.00  0.00     0.275 HD
ATOM     22  H21 UNL     1       5.414  -2.630  -0.214  1.00  0.00     0.275 HD
ENDBRANCH  12  19
ENDBRANCH  10  12
ENDBRANCH   1   5
BRANCH   1  23
HETATM   23  N4  UNL     1      -0.569  -0.044   0.443  1.00  0.00    -0.060 N 
ATOM     24  H42 UNL     1      -0.593  -0.080   1.462  1.00  0.00     0.278 HD
ATOM     25  H41 UNL     1      -0.220   0.905   0.308  1.00  0.00     0.278 HD
BRANCH  23  26
HETATM   26  C9  UNL     1      -1.887  -0.166  -0.087  1.00  0.00     0.265 C 
BRANCH  26  27
HETATM   27  C10 UNL     1      -2.854   0.838   0.586  1.00  0.00     0.148 C 
BRANCH  27  28
HETATM   28  O1  UNL     1      -2.182   2.080   0.354  1.00  0.00    -0.394 OA
ATOM     29  H1  UNL     1      -2.775   2.696   0.767  1.00  0.00     0.210 HD
ENDBRANCH  27  28
BRANCH  27  30
HETATM   30  C11 UNL     1      -4.064   0.832  -0.284  1.00  0.00     0.024 C 
HETATM   31  C12 UNL     1      -4.668  -0.552  -0.393  1.00  0.00     0.044 C 
HETATM   32  C13 UNL     1      -6.059  -0.308  -0.955  1.00  0.00     0.171 C 
HETATM   33  F1  UNL     1      -6.995  -1.189  -0.473  1.00  0.00    -0.249 F 
HETATM   34  C14 UNL     1      -6.404   1.139  -0.657  1.00  0.00     0.043 C 
HETATM   35  C15 UNL     1      -5.171   1.756   0.013  1.00  0.00     0.005 C 
BRANCH  35  36
HETATM   36  C16 UNL     1      -5.512   2.025   1.432  1.00  0.00     0.090 C 
HETATM   37 BR1  UNL     1      -6.043   0.461   2.434  1.00  0.00    -0.096 Br
ENDBRANCH  35  36
ENDBRANCH  27  30
ENDBRANCH  26  27
ENDBRANCH  23  26
ENDBRANCH   1  23
TORSDOF 12
