REMARK  7 active torsions:
REMARK  status: ('A' for Active; 'I' for Inactive)
REMARK    1  A    between atoms: N1_4  and  C4_5 
REMARK    2  A    between atoms: C4_5  and  C5_6 
REMARK    3  A    between atoms: C5_6  and  N2_7 
REMARK    4  A    between atoms: N2_7  and  C6_10 
REMARK    5  A    between atoms: C6_10  and  C7_11 
REMARK    6  A    between atoms: C7_11  and  N3_12 
REMARK    7  A    between atoms: N3_12  and  C8_15 
ROOT
HETATM    1  N3  UNL     1       1.357  -0.397  -1.028  1.00  0.00    -0.067 N 
ATOM      2  H31 UNL     1       1.237  -1.164  -1.690  1.00  0.00     0.277 HD
ATOM      3  H32 UNL     1       1.072  -0.865  -0.168  1.00  0.00     0.277 HD
ENDROOT
BRANCH   1   4
HETATM    4  C7  UNL     1       0.464   0.672  -1.334  1.00  0.00     0.260 C 
BRANCH   4   5
HETATM    5  C6  UNL     1      -0.949   0.126  -1.425  1.00  0.00     0.259 C 
BRANCH   5   6
HETATM    6  N2  UNL     1      -1.308  -0.440  -0.164  1.00  0.00    -0.072 N 
ATOM      7  H22 UNL     1      -1.256   0.259   0.577  1.00  0.00     0.277 HD
ATOM      8  H21 UNL     1      -0.589  -1.085   0.164  1.00  0.00     0.277 HD
BRANCH   6   9
HETATM    9  C5  UNL     1      -2.619  -1.085  -0.183  1.00  0.00     0.262 C 
BRANCH   9  10
HETATM   10  C4  UNL     1      -3.699  -0.072  -0.388  1.00  0.00     0.299 C 
BRANCH  10  11
HETATM   11  N1  UNL     1      -4.983  -0.747  -0.414  1.00  0.00     0.090 N 
HETATM   12  C3  UNL     1      -6.027   0.167  -0.873  1.00  0.00     0.272 C 
HETATM   13  C2  UNL     1      -6.281   1.098   0.268  1.00  0.00     0.032 C 
HETATM   14  C1  UNL     1      -6.108   0.156   1.451  1.00  0.00     0.032 C 
HETATM   15  C17 UNL     1      -5.359  -1.056   0.944  1.00  0.00     0.272 C 
ENDBRANCH  10  11
ENDBRANCH   9  10
ENDBRANCH   6   9
ENDBRANCH   5   6
ENDBRANCH   4   5
ENDBRANCH   1   4
BRANCH   1  16
HETATM   16  C8  UNL     1       2.726  -0.009  -0.956  1.00  0.00     0.218 C 
HETATM   17  C9  UNL     1       3.087   0.965   0.114  1.00  0.00     0.021 C 
HETATM   18  C10 UNL     1       4.463   1.522  -0.291  1.00  0.00     0.011 C 
HETATM   19  C14 UNL     1       3.213   0.302   1.473  1.00  0.00     0.038 C 
HETATM   20  C11 UNL     1       5.432   0.362  -0.358  1.00  0.00    -0.009 C 
HETATM   21  C12 UNL     1       5.580  -0.306   1.005  1.00  0.00     0.036 C 
HETATM   22  C16 UNL     1       5.014  -0.717  -1.324  1.00  0.00     0.039 C 
HETATM   23  C13 UNL     1       4.215  -0.833   1.375  1.00  0.00     0.122 C 
HETATM   24  O1  UNL     1       3.743  -1.709   0.430  1.00  0.00    -0.378 OA
HETATM   25  C15 UNL     1       3.643  -1.211  -0.844  1.00  0.00     0.153 C 
ENDBRANCH   1  16
TORSDOF 7
