REMARK  3 active torsions:
REMARK  status: ('A' for Active; 'I' for Inactive)
REMARK    1  A    between atoms: O1_1  and  C1_3 
REMARK    2  A    between atoms: C1_3  and  C2_4 
REMARK    3  A    between atoms: C2_4  and  C3_5 
ROOT
HETATM    1  C3  UNL     1       1.518  -0.029  -0.067  1.00  0.00    -0.013 C 
HETATM    2  C4  UNL     1       1.331  -1.498  -0.208  1.00  0.00     0.005 C 
HETATM    3  C5  UNL     1       0.468  -1.937  -1.334  1.00  0.00     0.000 C 
HETATM    4  C6  UNL     1      -0.966  -2.139  -1.005  1.00  0.00     0.000 C 
HETATM    5  C7  UNL     1      -1.380  -1.828   0.377  1.00  0.00     0.000 C 
HETATM    6  C8  UNL     1      -2.861  -1.422   0.361  1.00  0.00     0.000 C 
HETATM    7  C9  UNL     1      -3.082  -0.123   1.092  1.00  0.00     0.000 C 
HETATM    8  C10 UNL     1      -2.877   1.087   0.220  1.00  0.00     0.000 C 
HETATM    9  C11 UNL     1      -1.706   1.936   0.661  1.00  0.00     0.000 C 
HETATM   10  C12 UNL     1      -0.944   2.511  -0.515  1.00  0.00     0.000 C 
HETATM   11  C13 UNL     1       0.531   2.173  -0.448  1.00  0.00     0.000 C 
HETATM   12  C14 UNL     1       0.816   0.807  -1.076  1.00  0.00     0.005 C 
ENDROOT
BRANCH   1  13
HETATM   13  C2  UNL     1       2.990   0.385  -0.071  1.00  0.00     0.030 C 
BRANCH  13  14
HETATM   14  C1  UNL     1       3.728  -0.256   1.054  1.00  0.00     0.164 C 
BRANCH  14  15
HETATM   15  O1  UNL     1       5.051   0.135   1.024  1.00  0.00    -0.401 OA
ATOM     16  H1  UNL     1       5.521  -0.274   1.741  1.00  0.00     0.209 HD
ENDBRANCH  14  15
ENDBRANCH  13  14
ENDBRANCH   1  13
TORSDOF 3
