REMARK  12 active torsions:
REMARK  status: ('A' for Active; 'I' for Inactive)
REMARK    1  A    between atoms: C16_21  and  O2_22 
REMARK    2  A    between atoms: C18_24  and  O3_25 
REMARK    3  A    between atoms: O3_25  and  C19_26 
REMARK    4  A    between atoms: C19_26  and  C20_27 
REMARK    5  A    between atoms: C20_27  and  O4_28 
REMARK    6  A    between atoms: C20_27  and  C21_30 
REMARK    7  A    between atoms: C21_30  and  N3_31 
REMARK    8  A    between atoms: N3_31  and  C22_33 
REMARK    9  A    between atoms: C22_33  and  C23_34 
REMARK   10  A    between atoms: C23_34  and  N4_35 
REMARK   11  A    between atoms: N4_35  and  C24_36 
REMARK   12  A    between atoms: N4_35  and  C26_38 
ROOT
HETATM    1  C1  UNL     1     -10.976  -1.605   2.437  1.00  0.00     0.018 C 
HETATM    2  C2  UNL     1      -9.945  -1.247   1.892  1.00  0.00    -0.076 C 
HETATM    3  C3  UNL     1      -8.715  -0.816   1.277  1.00  0.00     0.041 A 
HETATM    4  C4  UNL     1      -7.501  -0.896   1.927  1.00  0.00     0.054 A 
HETATM    5  C5  UNL     1      -6.315  -0.473   1.320  1.00  0.00     0.064 A 
HETATM    6  N1  UNL     1      -5.128  -0.581   1.935  1.00  0.00    -0.321 N 
ATOM      7  H1  UNL     1      -5.101  -0.958   2.882  1.00  0.00     0.169 HD
HETATM    8  C6  UNL     1      -3.952  -0.207   1.345  1.00  0.00     0.257 A 
HETATM    9  O1  UNL     1      -2.905  -0.339   1.986  1.00  0.00    -0.267 OA
HETATM   10  C7  UNL     1      -4.010   0.295   0.068  1.00  0.00     0.051 A 
HETATM   11  C8  UNL     1      -5.235   0.423  -0.592  1.00  0.00    -0.012 A 
HETATM   12  C9  UNL     1      -6.417   0.030   0.043  1.00  0.00     0.067 A 
HETATM   13  N2  UNL     1      -7.602   0.106  -0.586  1.00  0.00    -0.356 N 
ATOM     14  H2  UNL     1      -7.636   0.484  -1.533  1.00  0.00     0.166 HD
HETATM   15  C10 UNL     1      -8.766  -0.309   0.007  1.00  0.00     0.024 A 
HETATM   16  C11 UNL     1     -10.048  -0.217  -0.766  1.00  0.00     0.070 C 
HETATM   17  C12 UNL     1      -5.370   1.034  -1.920  1.00  0.00     0.047 C 
HETATM   18  C13 UNL     1      -4.164   1.164  -2.742  1.00  0.00     0.044 C 
HETATM   19  C14 UNL     1      -2.886   0.986  -2.031  1.00  0.00    -0.044 A 
HETATM   20  C15 UNL     1      -1.724   1.183  -2.768  1.00  0.00     0.047 A 
HETATM   21  C16 UNL     1      -0.498   1.007  -2.240  1.00  0.00     0.102 A 
HETATM   22  C18 UNL     1      -0.392   0.608  -0.883  1.00  0.00     0.103 A 
HETATM   23  C28 UNL     1      -1.556   0.409  -0.122  1.00  0.00     0.052 A 
HETATM   24  C29 UNL     1      -2.784   0.597  -0.702  1.00  0.00    -0.011 A 
ENDROOT
BRANCH  22  25
HETATM   25  O3  UNL     1       0.775   0.436  -0.397  1.00  0.00    -0.345 OA
BRANCH  25  26
HETATM   26  C19 UNL     1       1.971   0.257   0.108  1.00  0.00     0.213 C 
BRANCH  26  27
HETATM   27  C20 UNL     1       2.620   1.129   1.110  1.00  0.00     0.180 C 
BRANCH  27  28
HETATM   28  O4  UNL     1       1.747   1.185   2.248  1.00  0.00    -0.388 OA
ATOM     29  H4  UNL     1       2.164   1.745   2.892  1.00  0.00     0.210 HD
ENDBRANCH  27  28
BRANCH  27  30
HETATM   30  C21 UNL     1       3.958   0.695   1.620  1.00  0.00     0.094 C 
BRANCH  30  31
HETATM   31  N3  UNL     1       5.066   0.474   0.812  1.00  0.00    -0.375 N 
ATOM     32  H3  UNL     1       5.820   1.161   0.811  1.00  0.00     0.164 HD
BRANCH  31  33
HETATM   33  C22 UNL     1       5.184  -0.653   0.003  1.00  0.00     0.099 C 
BRANCH  33  34
HETATM   34  C23 UNL     1       6.463  -0.860  -0.756  1.00  0.00     0.076 C 
BRANCH  34  35
HETATM   35  N4  UNL     1       7.667  -1.000  -0.041  1.00  0.00    -0.292 NA
BRANCH  35  36
HETATM   36  C24 UNL     1       8.187   0.201   0.591  1.00  0.00     0.090 C 
HETATM   37  C25 UNL     1       8.600   1.130  -0.550  1.00  0.00     0.021 C 
ENDBRANCH  35  36
BRANCH  35  38
HETATM   38  C26 UNL     1       7.632  -2.102   0.925  1.00  0.00     0.090 C 
HETATM   39  C27 UNL     1       7.544  -3.384   0.172  1.00  0.00     0.021 C 
ENDBRANCH  35  38
ENDBRANCH  34  35
ENDBRANCH  33  34
ENDBRANCH  31  33
ENDBRANCH  30  31
ENDBRANCH  27  30
ENDBRANCH  26  27
ENDBRANCH  25  26
ENDBRANCH  22  25
BRANCH  21  40
HETATM   40  O2  UNL     1       0.716   1.192  -2.947  1.00  0.00    -0.353 OA
HETATM   41  C17 UNL     1       0.618   1.606  -4.282  1.00  0.00     0.210 C 
ENDBRANCH  21  40
TORSDOF 12
