REMARK  2 active torsions:
REMARK  status: ('A' for Active; 'I' for Inactive)
REMARK    1  A    between atoms: C4_5  and  O1_6 
REMARK    2  A    between atoms: C5_8  and  C6_9 
ROOT
HETATM    1  C6  UNL     1       1.687   0.147   0.641  1.00  0.00     0.162 C 
HETATM    2  C7  UNL     1       2.673  -0.918   0.426  1.00  0.00     0.061 C 
HETATM    3  N2  UNL     1       3.448  -1.764   0.255  1.00  0.00    -0.197 NA
ENDROOT
BRANCH   1   4
HETATM    4  C5  UNL     1       0.667   0.146  -0.437  1.00  0.00     0.264 C 
HETATM    5  N1  UNL     1      -0.355   1.082  -0.412  1.00  0.00     0.092 N 
HETATM    6  C1  UNL     1      -0.444   2.041   0.603  1.00  0.00     0.310 C 
HETATM    7  C2  UNL     1      -1.608   0.385  -0.566  1.00  0.00     0.275 C 
HETATM    8  C3  UNL     1      -1.317  -0.904   0.184  1.00  0.00     0.064 C 
HETATM    9  C4  UNL     1       0.024  -1.249  -0.447  1.00  0.00     0.154 C 
BRANCH   9  10
HETATM   10  O1  UNL     1      -0.202  -1.663  -1.737  1.00  0.00    -0.393 OA
ATOM     11  H1  UNL     1       0.635  -1.878  -2.131  1.00  0.00     0.210 HD
ENDBRANCH   9  10
ENDBRANCH   1   4
TORSDOF 2
