REMARK  2 active torsions:
REMARK  status: ('A' for Active; 'I' for Inactive)
REMARK    1  A    between atoms: N1_2  and  O1_3 
REMARK    2  A    between atoms: N1_2  and  N2_5 
ROOT
HETATM    1  N2  UNL     1      -0.683  -0.088   0.547  1.00  0.00    -0.166 NA
HETATM    2  C2  UNL     1       0.283   1.021   0.555  1.00  0.00     0.124 C 
HETATM    3  C3  UNL     1       1.635   0.529   0.918  1.00  0.00     0.018 C 
HETATM    4  C4  UNL     1       2.362  -0.224  -0.115  1.00  0.00     0.013 C 
HETATM    5  C5  UNL     1       1.602  -1.201  -0.920  1.00  0.00     0.093 C 
HETATM    6  S1  UNL     1      -0.174  -1.058  -0.861  1.00  0.00    -0.065 SA
ENDROOT
BRANCH   1   7
HETATM    7  N1  UNL     1      -1.940   0.469   0.309  1.00  0.00    -0.122 NA
HETATM    8  C1  UNL     1      -3.004  -0.484   0.402  1.00  0.00     0.165 C 
BRANCH   7   9
HETATM    9  O1  UNL     1      -1.944   0.957  -0.963  1.00  0.00    -0.298 OA
ATOM     10  H1  UNL     1      -1.238   1.589  -1.025  1.00  0.00     0.238 HD
ENDBRANCH   7   9
ENDBRANCH   1   7
TORSDOF 2
