REMARK  2 active torsions:
REMARK  status: ('A' for Active; 'I' for Inactive)
REMARK    1  A    between atoms: C2_2  and  C3_3 
REMARK    2  A    between atoms: C3_3  and  O1_4 
ROOT
HETATM    1  C3  UNL     1      -0.876  -0.050  -0.531  1.00  0.00     0.088 C 
HETATM    2  C4  UNL     1       0.161   0.824  -1.203  1.00  0.00     0.103 C 
HETATM    3  C5  UNL     1       1.434   0.473  -0.509  1.00  0.00     0.361 C 
HETATM    4  O2  UNL     1       1.703   1.237   0.611  1.00  0.00    -0.355 OA
HETATM    5  C6  UNL     1       2.700   0.469   1.237  1.00  0.00     0.201 C 
HETATM    6  C7  UNL     1       2.129  -0.913   1.130  1.00  0.00     0.302 C 
HETATM    7  N1  UNL     1       1.293  -0.897  -0.063  1.00  0.00     0.122 N 
HETATM    8  C8  UNL     1      -0.106  -1.063   0.268  1.00  0.00     0.313 C 
ENDROOT
BRANCH   1   9
HETATM    9  C2  UNL     1      -1.758   0.755   0.400  1.00  0.00     0.035 C 
HETATM   10  C1  UNL     1      -2.763  -0.201   1.004  1.00  0.00     0.008 C 
ENDBRANCH   1   9
BRANCH   1  11
HETATM   11  O1  UNL     1      -1.679  -0.616  -1.511  1.00  0.00    -0.388 OA
ATOM     12  H1  UNL     1      -1.126  -1.121  -2.095  1.00  0.00     0.210 HD
ENDBRANCH   1  11
TORSDOF 2
