REMARK  7 active torsions:
REMARK  status: ('A' for Active; 'I' for Inactive)
REMARK    1  A    between atoms: N2_6  and  C4_8 
REMARK    2  A    between atoms: C4_8  and  C5_9 
REMARK    3  A    between atoms: C5_9  and  O1_10 
REMARK    4  A    between atoms: C8_16  and  C9_17 
REMARK    5  A    between atoms: C9_17  and  C10_18 
REMARK    6  A    between atoms: C14_23  and  O3_24 
REMARK    7  A    between atoms: O3_24  and  C15_25 
ROOT
HETATM    1  C1  UNL     1       0.489  -1.528   0.309  1.00  0.00     0.045 C 
HETATM    2  C2  UNL     1      -0.327  -0.531   0.128  1.00  0.00     0.051 A 
HETATM    3  N1  UNL     1      -1.494  -0.754  -0.557  1.00  0.00    -0.337 N 
ATOM      4  H1  UNL     1      -1.672  -1.699  -0.897  1.00  0.00     0.167 HD
HETATM    5  C3  UNL     1      -2.413   0.180  -0.809  1.00  0.00     0.171 A 
HETATM    6  N2  UNL     1      -3.456  -0.137  -1.451  1.00  0.00    -0.370 N 
ATOM      7  H2  UNL     1      -3.522  -1.113  -1.739  1.00  0.00     0.161 HD
HETATM    8  C7  UNL     1      -2.184   1.448  -0.357  1.00  0.00     0.289 A 
HETATM    9  O2  UNL     1      -3.015   2.402  -0.556  1.00  0.00    -0.264 OA
HETATM   10  N3  UNL     1      -1.061   1.689   0.309  1.00  0.00    -0.318 N 
ATOM     11  H3  UNL     1      -0.901   2.640   0.641  1.00  0.00     0.169 HD
HETATM   12  C8  UNL     1      -0.085   0.734   0.587  1.00  0.00     0.062 A 
ENDROOT
BRANCH  12  13
HETATM   13  C9  UNL     1       0.927   1.156   1.239  1.00  0.00     0.043 C 
BRANCH  13  14
HETATM   14  C10 UNL     1       2.141   0.579   1.743  1.00  0.00    -0.030 A 
HETATM   15  C11 UNL     1       2.216   0.055   3.042  1.00  0.00     0.030 A 
HETATM   16  C12 UNL     1       3.405  -0.432   3.532  1.00  0.00     0.014 A 
HETATM   17 BR1  UNL     1       3.437  -1.132   5.310  1.00  0.00    -0.051 Br
HETATM   18  C13 UNL     1       4.537  -0.417   2.768  1.00  0.00     0.055 A 
HETATM   19  C14 UNL     1       4.524   0.096   1.457  1.00  0.00     0.070 A 
HETATM   20  C17 UNL     1       3.336   0.567   1.009  1.00  0.00     0.048 A 
BRANCH  19  21
HETATM   21  O3  UNL     1       5.711   0.077   0.751  1.00  0.00    -0.351 OA
BRANCH  21  22
HETATM   22  C15 UNL     1       5.824   0.542  -0.559  1.00  0.00     0.171 C 
HETATM   23  C16 UNL     1       4.937  -0.283  -1.461  1.00  0.00     0.034 C 
ENDBRANCH  21  22
ENDBRANCH  19  21
ENDBRANCH  13  14
ENDBRANCH  12  13
BRANCH   6  24
HETATM   24  C4  UNL     1      -4.544   0.692  -1.821  1.00  0.00     0.147 C 
BRANCH  24  25
HETATM   25  C5  UNL     1      -5.511  -0.168  -2.645  1.00  0.00     0.186 C 
BRANCH  25  26
HETATM   26  O1  UNL     1      -5.987  -1.257  -1.929  1.00  0.00    -0.394 OA
HETATM   27  C6  UNL     1      -6.679  -0.921  -0.783  1.00  0.00     0.201 C 
ENDBRANCH  25  26
ENDBRANCH  24  25
ENDBRANCH   6  24
TORSDOF 7
