REMARK  7 active torsions:
REMARK  status: ('A' for Active; 'I' for Inactive)
REMARK    1  A    between atoms: C2_2  and  C3_4 
REMARK    2  A    between atoms: C4_5  and  C5_6 
REMARK    3  A    between atoms: C5_6  and  C6_7 
REMARK    4  A    between atoms: C12_13  and  O2_14 
REMARK    5  A    between atoms: C12_13  and  C13_16 
REMARK    6  A    between atoms: C13_16  and  C14_17 
REMARK    7  A    between atoms: C14_17  and  C15_18 
ROOT
HETATM    1  C5  UNL     1       0.701  -0.481   0.101  1.00  0.00     0.095 C 
HETATM    2  C10 UNL     1      -0.314  -0.498   1.262  1.00  0.00     0.047 C 
HETATM    3  C11 UNL     1      -1.578   0.246   0.945  1.00  0.00     0.052 C 
HETATM    4  C12 UNL     1      -2.349  -0.574  -0.081  1.00  0.00     0.146 C 
HETATM    5  C16 UNL     1      -1.407  -0.854  -1.171  1.00  0.00     0.294 C 
HETATM    6  O5  UNL     1      -1.875  -0.838  -2.357  1.00  0.00    -0.262 OA
HETATM    7  O6  UNL     1      -0.089  -1.124  -0.959  1.00  0.00    -0.303 OA
ENDROOT
BRANCH   1   8
HETATM    8  C4  UNL     1       0.995   0.840  -0.388  1.00  0.00     0.016 C 
HETATM    9  C3  UNL     1       1.696   1.964   0.182  1.00  0.00     0.048 C 
BRANCH   9  10
HETATM   10  C2  UNL     1       3.123   1.920   0.513  1.00  0.00     0.145 C 
HETATM   11  C1  UNL     1       4.199   1.674  -0.490  1.00  0.00     0.096 C 
HETATM   12  O1  UNL     1       3.579   2.087   1.663  1.00  0.00    -0.294 OA
ENDBRANCH   9  10
ENDBRANCH   1   8
BRANCH   1  13
HETATM   13  C6  UNL     1       1.711  -1.507   0.442  1.00  0.00    -0.016 C 
HETATM   14  C7  UNL     1       2.690  -1.267   1.526  1.00  0.00     0.018 C 
HETATM   15  C8  UNL     1       0.996  -2.842   0.821  1.00  0.00     0.018 C 
HETATM   16  C9  UNL     1       2.550  -1.923  -0.776  1.00  0.00     0.018 C 
ENDBRANCH   1  13
BRANCH   4  17
HETATM   17  O2  UNL     1      -2.673  -1.799   0.566  1.00  0.00    -0.380 OA
ATOM     18  H2  UNL     1      -3.154  -2.310  -0.074  1.00  0.00     0.211 HD
ENDBRANCH   4  17
BRANCH   4  19
HETATM   19  C13 UNL     1      -3.637   0.059  -0.477  1.00  0.00     0.059 C 
BRANCH  19  20
HETATM   20  C14 UNL     1      -3.499   1.440  -1.074  1.00  0.00     0.116 C 
BRANCH  20  21
HETATM   21  C15 UNL     1      -4.805   2.010  -1.449  1.00  0.00     0.172 C 
HETATM   22  O3  UNL     1      -5.574   1.379  -2.211  1.00  0.00    -0.648 OA
HETATM   23  O4  UNL     1      -5.222   3.253  -0.971  1.00  0.00    -0.648 OA
ENDBRANCH  20  21
ENDBRANCH  19  20
ENDBRANCH   4  19
TORSDOF 7
