REMARK  9 active torsions:
REMARK  status: ('A' for Active; 'I' for Inactive)
REMARK    1  A    between atoms: C2_2  and  S1_3 
REMARK    2  A    between atoms: C2_2  and  C13_17 
REMARK    3  A    between atoms: S1_3  and  C3_4 
REMARK    4  A    between atoms: C3_4  and  C4_5 
REMARK    5  A    between atoms: C4_5  and  S2_6 
REMARK    6  A    between atoms: S2_6  and  C5_9 
REMARK    7  A    between atoms: C5_9  and  C6_10 
REMARK    8  A    between atoms: C13_17  and  O3_18 
REMARK    9  A    between atoms: N1_20  and  O4_22 
ROOT
HETATM    1  C4  UNL     1       1.212  -0.583  -0.045  1.00  0.00     0.150 C 
ENDROOT
BRANCH   1   2
HETATM    2  C3  UNL     1       2.161  -1.696   0.245  1.00  0.00     0.089 C 
BRANCH   2   3
HETATM    3  S1  UNL     1       3.768  -1.373  -0.453  1.00  0.00    -0.155 SA
BRANCH   3   4
HETATM    4  C2  UNL     1       4.625  -0.051   0.412  1.00  0.00     0.119 C 
HETATM    5  C1  UNL     1       3.993   1.287   0.272  1.00  0.00     0.030 C 
BRANCH   4   6
HETATM    6  C13 UNL     1       6.043  -0.111  -0.040  1.00  0.00     0.149 C 
HETATM    7  N1  UNL     1       6.641   0.712  -0.752  1.00  0.00    -0.250 N 
ATOM      8  H1  UNL     1       7.614   0.465  -0.934  1.00  0.00     0.196 HD
BRANCH   6   9
HETATM    9  O3  UNL     1       6.745  -1.254   0.414  1.00  0.00    -0.347 OA
ATOM     10  H3  UNL     1       7.649  -1.292   0.126  1.00  0.00     0.219 HD
ENDBRANCH   6   9
BRANCH   7  11
HETATM   11  O4  UNL     1       6.264   1.854  -1.325  1.00  0.00    -0.288 OA
ATOM     12  H4  UNL     1       6.722   2.484  -1.870  1.00  0.00     0.244 HD
ENDBRANCH   7  11
ENDBRANCH   4   6
ENDBRANCH   3   4
ENDBRANCH   2   3
ENDBRANCH   1   2
BRANCH   1  13
HETATM   13  S2  UNL     1      -0.360  -1.052   0.706  1.00  0.00     0.145 S 
HETATM   14  O1  UNL     1      -0.108  -1.144   2.177  1.00  0.00    -0.228 OA
HETATM   15  O2  UNL     1      -0.870  -2.332   0.133  1.00  0.00    -0.228 OA
BRANCH  13  16
HETATM   16  C5  UNL     1      -1.499   0.275   0.362  1.00  0.00     0.145 C 
BRANCH  16  17
HETATM   17  C6  UNL     1      -2.812  -0.063   0.960  1.00  0.00     0.007 C 
HETATM   18  C7  UNL     1      -3.931   0.926   0.793  1.00  0.00    -0.009 C 
HETATM   19  C8  UNL     1      -3.976   1.558  -0.564  1.00  0.00     0.005 C 
HETATM   20  C12 UNL     1      -4.879  -0.282   0.768  1.00  0.00     0.010 C 
HETATM   21  C9  UNL     1      -4.154   0.547  -1.666  1.00  0.00     0.001 C 
HETATM   22  C10 UNL     1      -3.688  -0.828  -1.273  1.00  0.00     0.005 C 
HETATM   23  C11 UNL     1      -3.671  -1.053   0.210  1.00  0.00    -0.009 C 
ENDBRANCH  16  17
ENDBRANCH  13  16
ENDBRANCH   1  13
TORSDOF 9
