REMARK  8 active torsions:
REMARK  status: ('A' for Active; 'I' for Inactive)
REMARK    1  A    between atoms: C3_3  and  C6_6 
REMARK    2  A    between atoms: C6_6  and  N1_7 
REMARK    3  A    between atoms: C6_6  and  C10_14 
REMARK    4  A    between atoms: N1_7  and  C7_9 
REMARK    5  A    between atoms: C7_9  and  C9_11 
REMARK    6  A    between atoms: C9_11  and  O1_12 
REMARK    7  A    between atoms: N2_18  and  S1_19 
REMARK    8  A    between atoms: S1_19  and  C14_22 
ROOT
HETATM    1  C1  UNL     1       2.232  -3.037  -1.617  1.00  0.00     0.013 C 
HETATM    2  C2  UNL     1       1.931  -1.860  -1.680  1.00  0.00    -0.106 C 
HETATM    3  C3  UNL     1       1.594  -0.418  -1.756  1.00  0.00     0.037 C 
HETATM    4  C4  UNL     1       0.729  -0.287  -2.985  1.00  0.00     0.031 C 
HETATM    5  C5  UNL     1       2.858   0.323  -2.089  1.00  0.00     0.031 C 
ENDROOT
BRANCH   3   6
HETATM    6  C6  UNL     1       1.006   0.097  -0.486  1.00  0.00     0.120 C 
BRANCH   6   7
HETATM    7  N1  UNL     1       1.912  -0.123   0.562  1.00  0.00    -0.387 N 
ATOM      8  H1  UNL     1       2.386  -1.026   0.594  1.00  0.00     0.159 HD
BRANCH   7   9
HETATM    9  C7  UNL     1       2.211   0.789   1.553  1.00  0.00     0.002 C 
HETATM   10  C8  UNL     1       1.079   1.211   2.483  1.00  0.00     0.065 C 
BRANCH   9  11
HETATM   11  C9  UNL     1       3.012   2.007   1.270  1.00  0.00     0.215 C 
BRANCH  11  12
HETATM   12  O1  UNL     1       4.307   1.776   0.814  1.00  0.00    -0.395 OA
ATOM     13  H1  UNL     1       4.819   2.555   0.633  1.00  0.00     0.209 HD
ENDBRANCH  11  12
ENDBRANCH   9  11
ENDBRANCH   7   9
ENDBRANCH   6   7
BRANCH   6  14
HETATM   14  C10 UNL     1      -0.370  -0.285  -0.154  1.00  0.00     0.103 C 
HETATM   15  C11 UNL     1      -0.718  -1.707  -0.000  1.00  0.00     0.020 A 
HETATM   16  C12 UNL     1      -2.195  -1.341   0.466  1.00  0.00     0.014 A 
HETATM   17  C16 UNL     1      -1.494  -2.482   0.888  1.00  0.00    -0.037 A 
HETATM   18  C13 UNL     1      -2.550  -0.743  -0.844  1.00  0.00     0.113 C 
HETATM   19  N2  UNL     1      -1.398   0.115  -1.104  1.00  0.00    -0.203 NA
HETATM   20  C17 UNL     1      -2.092  -3.830   0.457  1.00  0.00     0.015 C 
HETATM   21  C18 UNL     1      -0.977  -2.579   2.330  1.00  0.00     0.015 C 
BRANCH  19  22
HETATM   22  S1  UNL     1      -1.837   1.729  -1.118  1.00  0.00     0.211 S 
HETATM   23  O2  UNL     1      -0.765   2.686  -1.546  1.00  0.00    -0.211 OA
HETATM   24  O3  UNL     1      -2.940   1.886  -2.169  1.00  0.00    -0.211 OA
BRANCH  22  25
HETATM   25  C14 UNL     1      -2.524   2.378   0.376  1.00  0.00     0.153 C 
HETATM   26  C15 UNL     1      -2.828   3.843   0.122  1.00  0.00     0.022 C 
ENDBRANCH  22  25
ENDBRANCH  19  22
ENDBRANCH   6  14
ENDBRANCH   3   6
TORSDOF 8
