REMARK  3 active torsions:
REMARK  status: ('A' for Active; 'I' for Inactive)
REMARK    1  A    between atoms: C4_4  and  N1_5 
REMARK       I    between atoms: N2_9  and  C8_10 
REMARK       I    between atoms: C8_10  and  N4_14 
REMARK    2  A    between atoms: N4_14  and  C9_16 
REMARK    3  A    between atoms: C12_19  and  N5_20 
ROOT
HETATM    1  N1  UNL     1       1.052  -0.803  -0.657  1.00  0.00    -0.271 N 
HETATM    2  C5  UNL     1       1.112  -1.852  -1.686  1.00  0.00     0.152 C 
HETATM    3  C6  UNL     1       0.794  -3.053  -0.762  1.00  0.00     0.044 C 
HETATM    4  C7  UNL     1      -0.404  -2.521   0.026  1.00  0.00     0.170 C 
HETATM    5  N2  UNL     1      -0.109  -1.099   0.100  1.00  0.00    -0.122 N 
HETATM    6  C8  UNL     1      -0.864  -0.155   0.818  1.00  0.00     0.689 C 
HETATM    7  N3  UNL     1      -0.611   0.114   2.046  1.00  0.00    -0.233 N 
ATOM      8  H31 UNL     1      -1.159   0.799   2.567  1.00  0.00     0.174 HD
ATOM      9  H32 UNL     1       0.160  -0.372   2.505  1.00  0.00     0.174 HD
HETATM   10  N4  UNL     1      -1.934   0.520   0.181  1.00  0.00    -0.221 N 
ATOM     11  H4  UNL     1      -1.765   0.907  -0.747  1.00  0.00     0.178 HD
ENDROOT
BRANCH   1  12
HETATM   12  C4  UNL     1       1.935   0.259  -0.431  1.00  0.00     0.111 A 
HETATM   13  C3  UNL     1       2.759   0.404   0.693  1.00  0.00     0.068 A 
HETATM   14  C2  UNL     1       3.476   1.546   0.536  1.00  0.00     0.054 A 
HETATM   15  C1  UNL     1       4.496   2.120   1.486  1.00  0.00     0.077 C 
HETATM   16  O3  UNL     1       3.129   2.078  -0.599  1.00  0.00    -0.292 OA
HETATM   17  C12 UNL     1       2.200   1.337  -1.220  1.00  0.00     0.243 A 
BRANCH  17  18
HETATM   18  N5  UNL     1       1.656   1.711  -2.481  1.00  0.00    -0.088 N 
HETATM   19  O1  UNL     1       2.038   2.746  -3.056  1.00  0.00    -0.530 OA
HETATM   20  O2  UNL     1       0.706   0.973  -3.116  1.00  0.00    -0.530 OA
ENDBRANCH  17  18
ENDBRANCH   1  12
BRANCH  10  21
HETATM   21  C9  UNL     1      -3.233   0.696   0.748  1.00  0.00     0.091 C 
HETATM   22  C10 UNL     1      -3.922  -0.616   1.053  1.00  0.00     0.032 C 
HETATM   23  C11 UNL     1      -4.105   1.458  -0.209  1.00  0.00     0.032 C 
ENDBRANCH  10  21
TORSDOF 3
