REMARK  15 active torsions:
REMARK  status: ('A' for Active; 'I' for Inactive)
REMARK    1  A    between atoms: O1_2  and  C2_3 
REMARK    2  A    between atoms: C2_3  and  C3_5 
REMARK    3  A    between atoms: C3_5  and  C4_6 
REMARK    4  A    between atoms: C3_5  and  C20_33 
REMARK    5  A    between atoms: C5_7  and  C6_8 
REMARK    6  A    between atoms: C10_14  and  O5_15 
REMARK    7  A    between atoms: C17_26  and  O8_27 
REMARK    8  A    between atoms: C18_29  and  O9_31 
REMARK    9  A    between atoms: C20_33  and  O10_34 
REMARK   10  A    between atoms: C20_33  and  O11_36 
REMARK   11  A    between atoms: C20_33  and  C21_38 
REMARK   12  A    between atoms: C21_38  and  C22_40 
REMARK   13  A    between atoms: C23_41  and  C24_42 
REMARK   14  A    between atoms: C24_42  and  C25_43 
REMARK   15  A    between atoms: C25_43  and  C26_44 
ROOT
HETATM    1  C6  UNL     1       2.079  -1.146   0.131  1.00  0.00     0.184 C 
HETATM    2  O3  UNL     1       3.343  -1.865   0.332  1.00  0.00    -0.334 OA
HETATM    3  C7  UNL     1       4.330  -1.074  -0.120  1.00  0.00     0.270 C 
HETATM    4  O4  UNL     1       5.607  -1.692  -0.283  1.00  0.00    -0.303 OA
HETATM    5  C8  UNL     1       6.623  -0.744  -0.553  1.00  0.00     0.084 A 
HETATM    6  C9  UNL     1       7.874  -1.160  -1.000  1.00  0.00     0.075 A 
HETATM    7  C10 UNL     1       8.887  -0.262  -1.273  1.00  0.00     0.085 A 
HETATM    8  C11 UNL     1       8.644   1.085  -1.095  1.00  0.00     0.044 A 
HETATM    9 BR1  UNL     1       9.999   2.386  -1.454  1.00  0.00    -0.048 Br
HETATM   10  C12 UNL     1       7.415   1.549  -0.653  1.00  0.00     0.034 A 
HETATM   11  C13 UNL     1       6.443   0.612  -0.396  1.00  0.00     0.007 A 
HETATM   12  C14 UNL     1       5.100   1.107   0.098  1.00  0.00     0.180 C 
HETATM   13  O6  UNL     1       4.261   1.042  -1.072  1.00  0.00    -0.306 OA
HETATM   14  C15 UNL     1       4.112  -0.318  -1.363  1.00  0.00     0.324 C 
HETATM   15  O7  UNL     1       3.843  -0.828  -2.477  1.00  0.00    -0.259 OA
HETATM   16  C16 UNL     1       4.583   0.003   0.937  1.00  0.00     0.125 C 
HETATM   17  C17 UNL     1       3.420   0.218   1.802  1.00  0.00     0.167 C 
HETATM   18  C18 UNL     1       2.052  -0.074   1.161  1.00  0.00     0.110 C 
HETATM   19  C19 UNL     1       1.603   1.286   0.650  1.00  0.00     0.051 C 
ENDROOT
BRANCH   1  20
HETATM   20  C5  UNL     1       1.111  -2.257   0.172  1.00  0.00     0.005 C 
HETATM   21  C4  UNL     1      -0.291  -2.326  -0.068  1.00  0.00    -0.008 C 
BRANCH  21  22
HETATM   22  C3  UNL     1      -1.455  -1.685   0.510  1.00  0.00     0.178 C 
BRANCH  22  23
HETATM   23  C2  UNL     1      -1.680  -0.256   0.410  1.00  0.00     0.272 C 
HETATM   24  O2  UNL     1      -1.879   0.444   1.429  1.00  0.00    -0.264 OA
BRANCH  23  25
HETATM   25  O1  UNL     1      -1.679   0.364  -0.828  1.00  0.00    -0.326 OA
HETATM   26  C1  UNL     1      -1.892   1.733  -0.990  1.00  0.00     0.213 C 
ENDBRANCH  23  25
ENDBRANCH  22  23
BRANCH  22  27
HETATM   27  C20 UNL     1      -2.767  -2.395   0.042  1.00  0.00     0.243 C 
BRANCH  27  28
HETATM   28  O10 UNL     1      -2.531  -3.784   0.137  1.00  0.00    -0.358 OA
ATOM     29  H10 UNL     1      -3.328  -4.215  -0.147  1.00  0.00     0.213 HD
ENDBRANCH  27  28
BRANCH  27  30
HETATM   30  O11 UNL     1      -3.017  -2.042  -1.260  1.00  0.00    -0.358 OA
ATOM     31  H11 UNL     1      -3.814  -2.473  -1.544  1.00  0.00     0.213 HD
ENDBRANCH  27  30
BRANCH  27  32
HETATM   32  C21 UNL     1      -3.873  -2.004   0.909  1.00  0.00     0.211 C 
HETATM   33  O12 UNL     1      -4.224  -2.827   1.819  1.00  0.00    -0.287 OA
BRANCH  32  34
HETATM   34  C22 UNL     1      -4.639  -0.755   0.847  1.00  0.00     0.052 C 
HETATM   35  C23 UNL     1      -5.607  -0.493   1.677  1.00  0.00    -0.023 C 
BRANCH  35  36
HETATM   36  C24 UNL     1      -6.413   0.713   1.678  1.00  0.00     0.027 C 
BRANCH  36  37
HETATM   37  C25 UNL     1      -6.194   1.694   0.593  1.00  0.00     0.007 C 
BRANCH  37  38
HETATM   38  C26 UNL     1      -6.581   1.246  -0.784  1.00  0.00    -0.023 C 
HETATM   39  C27 UNL     1      -8.075   0.917  -0.816  1.00  0.00     0.009 C 
HETATM   40  C28 UNL     1      -6.332   2.458  -1.700  1.00  0.00     0.009 C 
ENDBRANCH  37  38
ENDBRANCH  36  37
ENDBRANCH  35  36
ENDBRANCH  32  34
ENDBRANCH  27  32
ENDBRANCH  22  27
ENDBRANCH  21  22
ENDBRANCH   1  20
BRANCH  18  41
HETATM   41  O9  UNL     1       1.235  -0.455   2.216  1.00  0.00    -0.385 OA
ATOM     42  H9  UNL     1       1.218   0.230   2.874  1.00  0.00     0.210 HD
ENDBRANCH  18  41
BRANCH  17  43
HETATM   43  O8  UNL     1       3.427   1.471   2.391  1.00  0.00    -0.392 OA
ATOM     44  H8  UNL     1       2.673   1.610   2.952  1.00  0.00     0.210 HD
ENDBRANCH  17  43
BRANCH   7  45
HETATM   45  O5  UNL     1      10.145  -0.705  -1.723  1.00  0.00    -0.359 OA
ATOM     46  H5  UNL     1      10.842  -0.087  -1.911  1.00  0.00     0.217 HD
ENDBRANCH   7  45
TORSDOF 15
