REMARK  14 active torsions:
REMARK  status: ('A' for Active; 'I' for Inactive)
REMARK    1  A    between atoms: O1_2  and  C2_3 
REMARK    2  A    between atoms: C3_4  and  O2_5 
REMARK    3  A    between atoms: C4_7  and  O3_8 
REMARK    4  A    between atoms: O3_8  and  C5_9 
REMARK    5  A    between atoms: C7_11  and  O4_12 
REMARK    6  A    between atoms: O4_12  and  C8_13 
REMARK    7  A    between atoms: C20_25  and  O5_26 
REMARK    8  A    between atoms: C20_25  and  O6_28 
REMARK    9  A    between atoms: O6_28  and  C21_29 
REMARK   10  A    between atoms: C21_29  and  C22_30 
REMARK   11  A    between atoms: C23_33  and  C24_34 
REMARK   12  A    between atoms: C24_34  and  O8_35 
REMARK   13  A    between atoms: C24_34  and  O9_37 
REMARK   14  A    between atoms: C27_43  and  O11_45 
ROOT
HETATM    1  C24 UNL     1       1.121  -2.108   2.875  1.00  0.00     0.282 C 
HETATM    2  C25 UNL     1       1.249  -0.897   3.631  1.00  0.00     0.133 C 
HETATM    3  N1  UNL     1       1.332   0.076   4.229  1.00  0.00    -0.191 NA
ENDROOT
BRANCH   1   4
HETATM    4  C23 UNL     1       0.318  -2.056   1.631  1.00  0.00     0.034 C 
HETATM    5  C5  UNL     1       0.660  -1.005   0.629  1.00  0.00     0.163 C 
HETATM    6  C6  UNL     1      -0.321  -1.025  -0.536  1.00  0.00     0.070 C 
HETATM    7  C7  UNL     1      -1.442  -0.079  -0.339  1.00  0.00     0.139 C 
HETATM    8  C14 UNL     1      -2.241  -0.262   0.887  1.00  0.00     0.028 C 
HETATM    9  C15 UNL     1      -1.912   0.688   2.014  1.00  0.00     0.025 C 
HETATM   10  C16 UNL     1      -3.705   0.055   0.505  1.00  0.00     0.025 C 
HETATM   11  C17 UNL     1      -2.201  -1.616   1.443  1.00  0.00     0.070 C 
HETATM   12  C18 UNL     1      -1.126  -2.322   1.754  1.00  0.00    -0.009 C 
HETATM   13  O7  UNL     1      -3.356  -2.336   1.713  1.00  0.00    -0.293 OA
HETATM   14  C19 UNL     1      -1.610  -3.617   2.282  1.00  0.00     0.144 C 
HETATM   15  C20 UNL     1      -3.103  -3.694   1.924  1.00  0.00     0.288 C 
BRANCH   5  16
HETATM   16  O3  UNL     1       1.950  -1.057   0.158  1.00  0.00    -0.349 OA
BRANCH  16  17
HETATM   17  C4  UNL     1       2.699   0.077   0.266  1.00  0.00     0.291 C 
HETATM   18  C3  UNL     1       3.121   0.647  -1.077  1.00  0.00     0.205 C 
HETATM   19  C2  UNL     1       4.589   1.092  -1.071  1.00  0.00     0.190 C 
HETATM   20  C27 UNL     1       4.803   1.943   0.142  1.00  0.00     0.104 C 
HETATM   21  C26 UNL     1       4.168   1.346   1.381  1.00  0.00     0.211 C 
HETATM   22  C28 UNL     1       4.118   3.271  -0.115  1.00  0.00     0.051 C 
HETATM   23  O10 UNL     1       3.822   0.039   1.044  1.00  0.00    -0.355 OA
BRANCH  18  24
HETATM   24  O2  UNL     1       3.024  -0.424  -1.996  1.00  0.00    -0.388 OA
ATOM     25  H2  UNL     1       2.115  -0.700  -2.000  1.00  0.00     0.210 HD
ENDBRANCH  18  24
BRANCH  19  26
HETATM   26  O1  UNL     1       5.357  -0.013  -1.176  1.00  0.00    -0.385 OA
HETATM   27  C1  UNL     1       6.119  -0.163  -2.290  1.00  0.00     0.202 C 
ENDBRANCH  19  26
BRANCH  20  28
HETATM   28  O11 UNL     1       6.114   2.220   0.428  1.00  0.00    -0.385 OA
ATOM     29  H11 UNL     1       6.250   2.760   1.198  1.00  0.00     0.210 HD
ENDBRANCH  20  28
ENDBRANCH  16  17
ENDBRANCH   5  16
BRANCH   7  30
HETATM   30  O4  UNL     1      -1.136   1.239  -0.639  1.00  0.00    -0.379 OA
BRANCH  30  31
HETATM   31  C8  UNL     1      -1.724   1.787  -1.732  1.00  0.00     0.122 C 
HETATM   32  C9  UNL     1      -2.491   3.070  -1.442  1.00  0.00     0.032 C 
HETATM   33  C10 UNL     1      -2.770   3.789  -2.765  1.00  0.00     0.002 C 
HETATM   34  C11 UNL     1      -1.488   4.446  -3.248  1.00  0.00     0.000 C 
HETATM   35  C12 UNL     1      -0.343   3.666  -2.649  1.00  0.00     0.002 C 
HETATM   36  C13 UNL     1      -0.626   2.182  -2.707  1.00  0.00     0.032 C 
ENDBRANCH  30  31
ENDBRANCH   7  30
BRANCH  15  37
HETATM   37  O5  UNL     1      -3.810  -4.238   3.003  1.00  0.00    -0.343 OA
ATOM     38  H5  UNL     1      -4.733  -4.286   2.782  1.00  0.00     0.215 HD
ENDBRANCH  15  37
BRANCH  15  39
HETATM   39  O6  UNL     1      -3.248  -4.411   0.777  1.00  0.00    -0.332 OA
BRANCH  39  40
HETATM   40  C21 UNL     1      -4.490  -4.593   0.266  1.00  0.00     0.184 C 
BRANCH  40  41
HETATM   41  C22 UNL     1      -5.280  -3.396  -0.114  1.00  0.00     0.111 C 
HETATM   42 BR1  UNL     1      -6.991  -4.048  -0.812  1.00  0.00    -0.094 Br
ENDBRANCH  40  41
ENDBRANCH  39  40
ENDBRANCH  15  39
ENDBRANCH   1   4
BRANCH   1  43
HETATM   43  O8  UNL     1       0.690  -3.125   3.755  1.00  0.00    -0.350 OA
ATOM     44  H8  UNL     1       1.205  -3.158   4.553  1.00  0.00     0.214 HD
ENDBRANCH   1  43
BRANCH   1  45
HETATM   45  O9  UNL     1       2.464  -2.535   2.603  1.00  0.00    -0.350 OA
ATOM     46  H9  UNL     1       2.979  -2.568   3.401  1.00  0.00     0.214 HD
ENDBRANCH   1  45
TORSDOF 14
