REMARK  2 active torsions:
REMARK  status: ('A' for Active; 'I' for Inactive)
REMARK    1  A    between atoms: N1_1  and  N2_4 
REMARK    2  A    between atoms: N3_6  and  C1_8 
ROOT
HETATM    1  C1  UNL     1      -1.297   0.347  -0.662  1.00  0.00     0.141 A 
HETATM    2  C2  UNL     1      -0.378  -0.473  -0.033  1.00  0.00     0.156 A 
HETATM    3  N4  UNL     1      -0.859  -1.696   0.513  1.00  0.00    -0.079 NA
HETATM    4  N5  UNL     1       0.919  -0.191   0.093  1.00  0.00    -0.294 N 
HETATM    5  C3  UNL     1       1.788  -1.033   0.723  1.00  0.00     0.105 A 
HETATM    6  C4  UNL     1       3.124  -0.746   0.854  1.00  0.00     0.092 A 
HETATM    7  C5  UNL     1       3.584   0.441   0.323  1.00  0.00     0.248 A 
HETATM    8  O1  UNL     1       4.804   0.715   0.437  1.00  0.00    -0.268 OA
HETATM    9  N6  UNL     1       2.704   1.250  -0.292  1.00  0.00    -0.309 N 
ATOM     10  H6  UNL     1       3.045   2.127  -0.685  1.00  0.00     0.170 HD
HETATM   11  C6  UNL     1       1.394   0.961  -0.416  1.00  0.00     0.119 A 
HETATM   12  C7  UNL     1       0.519   1.836  -1.065  1.00  0.00     0.106 A 
HETATM   13  C8  UNL     1      -0.820   1.527  -1.185  1.00  0.00     0.206 A 
HETATM   14  O2  UNL     1      -1.624   2.300  -1.765  1.00  0.00    -0.286 OA
ENDROOT
BRANCH   1  15
HETATM   15  N3  UNL     1      -2.672  -0.031  -0.753  1.00  0.00    -0.280 N 
HETATM   16  N2  UNL     1      -3.287  -0.251   0.314  1.00  0.00    -0.249 N 
ATOM     17  H2  UNL     1      -2.777  -0.149   1.191  1.00  0.00     0.207 HD
ATOM     18  H3  UNL     1      -3.136  -0.118  -1.657  1.00  0.00     0.188 HD
BRANCH  16  19
HETATM   19  N1  UNL     1      -4.631  -0.628   0.376  1.00  0.00    -0.331 N 
ATOM     20  H12 UNL     1      -5.126  -0.725  -0.511  1.00  0.00     0.178 HD
ATOM     21  H11 UNL     1      -5.132  -0.807   1.246  1.00  0.00     0.178 HD
ENDBRANCH  16  19
ENDBRANCH   1  15
TORSDOF 2
