REMARK  10 active torsions:
REMARK  status: ('A' for Active; 'I' for Inactive)
REMARK    1  A    between atoms: N1_2  and  C2_4 
REMARK    2  A    between atoms: C3_7  and  N3_8 
REMARK    3  A    between atoms: C6_12  and  N4_13 
REMARK    4  A    between atoms: C8_18  and  N6_19 
REMARK    5  A    between atoms: N6_19  and  C9_21 
REMARK    6  A    between atoms: C9_21  and  C10_22 
REMARK    7  A    between atoms: C10_22  and  C11_23 
REMARK    8  A    between atoms: C11_23  and  N7_24 
REMARK    9  A    between atoms: N7_24  and  C12_27 
REMARK   10  A    between atoms: C12_27  and  O1_28 
ROOT
HETATM    1  C12 UNL     1      -6.740   0.172   0.869  1.00  0.00     0.427 C 
HETATM    2  C13 UNL     1      -6.216  -0.976   1.601  1.00  0.00     0.121 C 
HETATM    3  N8  UNL     1      -5.795  -1.899   2.168  1.00  0.00    -0.193 NA
ENDROOT
BRANCH   1   4
HETATM    4  N7  UNL     1      -6.069   0.236  -0.426  1.00  0.00    -0.036 N 
ATOM      5  H72 UNL     1      -6.473   0.938  -1.046  1.00  0.00     0.281 HD
ATOM      6  H71 UNL     1      -6.254  -0.581  -1.007  1.00  0.00     0.281 HD
BRANCH   4   7
HETATM    7  C11 UNL     1      -4.637   0.448  -0.184  1.00  0.00     0.238 C 
BRANCH   7   8
HETATM    8  C10 UNL     1      -3.938   0.520  -1.512  1.00  0.00     0.048 C 
BRANCH   8   9
HETATM    9  C9  UNL     1      -2.448   0.739  -1.356  1.00  0.00     0.139 C 
BRANCH   9  10
HETATM   10  N6  UNL     1      -1.858  -0.348  -0.607  1.00  0.00    -0.226 N 
ATOM     11  H6  UNL     1      -2.444  -1.097  -0.238  1.00  0.00     0.177 HD
BRANCH  10  12
HETATM   12  C8  UNL     1      -0.574  -0.361  -0.409  1.00  0.00     0.681 A 
HETATM   13  N5  UNL     1      -0.045  -1.382   0.292  1.00  0.00    -0.176 N 
HETATM   14  C6  UNL     1       1.305  -1.392   0.498  1.00  0.00     0.134 A 
ATOM     15  H5  UNL     1      -0.637  -2.128   0.659  1.00  0.00     0.186 HD
HETATM   16  C5  UNL     1       2.113  -0.390   0.007  1.00  0.00     0.098 A 
HETATM   17  C3  UNL     1       3.478  -0.363   0.194  1.00  0.00     0.134 A 
HETATM   18  C14 UNL     1       1.554   0.640  -0.703  1.00  0.00     0.154 A 
HETATM   19  N2  UNL     1       4.240   0.646  -0.308  1.00  0.00    -0.176 N 
HETATM   20  C2  UNL     1       3.682   1.652  -1.003  1.00  0.00     0.680 A 
ATOM     21  H2  UNL     1       5.248   0.639  -0.155  1.00  0.00     0.186 HD
HETATM   22  N10 UNL     1       2.339   1.609  -1.176  1.00  0.00    -0.175 N 
ATOM     23  H10 UNL     1       1.900   2.365  -1.701  1.00  0.00     0.186 HD
HETATM   24  N9  UNL     1       0.214   0.618  -0.888  1.00  0.00    -0.175 N 
ATOM     25  H9  UNL     1      -0.218   1.378  -1.414  1.00  0.00     0.186 HD
BRANCH  14  26
HETATM   26  N4  UNL     1       1.866  -2.334   1.155  1.00  0.00    -0.379 N 
HETATM   27  C7  UNL     1       1.060  -3.411   1.692  1.00  0.00     0.147 C 
ATOM     28  H4  UNL     1       2.876  -2.327   1.300  1.00  0.00     0.160 HD
ENDBRANCH  14  26
BRANCH  17  29
HETATM   29  N3  UNL     1       4.001  -1.324   0.855  1.00  0.00    -0.379 N 
HETATM   30  C4  UNL     1       5.413  -1.449   1.139  1.00  0.00     0.147 C 
ATOM     31  H3  UNL     1       3.379  -2.053   1.206  1.00  0.00     0.160 HD
ENDBRANCH  17  29
BRANCH  20  32
HETATM   32  N1  UNL     1       4.375   2.638  -1.501  1.00  0.00    -0.230 N 
HETATM   33  C1  UNL     1       5.792   2.692  -1.324  1.00  0.00     0.165 C 
ATOM     34  H1  UNL     1       3.902   3.377  -2.021  1.00  0.00     0.177 HD
ENDBRANCH  20  32
ENDBRANCH  10  12
ENDBRANCH   9  10
ENDBRANCH   8   9
ENDBRANCH   7   8
ENDBRANCH   4   7
ENDBRANCH   1   4
BRANCH   1  35
HETATM   35  O1  UNL     1      -6.588   1.362   1.574  1.00  0.00    -0.359 OA
ATOM     36  H1  UNL     1      -7.025   1.320   2.417  1.00  0.00     0.213 HD
ENDBRANCH   1  35
TORSDOF 10
