REMARK  9 active torsions:
REMARK  status: ('A' for Active; 'I' for Inactive)
REMARK    1  A    between atoms: N1_2  and  C2_4 
REMARK    2  A    between atoms: C3_7  and  N3_8 
REMARK    3  A    between atoms: N3_8  and  C4_10 
REMARK    4  A    between atoms: C4_10  and  C5_11 
REMARK    5  A    between atoms: C5_11  and  O1_12 
REMARK    6  A    between atoms: N5_17  and  C7_19 
REMARK    7  A    between atoms: C9_21  and  N6_22 
REMARK    8  A    between atoms: N6_22  and  C10_24 
REMARK    9  A    between atoms: C10_24  and  C11_25 
ROOT
HETATM    1  C2  UNL     1       3.163   1.090  -0.421  1.00  0.00     0.706 A 
HETATM    2  N2  UNL     1       4.276   0.363  -0.165  1.00  0.00    -0.022 N 
ATOM      3  H2  UNL     1       5.144   0.607  -0.641  1.00  0.00     0.203 HD
HETATM    4  C3  UNL     1       4.275  -0.669   0.696  1.00  0.00     0.707 A 
HETATM    5  N4  UNL     1       3.111  -0.969   1.312  1.00  0.00    -0.021 N 
ATOM      6  H4  UNL     1       3.088  -1.749   1.969  1.00  0.00     0.203 HD
HETATM    7  C6  UNL     1       1.988  -0.278   1.090  1.00  0.00     0.713 A 
HETATM    8  N5  UNL     1       0.909  -0.590   1.689  1.00  0.00    -0.175 N 
ATOM      9  H5  UNL     1       0.928  -1.376   2.338  1.00  0.00     0.186 HD
HETATM   10  N10 UNL     1       2.014   0.742   0.230  1.00  0.00    -0.021 N 
ATOM     11  H10 UNL     1       1.160   1.272   0.056  1.00  0.00     0.203 HD
ENDROOT
BRANCH   8  12
HETATM   12  C7  UNL     1      -0.322   0.099   1.502  1.00  0.00     0.125 A 
HETATM   13  C8  UNL     1      -1.223  -0.340   0.545  1.00  0.00     0.097 A 
HETATM   14  C9  UNL     1      -2.409   0.340   0.380  1.00  0.00     0.105 A 
HETATM   15  N8  UNL     1      -2.660   1.417   1.156  1.00  0.00    -0.339 N 
HETATM   16  C15 UNL     1      -1.788   1.853   2.091  1.00  0.00     0.183 A 
ATOM     17  H8  UNL     1      -3.539   1.919   1.031  1.00  0.00     0.168 HD
HETATM   18  N9  UNL     1      -0.636   1.169   2.232  1.00  0.00    -0.338 N 
ATOM     19  H9  UNL     1       0.031   1.487   2.935  1.00  0.00     0.168 HD
BRANCH  14  20
HETATM   20  N6  UNL     1      -3.234  -0.084  -0.515  1.00  0.00    -0.374 N 
ATOM     21  H6  UNL     1      -2.973  -0.905  -1.062  1.00  0.00     0.161 HD
BRANCH  20  22
HETATM   22  C10 UNL     1      -4.503   0.537  -0.785  1.00  0.00     0.154 C 
BRANCH  22  23
HETATM   23  C11 UNL     1      -5.608  -0.006   0.096  1.00  0.00     0.203 C 
HETATM   24  C12 UNL     1      -6.875   0.707  -0.270  1.00  0.00     0.036 C 
HETATM   25  C13 UNL     1      -7.325  -0.038  -1.520  1.00  0.00     0.029 C 
HETATM   26  C14 UNL     1      -6.609  -1.358  -1.450  1.00  0.00     0.233 C 
HETATM   27  N7  UNL     1      -5.889  -1.380  -0.202  1.00  0.00    -0.069 N 
ATOM     28  H72 UNL     1      -5.061  -1.976  -0.215  1.00  0.00     0.277 HD
ATOM     29  H71 UNL     1      -6.378  -1.872   0.546  1.00  0.00     0.277 HD
ENDBRANCH  22  23
ENDBRANCH  20  22
ENDBRANCH  14  20
ENDBRANCH   8  12
BRANCH   4  30
HETATM   30  N3  UNL     1       5.309  -1.386   0.968  1.00  0.00    -0.223 N 
ATOM     31  H3  UNL     1       5.193  -2.147   1.638  1.00  0.00     0.177 HD
BRANCH  30  32
HETATM   32  C4  UNL     1       6.607  -1.195   0.401  1.00  0.00     0.164 C 
BRANCH  32  33
HETATM   33  C5  UNL     1       7.425  -2.477   0.392  1.00  0.00     0.184 C 
BRANCH  33  34
HETATM   34  O1  UNL     1       8.659  -2.168  -0.179  1.00  0.00    -0.399 OA
ATOM     35  H1  UNL     1       9.170  -2.969  -0.185  1.00  0.00     0.209 HD
ENDBRANCH  33  34
ENDBRANCH  32  33
ENDBRANCH  30  32
ENDBRANCH   4  30
BRANCH   1  36
HETATM   36  N1  UNL     1       3.144   2.084  -1.244  1.00  0.00    -0.229 N 
HETATM   37  C1  UNL     1       4.343   2.473  -1.946  1.00  0.00     0.165 C 
ATOM     38  H1  UNL     1       2.276   2.597  -1.399  1.00  0.00     0.177 HD
ENDBRANCH   1  36
TORSDOF 9
