REMARK  5 active torsions:
REMARK  status: ('A' for Active; 'I' for Inactive)
REMARK    1  A    between atoms: N1_1  and  C1_4 
REMARK    2  A    between atoms: C3_11  and  N4_12 
REMARK       I    between atoms: N4_12  and  C4_14 
REMARK    3  A    between atoms: C4_14  and  C5_16 
REMARK    4  A    between atoms: C5_16  and  N5_17 
REMARK    5  A    between atoms: C5_16  and  C6_21 
ROOT
HETATM    1  C1  UNL     1      -3.009  -0.659   0.272  1.00  0.00     0.694 A 
HETATM    2  N2  UNL     1      -3.104   0.109  -0.830  1.00  0.00    -0.141 N 
ATOM      3  H2  UNL     1      -3.975   0.164  -1.359  1.00  0.00     0.189 HD
HETATM    4  C2  UNL     1      -2.017   0.802  -1.213  1.00  0.00     0.352 A 
HETATM    5  O1  UNL     1      -2.072   1.537  -2.250  1.00  0.00    -0.246 OA
HETATM    6  N3  UNL     1      -0.867   0.734  -0.520  1.00  0.00    -0.140 N 
ATOM      7  H3  UNL     1      -0.058   1.271  -0.834  1.00  0.00     0.189 HD
HETATM    8  C3  UNL     1      -0.767  -0.034   0.585  1.00  0.00     0.703 A 
HETATM    9  N6  UNL     1      -1.853  -0.717   0.954  1.00  0.00    -0.022 N 
ATOM     10  H6  UNL     1      -1.803  -1.305   1.786  1.00  0.00     0.203 HD
ENDROOT
BRANCH   8  11
HETATM   11  N4  UNL     1       0.353  -0.103   1.264  1.00  0.00    -0.157 N 
HETATM   12  C4  UNL     1       1.494   0.621   0.867  1.00  0.00     0.273 C 
HETATM   13  O2  UNL     1       1.509   1.851   1.009  1.00  0.00    -0.270 OA
ATOM     14  H4  UNL     1       0.399  -0.692   2.095  1.00  0.00     0.187 HD
BRANCH  12  15
HETATM   15  C5  UNL     1       2.639  -0.095   0.294  1.00  0.00     0.336 C 
BRANCH  15  16
HETATM   16  N5  UNL     1       3.666   0.895  -0.023  1.00  0.00    -0.060 N 
ATOM     17  H53 UNL     1       3.324   1.643  -0.626  1.00  0.00     0.275 HD
ATOM     18  H52 UNL     1       3.920   1.474   0.778  1.00  0.00     0.275 HD
ATOM     19  H51 UNL     1       4.462   0.397  -0.421  1.00  0.00     0.275 HD
ENDBRANCH  15  16
BRANCH  15  20
HETATM   20  C6  UNL     1       2.278  -0.871  -0.920  1.00  0.00     0.273 C 
HETATM   21  O3  UNL     1       2.845  -0.604  -1.957  1.00  0.00    -0.304 OA
ENDBRANCH  15  20
ENDBRANCH  12  15
ENDBRANCH   8  11
BRANCH   1  22
HETATM   22  N1  UNL     1      -4.059  -1.333   0.647  1.00  0.00    -0.234 N 
ATOM     23  H12 UNL     1      -4.937  -1.289   0.129  1.00  0.00     0.174 HD
ATOM     24  H11 UNL     1      -3.987  -1.915   1.482  1.00  0.00     0.174 HD
ENDBRANCH   1  22
TORSDOF 5
