REMARK  3 active torsions:
REMARK  status: ('A' for Active; 'I' for Inactive)
REMARK    1  A    between atoms: N1_2  and  C3_4 
REMARK    2  A    between atoms: C4_7  and  N3_8 
REMARK    3  A    between atoms: N5_14  and  N6_16 
ROOT
HETATM    1  C3  UNL     1      -0.296  -0.418   0.239  1.00  0.00     0.708 A 
HETATM    2  N2  UNL     1       0.298  -1.445   0.852  1.00  0.00    -0.022 N 
ATOM      3  H2  UNL     1      -0.290  -2.165   1.272  1.00  0.00     0.203 HD
HETATM    4  C4  UNL     1       1.633  -1.576   0.943  1.00  0.00     0.705 A 
HETATM    5  N4  UNL     1       2.434  -0.643   0.400  1.00  0.00    -0.020 N 
ATOM      6  H4  UNL     1       3.448  -0.730   0.461  1.00  0.00     0.203 HD
HETATM    7  C5  UNL     1       1.873   0.409  -0.226  1.00  0.00     0.725 A 
HETATM    8  N5  UNL     1       2.625   1.313  -0.747  1.00  0.00    -0.138 N 
ATOM      9  H5  UNL     1       3.641   1.246  -0.693  1.00  0.00     0.205 HD
HETATM   10  N7  UNL     1       0.508   0.512  -0.302  1.00  0.00    -0.020 N 
ATOM     11  H7  UNL     1       0.094   1.312  -0.780  1.00  0.00     0.203 HD
ENDROOT
BRANCH   8  12
HETATM   12  N6  UNL     1       2.010   2.383  -1.385  1.00  0.00    -0.331 N 
ATOM     13  H62 UNL     1       0.992   2.435  -1.430  1.00  0.00     0.177 HD
ATOM     14  H61 UNL     1       2.606   3.100  -1.798  1.00  0.00     0.177 HD
ENDBRANCH   8  12
BRANCH   4  15
HETATM   15  N3  UNL     1       2.198  -2.570   1.529  1.00  0.00    -0.234 N 
ATOM     16  H32 UNL     1       1.590  -3.278   1.941  1.00  0.00     0.174 HD
ATOM     17  H31 UNL     1       3.211  -2.669   1.598  1.00  0.00     0.174 HD
ENDBRANCH   4  15
BRANCH   1  18
HETATM   18  N1  UNL     1      -1.692  -0.213   0.116  1.00  0.00    -0.225 N 
HETATM   19  C1  UNL     1      -2.492  -1.176  -0.606  1.00  0.00     0.168 C 
HETATM   20  C2  UNL     1      -2.322   0.952   0.697  1.00  0.00     0.168 C 
ENDBRANCH   1  18
TORSDOF 3
