REMARK  13 active torsions:
REMARK  status: ('A' for Active; 'I' for Inactive)
REMARK    1  A    between atoms: O1_2  and  C2_3 
REMARK    2  A    between atoms: N1_7  and  C6_8 
REMARK    3  A    between atoms: C6_8  and  C7_9 
REMARK    4  A    between atoms: C7_9  and  O2_10 
REMARK    5  A    between atoms: O2_10  and  C8_11 
REMARK    6  A    between atoms: C11_14  and  N2_15 
REMARK    7  A    between atoms: N2_15  and  C12_17 
REMARK    8  A    between atoms: C13_20  and  N4_21 
REMARK    9  A    between atoms: N4_21  and  C14_23 
REMARK   10  A    between atoms: C14_23  and  C15_24 
REMARK   11  A    between atoms: C15_24  and  C16_25 
REMARK   12  A    between atoms: C21_36  and  C22_37 
REMARK   13  A    between atoms: C22_37  and  N8_38 
ROOT
HETATM    1  C12 UNL     1      -2.664  -1.500  -0.790  1.00  0.00     0.130 A 
HETATM    2  N3  UNL     1      -3.251  -0.327  -0.600  1.00  0.00    -0.176 N 
ATOM      3  H3  UNL     1      -2.703   0.525  -0.720  1.00  0.00     0.186 HD
HETATM    4  C13 UNL     1      -4.573  -0.224  -0.247  1.00  0.00     0.679 A 
HETATM    5  N7  UNL     1      -5.315  -1.322  -0.083  1.00  0.00    -0.201 N 
ATOM      6  H7  UNL     1      -6.297  -1.241   0.180  1.00  0.00     0.183 HD
HETATM    7  C20 UNL     1      -4.764  -2.532  -0.266  1.00  0.00     0.118 A 
HETATM    8  C21 UNL     1      -3.442  -2.659  -0.620  1.00  0.00     0.020 A 
ENDROOT
BRANCH   1   9
HETATM    9  N2  UNL     1      -1.461  -1.653  -1.100  1.00  0.00    -0.340 N 
ATOM     10  H2  UNL     1      -1.181  -2.628  -1.209  1.00  0.00     0.167 HD
BRANCH   9  11
HETATM   11  C11 UNL     1      -0.435  -0.742  -1.324  1.00  0.00     0.049 A 
HETATM   12  C10 UNL     1      -0.526   0.318  -2.191  1.00  0.00     0.035 A 
HETATM   13  C9  UNL     1       0.525   1.221  -2.402  1.00  0.00     0.058 A 
HETATM   14  C8  UNL     1       1.709   1.045  -1.713  1.00  0.00     0.141 A 
HETATM   15  N9  UNL     1       1.798   0.011  -0.868  1.00  0.00    -0.345 N 
HETATM   16  C28 UNL     1       0.802  -0.857  -0.658  1.00  0.00     0.119 A 
ATOM     17  H9  UNL     1       2.671  -0.122  -0.357  1.00  0.00     0.167 HD
BRANCH  14  18
HETATM   18  O2  UNL     1       2.782   1.890  -1.870  1.00  0.00    -0.334 OA
BRANCH  18  19
HETATM   19  C7  UNL     1       3.999   1.791  -1.227  1.00  0.00     0.207 C 
BRANCH  19  20
HETATM   20  C6  UNL     1       3.987   1.879   0.273  1.00  0.00     0.299 C 
BRANCH  20  21
HETATM   21  N1  UNL     1       5.362   1.752   0.735  1.00  0.00     0.093 N 
HETATM   22  C5  UNL     1       6.130   2.876   0.370  1.00  0.00     0.272 C 
HETATM   23  C4  UNL     1       7.178   3.370   1.294  1.00  0.00     0.033 C 
HETATM   24  C3  UNL     1       7.423   2.602   2.540  1.00  0.00     0.035 C 
HETATM   25  C2  UNL     1       6.943   1.190   2.505  1.00  0.00     0.149 C 
HETATM   26  C29 UNL     1       5.491   1.234   2.048  1.00  0.00     0.304 C 
BRANCH  25  27
HETATM   27  O1  UNL     1       7.622   0.376   1.612  1.00  0.00    -0.389 OA
HETATM   28  C1  UNL     1       8.087  -0.779   2.199  1.00  0.00     0.202 C 
ENDBRANCH  25  27
ENDBRANCH  20  21
ENDBRANCH  19  20
ENDBRANCH  18  19
ENDBRANCH  14  18
ENDBRANCH   9  11
ENDBRANCH   1   9
BRANCH   8  29
HETATM   29  C22 UNL     1      -2.769  -3.934  -0.881  1.00  0.00     0.161 C 
BRANCH  29  30
HETATM   30  N8  UNL     1      -3.579  -5.061  -0.623  1.00  0.00    -0.408 N 
HETATM   31  C23 UNL     1      -3.887  -5.323   0.763  1.00  0.00     0.117 C 
HETATM   32  C24 UNL     1      -2.914  -6.319   1.370  1.00  0.00     0.019 C 
HETATM   33  C25 UNL     1      -2.886  -7.614   0.630  1.00  0.00     0.003 C 
HETATM   34  C26 UNL     1      -3.707  -7.508  -0.630  1.00  0.00     0.019 C 
HETATM   35  C27 UNL     1      -3.235  -6.257  -1.352  1.00  0.00     0.117 C 
ENDBRANCH  29  30
ENDBRANCH   8  29
BRANCH   4  36
HETATM   36  N4  UNL     1      -5.152   0.899  -0.081  1.00  0.00    -0.226 N 
ATOM     37  H4  UNL     1      -6.137   0.902   0.182  1.00  0.00     0.177 HD
BRANCH  36  38
HETATM   38  C14 UNL     1      -4.495   2.145  -0.244  1.00  0.00     0.144 C 
BRANCH  38  39
HETATM   39  C15 UNL     1      -5.483   3.264  -0.553  1.00  0.00     0.079 C 
BRANCH  39  40
HETATM   40  C16 UNL     1      -4.706   4.534  -0.696  1.00  0.00     0.029 A 
HETATM   41  C17 UNL     1      -3.359   4.751  -0.578  1.00  0.00     0.052 A 
HETATM   42  C18 UNL     1      -3.085   6.104  -0.791  1.00  0.00     0.024 A 
HETATM   43  C19 UNL     1      -1.752   6.769  -0.759  1.00  0.00     0.070 C 
HETATM   44  N5  UNL     1      -4.290   6.659  -1.035  1.00  0.00    -0.305 N 
HETATM   45  N6  UNL     1      -5.247   5.757  -0.984  1.00  0.00    -0.305 N 
ATOM     46  H5  UNL     1      -4.440   7.648  -1.233  1.00  0.00     0.186 HD
ATOM     47  H6  UNL     1      -6.239   5.941  -1.136  1.00  0.00     0.186 HD
ENDBRANCH  39  40
ENDBRANCH  38  39
ENDBRANCH  36  38
ENDBRANCH   4  36
TORSDOF 13
