REMARK  7 active torsions:
REMARK  status: ('A' for Active; 'I' for Inactive)
REMARK    1  A    between atoms: C2_2  and  C4_4 
REMARK    2  A    between atoms: C6_6  and  C7_7 
REMARK    3  A    between atoms: C7_7  and  O1_8 
REMARK    4  A    between atoms: C7_7  and  C8_10 
REMARK    5  A    between atoms: C12_16  and  C13_17 
REMARK    6  A    between atoms: C13_17  and  O4_19 
REMARK    7  A    between atoms: C22_28  and  O5_29 
ROOT
HETATM    1  C8  UNL     1       3.002  -3.057  -0.369  1.00  0.00     0.118 C 
HETATM    2  C9  UNL     1       3.828  -2.484  -1.513  1.00  0.00     0.028 C 
HETATM    3  C10 UNL     1       3.618  -2.948   0.889  1.00  0.00     0.066 C 
HETATM    4  N1  UNL     1       4.161  -2.892   1.922  1.00  0.00    -0.197 NA
ENDROOT
BRANCH   1   5
HETATM    5  C7  UNL     1       1.543  -2.702  -0.451  1.00  0.00     0.147 C 
BRANCH   5   6
HETATM    6  C6  UNL     1       1.201  -1.269  -0.476  1.00  0.00     0.092 C 
HETATM    7  C5  UNL     1      -0.213  -0.937  -0.928  1.00  0.00     0.018 C 
HETATM    8  C4  UNL     1      -1.221  -0.645   0.159  1.00  0.00     0.035 C 
HETATM    9  C17 UNL     1      -0.246   0.541  -1.288  1.00  0.00     0.036 C 
HETATM   10  C18 UNL     1      -1.581   0.564  -0.582  1.00  0.00     0.023 A 
HETATM   11  C19 UNL     1      -2.734   0.739  -1.416  1.00  0.00    -0.008 A 
HETATM   12  C22 UNL     1      -1.903   1.802   0.184  1.00  0.00     0.160 A 
HETATM   13  C20 UNL     1      -3.042   1.855  -0.764  1.00  0.00    -0.057 A 
HETATM   14  C21 UNL     1      -4.152   2.873  -0.872  1.00  0.00     0.046 C 
HETATM   15  C15 UNL     1       0.840   1.349  -0.788  1.00  0.00    -0.063 C 
HETATM   16  C12 UNL     1       1.728   1.021   0.347  1.00  0.00     0.184 C 
HETATM   17  C16 UNL     1       1.076   2.515  -1.407  1.00  0.00     0.016 C 
HETATM   18  C11 UNL     1       1.519  -0.407   0.665  1.00  0.00     0.151 C 
HETATM   19  O2  UNL     1       1.607  -0.785   1.779  1.00  0.00    -0.296 OA
BRANCH   8  20
HETATM   20  C2  UNL     1      -2.217  -1.651   0.481  1.00  0.00    -0.087 C 
HETATM   21  C1  UNL     1      -3.471  -1.735   0.201  1.00  0.00     0.014 C 
HETATM   22  C3  UNL     1      -1.714  -2.831   1.356  1.00  0.00     0.043 C 
ENDBRANCH   8  20
BRANCH  12  23
HETATM   23  O5  UNL     1      -2.350   1.495   1.466  1.00  0.00    -0.390 OA
ATOM     24  H5  UNL     1      -2.555   2.284   1.954  1.00  0.00     0.210 HD
ENDBRANCH  12  23
BRANCH  16  25
HETATM   25  C13 UNL     1       1.496   1.891   1.524  1.00  0.00     0.274 C 
HETATM   26  O3  UNL     1       1.163   1.394   2.623  1.00  0.00    -0.264 OA
BRANCH  25  27
HETATM   27  O4  UNL     1       1.643   3.239   1.418  1.00  0.00    -0.326 OA
HETATM   28  C14 UNL     1       1.449   4.164   2.466  1.00  0.00     0.213 C 
ENDBRANCH  25  27
ENDBRANCH  16  25
ENDBRANCH   5   6
BRANCH   5  29
HETATM   29  O1  UNL     1       1.265  -3.120  -1.835  1.00  0.00    -0.393 OA
ATOM     30  H1  UNL     1       1.486  -4.044  -1.819  1.00  0.00     0.210 HD
ENDBRANCH   5  29
ENDBRANCH   1   5
TORSDOF 7
