REMARK  7 active torsions:
REMARK  status: ('A' for Active; 'I' for Inactive)
REMARK    1  A    between atoms: C2_3  and  N2_4 
REMARK    2  A    between atoms: N2_4  and  C3_6 
REMARK    3  A    between atoms: C5_12  and  N5_13 
REMARK    4  A    between atoms: N8_22  and  C8_23 
REMARK    5  A    between atoms: C8_23  and  C9_24 
REMARK    6  A    between atoms: C9_24  and  C10_25 
REMARK    7  A    between atoms: C10_25  and  N9_26 
ROOT
HETATM    1  N1  UNL     1      -1.909   5.141   2.106  1.00  0.00    -0.196 NA
HETATM    2  C1  UNL     1      -2.148   4.035   2.006  1.00  0.00     0.079 C 
HETATM    3  C2  UNL     1      -2.439   2.599   1.834  1.00  0.00     0.262 C 
ENDROOT
BRANCH   3   4
HETATM    4  N2  UNL     1      -1.935   2.118   0.587  1.00  0.00    -0.213 N 
ATOM      5  H2  UNL     1      -1.466   2.784  -0.028  1.00  0.00     0.178 HD
BRANCH   4   6
HETATM    6  C3  UNL     1      -2.033   0.921   0.198  1.00  0.00     0.699 A 
HETATM    7  N3  UNL     1      -2.606  -0.123   0.845  1.00  0.00    -0.021 N 
HETATM    8  C4  UNL     1      -2.698  -1.319   0.247  1.00  0.00     0.723 A 
ATOM      9  H3  UNL     1      -2.968   0.002   1.790  1.00  0.00     0.203 HD
HETATM   10  N4  UNL     1      -3.188  -2.354   0.962  1.00  0.00    -0.021 N 
HETATM   11  N7  UNL     1      -2.247  -1.567  -1.013  1.00  0.00    -0.090 N 
HETATM   12  C5  UNL     1      -3.234  -3.596   0.435  1.00  0.00     0.691 A 
ATOM     13  H4  UNL     1      -3.527  -2.196   1.911  1.00  0.00     0.203 HD
HETATM   14  N6  UNL     1      -2.779  -3.769  -0.838  1.00  0.00    -0.186 N 
HETATM   15  C6  UNL     1      -2.290  -2.777  -1.564  1.00  0.00     0.229 A 
ATOM     16  H6  UNL     1      -2.817  -4.702  -1.248  1.00  0.00     0.185 HD
HETATM   17  C7  UNL     1      -1.670  -0.519  -1.673  1.00  0.00     0.362 A 
HETATM   18  O1  UNL     1      -1.268  -0.773  -2.844  1.00  0.00    -0.245 OA
HETATM   19  N8  UNL     1      -1.579   0.645  -1.059  1.00  0.00    -0.131 N 
BRANCH  12  20
HETATM   20  N5  UNL     1      -3.634  -4.535   1.123  1.00  0.00    -0.234 N 
ATOM     21  H52 UNL     1      -3.975  -4.406   2.076  1.00  0.00     0.174 HD
ATOM     22  H51 UNL     1      -3.669  -5.473   0.725  1.00  0.00     0.174 HD
ENDBRANCH  12  20
BRANCH  19  23
HETATM   23  C8  UNL     1      -0.678   1.635  -1.704  1.00  0.00     0.154 C 
BRANCH  23  24
HETATM   24  C9  UNL     1       0.718   1.042  -1.709  1.00  0.00     0.037 C 
BRANCH  24  25
HETATM   25  C10 UNL     1       1.147   0.660  -0.349  1.00  0.00     0.111 C 
BRANCH  25  26
HETATM   26  N9  UNL     1       2.388  -0.058  -0.305  1.00  0.00    -0.231 NA
HETATM   27  C11 UNL     1       3.553   0.668  -0.666  1.00  0.00     0.135 C 
HETATM   28  C12 UNL     1       4.618   0.572   0.437  1.00  0.00     0.185 C 
HETATM   29  O2  UNL     1       4.856  -0.750   0.708  1.00  0.00    -0.373 OA
HETATM   30  C13 UNL     1       3.737  -1.482   0.987  1.00  0.00     0.296 C 
HETATM   31  N10 UNL     1       2.497  -0.738   0.874  1.00  0.00    -0.139 NA
ENDBRANCH  25  26
ENDBRANCH  24  25
ENDBRANCH  23  24
ENDBRANCH  19  23
ENDBRANCH   4   6
ENDBRANCH   3   4
TORSDOF 7
