REMARK  18 active torsions:
REMARK  status: ('A' for Active; 'I' for Inactive)
REMARK       I    between atoms: C1_4  and  N3_6 
REMARK    1  A    between atoms: N3_6  and  C2_8 
REMARK    2  A    between atoms: C2_8  and  C3_9 
REMARK    3  A    between atoms: C3_9  and  N4_10 
REMARK    4  A    between atoms: N4_10  and  C4_11 
REMARK    5  A    between atoms: N4_10  and  C5_13 
REMARK    6  A    between atoms: C5_13  and  C6_14 
REMARK    7  A    between atoms: C6_14  and  C7_15 
REMARK    8  A    between atoms: C7_15  and  C8_16 
REMARK    9  A    between atoms: C7_15  and  N5_24 
REMARK   10  A    between atoms: C8_16  and  O2_17 
REMARK   11  A    between atoms: O2_17  and  C9_18 
REMARK       I    between atoms: N6_27  and  C17_28 
REMARK   12  A    between atoms: C17_28  and  C18_30 
REMARK   13  A    between atoms: C18_30  and  C19_31 
REMARK   14  A    between atoms: C18_30  and  C23_39 
REMARK   15  A    between atoms: C19_31  and  C20_32 
REMARK   16  A    between atoms: C20_32  and  C21_33 
REMARK   17  A    between atoms: C21_33  and  N7_34 
REMARK   18  A    between atoms: C23_39  and  C24_40 
ROOT
HETATM    1  C7  UNL     1      -2.359   0.444   1.474  1.00  0.00     0.114 C 
ENDROOT
BRANCH   1   2
HETATM    2  C6  UNL     1      -3.104  -0.878   1.349  1.00  0.00     0.047 C 
BRANCH   2   3
HETATM    3  C5  UNL     1      -4.574  -0.669   1.524  1.00  0.00     0.127 C 
BRANCH   3   4
HETATM    4  N4  UNL     1      -5.371  -1.866   1.450  1.00  0.00    -0.358 N 
BRANCH   4   5
HETATM    5  C3  UNL     1      -5.964  -2.296   0.230  1.00  0.00     0.145 C 
BRANCH   5   6
HETATM    6  C2  UNL     1      -5.120  -3.263  -0.541  1.00  0.00     0.142 C 
BRANCH   6   7
HETATM    7  N3  UNL     1      -5.813  -3.659  -1.767  1.00  0.00    -0.363 N 
HETATM    8  C1  UNL     1      -5.151  -4.575  -2.615  1.00  0.00     0.181 C 
HETATM    9  N1  UNL     1      -4.151  -4.192  -3.324  1.00  0.00    -0.374 N 
HETATM   10  N2  UNL     1      -5.586  -5.914  -2.689  1.00  0.00    -0.064 NA
ATOM     11  H12 UNL     1      -3.673  -4.853  -3.936  1.00  0.00     0.158 HD
ATOM     12  H11 UNL     1      -3.836  -3.223  -3.270  1.00  0.00     0.158 HD
ATOM     13  H3  UNL     1      -6.735  -3.290  -2.000  1.00  0.00     0.162 HD
ENDBRANCH   6   7
ENDBRANCH   5   6
ENDBRANCH   4   5
BRANCH   4  14
HETATM   14  C4  UNL     1      -5.638  -2.659   2.616  1.00  0.00     0.350 C 
HETATM   15  O1  UNL     1      -6.344  -3.672   2.590  1.00  0.00    -0.284 OA
ENDBRANCH   4  14
ENDBRANCH   3   4
ENDBRANCH   2   3
ENDBRANCH   1   2
BRANCH   1  16
HETATM   16  C8  UNL     1      -2.775   1.467   0.453  1.00  0.00     0.193 C 
BRANCH  16  17
HETATM   17  O2  UNL     1      -2.073   2.642   0.774  1.00  0.00    -0.384 OA
BRANCH  17  18
HETATM   18  C9  UNL     1      -2.381   3.669  -0.110  1.00  0.00     0.121 C 
HETATM   19  C10 UNL     1      -3.068   4.771   0.692  1.00  0.00     0.032 C 
HETATM   20  C11 UNL     1      -3.609   5.763  -0.318  1.00  0.00     0.002 C 
HETATM   21  C12 UNL     1      -2.526   6.247  -1.252  1.00  0.00     0.000 C 
HETATM   22  C13 UNL     1      -1.169   5.727  -0.872  1.00  0.00     0.002 C 
HETATM   23  C14 UNL     1      -1.126   4.234  -0.693  1.00  0.00     0.032 C 
ENDBRANCH  17  18
ENDBRANCH  16  17
ENDBRANCH   1  16
BRANCH   1  24
HETATM   24  N5  UNL     1      -0.922   0.218   1.446  1.00  0.00    -0.325 N 
HETATM   25  C15 UNL     1       0.029   0.457   2.516  1.00  0.00     0.148 C 
HETATM   26  C16 UNL     1       0.943  -0.760   2.312  1.00  0.00     0.157 C 
HETATM   27  N6  UNL     1       1.159  -0.703   0.867  1.00  0.00    -0.264 N 
HETATM   28  C17 UNL     1       2.321  -0.977   0.114  1.00  0.00     0.257 C 
HETATM   29  C27 UNL     1      -0.132  -0.287   0.372  1.00  0.00     0.328 C 
HETATM   30  O3  UNL     1       2.230  -0.857  -1.132  1.00  0.00    -0.267 OA
HETATM   31  O4  UNL     1      -0.472  -0.372  -0.828  1.00  0.00    -0.247 OA
BRANCH  28  32
HETATM   32  C18 UNL     1       3.607  -1.387   0.687  1.00  0.00     0.007 C 
BRANCH  32  33
HETATM   33  C19 UNL     1       4.213  -2.623   0.192  1.00  0.00    -0.012 C 
BRANCH  33  34
HETATM   34  C20 UNL     1       4.575  -2.926  -1.169  1.00  0.00     0.047 C 
BRANCH  34  35
HETATM   35  C21 UNL     1       5.595  -2.058  -1.836  1.00  0.00     0.126 C 
BRANCH  35  36
HETATM   36  N7  UNL     1       6.857  -2.011  -1.152  1.00  0.00    -0.367 N 
HETATM   37  C22 UNL     1       7.813  -1.344  -1.663  1.00  0.00     0.196 C 
HETATM   38  N8  UNL     1       9.095  -1.236  -1.067  1.00  0.00    -0.067 NA
HETATM   39  N9  UNL     1       7.647  -0.643  -2.905  1.00  0.00    -0.067 NA
ATOM     40  H7  UNL     1       6.985  -2.505  -0.269  1.00  0.00     0.161 HD
ENDBRANCH  35  36
ENDBRANCH  34  35
ENDBRANCH  33  34
ENDBRANCH  32  33
BRANCH  32  41
HETATM   41  C23 UNL     1       4.451  -0.293   1.226  1.00  0.00     0.048 C 
BRANCH  41  42
HETATM   42  C24 UNL     1       4.880   0.820   0.380  1.00  0.00    -0.010 A 
HETATM   43  C25 UNL     1       5.767   1.867   1.134  1.00  0.00     0.005 A 
HETATM   44  C26 UNL     1       4.377   2.213   0.840  1.00  0.00     0.005 A 
ENDBRANCH  41  42
ENDBRANCH  32  41
ENDBRANCH  28  32
ENDBRANCH   1  24
TORSDOF 18
