REMARK  4 active torsions:
REMARK  status: ('A' for Active; 'I' for Inactive)
REMARK    1  A    between atoms: N1_1  and  C1_4 
REMARK    2  A    between atoms: C5_14  and  N5_15 
REMARK    3  A    between atoms: N5_15  and  N6_17 
REMARK    4  A    between atoms: N6_17  and  N7_18 
ROOT
HETATM    1  C1  UNL     1      -1.347  -1.565  -0.240  1.00  0.00     0.679 A 
HETATM    2  N2  UNL     1      -2.174  -0.619   0.247  1.00  0.00    -0.174 N 
ATOM      3  H2  UNL     1      -3.111  -0.874   0.559  1.00  0.00     0.186 HD
HETATM    4  C2  UNL     1      -1.767   0.661   0.323  1.00  0.00     0.152 A 
HETATM    5  N3  UNL     1      -2.326   1.794   0.745  1.00  0.00    -0.336 N 
ATOM      6  H3  UNL     1      -3.268   1.895   1.124  1.00  0.00     0.168 HD
HETATM    7  C3  UNL     1      -1.426   2.782   0.582  1.00  0.00     0.182 A 
HETATM    8  N4  UNL     1      -0.284   2.322   0.059  1.00  0.00    -0.346 N 
ATOM      9  H4  UNL     1       0.544   2.877  -0.157  1.00  0.00     0.167 HD
HETATM   10  C4  UNL     1      -0.422   0.998  -0.131  1.00  0.00     0.124 A 
HETATM   11  C5  UNL     1       0.378  -0.010  -0.619  1.00  0.00     0.164 A 
HETATM   12  N8  UNL     1      -0.111  -1.261  -0.658  1.00  0.00    -0.173 N 
ATOM     13  H8  UNL     1       0.482  -2.008  -1.020  1.00  0.00     0.186 HD
ENDROOT
BRANCH  11  14
HETATM   14  N5  UNL     1       1.673   0.373  -1.043  1.00  0.00    -0.267 N 
ATOM     15  H5  UNL     1       1.866   0.548  -2.029  1.00  0.00     0.186 HD
BRANCH  14  16
HETATM   16  N6  UNL     1       2.685   0.508  -0.083  1.00  0.00    -0.028 NA
BRANCH  16  17
HETATM   17  N7  UNL     1       3.192  -0.731   0.273  1.00  0.00    -0.329 N 
ATOM     18  H72 UNL     1       2.863  -1.613  -0.119  1.00  0.00     0.174 HD
ATOM     19  H71 UNL     1       3.929  -0.633   0.972  1.00  0.00     0.174 HD
ENDBRANCH  16  17
ENDBRANCH  14  16
ENDBRANCH  11  14
BRANCH   1  20
HETATM   20  N1  UNL     1      -1.771  -2.772  -0.292  1.00  0.00    -0.234 N 
ATOM     21  H12 UNL     1      -2.712  -3.003   0.026  1.00  0.00     0.174 HD
ATOM     22  H11 UNL     1      -1.145  -3.488  -0.661  1.00  0.00     0.174 HD
ENDBRANCH   1  20
TORSDOF 4
