REMARK  5 active torsions:
REMARK  status: ('A' for Active; 'I' for Inactive)
REMARK    1  A    between atoms: N1_1  and  C1_4 
REMARK    2  A    between atoms: C2_9  and  S1_10 
REMARK    3  A    between atoms: S1_10  and  C3_11 
REMARK    4  A    between atoms: C3_11  and  N4_12 
REMARK    5  A    between atoms: C3_11  and  N5_16 
ROOT
HETATM    1  C1  UNL     1       2.633   0.172  -0.483  1.00  0.00     0.692 A 
HETATM    2  N2  UNL     1       3.017  -0.791   0.367  1.00  0.00    -0.130 N 
ATOM      3  H2  UNL     1       3.982  -1.026   0.600  1.00  0.00     0.205 HD
HETATM    4  N3  UNL     1       1.945  -1.384   0.853  1.00  0.00    -0.265 N 
ATOM      5  H3  UNL     1       1.948  -2.153   1.523  1.00  0.00     0.189 HD
HETATM    6  C2  UNL     1       0.847  -0.816   0.327  1.00  0.00     0.178 A 
HETATM    7  N6  UNL     1       1.292   0.146  -0.498  1.00  0.00    -0.168 N 
ATOM      8  H6  UNL     1       0.699   0.764  -1.052  1.00  0.00     0.186 HD
ENDROOT
BRANCH   6   9
HETATM    9  S1  UNL     1      -0.865  -1.216   0.627  1.00  0.00    -0.031 SA
BRANCH   9  10
HETATM   10  C3  UNL     1      -1.899  -0.122  -0.354  1.00  0.00     0.447 C 
BRANCH  10  11
HETATM   11  N4  UNL     1      -1.798   1.256   0.077  1.00  0.00    -0.041 N 
ATOM     12  H43 UNL     1      -2.003   1.348   1.072  1.00  0.00     0.277 HD
ATOM     13  H42 UNL     1      -0.828   1.571   0.082  1.00  0.00     0.277 HD
ATOM     14  H41 UNL     1      -2.385   1.877  -0.480  1.00  0.00     0.277 HD
ENDBRANCH  10  11
BRANCH  10  15
HETATM   15  N5  UNL     1      -3.286  -0.591  -0.313  1.00  0.00    -0.041 N 
ATOM     16  H53 UNL     1      -3.372  -1.565  -0.604  1.00  0.00     0.277 HD
ATOM     17  H52 UNL     1      -3.630  -0.692   0.642  1.00  0.00     0.277 HD
ATOM     18  H51 UNL     1      -3.873   0.030  -0.870  1.00  0.00     0.277 HD
ENDBRANCH  10  15
ENDBRANCH   9  10
ENDBRANCH   6   9
BRANCH   1  19
HETATM   19  N1  UNL     1       3.411   0.975  -1.159  1.00  0.00    -0.233 N 
ATOM     20  H12 UNL     1       4.431   0.995  -1.148  1.00  0.00     0.174 HD
ATOM     21  H11 UNL     1       3.119   1.708  -1.806  1.00  0.00     0.174 HD
ENDBRANCH   1  19
TORSDOF 5
