REMARK  13 active torsions:
REMARK  status: ('A' for Active; 'I' for Inactive)
REMARK    1  A    between atoms: C2_2  and  C3_3 
REMARK    2  A    between atoms: C2_2  and  C16_21 
REMARK    3  A    between atoms: C3_3  and  C4_4 
REMARK    4  A    between atoms: C7_7  and  C8_8 
REMARK    5  A    between atoms: C8_8  and  O2_10 
REMARK    6  A    between atoms: O2_10  and  C9_11 
REMARK    7  A    between atoms: C11_13  and  S1_14 
REMARK    8  A    between atoms: S1_14  and  S2_15 
REMARK    9  A    between atoms: C14_18  and  O3_19 
REMARK   10  A    between atoms: C16_21  and  O4_22 
REMARK   11  A    between atoms: C16_21  and  O5_24 
REMARK   12  A    between atoms: O5_24  and  C17_25 
REMARK   13  A    between atoms: C17_25  and  C18_26 
REMARK       I    between atoms: C18_26  and  N1_28 
ROOT
HETATM    1  C4  UNL     1       0.524  -0.440  -0.900  1.00  0.00     0.041 C 
HETATM    2  C5  UNL     1      -0.413   0.274  -1.855  1.00  0.00    -0.022 C 
HETATM    3  C6  UNL     1      -1.563   0.665  -1.407  1.00  0.00    -0.016 C 
HETATM    4  C7  UNL     1      -2.113   0.515  -0.063  1.00  0.00     0.111 C 
HETATM    5  C13 UNL     1      -1.258  -0.334   0.846  1.00  0.00     0.051 C 
HETATM    6  C14 UNL     1      -0.418  -1.225  -0.025  1.00  0.00     0.130 C 
ENDROOT
BRANCH   1   7
HETATM    7  C3  UNL     1       1.292   0.651  -0.262  1.00  0.00     0.049 C 
BRANCH   7   8
HETATM    8  C2  UNL     1       2.351   0.303   0.695  1.00  0.00    -0.035 C 
HETATM    9  C1  UNL     1       2.310   0.563   1.998  1.00  0.00     0.019 C 
BRANCH   8  10
HETATM   10  C16 UNL     1       3.590  -0.363   0.193  1.00  0.00     0.287 C 
BRANCH  10  11
HETATM   11  O4  UNL     1       3.247  -1.685  -0.204  1.00  0.00    -0.367 OA
ATOM     12  H4  UNL     1       4.035  -2.109  -0.523  1.00  0.00     0.213 HD
ENDBRANCH  10  11
BRANCH  10  13
HETATM   13  O5  UNL     1       4.097   0.248  -0.958  1.00  0.00    -0.348 OA
BRANCH  13  14
HETATM   14  C17 UNL     1       5.423   0.495  -0.979  1.00  0.00     0.274 C 
BRANCH  14  15
HETATM   15  C18 UNL     1       5.974   1.424   0.027  1.00  0.00     0.253 C 
HETATM   16  O6  UNL     1       5.331   2.047   0.891  1.00  0.00    -0.270 OA
HETATM   17  N1  UNL     1       7.404   1.647   0.028  1.00  0.00    -0.239 N 
HETATM   18  C19 UNL     1       8.524   1.181  -0.738  1.00  0.00     0.320 A 
HETATM   19  C20 UNL     1       8.337   2.415   0.771  1.00  0.00     0.373 A 
HETATM   20  O7  UNL     1       9.403   2.045  -0.036  1.00  0.00    -0.283 OA
HETATM   21  O8  UNL     1       8.205   3.149   1.784  1.00  0.00    -0.238 OA
ENDBRANCH  14  15
ENDBRANCH  13  14
ENDBRANCH  10  13
ENDBRANCH   8  10
ENDBRANCH   7   8
ENDBRANCH   1   7
BRANCH   6  22
HETATM   22  O3  UNL     1       0.117  -2.291   0.634  1.00  0.00    -0.390 OA
HETATM   23  C15 UNL     1      -0.453  -3.478   0.196  1.00  0.00     0.202 C 
ENDBRANCH   6  22
BRANCH   4  24
HETATM   24  C8  UNL     1      -3.444  -0.121  -0.148  1.00  0.00     0.271 C 
HETATM   25  O1  UNL     1      -3.883  -0.418  -1.283  1.00  0.00    -0.264 OA
BRANCH  24  26
HETATM   26  O2  UNL     1      -4.223  -0.400   0.949  1.00  0.00    -0.283 OA
BRANCH  26  27
HETATM   27  C9  UNL     1      -5.465  -0.989   0.917  1.00  0.00     0.059 C 
HETATM   28  C10 UNL     1      -5.574  -2.459   0.993  1.00  0.00     0.077 C 
HETATM   29  C11 UNL     1      -6.540  -0.240   0.821  1.00  0.00     0.089 C 
BRANCH  29  30
HETATM   30  S1  UNL     1      -6.412   1.528   0.730  1.00  0.00    -0.067 SA
BRANCH  30  31
HETATM   31  S2  UNL     1      -8.340   2.407   0.889  1.00  0.00    -0.098 SA
HETATM   32  C12 UNL     1      -9.135   2.619  -0.703  1.00  0.00     0.103 C 
ENDBRANCH  30  31
ENDBRANCH  29  30
ENDBRANCH  26  27
ENDBRANCH  24  26
ENDBRANCH   4  24
TORSDOF 13
