REMARK  12 active torsions:
REMARK  status: ('A' for Active; 'I' for Inactive)
REMARK    1  A    between atoms: C2_5  and  C3_6 
REMARK    2  A    between atoms: C2_5  and  N9_24 
REMARK    3  A    between atoms: C3_6  and  C4_7 
REMARK    4  A    between atoms: C6_13  and  N5_14 
REMARK    5  A    between atoms: N9_24  and  N10_26 
REMARK    6  A    between atoms: N11_28  and  C8_30 
REMARK    7  A    between atoms: C9_31  and  O2_32 
REMARK    8  A    between atoms: C10_35  and  C11_36 
REMARK    9  A    between atoms: C11_36  and  O4_37 
REMARK   10  A    between atoms: C11_36  and  C12_39 
REMARK   11  A    between atoms: C12_39  and  O5_40 
REMARK   12  A    between atoms: C13_42  and  O6_43 
ROOT
HETATM    1  N1  UNL     1       0.220   0.683   4.414  1.00  0.00    -0.172 NA
HETATM    2  C1  UNL     1       0.263   0.925   3.272  1.00  0.00     0.183 C 
HETATM    3  N2  UNL     1       0.295   1.214   1.903  1.00  0.00    -0.281 N 
ATOM      4  H2  UNL     1       0.833   2.021   1.587  1.00  0.00     0.179 HD
HETATM    5  C2  UNL     1      -0.322   0.508   1.028  1.00  0.00     0.113 C 
ENDROOT
BRANCH   5   6
HETATM    6  C3  UNL     1      -1.105  -0.660   1.444  1.00  0.00     0.157 C 
BRANCH   6   7
HETATM    7  C4  UNL     1      -2.539  -0.517   1.061  1.00  0.00     0.120 A 
HETATM    8  N3  UNL     1      -3.145  -0.899  -0.077  1.00  0.00    -0.176 N 
HETATM    9  C5  UNL     1      -4.461  -0.584  -0.023  1.00  0.00     0.724 A 
ATOM     10  H3  UNL     1      -2.683  -1.357  -0.863  1.00  0.00     0.185 HD
HETATM   11  N4  UNL     1      -5.503  -0.737  -0.868  1.00  0.00    -0.020 N 
HETATM   12  N7  UNL     1      -4.676   0.005   1.169  1.00  0.00    -0.029 N 
HETATM   13  C6  UNL     1      -6.744  -0.325  -0.564  1.00  0.00     0.694 A 
ATOM     14  H4  UNL     1      -5.341  -1.182  -1.771  1.00  0.00     0.203 HD
HETATM   15  N6  UNL     1      -6.916   0.257   0.635  1.00  0.00    -0.139 N 
HETATM   16  C7  UNL     1      -5.905   0.425   1.497  1.00  0.00     0.374 A 
ATOM     17  H6  UNL     1      -7.847   0.581   0.897  1.00  0.00     0.189 HD
HETATM   18  O1  UNL     1      -6.085   0.970   2.610  1.00  0.00    -0.244 OA
HETATM   19  N8  UNL     1      -3.501   0.040   1.818  1.00  0.00    -0.263 N 
ATOM     20  H8  UNL     1      -3.359   0.432   2.749  1.00  0.00     0.189 HD
BRANCH  13  21
HETATM   21  N5  UNL     1      -7.758  -0.458  -1.351  1.00  0.00    -0.234 N 
ATOM     22  H52 UNL     1      -7.627  -0.900  -2.261  1.00  0.00     0.174 HD
ATOM     23  H51 UNL     1      -8.701  -0.145  -1.120  1.00  0.00     0.174 HD
ENDBRANCH  13  21
ENDBRANCH   6   7
ENDBRANCH   5   6
BRANCH   5  24
HETATM   24  N9  UNL     1      -0.243   0.861  -0.338  1.00  0.00    -0.274 N 
ATOM     25  H9  UNL     1      -0.486   0.160  -1.038  1.00  0.00     0.190 HD
BRANCH  24  26
HETATM   26  N10 UNL     1       0.152   2.125  -0.769  1.00  0.00    -0.241 N 
HETATM   27  N11 UNL     1       1.354   2.264  -1.174  1.00  0.00    -0.279 N 
ATOM     28  H11 UNL     1       1.646   3.189  -1.490  1.00  0.00     0.189 HD
ATOM     29  H10 UNL     1      -0.497   2.912  -0.761  1.00  0.00     0.208 HD
BRANCH  27  30
HETATM   30  C8  UNL     1       2.302   1.227  -1.213  1.00  0.00     0.143 A 
HETATM   31  C9  UNL     1       2.398   0.175  -2.100  1.00  0.00     0.215 A 
HETATM   32  O3  UNL     1       3.427  -0.563  -1.781  1.00  0.00    -0.285 OA
HETATM   33  C10 UNL     1       4.043  -0.072  -0.721  1.00  0.00     0.122 A 
HETATM   34  C13 UNL     1       3.359   1.057  -0.339  1.00  0.00     0.131 A 
BRANCH  31  35
HETATM   35  O2  UNL     1       1.504  -0.027  -3.162  1.00  0.00    -0.339 OA
ATOM     36  H2  UNL     1       1.570  -0.752  -3.773  1.00  0.00     0.220 HD
ENDBRANCH  31  35
BRANCH  33  37
HETATM   37  C11 UNL     1       5.248  -0.653  -0.085  1.00  0.00     0.201 C 
BRANCH  37  38
HETATM   38  O4  UNL     1       6.319   0.253  -0.175  1.00  0.00    -0.387 OA
ATOM     39  H4  UNL     1       7.092  -0.120   0.233  1.00  0.00     0.210 HD
ENDBRANCH  37  38
BRANCH  37  40
HETATM   40  C12 UNL     1       5.697  -1.912  -0.814  1.00  0.00     0.202 C 
BRANCH  40  41
HETATM   41  O5  UNL     1       6.837  -2.442  -0.220  1.00  0.00    -0.398 OA
ATOM     42  H5  UNL     1       7.117  -3.228  -0.675  1.00  0.00     0.209 HD
ENDBRANCH  40  41
ENDBRANCH  37  40
ENDBRANCH  33  37
BRANCH  34  43
HETATM   43  O6  UNL     1       3.721   1.843   0.747  1.00  0.00    -0.356 OA
ATOM     44  H6  UNL     1       4.448   1.726   1.348  1.00  0.00     0.218 HD
ENDBRANCH  34  43
ENDBRANCH  27  30
ENDBRANCH  24  26
ENDBRANCH   5  24
TORSDOF 12
