REMARK  3 active torsions:
REMARK  status: ('A' for Active; 'I' for Inactive)
REMARK    1  A    between atoms: C2_2  and  N1_3 
REMARK    2  A    between atoms: N1_3  and  N2_4 
REMARK    3  A    between atoms: N1_3  and  N3_7 
ROOT
HETATM    1  N1  UNL     1       0.256   0.517   0.026  1.00  0.00    -0.152 NA
ENDROOT
BRANCH   1   2
HETATM    2  C2  UNL     1      -1.023   0.170   0.589  1.00  0.00     0.129 C 
HETATM    3  C1  UNL     1      -1.847  -0.720  -0.304  1.00  0.00     0.024 C 
ENDBRANCH   1   2
BRANCH   1   4
HETATM    4  N2  UNL     1       0.193   1.618  -0.837  1.00  0.00    -0.349 NA
ATOM      5  H22 UNL     1      -0.267   2.395  -0.362  1.00  0.00     0.172 HD
ATOM      6  H21 UNL     1       1.099   1.864  -1.236  1.00  0.00     0.172 HD
ENDBRANCH   1   4
BRANCH   1   7
HETATM    7  N3  UNL     1       0.882  -0.541  -0.621  1.00  0.00    -0.150 NA
HETATM    8  C3  UNL     1       2.084  -0.961   0.059  1.00  0.00     0.154 C 
ENDBRANCH   1   7
TORSDOF 3
