REMARK  7 active torsions:
REMARK  status: ('A' for Active; 'I' for Inactive)
REMARK    1  A    between atoms: C2_2  and  C3_3 
REMARK    2  A    between atoms: C2_2  and  N2_10 
REMARK    3  A    between atoms: C3_3  and  C4_4 
REMARK    4  A    between atoms: C4_4  and  C5_5 
REMARK    5  A    between atoms: C5_5  and  N1_6 
REMARK    6  A    between atoms: N1_6  and  C6_8 
REMARK    7  A    between atoms: N2_10  and  O2_12 
ROOT
HETATM    1  C3  UNL     1      -0.320  -0.500  -0.285  1.00  0.00     0.059 C 
ENDROOT
BRANCH   1   2
HETATM    2  C2  UNL     1      -1.706  -0.114  -0.780  1.00  0.00     0.022 C 
HETATM    3  C1  UNL     1      -2.002  -0.017  -2.060  1.00  0.00     0.040 C 
BRANCH   2   4
HETATM    4  N2  UNL     1      -2.661   0.135   0.241  1.00  0.00    -0.274 N 
ATOM      5  H2  UNL     1      -2.926   1.092   0.474  1.00  0.00     0.193 HD
BRANCH   4   6
HETATM    6  O2  UNL     1      -3.215  -0.902   0.901  1.00  0.00    -0.290 OA
ATOM      7  H2  UNL     1      -3.854  -0.735   1.584  1.00  0.00     0.244 HD
ENDBRANCH   4   6
ENDBRANCH   2   4
ENDBRANCH   1   2
BRANCH   1   8
HETATM    8  C4  UNL     1       0.146   0.632   0.531  1.00  0.00     0.026 C 
BRANCH   8   9
HETATM    9  C5  UNL     1       1.425   0.615   1.239  1.00  0.00     0.122 C 
BRANCH   9  10
HETATM   10  N1  UNL     1       2.632   0.434   0.509  1.00  0.00    -0.368 N 
ATOM     11  H1  UNL     1       3.254   1.243   0.490  1.00  0.00     0.161 HD
BRANCH  10  12
HETATM   12  C6  UNL     1       3.094  -0.690  -0.188  1.00  0.00     0.348 C 
HETATM   13  O1  UNL     1       2.469  -1.771  -0.249  1.00  0.00    -0.284 OA
ENDBRANCH  10  12
ENDBRANCH   9  10
ENDBRANCH   8   9
ENDBRANCH   1   8
TORSDOF 7
