REMARK  7 active torsions:
REMARK  status: ('A' for Active; 'I' for Inactive)
REMARK    1  A    between atoms: C1_4  and  C2_5 
REMARK    2  A    between atoms: C2_5  and  C3_6 
REMARK    3  A    between atoms: C3_6  and  N2_7 
REMARK    4  A    between atoms: N2_7  and  O1_8 
REMARK    5  A    between atoms: O1_8  and  C4_9 
REMARK    6  A    between atoms: C4_9  and  C5_10 
REMARK    7  A    between atoms: C5_10  and  O2_11 
ROOT
HETATM    1  C3  UNL     1      -1.255  -0.132   0.113  1.00  0.00     0.147 C 
ENDROOT
BRANCH   1   2
HETATM    2  C2  UNL     1      -2.438   0.259   1.008  1.00  0.00     0.062 C 
BRANCH   2   3
HETATM    3  C1  UNL     1      -3.626  -0.379   0.414  1.00  0.00     0.054 C 
HETATM    4  N1  UNL     1      -3.925  -0.162  -0.794  1.00  0.00    -0.411 N 
ATOM      5  H12 UNL     1      -3.332   0.459  -1.345  1.00  0.00     0.155 HD
ATOM      6  H11 UNL     1      -4.747  -0.604  -1.205  1.00  0.00     0.155 HD
ENDBRANCH   2   3
ENDBRANCH   1   2
BRANCH   1   7
HETATM    7  N2  UNL     1      -0.026   0.444   0.604  1.00  0.00    -0.101 NA
BRANCH   7   8
HETATM    8  O1  UNL     1       0.958   0.052  -0.237  1.00  0.00    -0.284 OA
BRANCH   8   9
HETATM    9  C4  UNL     1       2.159   0.194   0.455  1.00  0.00     0.221 C 
BRANCH   9  10
HETATM   10  C5  UNL     1       3.347  -0.213  -0.379  1.00  0.00     0.192 C 
BRANCH  10  11
HETATM   11  O2  UNL     1       3.469   0.535  -1.527  1.00  0.00    -0.399 OA
ATOM     12  H2  UNL     1       4.218   0.279  -2.053  1.00  0.00     0.209 HD
ENDBRANCH  10  11
ENDBRANCH   9  10
ENDBRANCH   8   9
ENDBRANCH   7   8
ENDBRANCH   1   7
TORSDOF 7
