REMARK  11 active torsions:
REMARK  status: ('A' for Active; 'I' for Inactive)
REMARK    1  A    between atoms: C2_2  and  C3_3 
REMARK    2  A    between atoms: C5_5  and  C6_6 
REMARK       I    between atoms: C6_6  and  N1_8 
REMARK    3  A    between atoms: N1_8  and  C7_10 
REMARK    4  A    between atoms: C7_10  and  C8_11 
REMARK    5  A    between atoms: C8_11  and  C9_12 
REMARK    6  A    between atoms: C9_12  and  N2_13 
REMARK       I    between atoms: N2_13  and  C10_15 
REMARK       I    between atoms: C10_15  and  N3_17 
REMARK    7  A    between atoms: N3_17  and  C11_19 
REMARK    8  A    between atoms: C14_22  and  C15_23 
REMARK    9  A    between atoms: C15_23  and  N4_24 
REMARK   10  A    between atoms: C17_26  and  C18_27 
REMARK   11  A    between atoms: C18_27  and  C19_28 
REMARK       I    between atoms: C19_28  and  N5_30 
ROOT
HETATM    1  C11 UNL     1       0.022  -0.410   2.563  1.00  0.00     0.086 C 
HETATM    2  C12 UNL     1       1.121   0.178   1.745  1.00  0.00     0.026 C 
HETATM    3  C13 UNL     1       2.094  -0.787   1.153  1.00  0.00     0.008 C 
HETATM    4  C14 UNL     1       2.465  -1.825   2.148  1.00  0.00     0.006 C 
HETATM    5  C26 UNL     1       1.187  -2.542   2.588  1.00  0.00     0.008 C 
HETATM    6  C27 UNL     1       0.455  -1.548   3.463  1.00  0.00     0.026 C 
ENDROOT
BRANCH   1   7
HETATM    7  N3  UNL     1      -1.050  -0.831   1.686  1.00  0.00    -0.339 N 
HETATM    8  C10 UNL     1      -2.388  -0.286   1.807  1.00  0.00     0.316 C 
HETATM    9  N2  UNL     1      -3.413  -0.721   0.944  1.00  0.00    -0.343 N 
HETATM   10  O2  UNL     1      -2.507   0.567   2.722  1.00  0.00    -0.247 OA
ATOM     11  H2  UNL     1      -3.220  -1.430   0.236  1.00  0.00     0.164 HD
ATOM     12  H3  UNL     1      -0.859  -1.528   0.966  1.00  0.00     0.164 HD
BRANCH   9  13
HETATM   13  C9  UNL     1      -4.766  -0.149   1.067  1.00  0.00     0.126 C 
BRANCH  13  14
HETATM   14  C8  UNL     1      -4.703   1.285   0.744  1.00  0.00     0.039 C 
BRANCH  14  15
HETATM   15  C7  UNL     1      -5.862   2.162   0.838  1.00  0.00     0.124 C 
BRANCH  15  16
HETATM   16  N1  UNL     1      -7.017   1.867   0.068  1.00  0.00    -0.356 N 
HETATM   17  C6  UNL     1      -7.920   0.851   0.293  1.00  0.00     0.269 C 
HETATM   18  O1  UNL     1      -7.755   0.080   1.310  1.00  0.00    -0.266 OA
ATOM     19  H1  UNL     1      -7.197   2.469  -0.735  1.00  0.00     0.162 HD
BRANCH  17  20
HETATM   20  C5  UNL     1      -9.078   0.538  -0.517  1.00  0.00     0.119 A 
HETATM   21  C4  UNL     1      -9.806  -0.679  -0.413  1.00  0.00     0.063 A 
HETATM   22  C3  UNL     1     -10.854  -0.664  -1.286  1.00  0.00     0.028 A 
HETATM   23  N9  UNL     1     -10.782   0.511  -1.908  1.00  0.00    -0.302 N 
HETATM   24  N8  UNL     1      -9.724   1.226  -1.449  1.00  0.00    -0.291 N 
ATOM     25  H9  UNL     1     -11.431   0.829  -2.628  1.00  0.00     0.186 HD
HETATM   26  C28 UNL     1      -9.442   2.570  -1.957  1.00  0.00     0.178 C 
BRANCH  22  27
HETATM   27  C2  UNL     1     -11.879  -1.753  -1.501  1.00  0.00     0.054 C 
HETATM   28  C1  UNL     1     -11.458  -2.725  -2.554  1.00  0.00     0.011 C 
ENDBRANCH  22  27
ENDBRANCH  17  20
ENDBRANCH  15  16
ENDBRANCH  14  15
ENDBRANCH  13  14
ENDBRANCH   9  13
ENDBRANCH   1   7
BRANCH   4  29
HETATM   29  C15 UNL     1       3.529  -2.784   1.753  1.00  0.00     0.154 C 
BRANCH  29  30
HETATM   30  N4  UNL     1       4.751  -2.084   1.480  1.00  0.00    -0.287 N 
HETATM   31  C16 UNL     1       5.169  -1.598   0.325  1.00  0.00     0.138 A 
HETATM   32  C17 UNL     1       6.393  -1.003   0.500  1.00  0.00     0.053 A 
HETATM   33  N6  UNL     1       6.677  -1.164   1.825  1.00  0.00    -0.289 N 
HETATM   34  N7  UNL     1       5.676  -1.813   2.382  1.00  0.00    -0.241 N 
ATOM     35  H6  UNL     1       7.518  -0.838   2.301  1.00  0.00     0.188 HD
ATOM     36  H7  UNL     1       5.623  -2.069   3.368  1.00  0.00     0.208 HD
BRANCH  32  37
HETATM   37  C18 UNL     1       7.195  -0.349  -0.533  1.00  0.00     0.163 C 
BRANCH  37  38
HETATM   38  C19 UNL     1       6.928   1.085  -0.661  1.00  0.00     0.227 C 
HETATM   39  O3  UNL     1       5.750   1.497  -0.759  1.00  0.00    -0.273 OA
HETATM   40  N5  UNL     1       7.991   2.008  -0.673  1.00  0.00    -0.334 N 
HETATM   41  C20 UNL     1       8.776   2.108  -1.674  1.00  0.00    -0.011 C 
ATOM     42  H5  UNL     1       8.137   2.611   0.137  1.00  0.00     0.168 HD
HETATM   43  C21 UNL     1       8.735   1.338  -2.922  1.00  0.00     0.052 C 
HETATM   44  C25 UNL     1       9.890   3.127  -1.565  1.00  0.00     0.052 C 
HETATM   45  C22 UNL     1       9.979   0.470  -2.957  1.00  0.00     0.006 C 
HETATM   46  C23 UNL     1      11.043   0.949  -1.995  1.00  0.00     0.001 C 
HETATM   47  C24 UNL     1      11.182   2.459  -1.978  1.00  0.00     0.006 C 
ENDBRANCH  37  38
ENDBRANCH  32  37
ENDBRANCH  29  30
ENDBRANCH   4  29
TORSDOF 11
