REMARK  15 active torsions:
REMARK  status: ('A' for Active; 'I' for Inactive)
REMARK    1  A    between atoms: O1_2  and  C2_3 
REMARK    2  A    between atoms: C2_3  and  C5_6 
REMARK    3  A    between atoms: C5_6  and  N1_7 
REMARK    4  A    between atoms: N1_7  and  C6_9 
REMARK    5  A    between atoms: C6_9  and  S2_11 
REMARK    6  A    between atoms: S2_11  and  C7_12 
REMARK    7  A    between atoms: C7_12  and  C8_13 
REMARK       I    between atoms: C8_13  and  N2_15 
REMARK    8  A    between atoms: N2_15  and  C9_17 
REMARK    9  A    between atoms: C9_17  and  C10_18 
REMARK   10  A    between atoms: C9_17  and  C18_26 
REMARK   11  A    between atoms: C10_18  and  C11_19 
REMARK   12  A    between atoms: C11_19  and  C14_22 
REMARK       I    between atoms: C18_26  and  N3_28 
REMARK   13  A    between atoms: N3_28  and  C19_30 
REMARK   14  A    between atoms: C19_30  and  C21_32 
REMARK   15  A    between atoms: C21_32  and  C22_34 
REMARK       I    between atoms: C22_34  and  N4_36 
ROOT
HETATM    1  C9  UNL     1      -0.890  -0.402  -0.640  1.00  0.00     0.177 C 
ENDROOT
BRANCH   1   2
HETATM    2  N2  UNL     1       0.104   0.347   0.081  1.00  0.00    -0.347 N 
HETATM    3  C8  UNL     1       0.301   0.299   1.453  1.00  0.00     0.228 C 
HETATM    4  O2  UNL     1      -0.421  -0.500   2.145  1.00  0.00    -0.273 OA
ATOM      5  H2  UNL     1       0.712   0.962  -0.460  1.00  0.00     0.163 HD
BRANCH   3   6
HETATM    6  C7  UNL     1       1.269   1.099   2.194  1.00  0.00     0.184 C 
BRANCH   6   7
HETATM    7  S2  UNL     1       2.174   2.325   1.296  1.00  0.00    -0.091 SA
BRANCH   7   8
HETATM    8  C6  UNL     1       3.463   1.782   0.236  1.00  0.00     0.135 C 
HETATM    9  S1  UNL     1       4.075   2.843  -0.861  1.00  0.00    -0.053 SA
BRANCH   8  10
HETATM   10  N1  UNL     1       3.898   0.455   0.244  1.00  0.00    -0.373 N 
ATOM     11  H1  UNL     1       3.407  -0.193   0.860  1.00  0.00     0.161 HD
BRANCH  10  12
HETATM   12  C5  UNL     1       4.965  -0.068  -0.532  1.00  0.00     0.158 C 
BRANCH  12  13
HETATM   13  C2  UNL     1       6.339   0.062  -0.026  1.00  0.00     0.069 C 
HETATM   14  C3  UNL     1       6.492  -0.885   1.212  1.00  0.00     0.047 C 
HETATM   15  C4  UNL     1       6.777   1.380   0.455  1.00  0.00     0.047 C 
BRANCH  13  16
HETATM   16  O1  UNL     1       7.201  -0.486  -0.997  1.00  0.00    -0.384 OA
HETATM   17  C1  UNL     1       8.514  -0.527  -0.581  1.00  0.00     0.202 C 
ENDBRANCH  13  16
ENDBRANCH  12  13
ENDBRANCH  10  12
ENDBRANCH   8  10
ENDBRANCH   7   8
ENDBRANCH   6   7
ENDBRANCH   3   6
ENDBRANCH   1   2
BRANCH   1  18
HETATM   18  C10 UNL     1      -0.917  -1.861  -0.568  1.00  0.00     0.044 C 
BRANCH  18  19
HETATM   19  C11 UNL     1       0.221  -2.670  -1.064  1.00  0.00    -0.039 C 
HETATM   20  C12 UNL     1       0.421  -2.356  -2.552  1.00  0.00     0.015 C 
HETATM   21  C13 UNL     1       1.506  -2.392  -0.382  1.00  0.00     0.015 C 
BRANCH  19  22
HETATM   22  C14 UNL     1      -0.211  -4.127  -0.930  1.00  0.00    -0.044 C 
HETATM   23  C15 UNL     1       0.809  -5.092  -1.384  1.00  0.00     0.015 C 
HETATM   24  C16 UNL     1      -1.481  -4.323  -1.759  1.00  0.00     0.015 C 
HETATM   25  C17 UNL     1      -0.564  -4.373   0.517  1.00  0.00     0.015 C 
ENDBRANCH  19  22
ENDBRANCH  18  19
ENDBRANCH   1  18
BRANCH   1  26
HETATM   26  C18 UNL     1      -2.233   0.203  -0.257  1.00  0.00     0.241 C 
HETATM   27  O3  UNL     1      -2.201   1.139   0.567  1.00  0.00    -0.271 OA
HETATM   28  N3  UNL     1      -3.448  -0.258  -0.793  1.00  0.00    -0.348 N 
ATOM     29  H3  UNL     1      -3.445  -1.031  -1.459  1.00  0.00     0.163 HD
BRANCH  28  30
HETATM   30  C19 UNL     1      -4.698   0.350  -0.412  1.00  0.00     0.160 C 
HETATM   31  C20 UNL     1      -5.264  -0.347   0.763  1.00  0.00     0.041 C 
BRANCH  30  32
HETATM   32  C21 UNL     1      -4.653   1.840  -0.316  1.00  0.00     0.238 C 
HETATM   33  O4  UNL     1      -3.889   2.488  -1.090  1.00  0.00    -0.285 OA
BRANCH  32  34
HETATM   34  C22 UNL     1      -5.451   2.584   0.634  1.00  0.00     0.291 C 
HETATM   35  O5  UNL     1      -6.223   2.002   1.466  1.00  0.00    -0.264 OA
HETATM   36  N4  UNL     1      -5.407   4.000   0.678  1.00  0.00    -0.345 N 
HETATM   37  C23 UNL     1      -4.691   4.940  -0.129  1.00  0.00     0.126 C 
HETATM   38  C26 UNL     1      -6.143   4.778   1.685  1.00  0.00     0.126 C 
HETATM   39  C24 UNL     1      -5.361   6.276   0.096  1.00  0.00     0.021 C 
HETATM   40  C25 UNL     1      -6.628   5.957   0.874  1.00  0.00     0.021 C 
ENDBRANCH  32  34
ENDBRANCH  30  32
ENDBRANCH  28  30
ENDBRANCH   1  26
TORSDOF 15
