REMARK  10 active torsions:
REMARK  status: ('A' for Active; 'I' for Inactive)
REMARK       I    between atoms: C3_3  and  N1_5 
REMARK    1  A    between atoms: C4_7  and  C5_8 
REMARK    2  A    between atoms: C5_8  and  C6_9 
REMARK    3  A    between atoms: C5_8  and  C23_38 
REMARK    4  A    between atoms: C6_9  and  C7_10 
REMARK    5  A    between atoms: C8_11  and  C9_12 
REMARK    6  A    between atoms: C12_15  and  C13_16 
REMARK    7  A    between atoms: C13_16  and  N2_17 
REMARK    8  A    between atoms: C20_29  and  N6_30 
REMARK    9  A    between atoms: C23_38  and  C24_39 
REMARK   10  A    between atoms: C24_39  and  O4_40 
ROOT
HETATM    1  C1  UNL     1      -5.932   3.474   1.934  1.00  0.00     0.022 C 
HETATM    2  C2  UNL     1      -6.551   2.456   1.903  1.00  0.00    -0.016 C 
HETATM    3  C3  UNL     1      -7.288   1.231   1.880  1.00  0.00     0.299 C 
HETATM    4  O1  UNL     1      -8.377   1.164   2.502  1.00  0.00    -0.258 OA
HETATM    5  N1  UNL     1      -6.846   0.080   1.181  1.00  0.00    -0.330 N 
ATOM      6  H1  UNL     1      -7.039  -0.831   1.597  1.00  0.00     0.168 HD
HETATM    7  C4  UNL     1      -6.228   0.103   0.075  1.00  0.00     0.070 C 
ENDROOT
BRANCH   7   8
HETATM    8  C5  UNL     1      -5.815  -1.198  -0.560  1.00  0.00     0.029 C 
BRANCH   8   9
HETATM    9  C6  UNL     1      -4.892  -0.953  -1.666  1.00  0.00     0.037 C 
BRANCH   9  10
HETATM   10  C7  UNL     1      -3.613  -0.292  -1.423  1.00  0.00    -0.025 C 
HETATM   11  C8  UNL     1      -3.134   0.165  -0.302  1.00  0.00     0.007 C 
BRANCH  11  12
HETATM   12  C9  UNL     1      -1.844   0.809  -0.162  1.00  0.00    -0.036 A 
HETATM   13  C10 UNL     1      -1.406   1.273   1.092  1.00  0.00     0.012 A 
HETATM   14  C11 UNL     1      -0.195   1.889   1.277  1.00  0.00     0.009 A 
HETATM   15  C12 UNL     1       0.617   2.051   0.163  1.00  0.00    -0.040 A 
HETATM   16  C21 UNL     1       0.217   1.612  -1.057  1.00  0.00     0.009 A 
HETATM   17  C22 UNL     1      -1.018   0.987  -1.229  1.00  0.00     0.012 A 
BRANCH  15  18
HETATM   18  C13 UNL     1       1.959   2.732   0.321  1.00  0.00     0.170 C 
BRANCH  18  19
HETATM   19  N2  UNL     1       2.930   1.743   0.694  1.00  0.00    -0.322 N 
HETATM   20  C14 UNL     1       2.953   1.145   1.932  1.00  0.00     0.186 A 
HETATM   21  N3  UNL     1       3.872   0.193   1.955  1.00  0.00    -0.334 N 
HETATM   22  C15 UNL     1       4.453   0.152   0.768  1.00  0.00     0.175 A 
ATOM     23  H3  UNL     1       4.094  -0.405   2.751  1.00  0.00     0.168 HD
HETATM   24  C16 UNL     1       3.862   1.133  -0.036  1.00  0.00     0.157 A 
HETATM   25  N8  UNL     1       5.447  -0.650   0.361  1.00  0.00    -0.215 N 
HETATM   26  N4  UNL     1       4.354   1.254  -1.279  1.00  0.00    -0.341 N 
HETATM   27  C17 UNL     1       3.869   2.302  -2.145  1.00  0.00     0.157 C 
HETATM   28  C18 UNL     1       5.368   0.441  -1.706  1.00  0.00     0.142 A 
HETATM   29  C19 UNL     1       5.921  -0.519  -0.885  1.00  0.00     0.147 A 
HETATM   30  N5  UNL     1       6.904  -1.425  -1.058  1.00  0.00    -0.305 N 
HETATM   31  C20 UNL     1       7.046  -2.124   0.080  1.00  0.00     0.267 A 
ATOM     32  H5  UNL     1       7.449  -1.557  -1.910  1.00  0.00     0.170 HD
HETATM   33  N7  UNL     1       6.141  -1.632   0.941  1.00  0.00    -0.256 N 
ATOM     34  H7  UNL     1       6.004  -1.960   1.897  1.00  0.00     0.191 HD
BRANCH  31  35
HETATM   35  N6  UNL     1       7.900  -3.078   0.272  1.00  0.00    -0.078 N 
HETATM   36  O2  UNL     1       8.756  -3.450  -0.734  1.00  0.00    -0.529 OA
HETATM   37  O3  UNL     1       7.953  -3.720   1.477  1.00  0.00    -0.529 OA
ENDBRANCH  31  35
ENDBRANCH  18  19
ENDBRANCH  15  18
ENDBRANCH  11  12
ENDBRANCH   9  10
ENDBRANCH   8   9
BRANCH   8  38
HETATM   38  C23 UNL     1      -5.517  -2.233   0.452  1.00  0.00     0.036 C 
BRANCH  38  39
HETATM   39  C24 UNL     1      -5.098  -3.527  -0.139  1.00  0.00     0.165 C 
BRANCH  39  40
HETATM   40  O4  UNL     1      -3.942  -3.522  -0.881  1.00  0.00    -0.401 OA
ATOM     41  H4  UNL     1      -3.674  -4.351  -1.260  1.00  0.00     0.209 HD
ENDBRANCH  39  40
ENDBRANCH  38  39
ENDBRANCH   8  38
ENDBRANCH   7   8
TORSDOF 10
