REMARK  2 active torsions:
REMARK  status: ('A' for Active; 'I' for Inactive)
REMARK    1  A    between atoms: C2_2  and  C3_3 
REMARK    2  A    between atoms: C7_7  and  N1_8 
ROOT
HETATM    1  C3  UNL     1      -0.814   0.565  -0.501  1.00  0.00     0.011 C 
HETATM    2  C4  UNL     1      -0.377   1.076   0.810  1.00  0.00     0.006 C 
HETATM    3  C5  UNL     1       0.866   0.576   1.400  1.00  0.00     0.004 C 
HETATM    4  C6  UNL     1       1.363  -0.754   1.034  1.00  0.00     0.062 C 
HETATM    5  C7  UNL     1       1.940  -0.900  -0.344  1.00  0.00     0.380 C 
HETATM    6  N2  UNL     1       0.882  -1.042  -1.319  1.00  0.00    -0.046 N 
ATOM      7  H21 UNL     1       0.226  -1.785  -1.077  1.00  0.00     0.279 HD
ATOM      8  H22 UNL     1       1.215  -1.430  -2.202  1.00  0.00     0.279 HD
HETATM    9  C8  UNL     1       0.241   0.217  -1.485  1.00  0.00     0.239 C 
ENDROOT
BRANCH   5  10
HETATM   10  N1  UNL     1       2.927   0.053  -0.692  1.00  0.00    -0.050 N 
ATOM     11  H13 UNL     1       2.563   0.997  -0.563  1.00  0.00     0.276 HD
ATOM     12  H12 UNL     1       3.674   0.052   0.002  1.00  0.00     0.276 HD
ATOM     13  H11 UNL     1       3.319  -0.046  -1.628  1.00  0.00     0.276 HD
ENDBRANCH   5  10
BRANCH   1  14
HETATM   14  C2  UNL     1      -1.860  -0.552  -0.388  1.00  0.00     0.002 C 
HETATM   15  C1  UNL     1      -3.088  -0.007   0.338  1.00  0.00     0.005 C 
ENDBRANCH   1  14
TORSDOF 2
