REMARK  8 active torsions:
REMARK  status: ('A' for Active; 'I' for Inactive)
REMARK    1  A    between atoms: N1_2  and  C2_3 
REMARK    2  A    between atoms: N1_2  and  C9_17 
REMARK    3  A    between atoms: C2_3  and  C3_4 
REMARK    4  A    between atoms: C3_4  and  C4_5 
REMARK    5  A    between atoms: C4_5  and  N2_6 
REMARK    6  A    between atoms: N2_6  and  S1_8 
REMARK    7  A    between atoms: S1_8  and  N3_11 
REMARK    8  A    between atoms: N3_11  and  C5_13 
ROOT
HETATM    1  C3  UNL     1      -0.270  -0.366   0.145  1.00  0.00     0.050 C 
ENDROOT
BRANCH   1   2
HETATM    2  C2  UNL     1      -1.574  -0.679  -0.395  1.00  0.00     0.274 C 
BRANCH   2   3
HETATM    3  N1  UNL     1      -2.323   0.570  -0.458  1.00  0.00     0.090 N 
HETATM    4  C1  UNL     1      -1.896   1.306  -1.596  1.00  0.00     0.310 C 
BRANCH   3   5
HETATM    5  C9  UNL     1      -3.713   0.411  -0.270  1.00  0.00     0.248 C 
HETATM    6  C10 UNL     1      -4.372  -0.401  -1.363  1.00  0.00     0.039 C 
HETATM    7  C11 UNL     1      -5.664  -0.980  -0.854  1.00  0.00     0.030 C 
HETATM    8  C12 UNL     1      -6.233  -0.027   0.164  1.00  0.00     0.232 C 
HETATM    9  N4  UNL     1      -5.439  -0.105   1.362  1.00  0.00    -0.073 N 
HETATM   10  C13 UNL     1      -4.022  -0.062   1.111  1.00  0.00     0.268 C 
ATOM     11  H42 UNL     1      -5.711   0.621   2.025  1.00  0.00     0.277 HD
ATOM     12  H41 UNL     1      -5.685  -0.932   1.906  1.00  0.00     0.277 HD
ENDBRANCH   3   5
ENDBRANCH   2   3
ENDBRANCH   1   2
BRANCH   1  13
HETATM   13  C4  UNL     1       0.744  -1.437   0.335  1.00  0.00     0.135 C 
BRANCH  13  14
HETATM   14  N2  UNL     1       2.018  -0.982  -0.163  1.00  0.00    -0.303 N 
ATOM     15  H2  UNL     1       2.503  -1.404  -0.955  1.00  0.00     0.173 HD
BRANCH  14  16
HETATM   16  S1  UNL     1       2.625   0.350   0.730  1.00  0.00     0.315 S 
HETATM   17  O1  UNL     1       1.693   0.790   1.827  1.00  0.00    -0.183 OA
HETATM   18  O2  UNL     1       2.560   1.591  -0.253  1.00  0.00    -0.183 OA
BRANCH  16  19
HETATM   19  N3  UNL     1       4.173   0.167   1.335  1.00  0.00    -0.294 N 
ATOM     20  H3  UNL     1       4.382  -0.016   2.316  1.00  0.00     0.174 HD
BRANCH  19  21
HETATM   21  C5  UNL     1       5.198   0.301   0.289  1.00  0.00     0.031 C 
HETATM   22  C6  UNL     1       5.382   1.684  -0.225  1.00  0.00     0.038 C 
HETATM   23  C7  UNL     1       4.889  -0.601  -0.886  1.00  0.00     0.038 C 
HETATM   24  C8  UNL     1       6.488  -0.188   0.911  1.00  0.00     0.038 C 
ENDBRANCH  19  21
ENDBRANCH  16  19
ENDBRANCH  14  16
ENDBRANCH  13  14
ENDBRANCH   1  13
TORSDOF 8
