REMARK  2 active torsions:
REMARK  status: ('A' for Active; 'I' for Inactive)
REMARK       I    between atoms: N1_2  and  C2_4 
REMARK    1  A    between atoms: C2_4  and  C3_6 
REMARK    2  A    between atoms: N2_10  and  O2_11 
ROOT
HETATM    1  C3  UNL     1      -0.134   0.046   0.781  1.00  0.00     0.127 C 
HETATM    2  C4  UNL     1      -0.825   0.884  -0.269  1.00  0.00     0.046 C 
HETATM    3  C5  UNL     1      -2.303   0.983  -0.059  1.00  0.00     0.035 C 
HETATM    4  C6  UNL     1      -0.206   2.258  -0.468  1.00  0.00     0.035 C 
HETATM    5  N2  UNL     1      -0.376  -0.013  -1.288  1.00  0.00    -0.180 NA
HETATM    6  C7  UNL     1      -0.228  -1.035  -0.247  1.00  0.00     0.046 C 
HETATM    7  C8  UNL     1      -1.435  -1.890  -0.051  1.00  0.00     0.035 C 
HETATM    8  C9  UNL     1       1.008  -1.842  -0.499  1.00  0.00     0.035 C 
ENDROOT
BRANCH   1   9
HETATM    9  C2  UNL     1       1.190   0.491   1.184  1.00  0.00     0.229 C 
HETATM   10  N1  UNL     1       2.285   0.603   0.285  1.00  0.00    -0.346 N 
HETATM   11  C1  UNL     1       3.487   0.383   0.630  1.00  0.00     0.121 C 
ATOM     12  H1  UNL     1       2.097   0.872  -0.681  1.00  0.00     0.167 HD
HETATM   13  O1  UNL     1       1.409   0.799   2.383  1.00  0.00    -0.273 OA
ENDBRANCH   1   9
BRANCH   5  14
HETATM   14  O2  UNL     1      -1.304  -0.359  -2.210  1.00  0.00    -0.311 OA
ATOM     15  H2  UNL     1      -1.006  -0.955  -2.887  1.00  0.00     0.237 HD
ENDBRANCH   5  14
TORSDOF 2
