REMARK  4 active torsions:
REMARK  status: ('A' for Active; 'I' for Inactive)
REMARK    1  A    between atoms: C2_2  and  C3_3 
REMARK       I    between atoms: C3_3  and  N1_5 
REMARK    2  A    between atoms: N1_5  and  N2_7 
REMARK    3  A    between atoms: N2_7  and  C4_8 
REMARK    4  A    between atoms: N2_7  and  S1_12 
ROOT
HETATM    1  N2  UNL     1      -0.761   0.258  -0.630  1.00  0.00    -0.207 N 
ENDROOT
BRANCH   1   2
HETATM    2  N1  UNL     1       0.552   0.570  -0.596  1.00  0.00    -0.258 N 
HETATM    3  C3  UNL     1       1.710  -0.056  -0.145  1.00  0.00     0.236 C 
HETATM    4  O1  UNL     1       1.767  -1.179   0.388  1.00  0.00    -0.272 OA
ATOM      5  H1  UNL     1       0.741   1.488  -0.999  1.00  0.00     0.191 HD
BRANCH   3   6
HETATM    6  C2  UNL     1       3.056   0.652  -0.290  1.00  0.00     0.100 C 
HETATM    7  C1  UNL     1       4.172  -0.240   0.191  1.00  0.00     0.014 C 
ENDBRANCH   3   6
ENDBRANCH   1   2
BRANCH   1   8
HETATM    8  C4  UNL     1      -1.322  -0.932  -0.206  1.00  0.00     0.054 C 
HETATM    9  C5  UNL     1      -1.153  -1.122   1.285  1.00  0.00     0.041 C 
HETATM   10  C6  UNL     1      -2.826  -1.048  -0.442  1.00  0.00     0.041 C 
HETATM   11  C7  UNL     1      -0.739  -2.181  -0.882  1.00  0.00     0.041 C 
ENDBRANCH   1   8
BRANCH   1  12
HETATM   12  S1  UNL     1      -1.751   1.678  -0.543  1.00  0.00     0.242 S 
HETATM   13  C8  UNL     1      -0.943   2.761   0.659  1.00  0.00     0.188 C 
HETATM   14  O2  UNL     1      -1.747   2.406  -1.836  1.00  0.00    -0.205 OA
HETATM   15  O3  UNL     1      -3.100   1.434   0.025  1.00  0.00    -0.205 OA
ENDBRANCH   1  12
TORSDOF 4
