REMARK  3 active torsions:
REMARK  status: ('A' for Active; 'I' for Inactive)
REMARK    1  A    between atoms: C2_2  and  C3_3 
REMARK       I    between atoms: C3_3  and  N1_5 
REMARK    2  A    between atoms: N1_5  and  C4_7 
REMARK    3  A    between atoms: C6_11  and  C7_12 
ROOT
HETATM    1  C4  UNL     1       0.597   0.667   1.149  1.00  0.00     0.210 C 
HETATM    2  C5  UNL     1      -0.303   1.649   0.458  1.00  0.00     0.247 C 
HETATM    3  O2  UNL     1      -0.361   2.885   0.328  1.00  0.00    -0.271 OA
HETATM    4  N2  UNL     1      -1.048   0.545   0.028  1.00  0.00    -0.325 N 
HETATM    5  C6  UNL     1      -1.839  -0.246  -0.819  1.00  0.00     0.121 C 
HETATM    6  C9  UNL     1      -2.147  -1.574  -0.255  1.00  0.00     0.105 C 
HETATM    7  S1  UNL     1      -0.769  -1.802   0.911  1.00  0.00    -0.139 SA
HETATM    8  C10 UNL     1      -0.697  -0.035   1.314  1.00  0.00     0.182 C 
ENDROOT
BRANCH   1   9
HETATM    9  N1  UNL     1       1.568   0.054   0.281  1.00  0.00    -0.342 N 
HETATM   10  C3  UNL     1       2.915   0.023   0.678  1.00  0.00     0.241 C 
HETATM   11  O1  UNL     1       3.257   0.521   1.767  1.00  0.00    -0.269 OA
ATOM     12  H1  UNL     1       1.282  -0.352  -0.610  1.00  0.00     0.163 HD
BRANCH  10  13
HETATM   13  C2  UNL     1       3.936  -0.583  -0.160  1.00  0.00     0.064 C 
HETATM   14  C1  UNL     1       5.211  -0.631   0.179  1.00  0.00     0.017 C 
ENDBRANCH  10  13
ENDBRANCH   1   9
BRANCH   5  15
HETATM   15  C7  UNL     1      -3.093   0.533  -1.149  1.00  0.00     0.006 C 
HETATM   16  C8  UNL     1      -4.038   0.720  -0.240  1.00  0.00     0.054 C 
HETATM   17 BR1  UNL     1      -5.635   1.686  -0.582  1.00  0.00    -0.064 Br
ENDBRANCH   5  15
TORSDOF 3
