REMARK  4 active torsions:
REMARK  status: ('A' for Active; 'I' for Inactive)
REMARK    1  A    between atoms: C1_2  and  C2_3 
REMARK       I    between atoms: C1_2  and  N1_14 
REMARK    2  A    between atoms: C2_3  and  S1_4 
REMARK    3  A    between atoms: S1_4  and  C3_7 
REMARK    4  A    between atoms: N1_14  and  C9_16 
ROOT
HETATM    1  O1  UNL     1      -1.060   0.148  -1.691  1.00  0.00    -0.272 OA
HETATM    2  C1  UNL     1      -0.957   0.230  -0.420  1.00  0.00     0.236 C 
HETATM    3  N1  UNL     1      -2.078   0.669   0.279  1.00  0.00    -0.326 N 
ATOM      4  H1  UNL     1      -1.912   1.452   0.912  1.00  0.00     0.169 HD
ENDROOT
BRANCH   2   5
HETATM    5  C2  UNL     1       0.347  -0.148   0.173  1.00  0.00     0.248 C 
BRANCH   5   6
HETATM    6  S1  UNL     1       1.630   0.558  -0.844  1.00  0.00     0.183 S 
HETATM    7  O2  UNL     1       1.481   0.131  -2.254  1.00  0.00    -0.222 OA
HETATM    8  O3  UNL     1       1.416   2.067  -0.757  1.00  0.00    -0.222 OA
BRANCH   6   9
HETATM    9  C3  UNL     1       3.212   0.185  -0.244  1.00  0.00     0.059 A 
HETATM   10  C4  UNL     1       3.861  -0.997  -0.485  1.00  0.00     0.026 A 
HETATM   11  C5  UNL     1       5.120  -1.211   0.026  1.00  0.00     0.044 A 
HETATM   12  C6  UNL     1       5.768  -0.239   0.795  1.00  0.00     0.116 A 
HETATM   13  F1  UNL     1       7.005  -0.406   1.319  1.00  0.00    -0.206 F 
HETATM   14  C7  UNL     1       5.130   0.963   1.048  1.00  0.00     0.044 A 
HETATM   15  C8  UNL     1       3.867   1.136   0.518  1.00  0.00     0.026 A 
ENDBRANCH   6   9
ENDBRANCH   5   6
ENDBRANCH   2   5
BRANCH   3  16
HETATM   16  C9  UNL     1      -3.280   0.244   0.251  1.00  0.00     0.037 A 
HETATM   17  C10 UNL     1      -3.739  -0.795  -0.519  1.00  0.00     0.046 A 
HETATM   18  C11 UNL     1      -5.075  -1.127  -0.464  1.00  0.00     0.090 A 
HETATM   19  N2  UNL     1      -5.977  -0.482   0.312  1.00  0.00    -0.375 N 
HETATM   20  C12 UNL     1      -5.549   0.538   1.074  1.00  0.00     0.090 A 
ATOM     21  H2  UNL     1      -6.957  -0.763   0.318  1.00  0.00     0.164 HD
HETATM   22  C13 UNL     1      -4.224   0.888   1.040  1.00  0.00     0.046 A 
ENDBRANCH   3  16
TORSDOF 4
