REMARK  8 active torsions:
REMARK  status: ('A' for Active; 'I' for Inactive)
REMARK    1  A    between atoms: C2_2  and  C3_3 
REMARK    2  A    between atoms: C3_3  and  C4_4 
REMARK    3  A    between atoms: C4_4  and  C5_5 
REMARK    4  A    between atoms: C5_5  and  C6_6 
REMARK    5  A    between atoms: C6_6  and  O1_8 
REMARK    6  A    between atoms: C6_6  and  C8_10 
REMARK    7  A    between atoms: C8_10  and  C9_11 
REMARK    8  A    between atoms: C9_11  and  C10_12 
ROOT
HETATM    1  C6  UNL     1       0.336   0.747  -0.312  1.00  0.00     0.054 C 
HETATM    2  C7  UNL     1      -0.251   2.091  -0.019  1.00  0.00     0.045 C 
ENDROOT
BRANCH   1   3
HETATM    3  C5  UNL     1      -0.454  -0.280   0.488  1.00  0.00     0.038 C 
BRANCH   3   4
HETATM    4  C4  UNL     1      -0.324   0.059   1.933  1.00  0.00     0.007 C 
BRANCH   4   5
HETATM    5  C3  UNL     1      -1.057  -0.876   2.847  1.00  0.00     0.026 C 
BRANCH   5   6
HETATM    6  C2  UNL     1      -0.629  -2.269   2.767  1.00  0.00    -0.037 C 
HETATM    7  C1  UNL     1      -0.147  -2.867   3.848  1.00  0.00     0.007 C 
ENDBRANCH   5   6
ENDBRANCH   4   5
ENDBRANCH   3   4
ENDBRANCH   1   3
BRANCH   1   8
HETATM    8  O1  UNL     1       1.670   0.743   0.084  1.00  0.00    -0.390 OA
ATOM      9  H1  UNL     1       2.163   1.384  -0.415  1.00  0.00     0.210 HD
ENDBRANCH   1   8
BRANCH   1  10
HETATM   10  C8  UNL     1       0.244   0.347  -1.759  1.00  0.00     0.041 C 
BRANCH  10  11
HETATM   11  C9  UNL     1       0.962   1.244  -2.695  1.00  0.00     0.029 C 
BRANCH  11  12
HETATM   12  C10 UNL     1       0.807   0.743  -4.081  1.00  0.00    -0.037 C 
HETATM   13  C11 UNL     1       0.124  -0.364  -4.296  1.00  0.00     0.007 C 
ENDBRANCH  11  12
ENDBRANCH  10  11
ENDBRANCH   1  10
TORSDOF 8
