REMARK  3 active torsions:
REMARK  status: ('A' for Active; 'I' for Inactive)
REMARK    1  A    between atoms: S1_2  and  C2_3 
REMARK    2  A    between atoms: C2_3  and  C3_4 
REMARK    3  A    between atoms: C7_12  and  O3_14 
ROOT
HETATM    1  C3  UNL     1       0.859  -0.845   0.302  1.00  0.00     0.179 C 
HETATM    2  O1  UNL     1       0.466  -0.140   1.424  1.00  0.00    -0.376 OA
HETATM    3  C4  UNL     1      -0.481  -0.772   2.189  1.00  0.00     0.229 C 
HETATM    4  C5  UNL     1      -1.626  -1.204   1.281  1.00  0.00     0.291 C 
HETATM    5  O2  UNL     1      -1.135  -2.068   0.329  1.00  0.00    -0.332 OA
HETATM    6  C6  UNL     1      -0.294  -1.344  -0.509  1.00  0.00     0.253 C 
HETATM    7  N1  UNL     1      -1.057  -0.337  -1.158  1.00  0.00    -0.341 N 
ATOM      8  H1  UNL     1      -0.999  -0.182  -2.164  1.00  0.00     0.161 HD
HETATM    9  C7  UNL     1      -1.904   0.440  -0.328  1.00  0.00     0.242 C 
HETATM   10  C8  UNL     1      -3.147   0.815  -1.151  1.00  0.00     0.106 C 
HETATM   11  O4  UNL     1      -2.355  -0.158   0.809  1.00  0.00    -0.306 OA
ENDROOT
BRANCH   1  12
HETATM   12  C2  UNL     1       1.822   0.006  -0.475  1.00  0.00     0.109 C 
BRANCH  12  13
HETATM   13  S1  UNL     1       3.239   0.342   0.631  1.00  0.00    -0.171 SA
HETATM   14  C1  UNL     1       4.481   1.363  -0.186  1.00  0.00     0.089 C 
ENDBRANCH  12  13
ENDBRANCH   1  12
BRANCH   9  15
HETATM   15  O3  UNL     1      -1.275   1.656  -0.024  1.00  0.00    -0.349 OA
ATOM     16  H3  UNL     1      -1.843   2.177   0.532  1.00  0.00     0.215 HD
ENDBRANCH   9  15
TORSDOF 3
