REMARK  5 active torsions:
REMARK  status: ('A' for Active; 'I' for Inactive)
REMARK    1  A    between atoms: N2_6  and  C5_7 
REMARK    2  A    between atoms: C5_7  and  C6_8 
REMARK    3  A    between atoms: C6_8  and  N4_13 
REMARK    4  A    between atoms: N3_9  and  O1_11 
REMARK    5  A    between atoms: N4_13  and  C7_15 
ROOT
HETATM    1  C6  UNL     1      -0.055  -0.977   0.371  1.00  0.00     0.126 C 
HETATM    2  N3  UNL     1       0.345  -1.107   1.591  1.00  0.00    -0.255 N 
ATOM      3  H3  UNL     1       1.292  -0.800   1.815  1.00  0.00     0.195 HD
ENDROOT
BRANCH   1   4
HETATM    4  C5  UNL     1      -1.440  -1.440   0.100  1.00  0.00     0.350 C 
BRANCH   4   5
HETATM    5  N2  UNL     1      -2.300  -0.421  -0.409  1.00  0.00     0.100 N 
HETATM    6  C4  UNL     1      -2.635   0.622   0.481  1.00  0.00     0.278 C 
HETATM    7  C3  UNL     1      -3.617   0.290   1.549  1.00  0.00     0.075 C 
HETATM    8  C2  UNL     1      -4.975  -0.089   1.073  1.00  0.00     0.064 C 
HETATM    9  N1  UNL     1      -5.343   0.340  -0.211  1.00  0.00    -0.376 N 
HETATM   10  C1  UNL     1      -5.928   1.637  -0.314  1.00  0.00     0.154 C 
HETATM   11  C18 UNL     1      -4.561  -0.085  -1.302  1.00  0.00     0.092 C 
HETATM   12  C17 UNL     1      -3.472  -1.064  -0.964  1.00  0.00     0.317 C 
ENDBRANCH   4   5
ENDBRANCH   1   4
BRANCH   1  13
HETATM   13  N4  UNL     1       0.768  -0.439  -0.623  1.00  0.00    -0.368 N 
ATOM     14  H4  UNL     1       0.348  -0.301  -1.542  1.00  0.00     0.161 HD
BRANCH  13  15
HETATM   15  C7  UNL     1       2.138  -0.064  -0.480  1.00  0.00     0.032 C 
HETATM   16  C8  UNL     1       2.407   1.002   0.537  1.00  0.00     0.035 C 
HETATM   17  C9  UNL     1       3.893   1.236   0.617  1.00  0.00    -0.012 C 
HETATM   18  C10 UNL     1       4.455   1.790  -0.658  1.00  0.00     0.009 C 
HETATM   19  C14 UNL     1       4.598  -0.040   1.010  1.00  0.00     0.009 C 
HETATM   20  C11 UNL     1       4.145   0.758  -1.750  1.00  0.00    -0.012 C 
HETATM   21  C12 UNL     1       4.954  -0.469  -1.421  1.00  0.00     0.009 C 
HETATM   22  C16 UNL     1       2.676   0.489  -1.799  1.00  0.00     0.035 C 
HETATM   23  C13 UNL     1       4.428  -1.028  -0.112  1.00  0.00    -0.012 C 
HETATM   24  C15 UNL     1       2.941  -1.327  -0.225  1.00  0.00     0.035 C 
ENDBRANCH  13  15
ENDBRANCH   1  13
BRANCH   2  25
HETATM   25  O1  UNL     1      -0.413  -1.628   2.605  1.00  0.00    -0.288 OA
ATOM     26  H1  UNL     1      -0.119  -1.724   3.503  1.00  0.00     0.244 HD
ENDBRANCH   2  25
TORSDOF 5
