REMARK  4 active torsions:
REMARK  status: ('A' for Active; 'I' for Inactive)
REMARK       I    between atoms: C1_2  and  N2_3 
REMARK       I    between atoms: N3_5  and  C2_7 
REMARK       I    between atoms: C2_7  and  N4_9 
REMARK    1  A    between atoms: N4_9  and  C3_11 
REMARK    2  A    between atoms: N5_17  and  C9_19 
REMARK    3  A    between atoms: C9_19  and  C10_20 
REMARK    4  A    between atoms: C11_21  and  C12_22 
ROOT
HETATM    1  N1  UNL     1       3.273  -1.663  -0.700  1.00  0.00    -0.062 NA
HETATM    2  C1  UNL     1       2.735  -0.505  -0.125  1.00  0.00     0.203 C 
HETATM    3  N2  UNL     1       1.551  -0.582   0.637  1.00  0.00    -0.270 N 
ATOM      4  H2  UNL     1       1.582  -0.561   1.656  1.00  0.00     0.189 HD
HETATM    5  N3  UNL     1       0.455  -0.677   0.025  1.00  0.00    -0.249 N 
ATOM      6  H3  UNL     1       0.490  -0.693  -0.994  1.00  0.00     0.192 HD
HETATM    7  C2  UNL     1      -0.814  -0.763   0.625  1.00  0.00     0.335 C 
HETATM    8  O1  UNL     1      -0.955  -1.353   1.708  1.00  0.00    -0.246 OA
HETATM    9  N4  UNL     1      -1.919  -0.175  -0.017  1.00  0.00    -0.337 N 
ATOM     10  H4  UNL     1      -1.765   0.300  -0.906  1.00  0.00     0.164 HD
HETATM   11  N5  UNL     1       3.308   0.626  -0.284  1.00  0.00    -0.360 N 
ATOM     12  H5  UNL     1       2.903   1.460   0.141  1.00  0.00     0.162 HD
ENDROOT
BRANCH   9  13
HETATM   13  C3  UNL     1      -3.276  -0.209   0.523  1.00  0.00     0.086 C 
HETATM   14  C4  UNL     1      -3.700   1.178   0.840  1.00  0.00     0.025 C 
HETATM   15  C5  UNL     1      -5.150   1.464   0.742  1.00  0.00     0.002 C 
HETATM   16  C6  UNL     1      -5.956   0.158   0.740  1.00  0.00     0.000 C 
HETATM   17  C7  UNL     1      -5.525  -0.505  -0.575  1.00  0.00     0.002 C 
HETATM   18  C8  UNL     1      -4.133  -0.984  -0.395  1.00  0.00     0.025 C 
ENDBRANCH   9  13
BRANCH  11  19
HETATM   19  C9  UNL     1       4.548   0.741  -1.075  1.00  0.00     0.149 C 
BRANCH  19  20
HETATM   20  C10 UNL     1       5.522   1.460  -0.246  1.00  0.00    -0.010 C 
HETATM   21  C11 UNL     1       6.658   0.963   0.117  1.00  0.00    -0.014 C 
BRANCH  21  22
HETATM   22  C12 UNL     1       7.169  -0.371  -0.221  1.00  0.00     0.141 C 
HETATM   23 CL1  UNL     1       7.473  -1.339   1.266  1.00  0.00    -0.126 Cl
ENDBRANCH  21  22
ENDBRANCH  19  20
ENDBRANCH  11  19
TORSDOF 4
