REMARK  1 active torsions:
REMARK  status: ('A' for Active; 'I' for Inactive)
REMARK    1  A    between atoms: C2_2  and  C3_3 
ROOT
HETATM    1  C3  UNL     1      -0.151  -0.024   0.127  1.00  0.00     0.103 A 
HETATM    2  N1  UNL     1       0.848  -0.198  -0.766  1.00  0.00    -0.351 N 
ATOM      3  H1  UNL     1       0.800  -0.796  -1.591  1.00  0.00     0.166 HD
HETATM    4  C4  UNL     1       1.913   0.535  -0.403  1.00  0.00     0.106 A 
HETATM    5  C5  UNL     1       1.562   1.188   0.759  1.00  0.00     0.106 A 
HETATM    6  N2  UNL     1       0.304   0.845   1.079  1.00  0.00    -0.351 N 
ATOM      7  H2  UNL     1      -0.220   1.175   1.890  1.00  0.00     0.166 HD
ENDROOT
BRANCH   1   8
HETATM    8  C2  UNL     1      -1.470  -0.615   0.133  1.00  0.00     0.038 C 
HETATM    9  C1  UNL     1      -1.814  -1.436  -0.823  1.00  0.00     0.015 C 
ENDBRANCH   1   8
TORSDOF 1
