REMARK  8 active torsions:
REMARK  status: ('A' for Active; 'I' for Inactive)
REMARK    1  A    between atoms: O1_2  and  C2_3 
REMARK    2  A    between atoms: C4_5  and  C5_6 
REMARK    3  A    between atoms: C5_6  and  O2_7 
REMARK    4  A    between atoms: O2_7  and  C6_8 
REMARK    5  A    between atoms: C6_8  and  C7_9 
REMARK    6  A    between atoms: C8_10  and  O3_11 
REMARK    7  A    between atoms: C9_13  and  O4_14 
REMARK    8  A    between atoms: C11_17  and  O5_18 
ROOT
HETATM    1  C7  UNL     1       2.443   0.229  -0.054  1.00  0.00     0.026 A 
HETATM    2  C8  UNL     1       3.786  -0.130  -0.175  1.00  0.00     0.109 A 
HETATM    3  C9  UNL     1       4.814   0.766  -0.052  1.00  0.00     0.102 A 
HETATM    4  C10 UNL     1       4.508   2.098   0.207  1.00  0.00     0.077 A 
HETATM    5  C11 UNL     1       3.196   2.502   0.335  1.00  0.00     0.090 A 
HETATM    6  C12 UNL     1       2.194   1.546   0.200  1.00  0.00     0.078 A 
HETATM    7 CL1  UNL     1       0.526   2.049   0.361  1.00  0.00    -0.081 Cl
ENDROOT
BRANCH   1   8
HETATM    8  C6  UNL     1       1.469  -0.845  -0.212  1.00  0.00     0.211 C 
BRANCH   8   9
HETATM    9  O2  UNL     1       0.135  -0.469  -0.088  1.00  0.00    -0.382 OA
BRANCH   9  10
HETATM   10  C5  UNL     1      -0.604  -1.608  -0.268  1.00  0.00     0.208 C 
BRANCH  10  11
HETATM   11  C4  UNL     1      -2.052  -1.479  -0.186  1.00  0.00    -0.010 A 
HETATM   12  C3  UNL     1      -2.771  -0.347   0.053  1.00  0.00     0.049 A 
HETATM   13  C2  UNL     1      -4.169  -0.361   0.107  1.00  0.00     0.090 A 
HETATM   14  C15 UNL     1      -4.869  -1.534  -0.081  1.00  0.00     0.069 A 
HETATM   15  C14 UNL     1      -4.155  -2.680  -0.321  1.00  0.00     0.051 A 
HETATM   16 CL3  UNL     1      -6.611  -1.597  -0.021  1.00  0.00    -0.081 Cl
HETATM   17  C13 UNL     1      -2.775  -2.666  -0.375  1.00  0.00     0.044 A 
HETATM   18 CL2  UNL     1      -1.935  -4.179  -0.689  1.00  0.00    -0.084 Cl
BRANCH  13  19
HETATM   19  O1  UNL     1      -4.846   0.812   0.351  1.00  0.00    -0.354 OA
HETATM   20  C1  UNL     1      -4.229   2.054   0.555  1.00  0.00     0.210 C 
ENDBRANCH  13  19
ENDBRANCH  10  11
ENDBRANCH   9  10
ENDBRANCH   8   9
ENDBRANCH   1   8
BRANCH   2  21
HETATM   21  O3  UNL     1       4.114  -1.458  -0.434  1.00  0.00    -0.357 OA
ATOM     22  H3  UNL     1       5.028  -1.702  -0.516  1.00  0.00     0.217 HD
ENDBRANCH   2  21
BRANCH   3  23
HETATM   23  O4  UNL     1       6.150   0.386  -0.177  1.00  0.00    -0.358 OA
ATOM     24  H4  UNL     1       6.863   1.008  -0.092  1.00  0.00     0.217 HD
ENDBRANCH   3  23
BRANCH   5  25
HETATM   25  O5  UNL     1       2.838   3.817   0.593  1.00  0.00    -0.359 OA
ATOM     26  H5  UNL     1       1.934   4.095   0.681  1.00  0.00     0.217 HD
ENDBRANCH   5  25
TORSDOF 8
