REMARK  2 active torsions:
REMARK  status: ('A' for Active; 'I' for Inactive)
REMARK    1  A    between atoms: C2_2  and  C3_3 
REMARK    2  A    between atoms: C3_3  and  N1_4 
ROOT
HETATM    1  C3  UNL     1       0.343   0.429   0.216  1.00  0.00     0.138 C 
HETATM    2  C4  UNL     1      -0.826   0.349   1.154  1.00  0.00     0.042 C 
HETATM    3  C5  UNL     1      -1.803  -0.668   0.603  1.00  0.00     0.022 C 
HETATM    4  C6  UNL     1      -2.294  -0.054  -0.714  1.00  0.00     0.114 C 
HETATM    5  N2  UNL     1      -1.199  -0.108  -1.630  1.00  0.00    -0.419 N 
ATOM      6  H2  UNL     1      -1.269  -0.586  -2.528  1.00  0.00     0.153 HD
HETATM    7  C7  UNL     1      -0.013   0.541  -1.217  1.00  0.00     0.152 C 
ENDROOT
BRANCH   1   8
HETATM    8  C2  UNL     1       1.248  -0.753   0.519  1.00  0.00     0.036 C 
HETATM    9  C1  UNL     1       2.526  -0.707  -0.256  1.00  0.00     0.007 C 
ENDBRANCH   1   8
BRANCH   1  10
HETATM   10  N1  UNL     1       1.068   1.661   0.572  1.00  0.00    -0.069 N 
ATOM     11  H13 UNL     1       1.403   1.657   1.536  1.00  0.00     0.275 HD
ATOM     12  H12 UNL     1       1.976   1.731   0.112  1.00  0.00     0.275 HD
ATOM     13  H11 UNL     1       0.460   2.455   0.369  1.00  0.00     0.275 HD
ENDBRANCH   1  10
TORSDOF 2
