REMARK  0 active torsions:
REMARK  status: ('A' for Active; 'I' for Inactive)
ROOT
HETATM    1  C1  UNL     1      -2.018  -0.700   0.113  1.00  0.00     0.012 C 
HETATM    2  C2  UNL     1      -0.628  -0.498  -0.459  1.00  0.00     0.006 C 
HETATM    3  C3  UNL     1       0.386  -1.321   0.243  1.00  0.00     0.128 C 
HETATM    4  N1  UNL     1       1.731  -0.948  -0.120  1.00  0.00    -0.351 N 
ATOM      5  H1  UNL     1       2.259  -1.623  -0.673  1.00  0.00     0.163 HD
HETATM    6  C4  UNL     1       2.402   0.270   0.214  1.00  0.00     0.285 C 
HETATM    7  O1  UNL     1       3.627   0.349  -0.133  1.00  0.00    -0.260 OA
HETATM    8  S1  UNL     1       1.703   1.680   1.064  1.00  0.00     0.008 SA
HETATM    9  C5  UNL     1      -0.075   1.736   0.598  1.00  0.00     0.300 C 
HETATM   10  F1  UNL     1      -0.873   1.458   1.661  1.00  0.00    -0.193 F 
HETATM   11  F2  UNL     1      -0.304   3.085   0.276  1.00  0.00    -0.193 F 
HETATM   12  C6  UNL     1      -0.317   0.946  -0.624  1.00  0.00     0.097 C 
ENDROOT
TORSDOF 0
