REMARK  1 active torsions:
REMARK  status: ('A' for Active; 'I' for Inactive)
REMARK    1  A    between atoms: C5_6  and  O2_7 
ROOT
HETATM    1  C1  UNL     1      -2.034  -1.097  -0.027  1.00  0.00     0.010 C 
HETATM    2  C2  UNL     1      -0.807  -0.292  -0.261  1.00  0.00    -0.012 C 
HETATM    3  C3  UNL     1      -0.776   0.987   0.581  1.00  0.00     0.031 C 
HETATM    4  C4  UNL     1       0.489   1.741   0.281  1.00  0.00     0.171 C 
HETATM    5  O1  UNL     1       1.626   0.988   0.319  1.00  0.00    -0.361 OA
HETATM    6  C5  UNL     1       1.605  -0.158  -0.429  1.00  0.00     0.257 C 
HETATM    7  C6  UNL     1       0.472  -1.033   0.125  1.00  0.00     0.065 C 
ENDROOT
BRANCH   6   8
HETATM    8  O2  UNL     1       2.774  -0.868  -0.248  1.00  0.00    -0.371 OA
ATOM      9  H2  UNL     1       2.759  -1.663  -0.767  1.00  0.00     0.212 HD
ENDBRANCH   6   8
TORSDOF 1
