REMARK  11 active torsions:
REMARK  status: ('A' for Active; 'I' for Inactive)
REMARK    1  A    between atoms: C2_2  and  C3_3 
REMARK    2  A    between atoms: C3_3  and  N1_4 
REMARK    3  A    between atoms: N1_4  and  C4_7 
REMARK    4  A    between atoms: C4_7  and  C5_8 
REMARK    5  A    between atoms: C5_8  and  C6_9 
REMARK    6  A    between atoms: C6_9  and  C7_10 
REMARK    7  A    between atoms: C7_10  and  C8_11 
REMARK    8  A    between atoms: C8_11  and  C9_12 
REMARK    9  A    between atoms: C9_12  and  C10_13 
REMARK   10  A    between atoms: C10_13  and  C11_14 
REMARK   11  A    between atoms: C11_14  and  C12_15 
ROOT
HETATM    1  C7  UNL     1       0.982  -0.709   0.412  1.00  0.00     0.000 C 
ENDROOT
BRANCH   1   2
HETATM    2  C6  UNL     1       2.219   0.167   0.475  1.00  0.00     0.002 C 
BRANCH   2   3
HETATM    3  C5  UNL     1       3.401  -0.763   0.600  1.00  0.00     0.027 C 
BRANCH   3   4
HETATM    4  C4  UNL     1       4.721  -0.055   0.685  1.00  0.00     0.232 C 
BRANCH   4   5
HETATM    5  N1  UNL     1       4.949   0.738  -0.479  1.00  0.00    -0.072 N 
ATOM      6  H12 UNL     1       4.181   1.390  -0.639  1.00  0.00     0.277 HD
ATOM      7  H11 UNL     1       4.866   0.180  -1.329  1.00  0.00     0.277 HD
BRANCH   5   8
HETATM    8  C3  UNL     1       6.225   1.431  -0.426  1.00  0.00     0.259 C 
BRANCH   8   9
HETATM    9  C2  UNL     1       7.344   0.466  -0.517  1.00  0.00    -0.010 C 
HETATM   10  C1  UNL     1       8.247   0.490  -1.481  1.00  0.00     0.008 C 
ENDBRANCH   8   9
ENDBRANCH   5   8
ENDBRANCH   4   5
ENDBRANCH   3   4
ENDBRANCH   2   3
ENDBRANCH   1   2
BRANCH   1  11
HETATM   11  C8  UNL     1      -0.278   0.127   0.279  1.00  0.00     0.000 C 
BRANCH  11  12
HETATM   12  C9  UNL     1      -1.444  -0.836   0.231  1.00  0.00     0.000 C 
BRANCH  12  13
HETATM   13  C10 UNL     1      -2.773  -0.126   0.094  1.00  0.00     0.004 C 
BRANCH  13  14
HETATM   14  C11 UNL     1      -3.845  -1.207   0.061  1.00  0.00     0.034 C 
BRANCH  14  15
HETATM   15  C12 UNL     1      -5.210  -0.600  -0.076  1.00  0.00    -0.084 C 
HETATM   16  C13 UNL     1      -6.241  -0.685   0.725  1.00  0.00    -0.024 C 
HETATM   17  C14 UNL     1      -7.396   0.074   0.198  1.00  0.00     0.027 C 
HETATM   18  C15 UNL     1      -6.789   1.054  -0.748  1.00  0.00     0.008 C 
HETATM   19  C16 UNL     1      -5.586   0.260  -1.258  1.00  0.00     0.034 C 
ENDBRANCH  14  15
ENDBRANCH  13  14
ENDBRANCH  12  13
ENDBRANCH  11  12
ENDBRANCH   1  11
TORSDOF 11
