REMARK  11 active torsions:
REMARK  status: ('A' for Active; 'I' for Inactive)
REMARK    1  A    between atoms: C2_2  and  C3_3 
REMARK    2  A    between atoms: C3_3  and  C4_4 
REMARK    3  A    between atoms: C4_4  and  N1_5 
REMARK    4  A    between atoms: N1_5  and  C5_8 
REMARK    5  A    between atoms: C5_8  and  C6_9 
REMARK    6  A    between atoms: C6_9  and  C7_10 
REMARK    7  A    between atoms: C7_10  and  C8_11 
REMARK    8  A    between atoms: C8_11  and  C9_12 
REMARK    9  A    between atoms: C9_12  and  C10_13 
REMARK   10  A    between atoms: C10_13  and  C11_14 
REMARK   11  A    between atoms: C11_14  and  C12_15 
ROOT
HETATM    1  C7  UNL     1       0.987   0.884  -0.313  1.00  0.00     0.002 C 
ENDROOT
BRANCH   1   2
HETATM    2  C6  UNL     1       2.271   0.251  -0.769  1.00  0.00     0.027 C 
BRANCH   2   3
HETATM    3  C5  UNL     1       2.859  -0.681   0.232  1.00  0.00     0.232 C 
BRANCH   3   4
HETATM    4  N1  UNL     1       4.081  -1.296  -0.194  1.00  0.00    -0.075 N 
ATOM      5  H12 UNL     1       3.980  -1.751  -1.101  1.00  0.00     0.277 HD
ATOM      6  H11 UNL     1       4.305  -2.119   0.365  1.00  0.00     0.277 HD
BRANCH   4   7
HETATM    7  C4  UNL     1       5.155  -0.342  -0.193  1.00  0.00     0.236 C 
BRANCH   7   8
HETATM    8  C3  UNL     1       6.432  -0.961  -0.736  1.00  0.00     0.054 C 
BRANCH   8   9
HETATM    9  C2  UNL     1       7.513   0.033  -0.675  1.00  0.00    -0.035 C 
HETATM   10  C1  UNL     1       7.337   1.227  -0.156  1.00  0.00     0.007 C 
ENDBRANCH   8   9
ENDBRANCH   7   8
ENDBRANCH   4   7
ENDBRANCH   3   4
ENDBRANCH   2   3
ENDBRANCH   1   2
BRANCH   1  11
HETATM   11  C8  UNL     1      -0.051  -0.157  -0.000  1.00  0.00     0.000 C 
BRANCH  11  12
HETATM   12  C9  UNL     1      -1.365   0.488   0.442  1.00  0.00     0.000 C 
BRANCH  12  13
HETATM   13  C10 UNL     1      -2.324  -0.644   0.754  1.00  0.00     0.000 C 
BRANCH  13  14
HETATM   14  C11 UNL     1      -3.648  -0.106   1.174  1.00  0.00     0.004 C 
BRANCH  14  15
HETATM   15  C12 UNL     1      -4.262   0.739   0.096  1.00  0.00    -0.014 C 
HETATM   16  C13 UNL     1      -4.480  -0.068  -1.142  1.00  0.00     0.004 C 
HETATM   17  C14 UNL     1      -5.854  -0.642  -1.040  1.00  0.00     0.000 C 
HETATM   18  C15 UNL     1      -6.480  -0.081   0.186  1.00  0.00     0.000 C 
HETATM   19  C16 UNL     1      -5.662   1.105   0.590  1.00  0.00     0.004 C 
ENDBRANCH  14  15
ENDBRANCH  13  14
ENDBRANCH  12  13
ENDBRANCH  11  12
ENDBRANCH   1  11
TORSDOF 11
