REMARK  12 active torsions:
REMARK  status: ('A' for Active; 'I' for Inactive)
REMARK    1  A    between atoms: C2_2  and  C3_3 
REMARK    2  A    between atoms: C3_3  and  N1_4 
REMARK    3  A    between atoms: N1_4  and  C4_7 
REMARK    4  A    between atoms: C4_7  and  C5_8 
REMARK    5  A    between atoms: C4_7  and  C10_13 
REMARK    6  A    between atoms: C5_8  and  C6_9 
REMARK    7  A    between atoms: C6_9  and  C7_10 
REMARK    8  A    between atoms: C7_10  and  C8_11 
REMARK    9  A    between atoms: C10_13  and  C11_14 
REMARK   10  A    between atoms: C11_14  and  C12_15 
REMARK   11  A    between atoms: C12_15  and  C13_16 
REMARK   12  A    between atoms: C13_16  and  C14_17 
ROOT
HETATM    1  C4  UNL     1      -0.394   0.253   0.188  1.00  0.00     0.186 C 
ENDROOT
BRANCH   1   2
HETATM    2  N1  UNL     1      -0.278   1.536   0.848  1.00  0.00    -0.068 N 
ATOM      3  H12 UNL     1       0.662   1.924   0.770  1.00  0.00     0.277 HD
ATOM      4  H11 UNL     1      -0.319   1.450   1.864  1.00  0.00     0.277 HD
BRANCH   2   5
HETATM    5  C3  UNL     1      -1.274   2.433   0.343  1.00  0.00     0.259 C 
BRANCH   5   6
HETATM    6  C2  UNL     1      -1.043   3.752   1.043  1.00  0.00    -0.010 C 
HETATM    7  C1  UNL     1      -0.755   4.846   0.374  1.00  0.00     0.008 C 
ENDBRANCH   5   6
ENDBRANCH   2   5
ENDBRANCH   1   2
BRANCH   1   8
HETATM    8  C5  UNL     1      -1.738  -0.404   0.528  1.00  0.00     0.033 C 
BRANCH   8   9
HETATM    9  C6  UNL     1      -1.881  -1.755  -0.153  1.00  0.00     0.002 C 
BRANCH   9  10
HETATM   10  C7  UNL     1      -3.233  -2.371   0.195  1.00  0.00    -0.000 C 
BRANCH  10  11
HETATM   11  C8  UNL     1      -4.394  -1.532  -0.231  1.00  0.00    -0.005 C 
HETATM   12  C9  UNL     1      -5.677  -2.251   0.162  1.00  0.00     0.005 C 
ENDBRANCH  10  11
ENDBRANCH   9  10
ENDBRANCH   8   9
ENDBRANCH   1   8
BRANCH   1  13
HETATM   13  C10 UNL     1       0.680  -0.657   0.668  1.00  0.00     0.033 C 
BRANCH  13  14
HETATM   14  C11 UNL     1       2.097  -0.117   0.421  1.00  0.00     0.002 C 
BRANCH  14  15
HETATM   15  C12 UNL     1       2.298   0.057  -1.032  1.00  0.00     0.000 C 
BRANCH  15  16
HETATM   16  C13 UNL     1       3.593   0.604  -1.445  1.00  0.00     0.004 C 
BRANCH  16  17
HETATM   17  C14 UNL     1       4.880  -0.021  -1.195  1.00  0.00    -0.014 A 
HETATM   18  C15 UNL     1       5.376  -0.249   0.213  1.00  0.00     0.005 A 
HETATM   19  C16 UNL     1       5.058  -1.391  -0.654  1.00  0.00     0.005 A 
ENDBRANCH  16  17
ENDBRANCH  15  16
ENDBRANCH  14  15
ENDBRANCH  13  14
ENDBRANCH   1  13
TORSDOF 12
