REMARK  13 active torsions:
REMARK  status: ('A' for Active; 'I' for Inactive)
REMARK    1  A    between atoms: C6_7  and  C7_8 
REMARK    2  A    between atoms: C8_9  and  C9_10 
REMARK    3  A    between atoms: C9_10  and  C10_11 
REMARK    4  A    between atoms: C10_11  and  C11_12 
REMARK    5  A    between atoms: C11_12  and  C12_13 
REMARK    6  A    between atoms: C12_13  and  C13_14 
REMARK    7  A    between atoms: C13_14  and  C14_15 
REMARK    8  A    between atoms: C14_15  and  C15_16 
REMARK    9  A    between atoms: C15_16  and  C16_17 
REMARK   10  A    between atoms: C16_17  and  C17_18 
REMARK   11  A    between atoms: C17_18  and  C18_19 
REMARK   12  A    between atoms: C18_19  and  C19_20 
REMARK   13  A    between atoms: C19_20  and  N1_21 
ROOT
HETATM    1  C12 UNL     1       0.449  -0.430  -0.569  1.00  0.00     0.000 C 
ENDROOT
BRANCH   1   2
HETATM    2  C11 UNL     1      -0.664  -0.446   0.465  1.00  0.00     0.000 C 
BRANCH   2   3
HETATM    3  C10 UNL     1      -1.844  -1.249  -0.008  1.00  0.00     0.004 C 
BRANCH   3   4
HETATM    4  C9  UNL     1      -2.911  -1.244   1.063  1.00  0.00     0.027 C 
BRANCH   4   5
HETATM    5  C8  UNL     1      -3.351   0.135   1.339  1.00  0.00    -0.030 C 
HETATM    6  C7  UNL     1      -4.589   0.528   1.162  1.00  0.00    -0.025 C 
BRANCH   6   7
HETATM    7  C6  UNL     1      -5.657  -0.341   0.679  1.00  0.00     0.019 C 
HETATM    8  C3  UNL     1      -6.693   0.363  -0.177  1.00  0.00    -0.003 C 
HETATM    9  C2  UNL     1      -7.520  -0.530  -1.053  1.00  0.00     0.123 C 
HETATM   10  C4  UNL     1      -7.370   0.813   1.069  1.00  0.00     0.013 C 
HETATM   11  C22 UNL     1      -6.182   1.399  -1.110  1.00  0.00     0.189 C 
HETATM   12  C1  UNL     1      -8.050   0.436  -2.044  1.00  0.00     0.259 C 
HETATM   13  O1  UNL     1      -9.048   0.265  -2.777  1.00  0.00    -0.265 OA
HETATM   14  O2  UNL     1      -7.260   1.568  -2.032  1.00  0.00    -0.321 OA
HETATM   15  C5  UNL     1      -6.758  -0.418   1.752  1.00  0.00     0.010 C 
ENDBRANCH   6   7
ENDBRANCH   4   5
ENDBRANCH   3   4
ENDBRANCH   2   3
ENDBRANCH   1   2
BRANCH   1  16
HETATM   16  C13 UNL     1       1.587   0.388  -0.042  1.00  0.00     0.000 C 
BRANCH  16  17
HETATM   17  C14 UNL     1       2.182  -0.115   1.232  1.00  0.00     0.000 C 
BRANCH  17  18
HETATM   18  C15 UNL     1       3.327   0.768   1.687  1.00  0.00     0.000 C 
BRANCH  18  19
HETATM   19  C16 UNL     1       4.444   0.830   0.670  1.00  0.00     0.000 C 
BRANCH  19  20
HETATM   20  C17 UNL     1       5.030  -0.514   0.387  1.00  0.00     0.002 C 
BRANCH  20  21
HETATM   21  C18 UNL     1       6.143  -0.507  -0.628  1.00  0.00     0.022 C 
BRANCH  21  22
HETATM   22  C19 UNL     1       7.262   0.364  -0.128  1.00  0.00     0.150 C 
BRANCH  22  23
HETATM   23  N1  UNL     1       8.329   0.357  -1.106  1.00  0.00    -0.288 N 
HETATM   24  C20 UNL     1       9.357  -0.491  -1.159  1.00  0.00     0.130 A 
HETATM   25  C21 UNL     1      10.125  -0.140  -2.240  1.00  0.00     0.127 A 
HETATM   26  N2  UNL     1       9.522   0.920  -2.802  1.00  0.00    -0.296 N 
HETATM   27  N3  UNL     1       8.433   1.210  -2.104  1.00  0.00    -0.241 N 
ATOM     28  H2  UNL     1       9.848   1.420  -3.629  1.00  0.00     0.187 HD
ATOM     29  H3  UNL     1       7.782   1.969  -2.307  1.00  0.00     0.208 HD
ENDBRANCH  22  23
ENDBRANCH  21  22
ENDBRANCH  20  21
ENDBRANCH  19  20
ENDBRANCH  18  19
ENDBRANCH  17  18
ENDBRANCH  16  17
ENDBRANCH   1  16
TORSDOF 13
