REMARK  17 active torsions:
REMARK  status: ('A' for Active; 'I' for Inactive)
REMARK    1  A    between atoms: N1_1  and  C1_4 
REMARK    2  A    between atoms: C2_7  and  N3_8 
REMARK    3  A    between atoms: C3_11  and  C4_12 
REMARK    4  A    between atoms: C4_12  and  C5_13 
REMARK    5  A    between atoms: C4_12  and  O5_17 
REMARK    6  A    between atoms: C5_13  and  C6_14 
REMARK    7  A    between atoms: O5_17  and  C7_18 
REMARK    8  A    between atoms: N6_22  and  C9_23 
REMARK    9  A    between atoms: C9_23  and  C10_24 
REMARK   10  A    between atoms: C10_24  and  O6_25 
REMARK   11  A    between atoms: C10_24  and  N7_27 
REMARK   12  A    between atoms: C12_29  and  C13_30 
REMARK   13  A    between atoms: C13_30  and  O7_31 
REMARK   14  A    between atoms: C15_35  and  O9_36 
REMARK   15  A    between atoms: C16_38  and  O10_39 
REMARK   16  A    between atoms: C17_41  and  O11_42 
REMARK   17  A    between atoms: C19_48  and  O13_49 
ROOT
HETATM    1  C7  UNL     1      -2.845  -0.197   1.925  1.00  0.00     0.182 C 
HETATM    2  C8  UNL     1      -1.894   0.569   2.830  1.00  0.00     0.167 C 
HETATM    3  N4  UNL     1      -0.563   0.675   2.286  1.00  0.00    -0.129 NA
HETATM    4  N5  UNL     1      -0.610   0.483   0.920  1.00  0.00    -0.054 NA
HETATM    5  N6  UNL     1      -0.921  -0.793   0.562  1.00  0.00    -0.183 NA
HETATM    6  C19 UNL     1      -1.984  -1.333   1.354  1.00  0.00     0.240 C 
ENDROOT
BRANCH   5   7
HETATM    7  C9  UNL     1      -1.118  -0.971  -0.861  1.00  0.00     0.169 C 
BRANCH   7   8
HETATM    8  C10 UNL     1      -0.007  -0.341  -1.665  1.00  0.00     0.254 C 
BRANCH   8   9
HETATM    9  O6  UNL     1      -0.272  -0.560  -3.012  1.00  0.00    -0.374 OA
ATOM     10  H6  UNL     1       0.427  -0.163  -3.518  1.00  0.00     0.212 HD
ENDBRANCH   8   9
BRANCH   8  11
HETATM   11  N7  UNL     1       1.292  -0.926  -1.376  1.00  0.00    -0.269 N 
HETATM   12  C11 UNL     1       2.457  -0.262  -1.221  1.00  0.00     0.131 A 
HETATM   13  C12 UNL     1       3.461  -1.162  -0.954  1.00  0.00     0.092 A 
HETATM   14  C18 UNL     1       2.826  -2.384  -0.960  1.00  0.00     0.273 A 
HETATM   15  O12 UNL     1       3.356  -3.496  -0.762  1.00  0.00    -0.266 OA
HETATM   16  N8  UNL     1       1.523  -2.206  -1.218  1.00  0.00    -0.262 N 
ATOM     17  H8  UNL     1       0.825  -2.947  -1.281  1.00  0.00     0.190 HD
BRANCH  13  18
HETATM   18  C13 UNL     1       4.897  -0.890  -0.706  1.00  0.00     0.227 C 
HETATM   19  O8  UNL     1       5.105   0.446  -0.895  1.00  0.00    -0.346 OA
HETATM   20  C14 UNL     1       5.643   1.151   0.141  1.00  0.00     0.206 C 
HETATM   21  C15 UNL     1       6.886   0.537   0.725  1.00  0.00     0.173 C 
HETATM   22  C16 UNL     1       6.817  -0.958   0.788  1.00  0.00     0.183 C 
HETATM   23  C17 UNL     1       5.353  -1.369   0.641  1.00  0.00     0.217 C 
BRANCH  18  24
HETATM   24  O7  UNL     1       5.701  -1.556  -1.662  1.00  0.00    -0.359 OA
ATOM     25  H7  UNL     1       6.621  -1.382  -1.503  1.00  0.00     0.213 HD
ENDBRANCH  18  24
BRANCH  21  26
HETATM   26  O9  UNL     1       8.016   0.985   0.020  1.00  0.00    -0.391 OA
ATOM     27  H9  UNL     1       8.801   0.597   0.389  1.00  0.00     0.210 HD
ENDBRANCH  21  26
BRANCH  22  28
HETATM   28  O10 UNL     1       7.407  -1.502   1.903  1.00  0.00    -0.390 OA
ATOM     29  H10 UNL     1       7.363  -2.450   1.943  1.00  0.00     0.210 HD
ENDBRANCH  22  28
BRANCH  23  30
HETATM   30  O11 UNL     1       4.572  -0.918   1.684  1.00  0.00    -0.387 OA
ATOM     31  H11 UNL     1       4.861  -1.221   2.537  1.00  0.00     0.210 HD
ENDBRANCH  23  30
ENDBRANCH  13  18
ENDBRANCH   8  11
ENDBRANCH   7   8
ENDBRANCH   5   7
BRANCH   6  32
HETATM   32  O13 UNL     1      -1.429  -2.110   2.364  1.00  0.00    -0.377 OA
ATOM     33  H13 UNL     1      -0.896  -2.813   2.011  1.00  0.00     0.211 HD
ENDBRANCH   6  32
BRANCH   1  34
HETATM   34  O5  UNL     1      -3.362   0.622   1.020  1.00  0.00    -0.369 OA
BRANCH  34  35
HETATM   35  C4  UNL     1      -4.707   0.895   0.913  1.00  0.00     0.176 C 
BRANCH  35  36
HETATM   36  C3  UNL     1      -5.230   0.796  -0.465  1.00  0.00     0.066 A 
HETATM   37  C2  UNL     1      -5.630  -0.247  -1.231  1.00  0.00     0.191 A 
HETATM   38  N2  UNL     1      -5.972  -0.006  -2.485  1.00  0.00    -0.317 N 
HETATM   39  C1  UNL     1      -5.909   1.248  -2.933  1.00  0.00     0.144 A 
ATOM     40  H2  UNL     1      -6.277  -0.763  -3.097  1.00  0.00     0.169 HD
HETATM   41  S1  UNL     1      -5.363   2.110  -1.582  1.00  0.00    -0.052 SA
BRANCH  37  42
HETATM   42  N3  UNL     1      -5.764  -1.616  -0.727  1.00  0.00    -0.097 N 
HETATM   43  O1  UNL     1      -6.152  -2.547  -1.449  1.00  0.00    -0.530 OA
HETATM   44  O2  UNL     1      -5.470  -1.922   0.556  1.00  0.00    -0.530 OA
ENDBRANCH  37  42
BRANCH  39  45
HETATM   45  N1  UNL     1      -6.212   1.675  -4.148  1.00  0.00    -0.380 N 
ATOM     46  H12 UNL     1      -6.541   1.156  -4.962  1.00  0.00     0.158 HD
ATOM     47  H11 UNL     1      -6.164   2.634  -4.491  1.00  0.00     0.158 HD
ENDBRANCH  39  45
ENDBRANCH  35  36
BRANCH  35  48
HETATM   48  C5  UNL     1      -4.930   2.339   1.432  1.00  0.00     0.150 C 
BRANCH  48  49
HETATM   49  C6  UNL     1      -4.263   3.371   0.673  1.00  0.00     0.175 C 
HETATM   50  O3  UNL     1      -4.862   4.498   0.562  1.00  0.00    -0.648 OA
HETATM   51  O4  UNL     1      -3.042   3.293   0.047  1.00  0.00    -0.648 OA
ENDBRANCH  48  49
ENDBRANCH  35  48
ENDBRANCH  34  35
ENDBRANCH   1  34
TORSDOF 17
