REMARK  8 active torsions:
REMARK  status: ('A' for Active; 'I' for Inactive)
REMARK    1  A    between atoms: C18_21  and  O4_22 
REMARK    2  A    between atoms: C18_21  and  C19_24 
REMARK    3  A    between atoms: C19_24  and  C20_26 
REMARK    4  A    between atoms: C20_26  and  C21_27 
REMARK    5  A    between atoms: C21_27  and  C22_28 
REMARK    6  A    between atoms: C22_28  and  C23_29 
REMARK    7  A    between atoms: C23_29  and  C24_30 
REMARK    8  A    between atoms: C24_30  and  N1_31 
ROOT
HETATM    1  C1  UNL     1      -4.616  -1.350   1.597  1.00  0.00     0.018 C 
HETATM    2  C2  UNL     1      -4.193  -0.354   0.524  1.00  0.00    -0.013 C 
HETATM    3  C3  UNL     1      -5.199  -0.455  -0.586  1.00  0.00     0.022 C 
HETATM    4  C4  UNL     1      -6.532   0.099  -0.218  1.00  0.00     0.112 C 
HETATM    5  C5  UNL     1      -6.425   1.309   0.604  1.00  0.00     0.259 C 
HETATM    6  O1  UNL     1      -7.314   2.219   0.532  1.00  0.00    -0.265 OA
HETATM    7  O2  UNL     1      -5.382   1.491   1.457  1.00  0.00    -0.315 OA
HETATM    8  C6  UNL     1      -4.093   0.981   1.170  1.00  0.00     0.140 C 
HETATM    9  C7  UNL     1      -3.249   1.989   0.470  1.00  0.00     0.034 C 
HETATM   10  C8  UNL     1      -2.772   1.595  -0.890  1.00  0.00     0.008 C 
HETATM   11  C9  UNL     1      -2.336   0.184  -1.047  1.00  0.00    -0.004 C 
HETATM   12  C10 UNL     1      -2.817  -0.770  -0.003  1.00  0.00     0.001 C 
HETATM   13  C11 UNL     1      -1.872  -1.074   1.095  1.00  0.00     0.007 C 
HETATM   14  C12 UNL     1      -0.571  -0.360   1.094  1.00  0.00     0.014 C 
HETATM   15  C13 UNL     1       0.052  -0.033  -0.187  1.00  0.00     0.006 C 
HETATM   16  C14 UNL     1       0.688   1.367  -0.161  1.00  0.00     0.020 C 
HETATM   17  C15 UNL     1      -0.889  -0.023  -1.370  1.00  0.00     0.009 C 
HETATM   18  C16 UNL     1      -0.743  -1.404  -2.041  1.00  0.00     0.088 C 
HETATM   19  C17 UNL     1       0.292  -2.093  -1.181  1.00  0.00     0.169 C 
HETATM   20  O3  UNL     1       0.460  -3.243  -0.912  1.00  0.00    -0.294 OA
HETATM   21  C18 UNL     1       1.116  -0.941  -0.711  1.00  0.00     0.185 C 
ENDROOT
BRANCH  21  22
HETATM   22  O4  UNL     1       1.584  -0.343  -1.918  1.00  0.00    -0.374 OA
ATOM     23  H4  UNL     1       2.261  -0.920  -2.251  1.00  0.00     0.211 HD
ENDBRANCH  21  22
BRANCH  21  24
HETATM   24  C19 UNL     1       2.249  -1.256   0.117  1.00  0.00     0.169 C 
HETATM   25  O5  UNL     1       2.288  -1.729   1.239  1.00  0.00    -0.294 OA
BRANCH  24  26
HETATM   26  C20 UNL     1       3.633  -0.984  -0.423  1.00  0.00     0.082 C 
BRANCH  26  27
HETATM   27  C21 UNL     1       4.413  -0.132   0.559  1.00  0.00     0.007 C 
BRANCH  27  28
HETATM   28  C22 UNL     1       5.812   0.144   0.045  1.00  0.00     0.002 C 
BRANCH  28  29
HETATM   29  C23 UNL     1       6.595   1.006   1.002  1.00  0.00     0.027 C 
BRANCH  29  30
HETATM   30  C24 UNL     1       7.980   1.232   0.424  1.00  0.00     0.229 C 
BRANCH  30  31
HETATM   31  N1  UNL     1       8.681  -0.031   0.238  1.00  0.00    -0.079 N 
ATOM     32  H13 UNL     1       8.718  -0.572   1.102  1.00  0.00     0.274 HD
ATOM     33  H12 UNL     1       8.138  -0.682  -0.329  1.00  0.00     0.274 HD
ATOM     34  H11 UNL     1       9.612   0.121  -0.150  1.00  0.00     0.274 HD
ENDBRANCH  30  31
ENDBRANCH  29  30
ENDBRANCH  28  29
ENDBRANCH  27  28
ENDBRANCH  26  27
ENDBRANCH  24  26
ENDBRANCH  21  24
TORSDOF 8
