REMARK  7 active torsions:
REMARK  status: ('A' for Active; 'I' for Inactive)
REMARK    1  A    between atoms: O1_2  and  C2_3 
REMARK    2  A    between atoms: C4_6  and  O3_7 
REMARK    3  A    between atoms: O3_7  and  C5_8 
REMARK    4  A    between atoms: C5_8  and  C7_10 
REMARK    5  A    between atoms: C10_13  and  O4_14 
REMARK    6  A    between atoms: O4_14  and  C11_15 
REMARK    7  A    between atoms: C22_27  and  N1_28 
REMARK       I    between atoms: N1_28  and  C23_30 
REMARK       I    between atoms: C23_30  and  N2_32 
ROOT
HETATM    1  C11 UNL     1      -0.578   0.442  -0.594  1.00  0.00     0.117 A 
HETATM    2  C12 UNL     1      -0.567   1.698  -0.044  1.00  0.00    -0.019 A 
HETATM    3  C13 UNL     1      -1.788   2.540   0.113  1.00  0.00     0.052 C 
HETATM    4  C14 UNL     1       0.614   2.296   0.381  1.00  0.00    -0.046 A 
HETATM    5  C15 UNL     1       0.648   3.651   0.989  1.00  0.00     0.049 C 
HETATM    6  C16 UNL     1       1.837   1.599   0.242  1.00  0.00    -0.041 A 
HETATM    7  C17 UNL     1       1.856   0.352  -0.302  1.00  0.00     0.000 A 
HETATM    8  C18 UNL     1       0.623  -0.206  -0.714  1.00  0.00     0.158 A 
HETATM    9  F1  UNL     1       0.727  -1.445  -1.240  1.00  0.00    -0.203 F 
HETATM   10  C19 UNL     1       3.087  -0.401  -0.471  1.00  0.00     0.004 C 
HETATM   11  C20 UNL     1       2.907  -1.756   0.208  1.00  0.00     0.022 C 
HETATM   12  C21 UNL     1       3.421  -0.730  -1.909  1.00  0.00     0.022 C 
HETATM   13  C22 UNL     1       4.245   0.250   0.221  1.00  0.00     0.099 C 
HETATM   14  C26 UNL     1       4.209   1.755  -0.115  1.00  0.00     0.031 C 
HETATM   15  C27 UNL     1       3.062   2.288   0.712  1.00  0.00     0.042 C 
ENDROOT
BRANCH   1  16
HETATM   16  O4  UNL     1      -1.750  -0.136  -1.000  1.00  0.00    -0.312 OA
BRANCH  16  17
HETATM   17  C10 UNL     1      -2.564  -1.018  -0.273  1.00  0.00     0.322 C 
HETATM   18  C4  UNL     1      -3.938  -0.535   0.064  1.00  0.00     0.315 C 
HETATM   19  O2  UNL     1      -4.818  -1.348  -0.686  1.00  0.00    -0.354 OA
HETATM   20  C3  UNL     1      -4.986  -0.960  -1.974  1.00  0.00     0.205 C 
HETATM   21  C2  UNL     1      -3.837  -1.147  -2.883  1.00  0.00     0.173 C 
HETATM   22  C28 UNL     1      -2.716  -2.000  -2.387  1.00  0.00     0.151 C 
HETATM   23  O6  UNL     1      -2.637  -2.184  -1.033  1.00  0.00    -0.348 OA
HETATM   24  C29 UNL     1      -2.626  -3.297  -3.162  1.00  0.00     0.042 C 
BRANCH  18  25
HETATM   25  O3  UNL     1      -4.314  -0.845   1.400  1.00  0.00    -0.351 OA
BRANCH  25  26
HETATM   26  C5  UNL     1      -4.863   0.210   2.071  1.00  0.00     0.124 C 
HETATM   27  C6  UNL     1      -6.389  -0.057   2.288  1.00  0.00     0.040 C 
BRANCH  26  28
HETATM   28  C7  UNL     1      -4.320   0.319   3.458  1.00  0.00     0.006 C 
HETATM   29  C8  UNL     1      -4.937   1.492   4.211  1.00  0.00     0.012 C 
HETATM   30  C9  UNL     1      -2.836   0.468   3.449  1.00  0.00     0.012 C 
ENDBRANCH  26  28
ENDBRANCH  25  26
ENDBRANCH  18  25
BRANCH  21  31
HETATM   31  O1  UNL     1      -3.401   0.099  -3.342  1.00  0.00    -0.386 OA
HETATM   32  C1  UNL     1      -3.570   0.303  -4.686  1.00  0.00     0.202 C 
ENDBRANCH  21  31
ENDBRANCH  16  17
ENDBRANCH   1  16
BRANCH  13  33
HETATM   33  N1  UNL     1       5.522  -0.260  -0.155  1.00  0.00    -0.337 N 
HETATM   34  C23 UNL     1       6.422  -0.702   0.852  1.00  0.00     0.317 C 
HETATM   35  O5  UNL     1       6.089  -0.643   2.085  1.00  0.00    -0.247 OA
HETATM   36  N2  UNL     1       7.715  -1.225   0.581  1.00  0.00    -0.343 N 
HETATM   37  C24 UNL     1       8.146  -1.316  -0.796  1.00  0.00     0.154 C 
HETATM   38  C25 UNL     1       8.620  -1.670   1.607  1.00  0.00     0.154 C 
ATOM     39  H1  UNL     1       5.788  -0.307  -1.139  1.00  0.00     0.164 HD
ENDBRANCH  13  33
TORSDOF 7
