REMARK  8 active torsions:
REMARK  status: ('A' for Active; 'I' for Inactive)
REMARK    1  A    between atoms: C2_2  and  N1_3 
REMARK    2  A    between atoms: N1_3  and  C3_4 
REMARK    3  A    between atoms: N1_3  and  C9_14 
REMARK    4  A    between atoms: C3_4  and  C4_5 
REMARK    5  A    between atoms: C4_5  and  C5_6 
REMARK    6  A    between atoms: C8_11  and  O3_12 
REMARK    7  A    between atoms: C9_14  and  C10_15 
REMARK    8  A    between atoms: C10_15  and  C11_16 
ROOT
HETATM    1  C11 UNL     1      -1.044  -1.249   0.171  1.00  0.00     0.072 C 
HETATM    2  C12 UNL     1      -0.921  -1.713   1.599  1.00  0.00     0.071 C 
HETATM    3  N2  UNL     1      -0.804  -2.044   2.730  1.00  0.00    -0.196 NA
HETATM    4  C13 UNL     1      -2.076  -0.186   0.051  1.00  0.00     0.020 C 
HETATM    5  C14 UNL     1      -2.541  -0.009  -1.389  1.00  0.00     0.024 C 
HETATM    6  C15 UNL     1      -3.248  -0.628   0.867  1.00  0.00    -0.007 C 
HETATM    7  N3  UNL     1      -3.523  -1.903   0.697  1.00  0.00    -0.386 N 
ATOM      8  H3  UNL     1      -4.322  -2.221   1.245  1.00  0.00     0.160 HD
HETATM    9  C16 UNL     1      -2.950  -2.907  -0.075  1.00  0.00     0.031 C 
HETATM   10  C17 UNL     1      -3.106  -4.178   0.838  1.00  0.00     0.039 C 
HETATM   11  C18 UNL     1      -3.843  -3.407  -1.208  1.00  0.00     0.039 C 
HETATM   12  C19 UNL     1      -1.544  -2.640  -0.440  1.00  0.00    -0.001 C 
HETATM   13  C20 UNL     1      -1.125  -2.827  -1.852  1.00  0.00     0.019 C 
HETATM   14  C21 UNL     1      -0.660  -3.659   0.312  1.00  0.00     0.019 C 
HETATM   15  C22 UNL     1      -4.277  -0.184   1.851  1.00  0.00     0.057 C 
HETATM   16  C23 UNL     1      -4.015   1.100   2.621  1.00  0.00     0.040 C 
HETATM   17  C24 UNL     1      -3.149   1.922   1.798  1.00  0.00    -0.077 C 
HETATM   18  C25 UNL     1      -3.622   2.901   1.078  1.00  0.00     0.002 C 
HETATM   19  C26 UNL     1      -2.508   3.571   0.285  1.00  0.00     0.055 C 
HETATM   20 CL1  UNL     1      -3.189   4.669  -0.913  1.00  0.00    -0.115 Cl
HETATM   21  C27 UNL     1      -1.363   4.053   1.031  1.00  0.00     0.030 C 
HETATM   22  C28 UNL     1      -0.860   2.937   1.878  1.00  0.00     0.011 C 
HETATM   23  C29 UNL     1      -1.670   1.679   1.713  1.00  0.00     0.019 C 
HETATM   24  C30 UNL     1      -1.546   1.186   0.319  1.00  0.00     0.011 C 
HETATM   25  C31 UNL     1      -2.063   2.297  -0.537  1.00  0.00     0.036 C 
ENDROOT
BRANCH   1  26
HETATM   26  C10 UNL     1       0.310  -1.166  -0.386  1.00  0.00     0.047 C 
BRANCH  26  27
HETATM   27  C9  UNL     1       1.433  -0.479   0.284  1.00  0.00     0.129 C 
BRANCH  27  28
HETATM   28  N1  UNL     1       2.633  -0.542  -0.556  1.00  0.00    -0.374 N 
BRANCH  28  29
HETATM   29  C2  UNL     1       3.223  -1.795  -0.740  1.00  0.00     0.058 C 
HETATM   30  C1  UNL     1       3.919  -2.036  -2.050  1.00  0.00     0.055 C 
ENDBRANCH  28  29
BRANCH  28  31
HETATM   31  C3  UNL     1       3.517   0.534  -0.338  1.00  0.00     0.063 C 
BRANCH  31  32
HETATM   32  C4  UNL     1       4.353   0.971  -1.475  1.00  0.00     0.054 C 
BRANCH  32  33
HETATM   33  C5  UNL     1       5.226   2.174  -1.088  1.00  0.00     0.053 C 
HETATM   34  C6  UNL     1       6.136   1.788   0.053  1.00  0.00     0.186 C 
HETATM   35  O1  UNL     1       5.563   2.313   1.220  1.00  0.00    -0.319 OA
HETATM   36  C7  UNL     1       4.604   3.280   0.892  1.00  0.00     0.288 C 
HETATM   37  O2  UNL     1       3.967   3.998   1.700  1.00  0.00    -0.262 OA
HETATM   38  C8  UNL     1       4.447   3.332  -0.582  1.00  0.00     0.224 C 
BRANCH  38  39
HETATM   39  O3  UNL     1       5.080   4.531  -0.983  1.00  0.00    -0.385 OA
ATOM     40  H3  UNL     1       4.581   5.272  -0.659  1.00  0.00     0.210 HD
ENDBRANCH  38  39
ENDBRANCH  32  33
ENDBRANCH  31  32
ENDBRANCH  28  31
ENDBRANCH  27  28
ENDBRANCH  26  27
ENDBRANCH   1  26
TORSDOF 8
