REMARK  6 active torsions:
REMARK  status: ('A' for Active; 'I' for Inactive)
REMARK    1  A    between atoms: C2_2  and  C3_3 
REMARK    2  A    between atoms: C3_3  and  C4_4 
REMARK    3  A    between atoms: C5_5  and  C6_6 
REMARK    4  A    between atoms: C6_6  and  C7_7 
REMARK    5  A    between atoms: N1_12  and  N2_14 
REMARK    6  A    between atoms: N2_14  and  C12_16 
ROOT
HETATM    1  C7  UNL     1       0.353  -0.686  -0.261  1.00  0.00     0.086 C 
HETATM    2  C8  UNL     1       0.506  -2.134   0.024  1.00  0.00     0.026 C 
HETATM    3  C9  UNL     1       1.606  -2.347   1.073  1.00  0.00     0.010 C 
HETATM    4  C10 UNL     1       2.909  -2.013   0.377  1.00  0.00     0.077 C 
HETATM    5  C11 UNL     1       2.856  -0.568   0.032  1.00  0.00     0.092 C 
HETATM    6  N1  UNL     1       3.923   0.142   0.152  1.00  0.00    -0.287 N 
ATOM      7  H1  UNL     1       4.792  -0.280   0.479  1.00  0.00     0.188 HD
HETATM    8  N4  UNL     1       1.652  -0.015  -0.414  1.00  0.00    -0.374 N 
ATOM      9  H4  UNL     1       1.676   0.898  -0.868  1.00  0.00     0.161 HD
ENDROOT
BRANCH   6  10
HETATM   10  N2  UNL     1       3.872   1.490  -0.171  1.00  0.00    -0.277 N 
ATOM     11  H2  UNL     1       3.059   2.060   0.064  1.00  0.00     0.189 HD
BRANCH  10  12
HETATM   12  C12 UNL     1       5.003   2.051  -0.846  1.00  0.00     0.199 C 
HETATM   13  N3  UNL     1       4.962   3.434  -1.183  1.00  0.00    -0.068 NA
HETATM   14  S1  UNL     1       6.302   1.165  -1.228  1.00  0.00    -0.043 SA
ENDBRANCH  10  12
ENDBRANCH   6  10
BRANCH   1  15
HETATM   15  C6  UNL     1      -0.465   0.011   0.793  1.00  0.00     0.051 C 
BRANCH  15  16
HETATM   16  C5  UNL     1      -1.832  -0.531   0.901  1.00  0.00    -0.029 C 
HETATM   17  C4  UNL     1      -2.874   0.254   0.682  1.00  0.00    -0.031 C 
BRANCH  17  18
HETATM   18  C3  UNL     1      -4.259  -0.294   0.791  1.00  0.00     0.026 C 
BRANCH  18  19
HETATM   19  C2  UNL     1      -4.932  -0.116  -0.568  1.00  0.00    -0.001 C 
HETATM   20  C1  UNL     1      -4.926   1.390  -0.837  1.00  0.00     0.005 C 
ENDBRANCH  18  19
ENDBRANCH  17  18
ENDBRANCH  15  16
ENDBRANCH   1  15
TORSDOF 6
