REMARK  4 active torsions:
REMARK  status: ('A' for Active; 'I' for Inactive)
REMARK    1  A    between atoms: C5_8  and  N3_9 
REMARK       I    between atoms: N3_9  and  C6_11 
REMARK    2  A    between atoms: C6_11  and  C7_13 
REMARK    3  A    between atoms: C8_14  and  N4_15 
REMARK    4  A    between atoms: N4_15  and  C9_17 
ROOT
HETATM    1  C7  UNL     1       1.114   0.640  -0.304  1.00  0.00     0.092 C 
HETATM    2  C8  UNL     1       2.232   0.553  -0.995  1.00  0.00     0.112 C 
ENDROOT
BRANCH   1   3
HETATM    3  C6  UNL     1      -0.142   0.011  -0.767  1.00  0.00     0.247 C 
HETATM    4  N3  UNL     1      -1.310   0.128  -0.003  1.00  0.00    -0.321 N 
ATOM      5  H3  UNL     1      -1.220   0.662   0.861  1.00  0.00     0.169 HD
HETATM    6  O1  UNL     1      -0.062  -0.598  -1.843  1.00  0.00    -0.268 OA
BRANCH   4   7
HETATM    7  C5  UNL     1      -2.592  -0.392  -0.267  1.00  0.00     0.074 A 
HETATM    8  C1  UNL     1      -3.634  -0.157   0.639  1.00  0.00     0.075 A 
HETATM    9  N1  UNL     1      -3.332   0.617   1.810  1.00  0.00    -0.100 NA
HETATM   10  C2  UNL     1      -4.911  -0.632   0.448  1.00  0.00     0.046 A 
HETATM   11  C3  UNL     1      -5.179  -1.367  -0.672  1.00  0.00     0.089 A 
HETATM   12  N2  UNL     1      -4.204  -1.609  -1.556  1.00  0.00    -0.373 N 
HETATM   13  C4  UNL     1      -2.935  -1.134  -1.363  1.00  0.00     0.119 A 
ATOM     14  H2  UNL     1      -4.411  -2.158  -2.390  1.00  0.00     0.164 HD
ENDBRANCH   4   7
ENDBRANCH   1   3
BRANCH   2  15
HETATM   15  N4  UNL     1       3.405   1.168  -0.516  1.00  0.00    -0.199 N 
ATOM     16  H4  UNL     1       3.437   2.187  -0.509  1.00  0.00     0.183 HD
BRANCH  15  17
HETATM   17  C9  UNL     1       4.435   0.537  -0.088  1.00  0.00     0.713 A 
HETATM   18  N5  UNL     1       4.620  -0.796  -0.004  1.00  0.00    -0.115 N 
HETATM   19  N6  UNL     1       5.830  -0.974   0.496  1.00  0.00    -0.213 N 
ATOM     20  H5  UNL     1       3.957  -1.523  -0.273  1.00  0.00     0.207 HD
HETATM   21  N7  UNL     1       6.388   0.181   0.718  1.00  0.00    -0.213 N 
ATOM     22  H6  UNL     1       6.262  -1.880   0.680  1.00  0.00     0.210 HD
HETATM   23  N8  UNL     1       5.542   1.120   0.364  1.00  0.00    -0.115 N 
ATOM     24  H7  UNL     1       7.321   0.330   1.101  1.00  0.00     0.210 HD
ATOM     25  H8  UNL     1       5.705   2.125   0.425  1.00  0.00     0.207 HD
ENDBRANCH  15  17
ENDBRANCH   2  15
TORSDOF 4
