REMARK  4 active torsions:
REMARK  status: ('A' for Active; 'I' for Inactive)
REMARK    1  A    between atoms: C3_3  and  O1_4 
REMARK    2  A    between atoms: O1_4  and  C4_5 
REMARK    3  A    between atoms: C5_8  and  N2_9 
REMARK    4  A    between atoms: C7_15  and  C8_16 
ROOT
HETATM    1  C1  UNL     1       4.472  -2.618  -0.205  1.00  0.00     0.014 C 
HETATM    2  C2  UNL     1       3.926  -1.558  -0.028  1.00  0.00    -0.091 C 
HETATM    3  C3  UNL     1       3.246  -0.283   0.205  1.00  0.00     0.270 C 
ENDROOT
BRANCH   3   4
HETATM    4  O1  UNL     1       1.874  -0.339  -0.127  1.00  0.00    -0.323 OA
BRANCH   4   5
HETATM    5  C4  UNL     1       1.107   0.798   0.042  1.00  0.00     0.170 A 
HETATM    6  N1  UNL     1       1.673   1.932   0.513  1.00  0.00    -0.170 N 
HETATM    7  C5  UNL     1       0.972   3.051   0.694  1.00  0.00     0.677 A 
ATOM      8  H1  UNL     1       2.668   1.931   0.737  1.00  0.00     0.186 HD
HETATM    9  N3  UNL     1      -0.321   3.047   0.400  1.00  0.00    -0.201 N 
HETATM   10  C6  UNL     1      -0.933   1.969  -0.065  1.00  0.00     0.122 A 
ATOM     11  H3  UNL     1      -0.861   3.901   0.536  1.00  0.00     0.183 HD
HETATM   12  C7  UNL     1      -0.226   0.781  -0.264  1.00  0.00     0.034 A 
BRANCH   7  13
HETATM   13  N2  UNL     1       1.539   4.123   1.149  1.00  0.00    -0.234 N 
ATOM     14  H22 UNL     1       2.534   4.126   1.375  1.00  0.00     0.174 HD
ATOM     15  H21 UNL     1       1.003   4.979   1.288  1.00  0.00     0.174 HD
ENDBRANCH   7  13
BRANCH  12  16
HETATM   16  C8  UNL     1      -0.897  -0.374  -0.786  1.00  0.00     0.051 C 
HETATM   17  C9  UNL     1      -2.052  -0.813  -0.265  1.00  0.00     0.089 A 
HETATM   18  N4  UNL     1      -2.790  -0.279   0.823  1.00  0.00    -0.281 N 
HETATM   19  C10 UNL     1      -2.824  -1.961  -0.720  1.00  0.00     0.157 A 
HETATM   20  N5  UNL     1      -3.945  -1.091   0.989  1.00  0.00    -0.021 NA
ATOM     21  H4  UNL     1      -2.538   0.536   1.382  1.00  0.00     0.184 HD
HETATM   22  N6  UNL     1      -3.894  -2.086   0.021  1.00  0.00    -0.270 N 
ATOM     23  H6  UNL     1      -4.597  -2.816  -0.096  1.00  0.00     0.185 HD
HETATM   24  N7  UNL     1      -2.437  -2.790  -1.812  1.00  0.00    -0.079 NA
ENDBRANCH  12  16
ENDBRANCH   4   5
ENDBRANCH   3   4
TORSDOF 4
