REMARK  4 active torsions:
REMARK  status: ('A' for Active; 'I' for Inactive)
REMARK    1  A    between atoms: C6_6  and  C7_7 
REMARK    2  A    between atoms: C8_8  and  N1_9 
REMARK    3  A    between atoms: N1_9  and  N2_11 
REMARK    4  A    between atoms: N2_11  and  C9_13 
ROOT
HETATM    1  C7  UNL     1       0.375  -0.178  -1.219  1.00  0.00     0.031 C 
HETATM    2  C8  UNL     1       1.511   0.588  -0.799  1.00  0.00     0.108 C 
ENDROOT
BRANCH   2   3
HETATM    3  N1  UNL     1       1.885   0.442   0.589  1.00  0.00    -0.298 N 
ATOM      4  H1  UNL     1       1.328  -0.160   1.196  1.00  0.00     0.186 HD
BRANCH   3   5
HETATM    5  N2  UNL     1       3.014   1.121   1.126  1.00  0.00    -0.130 N 
ATOM      6  H2  UNL     1       2.942   2.103   1.392  1.00  0.00     0.205 HD
BRANCH   5   7
HETATM    7  C9  UNL     1       4.137   0.484   1.276  1.00  0.00     0.722 A 
HETATM    8  N3  UNL     1       5.292   0.982   1.768  1.00  0.00    -0.115 N 
HETATM    9  N4  UNL     1       6.196   0.016   1.758  1.00  0.00     0.006 NA
ATOM     10  H3  UNL     1       5.442   1.938   2.091  1.00  0.00     0.202 HD
HETATM   11  N5  UNL     1       5.663  -1.102   1.272  1.00  0.00     0.006 NA
HETATM   12  N6  UNL     1       4.407  -0.801   0.983  1.00  0.00    -0.115 N 
ATOM     13  H6  UNL     1       3.732  -1.457   0.590  1.00  0.00     0.202 HD
ENDBRANCH   5   7
ENDBRANCH   3   5
ENDBRANCH   2   3
BRANCH   1  14
HETATM   14  C6  UNL     1      -0.943  -0.128  -0.711  1.00  0.00    -0.023 A 
HETATM   15  C4  UNL     1      -1.787   0.947  -0.916  1.00  0.00    -0.051 A 
HETATM   16  C3  UNL     1      -3.074   0.936  -0.414  1.00  0.00     0.014 A 
HETATM   17  C5  UNL     1      -1.225   2.054  -1.681  1.00  0.00     0.049 C 
HETATM   18  C2  UNL     1      -3.571  -0.127   0.303  1.00  0.00    -0.061 A 
HETATM   19  C1  UNL     1      -4.961  -0.058   0.806  1.00  0.00     0.048 C 
HETATM   20  C12 UNL     1      -2.755  -1.205   0.520  1.00  0.00     0.014 A 
HETATM   21  C10 UNL     1      -1.452  -1.188   0.008  1.00  0.00    -0.051 A 
HETATM   22  C11 UNL     1      -0.635  -2.423   0.255  1.00  0.00     0.049 C 
ENDBRANCH   1  14
TORSDOF 4
