REMARK  17 active torsions:
REMARK  status: ('A' for Active; 'I' for Inactive)
REMARK    1  A    between atoms: C2_2  and  C3_3 
REMARK    2  A    between atoms: N1_5  and  C5_6 
REMARK    3  A    between atoms: C5_6  and  C6_7 
REMARK    4  A    between atoms: C6_7  and  C7_9 
REMARK    5  A    between atoms: C12_14  and  O2_15 
REMARK    6  A    between atoms: C13_17  and  C15_19 
REMARK    7  A    between atoms: C15_19  and  C16_21 
REMARK    8  A    between atoms: C16_21  and  N2_23 
REMARK       I    between atoms: N2_23  and  C18_25 
REMARK    9  A    between atoms: C18_25  and  C19_27 
REMARK   10  A    between atoms: C19_27  and  N3_28 
REMARK   11  A    between atoms: C19_27  and  C22_34 
REMARK   12  A    between atoms: C19_27  and  C30_45 
REMARK       I    between atoms: N3_28  and  C20_30 
REMARK   13  A    between atoms: C20_30  and  O6_32 
REMARK   14  A    between atoms: C22_34  and  O7_35 
REMARK   15  A    between atoms: C22_34  and  N4_37 
REMARK   16  A    between atoms: N4_37  and  C24_39 
REMARK   17  A    between atoms: C24_39  and  C27_42 
ROOT
HETATM    1  N2  UNL     1      -1.024  -1.205   0.631  1.00  0.00    -0.347 N 
ATOM      2  H2  UNL     1      -1.252  -1.703   1.492  1.00  0.00     0.163 HD
HETATM    3  C18 UNL     1      -2.086  -0.596  -0.108  1.00  0.00     0.255 C 
HETATM    4  O4  UNL     1      -1.810   0.119  -1.084  1.00  0.00    -0.270 OA
ENDROOT
BRANCH   1   5
HETATM    5  C16 UNL     1       0.362  -1.147   0.212  1.00  0.00     0.151 C 
HETATM    6  C17 UNL     1       0.797  -2.626   0.310  1.00  0.00     0.040 C 
BRANCH   5   7
HETATM    7  C15 UNL     1       1.307  -0.230   0.796  1.00  0.00     0.162 C 
HETATM    8  O3  UNL     1       1.069   0.260   1.877  1.00  0.00    -0.295 OA
BRANCH   7   9
HETATM    9  C13 UNL     1       2.583   0.140   0.108  1.00  0.00     0.085 C 
HETATM   10  C3  UNL     1       3.754  -0.694   0.042  1.00  0.00     0.190 C 
HETATM   11  C4  UNL     1       3.915  -1.317  -1.413  1.00  0.00     0.055 C 
HETATM   12  N1  UNL     1       4.877   0.277  -0.058  1.00  0.00     0.112 N 
HETATM   13  C11 UNL     1       4.525   1.379   0.816  1.00  0.00     0.307 C 
HETATM   14  C12 UNL     1       3.041   1.513   0.597  1.00  0.00     0.165 C 
HETATM   15  C14 UNL     1       2.063   0.437  -1.350  1.00  0.00     0.029 C 
BRANCH  10  16
HETATM   16  C2  UNL     1       4.039  -1.784   0.952  1.00  0.00     0.005 C 
HETATM   17  C1  UNL     1       4.451  -1.792   2.188  1.00  0.00     0.009 C 
ENDBRANCH  10  16
BRANCH  12  18
HETATM   18  C5  UNL     1       6.151  -0.279   0.291  1.00  0.00     0.352 C 
BRANCH  18  19
HETATM   19  C6  UNL     1       7.182   0.513  -0.472  1.00  0.00     0.162 C 
HETATM   20  O1  UNL     1       6.827   0.894  -1.604  1.00  0.00    -0.295 OA
BRANCH  19  21
HETATM   21  C7  UNL     1       8.511   0.874  -0.011  1.00  0.00     0.011 C 
HETATM   22  C8  UNL     1       9.354   1.278  -1.220  1.00  0.00     0.022 C 
HETATM   23  C9  UNL     1       8.451   2.165   0.823  1.00  0.00     0.022 C 
HETATM   24  C10 UNL     1       9.153  -0.198   0.793  1.00  0.00     0.022 C 
ENDBRANCH  19  21
ENDBRANCH  18  19
ENDBRANCH  12  18
BRANCH  14  25
HETATM   25  O2  UNL     1       2.879   2.490  -0.389  1.00  0.00    -0.393 OA
ATOM     26  H2  UNL     1       1.943   2.575  -0.527  1.00  0.00     0.210 HD
ENDBRANCH  14  25
ENDBRANCH   7   9
ENDBRANCH   5   7
ENDBRANCH   1   5
BRANCH   3  27
HETATM   27  C19 UNL     1      -3.566  -0.895   0.272  1.00  0.00     0.183 C 
BRANCH  27  28
HETATM   28  N3  UNL     1      -3.475  -2.224  -0.504  1.00  0.00    -0.311 N 
HETATM   29  C20 UNL     1      -4.279  -3.255  -0.807  1.00  0.00     0.361 C 
HETATM   30  O5  UNL     1      -5.480  -3.328  -0.453  1.00  0.00    -0.238 OA
ATOM     31  H3  UNL     1      -2.543  -2.357  -0.897  1.00  0.00     0.166 HD
BRANCH  29  32
HETATM   32  O6  UNL     1      -3.783  -4.343  -1.558  1.00  0.00    -0.309 OA
HETATM   33  C21 UNL     1      -4.528  -5.432  -1.930  1.00  0.00     0.215 C 
ENDBRANCH  29  32
ENDBRANCH  27  28
BRANCH  27  34
HETATM   34  C22 UNL     1      -4.392  -0.131  -0.633  1.00  0.00     0.153 C 
BRANCH  34  35
HETATM   35  O7  UNL     1      -4.386  -0.726  -1.843  1.00  0.00    -0.347 OA
ATOM     36  H7  UNL     1      -4.929  -0.223  -2.438  1.00  0.00     0.219 HD
ENDBRANCH  34  35
BRANCH  34  37
HETATM   37  N4  UNL     1      -5.187   0.993  -0.711  1.00  0.00    -0.355 N 
HETATM   38  C23 UNL     1      -5.788   1.187  -2.116  1.00  0.00     0.152 C 
BRANCH  37  39
HETATM   39  C24 UNL     1      -5.593   2.036   0.134  1.00  0.00     0.044 C 
HETATM   40  C25 UNL     1      -4.507   3.008   0.573  1.00  0.00     0.043 C 
HETATM   41  C26 UNL     1      -6.385   1.700   1.351  1.00  0.00     0.043 C 
BRANCH  39  42
HETATM   42  C27 UNL     1      -6.564   2.990  -0.615  1.00  0.00    -0.001 C 
HETATM   43  C28 UNL     1      -7.838   2.682  -0.618  1.00  0.00    -0.033 C 
HETATM   44  C29 UNL     1      -8.882   3.507  -1.304  1.00  0.00     0.036 C 
ENDBRANCH  39  42
ENDBRANCH  37  39
ENDBRANCH  34  37
ENDBRANCH  27  34
BRANCH  27  45
HETATM   45  C30 UNL     1      -3.685  -1.151   1.650  1.00  0.00     0.024 C 
HETATM   46  C31 UNL     1      -3.203  -0.068   2.581  1.00  0.00     0.013 C 
HETATM   47  C32 UNL     1      -5.031  -1.673   2.153  1.00  0.00     0.013 C 
ENDBRANCH  27  45
ENDBRANCH   3  27
TORSDOF 17
