REMARK  18 active torsions:
REMARK  status: ('A' for Active; 'I' for Inactive)
REMARK    1  A    between atoms: C2_2  and  C3_3 
REMARK    2  A    between atoms: C3_3  and  N1_4 
REMARK    3  A    between atoms: N1_4  and  C4_5 
REMARK    4  A    between atoms: N1_4  and  C14_17 
REMARK    5  A    between atoms: C4_5  and  O1_6 
REMARK    6  A    between atoms: C4_5  and  C5_8 
REMARK    7  A    between atoms: C5_8  and  C6_9 
REMARK    8  A    between atoms: C6_9  and  C7_10 
REMARK    9  A    between atoms: C7_10  and  C8_11 
REMARK   10  A    between atoms: C8_11  and  C9_12 
REMARK   11  A    between atoms: C9_12  and  C10_13 
REMARK   12  A    between atoms: C10_13  and  C11_14 
REMARK   13  A    between atoms: C11_14  and  C12_15 
REMARK   14  A    between atoms: C17_22  and  C18_23 
REMARK   15  A    between atoms: C20_26  and  O5_28 
REMARK   16  A    between atoms: N2_31  and  C23_32 
REMARK   17  A    between atoms: C23_32  and  C24_33 
REMARK   18  A    between atoms: C28_37  and  N3_38 
ROOT
HETATM    1  C14 UNL     1       0.955   0.056  -1.240  1.00  0.00     0.207 C 
HETATM    2  C15 UNL     1      -0.230  -0.638  -0.736  1.00  0.00     0.090 C 
HETATM    3  C16 UNL     1      -0.345  -2.049  -0.509  1.00  0.00     0.282 C 
HETATM    4  O2  UNL     1       0.583  -2.849  -0.695  1.00  0.00    -0.260 OA
HETATM    5  O3  UNL     1      -1.578  -2.481  -0.057  1.00  0.00    -0.302 OA
HETATM    6  C17 UNL     1      -2.818  -2.483  -0.678  1.00  0.00     0.240 C 
HETATM    7  C20 UNL     1      -3.929  -1.687   0.009  1.00  0.00     0.119 C 
HETATM    8  C21 UNL     1      -5.073  -1.691  -1.029  1.00  0.00     0.055 C 
HETATM    9  C22 UNL     1      -3.538  -0.303   0.317  1.00  0.00     0.106 C 
HETATM   10  N2  UNL     1      -4.493   0.700   0.638  1.00  0.00    -0.336 N 
HETATM   11  C28 UNL     1      -3.957   2.021   0.581  1.00  0.00     0.359 C 
HETATM   12  C29 UNL     1      -3.051   2.224  -0.602  1.00  0.00     0.199 C 
HETATM   13  O6  UNL     1      -3.465   2.283  -1.717  1.00  0.00    -0.291 OA
HETATM   14  C30 UNL     1      -1.557   2.360  -0.389  1.00  0.00     0.154 C 
HETATM   15  C31 UNL     1      -1.406   3.895  -0.171  1.00  0.00     0.040 C 
HETATM   16  N4  UNL     1      -0.788   1.997  -1.547  1.00  0.00    -0.348 N 
ATOM     17  H4  UNL     1      -1.256   2.221  -2.425  1.00  0.00     0.163 HD
HETATM   18  C32 UNL     1       0.455   1.407  -1.727  1.00  0.00     0.245 C 
HETATM   19  O7  UNL     1       1.376   2.019  -2.387  1.00  0.00    -0.271 OA
ENDROOT
BRANCH   1  20
HETATM   20  N1  UNL     1       1.537  -0.596  -2.396  1.00  0.00    -0.342 N 
BRANCH  20  21
HETATM   21  C3  UNL     1       0.601  -1.068  -3.467  1.00  0.00     0.152 C 
BRANCH  21  22
HETATM   22  C2  UNL     1       0.473  -0.072  -4.561  1.00  0.00    -0.017 C 
HETATM   23  C1  UNL     1      -0.659   0.481  -4.948  1.00  0.00     0.008 C 
ENDBRANCH  21  22
ENDBRANCH  20  21
BRANCH  20  24
HETATM   24  C4  UNL     1       2.859  -0.914  -2.622  1.00  0.00     0.138 C 
BRANCH  24  25
HETATM   25  O1  UNL     1       3.041  -1.638  -3.719  1.00  0.00    -0.346 OA
ATOM     26  H1  UNL     1       3.952  -1.857  -3.875  1.00  0.00     0.219 HD
ENDBRANCH  24  25
BRANCH  24  27
HETATM   27  C5  UNL     1       4.064  -0.635  -1.945  1.00  0.00     0.052 C 
BRANCH  27  28
HETATM   28  C6  UNL     1       4.409   0.021  -0.878  1.00  0.00    -0.022 C 
BRANCH  28  29
HETATM   29  C7  UNL     1       5.886   0.049  -0.522  1.00  0.00     0.027 C 
BRANCH  29  30
HETATM   30  C8  UNL     1       6.144  -0.549   0.832  1.00  0.00     0.004 C 
BRANCH  30  31
HETATM   31  C9  UNL     1       7.661  -0.483   1.044  1.00  0.00     0.000 C 
BRANCH  31  32
HETATM   32  C10 UNL     1       8.082  -1.046   2.366  1.00  0.00     0.000 C 
BRANCH  32  33
HETATM   33  C11 UNL     1       9.562  -1.000   2.536  1.00  0.00    -0.000 C 
BRANCH  33  34
HETATM   34  C12 UNL     1      10.112   0.393   2.468  1.00  0.00    -0.005 C 
HETATM   35  C13 UNL     1      11.623   0.318   2.663  1.00  0.00     0.005 C 
ENDBRANCH  33  34
ENDBRANCH  32  33
ENDBRANCH  31  32
ENDBRANCH  30  31
ENDBRANCH  29  30
ENDBRANCH  28  29
ENDBRANCH  27  28
ENDBRANCH  24  27
ENDBRANCH  20  24
ENDBRANCH   1  20
BRANCH   6  36
HETATM   36  C18 UNL     1      -3.299  -3.919  -0.604  1.00  0.00     0.155 C 
HETATM   37  C19 UNL     1      -2.515  -5.006   0.007  1.00  0.00     0.094 C 
HETATM   38  O4  UNL     1      -4.391  -4.204  -1.070  1.00  0.00    -0.295 OA
ENDBRANCH   6  36
BRANCH   7  39
HETATM   39  O5  UNL     1      -4.374  -2.452   1.078  1.00  0.00    -0.382 OA
ATOM     40  H5  UNL     1      -5.064  -1.958   1.505  1.00  0.00     0.211 HD
ENDBRANCH   7  39
BRANCH  11  41
HETATM   41  N3  UNL     1      -3.216   2.426   1.762  1.00  0.00    -0.051 N 
ATOM     42  H33 UNL     1      -3.791   2.313   2.597  1.00  0.00     0.277 HD
ATOM     43  H32 UNL     1      -2.477   1.753   1.965  1.00  0.00     0.277 HD
ATOM     44  H31 UNL     1      -2.833   3.370   1.721  1.00  0.00     0.277 HD
ENDBRANCH  11  41
BRANCH  10  45
HETATM   45  C23 UNL     1      -5.590   0.380   1.387  1.00  0.00     0.074 C 
BRANCH  45  46
HETATM   46  C24 UNL     1      -6.667   1.381   1.673  1.00  0.00    -0.019 C 
HETATM   47  C25 UNL     1      -7.309   1.962   0.439  1.00  0.00     0.020 C 
HETATM   48  C26 UNL     1      -6.382   2.423   2.702  1.00  0.00     0.020 C 
HETATM   49  C27 UNL     1      -7.856   0.547   2.310  1.00  0.00     0.020 C 
ENDBRANCH  45  46
ENDBRANCH  10  45
TORSDOF 18
