REMARK  3 active torsions:
REMARK  status: ('A' for Active; 'I' for Inactive)
REMARK    1  A    between atoms: C13_15  and  O3_16 
REMARK    2  A    between atoms: C14_18  and  O4_19 
REMARK    3  A    between atoms: C16_23  and  O6_24 
ROOT
HETATM    1  C1  UNL     1       1.044   2.341  -0.370  1.00  0.00     0.018 C 
HETATM    2  C2  UNL     1       0.616   1.805   0.971  1.00  0.00    -0.015 C 
HETATM    3  C3  UNL     1       0.668   2.996   1.938  1.00  0.00     0.018 C 
HETATM    4  C4  UNL     1      -0.743   1.212   0.988  1.00  0.00     0.029 C 
HETATM    5  C5  UNL     1      -1.446   1.220  -0.341  1.00  0.00     0.049 C 
HETATM    6  C6  UNL     1      -2.039  -0.142  -0.423  1.00  0.00     0.094 C 
HETATM    7  O1  UNL     1      -1.281  -0.969   0.356  1.00  0.00    -0.370 OA
HETATM    8  C7  UNL     1      -0.604  -0.248   1.289  1.00  0.00     0.138 C 
HETATM    9  C8  UNL     1       0.835  -0.556   1.444  1.00  0.00     0.012 C 
HETATM   10  C9  UNL     1       1.084  -1.408   2.682  1.00  0.00     0.020 C 
HETATM   11  C10 UNL     1       1.478  -1.174   0.224  1.00  0.00     0.057 C 
HETATM   12  C11 UNL     1       2.868  -0.581   0.319  1.00  0.00     0.114 C 
HETATM   13  C12 UNL     1       3.799  -1.427   1.134  1.00  0.00     0.211 C 
HETATM   14  O2  UNL     1       5.065  -1.303   0.627  1.00  0.00    -0.356 OA
HETATM   15  C13 UNL     1       5.021  -0.660  -0.576  1.00  0.00     0.288 C 
HETATM   16  C14 UNL     1       3.578  -0.567  -1.013  1.00  0.00     0.209 C 
HETATM   17  O5  UNL     1       2.707   0.687   0.812  1.00  0.00    -0.368 OA
HETATM   18  C15 UNL     1       1.543   0.764   1.522  1.00  0.00     0.141 C 
HETATM   19  C16 UNL     1      -1.995  -0.703  -1.852  1.00  0.00     0.153 C 
HETATM   20  C17 UNL     1      -3.080  -1.754  -1.874  1.00  0.00     0.035 C 
HETATM   21  C18 UNL     1      -3.825  -1.655  -0.575  1.00  0.00     0.014 C 
HETATM   22  C19 UNL     1      -3.482  -0.235  -0.099  1.00  0.00    -0.014 C 
HETATM   23  C20 UNL     1      -4.365   0.690  -0.846  1.00  0.00     0.018 C 
HETATM   24  C21 UNL     1      -3.799  -0.191   1.368  1.00  0.00     0.018 C 
ENDROOT
BRANCH  19  25
HETATM   25  O6  UNL     1      -2.262   0.363  -2.701  1.00  0.00    -0.393 OA
ATOM     26  H6  UNL     1      -2.235   0.016  -3.585  1.00  0.00     0.210 HD
ENDBRANCH  19  25
BRANCH  16  27
HETATM   27  O4  UNL     1       3.289  -1.646  -1.807  1.00  0.00    -0.388 OA
ATOM     28  H4  UNL     1       3.736  -1.637  -2.645  1.00  0.00     0.210 HD
ENDBRANCH  16  27
BRANCH  15  29
HETATM   29  O3  UNL     1       5.515   0.648  -0.514  1.00  0.00    -0.369 OA
ATOM     30  H3  UNL     1       5.484   1.096  -1.351  1.00  0.00     0.212 HD
ENDBRANCH  15  29
TORSDOF 3
