REMARK  7 active torsions:
REMARK  status: ('A' for Active; 'I' for Inactive)
REMARK    1  A    between atoms: C2_2  and  C3_3 
REMARK    2  A    between atoms: C3_3  and  O1_4 
REMARK    3  A    between atoms: O1_4  and  C4_5 
REMARK    4  A    between atoms: C4_5  and  C5_6 
REMARK    5  A    between atoms: C5_6  and  C6_7 
REMARK    6  A    between atoms: C10_14  and  C11_15 
REMARK    7  A    between atoms: C12_16  and  C13_17 
ROOT
HETATM    1  C6  UNL     1      -0.565  -1.908  -1.109  1.00  0.00     0.033 A 
HETATM    2  N1  UNL     1      -1.289  -3.001  -1.406  1.00  0.00    -0.326 N 
ATOM      3  H1  UNL     1      -2.067  -2.896  -2.057  1.00  0.00     0.169 HD
HETATM    4  C7  UNL     1      -1.053  -4.225  -0.899  1.00  0.00     0.245 A 
HETATM    5  O2  UNL     1      -1.801  -5.202  -1.245  1.00  0.00    -0.268 OA
HETATM    6  C8  UNL     1      -0.019  -4.418  -0.020  1.00  0.00     0.076 A 
HETATM    7  C9  UNL     1       0.759  -3.333   0.321  1.00  0.00     0.028 A 
HETATM    8  C10 UNL     1       0.482  -2.080  -0.226  1.00  0.00     0.041 A 
ENDROOT
BRANCH   8   9
HETATM    9  C11 UNL     1       1.305  -0.961   0.132  1.00  0.00    -0.058 C 
HETATM   10  C12 UNL     1       2.021  -0.017   0.423  1.00  0.00    -0.043 C 
BRANCH  10  11
HETATM   11  C13 UNL     1       2.859   1.106   0.744  1.00  0.00     0.086 A 
HETATM   12  C14 UNL     1       4.228   0.954   0.818  1.00  0.00     0.039 A 
HETATM   13  C15 UNL     1       5.055   2.001   1.121  1.00  0.00     0.004 A 
HETATM   14  C16 UNL     1       4.454   3.228   1.352  1.00  0.00     0.017 A 
HETATM   15  C17 UNL     1       3.076   3.371   1.274  1.00  0.00     0.089 A 
HETATM   16  N2  UNL     1       2.304   2.310   0.973  1.00  0.00    -0.359 N 
ATOM     17  H2  UNL     1       1.291   2.420   0.918  1.00  0.00     0.166 HD
ENDBRANCH  10  11
ENDBRANCH   8   9
BRANCH   1  18
HETATM   18  C5  UNL     1      -0.913  -0.602  -1.715  1.00  0.00     0.084 C 
BRANCH  18  19
HETATM   19  C4  UNL     1      -1.663   0.304  -0.751  1.00  0.00     0.174 C 
BRANCH  19  20
HETATM   20  O1  UNL     1      -2.824  -0.353  -0.398  1.00  0.00    -0.387 OA
BRANCH  20  21
HETATM   21  C3  UNL     1      -3.607   0.359   0.484  1.00  0.00     0.194 C 
BRANCH  21  22
HETATM   22  C2  UNL     1      -3.962   1.659  -0.180  1.00  0.00    -0.011 C 
HETATM   23  C1  UNL     1      -3.589   2.791   0.402  1.00  0.00     0.009 C 
ENDBRANCH  21  22
ENDBRANCH  20  21
ENDBRANCH  19  20
ENDBRANCH  18  19
ENDBRANCH   1  18
TORSDOF 7
