REMARK  4 active torsions:
REMARK  status: ('A' for Active; 'I' for Inactive)
REMARK    1  A    between atoms: S1_2  and  C2_3 
REMARK    2  A    between atoms: C2_3  and  N1_4 
REMARK       I    between atoms: N1_4  and  C3_6 
REMARK    3  A    between atoms: C3_6  and  C4_8 
REMARK    4  A    between atoms: C6_10  and  C7_11 
ROOT
HETATM    1  C4  UNL     1       3.004  -2.294  -0.212  1.00  0.00     0.073 A 
HETATM    2  C5  UNL     1       1.964  -1.438  -0.420  1.00  0.00     0.038 A 
HETATM    3  C6  UNL     1       0.723  -1.949  -0.416  1.00  0.00    -0.011 A 
HETATM    4  C16 UNL     1       0.614  -3.304  -0.199  1.00  0.00     0.063 A 
HETATM    5  S4  UNL     1       2.233  -3.798  -0.013  1.00  0.00    -0.096 SA
ENDROOT
BRANCH   3   6
HETATM    6  C7  UNL     1      -0.512  -1.122  -0.630  1.00  0.00     0.016 A 
HETATM    7  C8  UNL     1      -0.594   0.221  -0.854  1.00  0.00     0.028 A 
HETATM    8  C9  UNL     1      -1.823   0.751  -1.017  1.00  0.00    -0.034 A 
HETATM    9  C10 UNL     1      -2.884  -0.119  -0.942  1.00  0.00    -0.008 A 
HETATM   10  C15 UNL     1      -2.225   2.196  -1.277  1.00  0.00     0.114 C 
HETATM   11  S2  UNL     1      -2.135  -1.619  -0.651  1.00  0.00    -0.093 SA
HETATM   12  C11 UNL     1      -4.313   0.335  -1.105  1.00  0.00     0.066 C 
HETATM   13  C12 UNL     1      -4.706   1.321  -0.031  1.00  0.00     0.005 C 
HETATM   14  C13 UNL     1      -4.904   0.664   1.294  1.00  0.00     0.027 C 
HETATM   15  C14 UNL     1      -5.968   2.026  -0.506  1.00  0.00     0.027 C 
HETATM   16  S3  UNL     1      -3.408   2.616   0.037  1.00  0.00    -0.155 SA
ENDBRANCH   3   6
BRANCH   1  17
HETATM   17  C3  UNL     1       4.437  -1.979  -0.168  1.00  0.00     0.259 C 
HETATM   18  N1  UNL     1       4.892  -0.668  -0.358  1.00  0.00    -0.348 N 
ATOM     19  H1  UNL     1       4.209   0.069  -0.529  1.00  0.00     0.163 HD
HETATM   20  O1  UNL     1       5.235  -2.902   0.042  1.00  0.00    -0.267 OA
BRANCH  18  21
HETATM   21  C2  UNL     1       6.300  -0.321  -0.320  1.00  0.00     0.196 C 
BRANCH  21  22
HETATM   22  S1  UNL     1       7.036  -0.724   1.289  1.00  0.00    -0.154 SA
HETATM   23  C1  UNL     1       6.266   0.364   2.519  1.00  0.00     0.091 C 
ENDBRANCH  21  22
ENDBRANCH  18  21
ENDBRANCH   1  17
TORSDOF 4
