REMARK  5 active torsions:
REMARK  status: ('A' for Active; 'I' for Inactive)
REMARK    1  A    between atoms: C2_2  and  O1_3 
REMARK    2  A    between atoms: O1_3  and  C3_4 
REMARK    3  A    between atoms: C3_4  and  O2_5 
REMARK    4  A    between atoms: C3_4  and  C4_7 
REMARK    5  A    between atoms: C12_15  and  O3_16 
ROOT
HETATM    1  C4  UNL     1       2.417  -1.038  -0.296  1.00  0.00     0.010 C 
HETATM    2  C5  UNL     1       2.716  -2.444  -0.830  1.00  0.00     0.020 C 
HETATM    3  C6  UNL     1       1.809  -1.183   1.072  1.00  0.00     0.041 C 
HETATM    4  C7  UNL     1       0.350  -1.046   1.084  1.00  0.00    -0.022 C 
HETATM    5  C8  UNL     1      -0.297  -0.205   0.271  1.00  0.00    -0.068 C 
HETATM    6  C9  UNL     1       0.577   0.585  -0.648  1.00  0.00     0.016 C 
HETATM    7  C10 UNL     1      -0.160   1.440  -1.615  1.00  0.00     0.012 C 
HETATM    8  C11 UNL     1      -1.531   1.884  -1.085  1.00  0.00     0.044 C 
HETATM    9  C12 UNL     1      -2.314   0.651  -0.852  1.00  0.00     0.092 C 
HETATM   10  C13 UNL     1      -3.753   0.864  -0.557  1.00  0.00    -0.054 C 
HETATM   11  C14 UNL     1      -4.325   2.030  -0.434  1.00  0.00     0.017 C 
HETATM   12  C15 UNL     1      -4.556  -0.397  -0.401  1.00  0.00     0.036 C 
HETATM   13  C16 UNL     1      -3.888  -1.415   0.458  1.00  0.00     0.006 C 
HETATM   14  C17 UNL     1      -2.410  -1.493   0.267  1.00  0.00     0.017 C 
HETATM   15  C18 UNL     1      -1.752  -0.127   0.344  1.00  0.00     0.015 C 
HETATM   16  C19 UNL     1      -2.116   0.600   1.629  1.00  0.00     0.023 C 
HETATM   17  C20 UNL     1       1.527  -0.373  -1.287  1.00  0.00     0.023 C 
ENDROOT
BRANCH   1  18
HETATM   18  C3  UNL     1       3.736  -0.324  -0.202  1.00  0.00     0.270 C 
BRANCH  18  19
HETATM   19  O1  UNL     1       3.625   0.982   0.273  1.00  0.00    -0.333 OA
BRANCH  19  20
HETATM   20  C2  UNL     1       4.690   1.830   0.420  1.00  0.00     0.128 C 
HETATM   21  C1  UNL     1       5.781   1.712  -0.302  1.00  0.00     0.037 C 
ENDBRANCH  19  20
ENDBRANCH  18  19
BRANCH  18  22
HETATM   22  O2  UNL     1       4.584  -1.016   0.670  1.00  0.00    -0.370 OA
ATOM     23  H2  UNL     1       4.660  -1.906   0.346  1.00  0.00     0.212 HD
ENDBRANCH  18  22
ENDBRANCH   1  18
BRANCH   9  24
HETATM   24  O3  UNL     1      -2.239  -0.168  -1.982  1.00  0.00    -0.384 OA
ATOM     25  H3  UNL     1      -2.742  -0.960  -1.832  1.00  0.00     0.211 HD
ENDBRANCH   9  24
TORSDOF 5
