REMARK  2 active torsions:
REMARK  status: ('A' for Active; 'I' for Inactive)
REMARK    1  A    between atoms: C3_3  and  S1_4 
REMARK    2  A    between atoms: S1_4  and  C4_5 
ROOT
HETATM    1  C1  UNL     1       0.379  -0.097  -1.781  1.00  0.00     0.021 C 
HETATM    2  C2  UNL     1       0.026  -0.173  -0.526  1.00  0.00    -0.042 C 
HETATM    3  C3  UNL     1       0.707  -1.072   0.377  1.00  0.00     0.011 C 
HETATM    4  C8  UNL     1      -0.063  -1.628   1.291  1.00  0.00    -0.066 C 
HETATM    5  C9  UNL     1       0.595  -2.575   2.260  1.00  0.00     0.044 C 
HETATM    6  C10 UNL     1      -1.471  -1.378   1.395  1.00  0.00     0.041 C 
HETATM    7  C11 UNL     1      -2.059  -0.117   0.823  1.00  0.00     0.010 C 
HETATM    8  C12 UNL     1      -3.461  -0.320   0.326  1.00  0.00    -0.043 C 
HETATM    9  C13 UNL     1      -4.441  -0.245   1.531  1.00  0.00     0.015 C 
HETATM   10  C14 UNL     1      -3.688  -1.742  -0.186  1.00  0.00     0.015 C 
HETATM   11  C15 UNL     1      -4.005   0.579  -0.713  1.00  0.00     0.009 C 
HETATM   12  C16 UNL     1      -3.165   1.818  -0.803  1.00  0.00     0.002 C 
HETATM   13  C17 UNL     1      -1.774   1.319  -1.209  1.00  0.00     0.014 C 
HETATM   14  C18 UNL     1      -1.125   0.648  -0.035  1.00  0.00    -0.012 C 
HETATM   15  C19 UNL     1      -0.497   1.780   0.766  1.00  0.00     0.021 C 
ENDROOT
BRANCH   3  16
HETATM   16  S1  UNL     1       2.413  -1.392   0.341  1.00  0.00    -0.096 SA
BRANCH  16  17
HETATM   17  C4  UNL     1       3.469  -0.393  -0.658  1.00  0.00     0.255 C 
HETATM   18  C5  UNL     1       3.473   1.054  -0.135  1.00  0.00     0.072 C 
HETATM   19  C6  UNL     1       4.419   1.843  -1.011  1.00  0.00     0.237 C 
HETATM   20  N1  UNL     1       5.737   1.284  -1.024  1.00  0.00    -0.051 N 
HETATM   21  C7  UNL     1       5.773  -0.132  -1.213  1.00  0.00     0.464 C 
ATOM     22  H12 UNL     1       6.316   1.752  -1.722  1.00  0.00     0.279 HD
ATOM     23  H11 UNL     1       6.243   1.543  -0.177  1.00  0.00     0.279 HD
HETATM   24  N2  UNL     1       4.868  -0.839  -0.347  1.00  0.00    -0.038 N 
ATOM     25  H22 UNL     1       5.104  -0.731   0.639  1.00  0.00     0.280 HD
ATOM     26  H21 UNL     1       4.979  -1.851  -0.406  1.00  0.00     0.280 HD
ENDBRANCH  16  17
ENDBRANCH   3  16
TORSDOF 2
