REMARK  12 active torsions:
REMARK  status: ('A' for Active; 'I' for Inactive)
REMARK    1  A    between atoms: C2_2  and  O1_4 
REMARK    2  A    between atoms: C2_2  and  C4_6 
REMARK    3  A    between atoms: C4_6  and  C5_7 
REMARK    4  A    between atoms: C5_7  and  C6_8 
REMARK    5  A    between atoms: C6_8  and  C7_9 
REMARK    6  A    between atoms: C7_9  and  C8_10 
REMARK    7  A    between atoms: C8_10  and  C9_11 
REMARK    8  A    between atoms: C15_18  and  C16_19 
REMARK    9  A    between atoms: C21_24  and  C22_25 
REMARK   10  A    between atoms: C21_24  and  C23_28 
REMARK   11  A    between atoms: C22_25  and  O3_26 
REMARK   12  A    between atoms: C23_28  and  O4_29 
ROOT
HETATM    1  C8  UNL     1       1.841   0.789  -0.238  1.00  0.00     0.021 C 
HETATM    2  C10 UNL     1       1.615   1.998  -1.090  1.00  0.00     0.018 C 
HETATM    3  C11 UNL     1       0.270   2.296  -1.586  1.00  0.00     0.006 C 
HETATM    4  C12 UNL     1      -0.880   1.624  -0.950  1.00  0.00    -0.005 C 
HETATM    5  C13 UNL     1      -1.912   1.415  -2.020  1.00  0.00     0.006 C 
HETATM    6  C14 UNL     1      -2.648   0.219  -1.577  1.00  0.00     0.006 C 
HETATM    7  C15 UNL     1      -1.903  -0.378  -0.346  1.00  0.00     0.003 C 
HETATM    8  C25 UNL     1      -0.620   0.175  -0.537  1.00  0.00    -0.028 C 
HETATM    9  C26 UNL     1      -0.104  -0.485  -1.845  1.00  0.00     0.016 C 
HETATM   10  C27 UNL     1       0.540   0.212   0.358  1.00  0.00    -0.026 C 
HETATM   11  C28 UNL     1       0.361   1.156   1.550  1.00  0.00     0.016 C 
HETATM   12  C29 UNL     1       0.933  -1.114   0.947  1.00  0.00     0.016 C 
ENDROOT
BRANCH   7  13
HETATM   13  C16 UNL     1      -2.949  -0.427   0.659  1.00  0.00    -0.039 C 
HETATM   14  C17 UNL     1      -2.668  -1.100   1.998  1.00  0.00     0.015 C 
HETATM   15  C18 UNL     1      -3.537   0.906   1.074  1.00  0.00     0.010 C 
HETATM   16  C19 UNL     1      -4.817   0.711   1.892  1.00  0.00     0.002 C 
HETATM   17  C20 UNL     1      -5.842   0.297   0.901  1.00  0.00     0.014 C 
HETATM   18  C21 UNL     1      -5.448  -1.035   0.357  1.00  0.00     0.003 C 
HETATM   19  C24 UNL     1      -4.060  -1.347   0.104  1.00  0.00     0.023 C 
BRANCH  18  20
HETATM   20  C22 UNL     1      -6.117  -2.063   1.296  1.00  0.00     0.175 C 
BRANCH  20  21
HETATM   21  O3  UNL     1      -5.840  -3.353   0.915  1.00  0.00    -0.400 OA
ATOM     22  H3  UNL     1      -6.251  -3.985   1.492  1.00  0.00     0.209 HD
ENDBRANCH  20  21
ENDBRANCH  18  20
BRANCH  18  23
HETATM   23  C23 UNL     1      -6.282  -1.184  -0.937  1.00  0.00     0.175 C 
BRANCH  23  24
HETATM   24  O4  UNL     1      -5.995  -2.410  -1.544  1.00  0.00    -0.400 OA
ATOM     25  H4  UNL     1      -6.507  -2.502  -2.339  1.00  0.00     0.209 HD
ENDBRANCH  23  24
ENDBRANCH  18  23
ENDBRANCH   7  13
BRANCH   1  26
HETATM   26  C7  UNL     1       2.737   1.302   0.863  1.00  0.00     0.017 C 
BRANCH  26  27
HETATM   27  C6  UNL     1       4.038   1.889   0.518  1.00  0.00     0.001 C 
BRANCH  27  28
HETATM   28  C5  UNL     1       5.162   1.135  -0.040  1.00  0.00     0.003 C 
BRANCH  28  29
HETATM   29  C4  UNL     1       5.730   0.026   0.822  1.00  0.00     0.037 C 
BRANCH  29  30
HETATM   30  C2  UNL     1       6.862  -0.592   0.014  1.00  0.00     0.051 C 
HETATM   31  C1  UNL     1       7.939   0.400  -0.315  1.00  0.00     0.045 C 
HETATM   32  C3  UNL     1       7.427  -1.813   0.700  1.00  0.00     0.045 C 
BRANCH  30  33
HETATM   33  O1  UNL     1       6.291  -0.997  -1.205  1.00  0.00    -0.391 OA
ATOM     34  H1  UNL     1       5.609  -1.625  -0.997  1.00  0.00     0.210 HD
ENDBRANCH  30  33
ENDBRANCH  29  30
ENDBRANCH  28  29
ENDBRANCH  27  28
ENDBRANCH  26  27
ENDBRANCH   1  26
BRANCH   1  35
HETATM   35  C9  UNL     1       2.665  -0.241  -0.908  1.00  0.00     0.241 C 
HETATM   36  O2  UNL     1       2.948  -0.236  -2.125  1.00  0.00    -0.306 OA
ENDBRANCH   1  35
TORSDOF 12
