REMARK  4 active torsions:
REMARK  status: ('A' for Active; 'I' for Inactive)
REMARK    1  A    between atoms: O1_2  and  C2_3 
REMARK    2  A    between atoms: C2_3  and  C3_5 
REMARK    3  A    between atoms: N2_9  and  C6_11 
REMARK    4  A    between atoms: N3_16  and  C11_17 
ROOT
HETATM    1  C3  UNL     1       3.725  -1.451  -0.340  1.00  0.00     0.100 A 
HETATM    2  C4  UNL     1       2.818  -0.443  -0.161  1.00  0.00     0.142 A 
HETATM    3  N1  UNL     1       1.570  -0.777   0.051  1.00  0.00    -0.132 N 
HETATM    4  C5  UNL     1       0.357  -0.109   0.277  1.00  0.00     0.704 A 
HETATM    5  N2  UNL     1       0.237   1.132   0.322  1.00  0.00    -0.219 N 
ATOM      6  H2  UNL     1       1.182   1.481   0.162  1.00  0.00     0.178 HD
HETATM    7  N3  UNL     1      -0.623  -1.011   0.430  1.00  0.00    -0.117 N 
HETATM    8  N4  UNL     1      -0.070  -2.211   0.310  1.00  0.00    -0.262 N 
ATOM      9  H4  UNL     1      -0.561  -3.102   0.379  1.00  0.00     0.190 HD
HETATM   10  C17 UNL     1       1.245  -2.055   0.082  1.00  0.00     0.187 A 
HETATM   11  S1  UNL     1       2.747  -2.841  -0.196  1.00  0.00    -0.044 SA
ENDROOT
BRANCH   5  12
HETATM   12  C6  UNL     1      -0.505   2.244   0.474  1.00  0.00     0.099 C 
HETATM   13  C7  UNL     1      -0.834   3.013  -0.810  1.00  0.00     0.026 C 
HETATM   14  C8  UNL     1      -0.947   4.457  -0.447  1.00  0.00     0.002 C 
HETATM   15  C9  UNL     1      -0.774   4.541   1.045  1.00  0.00     0.002 C 
HETATM   16  C10 UNL     1       0.153   3.364   1.303  1.00  0.00     0.026 C 
ENDBRANCH   5  12
BRANCH   7  17
HETATM   17  C11 UNL     1      -2.065  -0.804   0.689  1.00  0.00     0.126 C 
HETATM   18  C12 UNL     1      -2.803  -0.311  -0.507  1.00  0.00     0.028 C 
HETATM   19  C13 UNL     1      -4.061  -1.130  -0.688  1.00  0.00     0.002 C 
HETATM   20  C14 UNL     1      -3.585  -2.557  -1.003  1.00  0.00     0.000 C 
HETATM   21  C15 UNL     1      -2.920  -3.138   0.237  1.00  0.00     0.002 C 
HETATM   22  C16 UNL     1      -2.650  -2.093   1.268  1.00  0.00     0.028 C 
ENDBRANCH   7  17
BRANCH   1  23
HETATM   23  C2  UNL     1       5.179  -1.341  -0.592  1.00  0.00     0.301 C 
HETATM   24  O2  UNL     1       5.700  -0.205  -0.661  1.00  0.00    -0.259 OA
BRANCH  23  25
HETATM   25  O1  UNL     1       5.951  -2.478  -0.750  1.00  0.00    -0.322 OA
HETATM   26  C1  UNL     1       7.335  -2.296  -0.989  1.00  0.00     0.213 C 
ENDBRANCH  23  25
ENDBRANCH   1  23
TORSDOF 4
