REMARK  4 active torsions:
REMARK  status: ('A' for Active; 'I' for Inactive)
REMARK    1  A    between atoms: N1_4  and  C4_5 
REMARK    2  A    between atoms: C4_5  and  C5_6 
REMARK    3  A    between atoms: C5_6  and  C6_7 
REMARK    4  A    between atoms: C6_7  and  N2_8 
ROOT
HETATM    1  C6  UNL     1       1.940  -1.142  -0.144  1.00  0.00     0.153 C 
ENDROOT
BRANCH   1   2
HETATM    2  C5  UNL     1       0.610  -0.457  -0.033  1.00  0.00     0.042 C 
BRANCH   2   3
HETATM    3  C4  UNL     1      -0.470  -1.328   0.537  1.00  0.00     0.129 C 
BRANCH   3   4
HETATM    4  N1  UNL     1      -1.689  -0.525   0.580  1.00  0.00    -0.366 N 
HETATM    5  C3  UNL     1      -2.551  -0.491  -0.456  1.00  0.00     0.090 A 
HETATM    6  C2  UNL     1      -3.706   0.257  -0.442  1.00  0.00     0.017 A 
HETATM    7  C1  UNL     1      -4.009   1.006   0.666  1.00  0.00     0.003 A 
HETATM    8  C9  UNL     1      -3.142   0.984   1.733  1.00  0.00     0.017 A 
HETATM    9  C8  UNL     1      -2.000   0.217   1.664  1.00  0.00     0.090 A 
ENDBRANCH   3   4
ENDBRANCH   2   3
ENDBRANCH   1   2
BRANCH   1  10
HETATM   10  N2  UNL     1       2.875  -0.172  -0.709  1.00  0.00    -0.271 N 
HETATM   11  C7  UNL     1       3.652   0.703  -0.044  1.00  0.00     0.219 A 
HETATM   12  N3  UNL     1       4.379   1.430  -0.940  1.00  0.00    -0.279 N 
HETATM   13  N4  UNL     1       4.036   0.989  -2.138  1.00  0.00    -0.227 N 
ATOM     14  H3  UNL     1       5.052   2.166  -0.728  1.00  0.00     0.189 HD
HETATM   15  N5  UNL     1       3.145   0.040  -1.992  1.00  0.00    -0.225 N 
ATOM     16  H4  UNL     1       4.403   1.330  -3.026  1.00  0.00     0.210 HD
ATOM     17  H5  UNL     1       2.714  -0.470  -2.763  1.00  0.00     0.210 HD
ENDBRANCH   1  10
TORSDOF 4
