REMARK  5 active torsions:
REMARK  status: ('A' for Active; 'I' for Inactive)
REMARK    1  A    between atoms: C2_2  and  C3_4 
REMARK    2  A    between atoms: C3_4  and  N1_6 
REMARK       I    between atoms: N1_6  and  C5_8 
REMARK    3  A    between atoms: C5_8  and  C6_10 
REMARK    4  A    between atoms: C7_11  and  C8_12 
REMARK    5  A    between atoms: C10_21  and  N5_22 
ROOT
HETATM    1  C6  UNL     1      -1.495  -0.190   0.662  1.00  0.00     0.107 A 
HETATM    2  C7  UNL     1      -2.626   0.591   0.620  1.00  0.00     0.121 A 
HETATM    3  N3  UNL     1      -3.800  -0.048   0.971  1.00  0.00    -0.303 N 
ATOM      4  H3  UNL     1      -4.671   0.482   0.961  1.00  0.00     0.171 HD
HETATM    5  C9  UNL     1      -3.832  -1.327   1.320  1.00  0.00     0.326 A 
HETATM    6  O4  UNL     1      -4.934  -1.894   1.639  1.00  0.00    -0.247 OA
HETATM    7  N4  UNL     1      -2.737  -2.100   1.361  1.00  0.00    -0.294 N 
ATOM      8  H4  UNL     1      -2.794  -3.082   1.632  1.00  0.00     0.172 HD
HETATM    9  C10 UNL     1      -1.574  -1.544   1.036  1.00  0.00     0.121 A 
ENDROOT
BRANCH   1  10
HETATM   10  C5  UNL     1      -0.187   0.406   0.439  1.00  0.00     0.258 C 
HETATM   11  N1  UNL     1       0.768  -0.232  -0.380  1.00  0.00    -0.346 N 
ATOM     12  H1  UNL     1       0.510  -1.120  -0.811  1.00  0.00     0.163 HD
HETATM   13  O2  UNL     1       0.185   1.499   0.934  1.00  0.00    -0.267 OA
BRANCH  11  14
HETATM   14  C3  UNL     1       2.090   0.292  -0.648  1.00  0.00     0.150 C 
HETATM   15  C4  UNL     1       2.260   0.655  -2.111  1.00  0.00     0.040 C 
BRANCH  14  16
HETATM   16  C2  UNL     1       3.172  -0.643  -0.268  1.00  0.00     0.145 C 
HETATM   17  C1  UNL     1       4.594  -0.288  -0.463  1.00  0.00     0.093 C 
HETATM   18  O1  UNL     1       2.892  -1.715   0.209  1.00  0.00    -0.296 OA
ENDBRANCH  14  16
ENDBRANCH  11  14
ENDBRANCH   1  10
BRANCH   2  19
HETATM   19  C8  UNL     1      -2.708   1.952   0.162  1.00  0.00     0.282 C 
HETATM   20  N2  UNL     1      -1.757   2.630  -0.596  1.00  0.00    -0.056 NA
HETATM   21  O3  UNL     1      -3.755   2.621   0.467  1.00  0.00    -0.269 OA
ENDBRANCH   2  19
BRANCH   9  22
HETATM   22  N5  UNL     1      -0.500  -2.241   1.084  1.00  0.00    -0.384 N 
ATOM     23  H52 UNL     1       0.392  -1.814   0.835  1.00  0.00     0.157 HD
ATOM     24  H51 UNL     1      -0.557  -3.223   1.355  1.00  0.00     0.157 HD
ENDBRANCH   9  22
TORSDOF 5
