REMARK  5 active torsions:
REMARK  status: ('A' for Active; 'I' for Inactive)
REMARK    1  A    between atoms: C5_5  and  S1_6 
REMARK    2  A    between atoms: S1_6  and  C6_7 
REMARK    3  A    between atoms: C8_10  and  O2_11 
REMARK    4  A    between atoms: C9_13  and  O3_14 
REMARK    5  A    between atoms: C10_16  and  N1_17 
ROOT
HETATM    1  C1  UNL     1       5.521   0.519   1.486  1.00  0.00     0.102 C 
HETATM    2  C2  UNL     1       4.564   0.122   0.804  1.00  0.00    -0.153 C 
HETATM    3  C3  UNL     1       3.457  -0.319   0.009  1.00  0.00    -0.015 C 
HETATM    4  C4  UNL     1       3.417  -0.200  -1.454  1.00  0.00     0.057 C 
HETATM    5  C5  UNL     1       2.432  -0.848   0.657  1.00  0.00     0.062 C 
ENDROOT
BRANCH   5   6
HETATM    6  S1  UNL     1       0.993  -1.432  -0.273  1.00  0.00    -0.106 SA
BRANCH   6   7
HETATM    7  C6  UNL     1      -0.298  -0.154  -0.161  1.00  0.00     0.220 C 
HETATM    8  O1  UNL     1      -0.897  -0.024  -1.384  1.00  0.00    -0.370 OA
HETATM    9  C7  UNL     1      -1.928   0.906  -1.384  1.00  0.00     0.203 C 
HETATM   10  C8  UNL     1      -2.976   0.664  -0.353  1.00  0.00     0.172 C 
HETATM   11  C9  UNL     1      -2.324   0.455   1.004  1.00  0.00     0.182 C 
HETATM   12  C10 UNL     1      -1.303  -0.657   0.870  1.00  0.00     0.253 C 
BRANCH  10  13
HETATM   13  O2  UNL     1      -3.776  -0.432  -0.656  1.00  0.00    -0.391 OA
ATOM     14  H2  UNL     1      -4.444  -0.586   0.001  1.00  0.00     0.210 HD
ENDBRANCH  10  13
BRANCH  11  15
HETATM   15  O3  UNL     1      -1.608   1.627   1.293  1.00  0.00    -0.391 OA
ATOM     16  H3  UNL     1      -1.200   1.496   2.141  1.00  0.00     0.210 HD
ENDBRANCH  11  15
BRANCH  12  17
HETATM   17  N1  UNL     1      -1.834  -1.885   0.394  1.00  0.00    -0.069 N 
ATOM     18  H13 UNL     1      -2.232  -1.808  -0.542  1.00  0.00     0.275 HD
ATOM     19  H12 UNL     1      -1.111  -2.572   0.178  1.00  0.00     0.275 HD
ATOM     20  H11 UNL     1      -2.506  -2.221   1.084  1.00  0.00     0.275 HD
ENDBRANCH  12  17
ENDBRANCH   6   7
ENDBRANCH   5   6
TORSDOF 5
