REMARK  7 active torsions:
REMARK  status: ('A' for Active; 'I' for Inactive)
REMARK    1  A    between atoms: C3_3  and  O1_4 
REMARK    2  A    between atoms: C10_13  and  C12_15 
REMARK    3  A    between atoms: C12_15  and  C13_16 
REMARK    4  A    between atoms: C13_16  and  C14_17 
REMARK    5  A    between atoms: C14_17  and  C15_18 
REMARK    6  A    between atoms: C23_28  and  O4_29 
REMARK    7  A    between atoms: O4_29  and  O5_30 
ROOT
HETATM    1  C1  UNL     1      -3.449   0.653   2.593  1.00  0.00     0.016 C 
HETATM    2  C2  UNL     1      -3.525   1.150   1.229  1.00  0.00     0.049 C 
HETATM    3  C3  UNL     1      -4.987   1.194   0.826  1.00  0.00     0.124 C 
HETATM    4  C4  UNL     1      -5.486  -0.086   0.240  1.00  0.00     0.033 C 
HETATM    5  C5  UNL     1      -4.630  -0.573  -0.910  1.00  0.00     0.015 C 
HETATM    6  C6  UNL     1      -3.201  -0.783  -0.396  1.00  0.00    -0.006 C 
HETATM    7  C7  UNL     1      -3.068  -2.016   0.366  1.00  0.00     0.018 C 
HETATM    8  C8  UNL     1      -2.223  -0.864  -1.587  1.00  0.00     0.044 C 
HETATM    9  C9  UNL     1      -0.913  -0.326  -1.018  1.00  0.00     0.130 C 
HETATM   10  O2  UNL     1      -0.106  -1.380  -0.699  1.00  0.00    -0.375 OA
HETATM   11  C10 UNL     1       1.071  -1.070  -0.076  1.00  0.00     0.058 C 
HETATM   12  C11 UNL     1       1.658  -2.393   0.437  1.00  0.00     0.046 C 
HETATM   13  C20 UNL     1       0.897  -0.098   1.068  1.00  0.00     0.038 C 
HETATM   14  C21 UNL     1      -0.601   0.014   1.440  1.00  0.00     0.013 C 
HETATM   15  C22 UNL     1      -1.294   0.500   0.218  1.00  0.00     0.054 C 
HETATM   16  C23 UNL     1      -2.754   0.514   0.154  1.00  0.00     0.115 C 
ENDROOT
BRANCH  11  17
HETATM   17  C12 UNL     1       2.111  -0.495  -1.008  1.00  0.00     0.038 C 
BRANCH  17  18
HETATM   18  C13 UNL     1       3.365  -0.203  -0.223  1.00  0.00     0.007 C 
BRANCH  18  19
HETATM   19  C14 UNL     1       4.424   0.377  -1.167  1.00  0.00     0.040 C 
BRANCH  19  20
HETATM   20  C15 UNL     1       5.658   0.673  -0.438  1.00  0.00    -0.036 A 
HETATM   21  C16 UNL     1       6.624  -0.313  -0.340  1.00  0.00     0.012 A 
HETATM   22  C17 UNL     1       7.787  -0.043   0.342  1.00  0.00     0.050 A 
HETATM   23  C18 UNL     1       7.993   1.191   0.923  1.00  0.00     0.141 A 
HETATM   24  S1  UNL     1       9.378   1.524   1.740  1.00  0.00    -0.052 SA
HETATM   25  O3  UNL     1       7.048   2.087   0.800  1.00  0.00    -0.311 OA
HETATM   26  C19 UNL     1       5.925   1.883   0.163  1.00  0.00     0.150 A 
ENDBRANCH  19  20
ENDBRANCH  18  19
ENDBRANCH  17  18
ENDBRANCH  11  17
BRANCH  16  27
HETATM   27  O4  UNL     1      -3.003   1.388  -0.966  1.00  0.00    -0.230 OA
BRANCH  27  28
HETATM   28  O5  UNL     1      -2.570   2.593  -0.693  1.00  0.00    -0.250 OA
ATOM     29  H5  UNL     1      -2.734   3.169  -1.431  1.00  0.00     0.253 HD
ENDBRANCH  27  28
ENDBRANCH  16  27
BRANCH   3  30
HETATM   30  O1  UNL     1      -5.314   2.297   0.046  1.00  0.00    -0.395 OA
ATOM     31  H1  UNL     1      -6.229   2.325  -0.206  1.00  0.00     0.210 HD
ENDBRANCH   3  30
TORSDOF 7
