REMARK  6 active torsions:
REMARK  status: ('A' for Active; 'I' for Inactive)
REMARK    1  A    between atoms: C2_2  and  O1_4 
REMARK    2  A    between atoms: C2_2  and  S1_31 
REMARK    3  A    between atoms: O1_4  and  C4_5 
REMARK    4  A    between atoms: C7_8  and  O2_9 
REMARK    5  A    between atoms: O2_9  and  C8_10 
REMARK    6  A    between atoms: C11_15  and  C12_16 
ROOT
HETATM    1  C12 UNL     1       5.638   0.461  -0.123  1.00  0.00     0.003 A 
HETATM    2  C13 UNL     1       5.906   1.746  -0.558  1.00  0.00     0.038 A 
HETATM    3  C14 UNL     1       7.114   2.079  -1.072  1.00  0.00     0.036 A 
HETATM    4 CL1  UNL     1       7.508   3.694  -1.639  1.00  0.00    -0.084 Cl
HETATM    5  C15 UNL     1       8.102   1.114  -1.164  1.00  0.00     0.052 A 
HETATM    6  C16 UNL     1       7.860  -0.168  -0.738  1.00  0.00     0.069 A 
HETATM    7  N2  UNL     1       8.867  -1.163  -0.829  1.00  0.00    -0.101 NA
HETATM    8  C17 UNL     1       6.617  -0.495  -0.214  1.00  0.00     0.080 A 
HETATM    9  C18 UNL     1       6.377  -1.833   0.206  1.00  0.00     0.102 C 
HETATM   10  N3  UNL     1       6.189  -2.931   0.528  1.00  0.00    -0.191 NA
ENDROOT
BRANCH   1  11
HETATM   11  C11 UNL     1       4.310   0.181   0.445  1.00  0.00     0.033 A 
HETATM   12  C10 UNL     1       4.170  -0.430   1.665  1.00  0.00     0.103 A 
HETATM   13  N1  UNL     1       2.912  -0.640   2.136  1.00  0.00    -0.372 N 
HETATM   14  C9  UNL     1       1.805  -0.288   1.481  1.00  0.00     0.128 A 
ATOM     15  H1  UNL     1       2.809  -1.093   3.044  1.00  0.00     0.164 HD
HETATM   16  C8  UNL     1       1.896   0.324   0.262  1.00  0.00     0.131 A 
HETATM   17  C19 UNL     1       3.174   0.550  -0.240  1.00  0.00     0.164 A 
HETATM   18  F1  UNL     1       3.315   1.152  -1.456  1.00  0.00    -0.202 F 
BRANCH  16  19
HETATM   19  O2  UNL     1       0.829   0.732  -0.498  1.00  0.00    -0.304 OA
BRANCH  19  20
HETATM   20  C7  UNL     1      -0.501   0.655  -0.129  1.00  0.00     0.098 A 
HETATM   21  C6  UNL     1      -1.367  -0.174  -0.842  1.00  0.00     0.042 A 
HETATM   22  C5  UNL     1      -2.713  -0.299  -0.528  1.00  0.00     0.039 A 
HETATM   23  C4  UNL     1      -3.271   0.397   0.516  1.00  0.00     0.072 A 
HETATM   24  C21 UNL     1      -2.391   1.229   1.227  1.00  0.00     0.063 A 
HETATM   25  C20 UNL     1      -1.060   1.355   0.918  1.00  0.00     0.070 A 
HETATM   26 CL2  UNL     1      -0.024   2.461   1.838  1.00  0.00    -0.081 Cl
BRANCH  23  27
HETATM   27  O1  UNL     1      -4.586   0.332   0.897  1.00  0.00    -0.325 OA
BRANCH  27  28
HETATM   28  C2  UNL     1      -5.645  -0.398   0.426  1.00  0.00     0.162 C 
HETATM   29  C1  UNL     1      -5.873  -0.099  -1.043  1.00  0.00     0.063 C 
HETATM   30  C3  UNL     1      -5.604  -1.873   0.639  1.00  0.00     0.063 C 
BRANCH  28  31
HETATM   31  S1  UNL     1      -7.095   0.263   1.318  1.00  0.00     0.173 S 
HETATM   32  C22 UNL     1      -8.568  -0.507   0.758  1.00  0.00     0.164 C 
HETATM   33  O3  UNL     1      -7.100   1.737   1.015  1.00  0.00    -0.225 OA
HETATM   34  O4  UNL     1      -6.813   0.071   2.761  1.00  0.00    -0.225 OA
ENDBRANCH  28  31
ENDBRANCH  27  28
ENDBRANCH  23  27
ENDBRANCH  19  20
ENDBRANCH  16  19
ENDBRANCH   1  11
TORSDOF 6
