REMARK  6 active torsions:
REMARK  status: ('A' for Active; 'I' for Inactive)
REMARK    1  A    between atoms: C4_4  and  C5_5 
REMARK    2  A    between atoms: C5_5  and  N1_6 
REMARK    3  A    between atoms: N1_6  and  C6_8 
REMARK    4  A    between atoms: C9_17  and  N5_18 
REMARK    5  A    between atoms: N5_18  and  C10_20 
REMARK    6  A    between atoms: C13_23  and  C14_24 
ROOT
HETATM    1  C6  UNL     1      -3.417   1.031  -0.768  1.00  0.00     0.680 A 
HETATM    2  N2  UNL     1      -3.515  -0.136  -1.428  1.00  0.00    -0.174 N 
ATOM      3  H2  UNL     1      -4.386  -0.530  -1.784  1.00  0.00     0.186 HD
HETATM    4  C7  UNL     1      -2.303  -0.715  -1.555  1.00  0.00     0.153 A 
HETATM    5  N3  UNL     1      -1.814  -1.840  -2.097  1.00  0.00    -0.336 N 
ATOM      6  H3  UNL     1      -2.460  -2.483  -2.554  1.00  0.00     0.168 HD
HETATM    7  C8  UNL     1      -0.503  -2.156  -2.063  1.00  0.00     0.183 A 
HETATM    8  N4  UNL     1       0.405  -1.337  -1.468  1.00  0.00    -0.337 N 
ATOM      9  H4  UNL     1       1.396  -1.575  -1.443  1.00  0.00     0.168 HD
HETATM   10  C9  UNL     1      -0.055  -0.199  -0.913  1.00  0.00     0.138 A 
HETATM   11  C22 UNL     1      -1.404   0.130  -0.946  1.00  0.00     0.137 A 
HETATM   12  N6  UNL     1      -2.106   1.176  -0.481  1.00  0.00    -0.184 N 
ATOM     13  H6  UNL     1      -1.705   1.969   0.019  1.00  0.00     0.184 HD
ENDROOT
BRANCH  10  14
HETATM   14  N5  UNL     1       0.715   0.655  -0.320  1.00  0.00    -0.340 N 
ATOM     15  H5  UNL     1       0.321   1.504   0.086  1.00  0.00     0.167 HD
BRANCH  14  16
HETATM   16  C10 UNL     1       2.131   0.403  -0.235  1.00  0.00     0.033 A 
HETATM   17  C11 UNL     1       2.702  -0.070   0.930  1.00  0.00     0.030 A 
HETATM   18  C12 UNL     1       4.042  -0.322   1.055  1.00  0.00     0.014 A 
HETATM   19  C13 UNL     1       4.865  -0.094  -0.036  1.00  0.00    -0.026 A 
HETATM   20  C20 UNL     1       4.322   0.379  -1.216  1.00  0.00     0.014 A 
HETATM   21  C21 UNL     1       2.968   0.623  -1.306  1.00  0.00     0.030 A 
BRANCH  19  22
HETATM   22  C14 UNL     1       6.296  -0.363   0.095  1.00  0.00    -0.026 A 
HETATM   23  C15 UNL     1       6.814  -1.355   0.900  1.00  0.00     0.012 A 
HETATM   24  C16 UNL     1       8.171  -1.579   0.998  1.00  0.00     0.001 A 
HETATM   25  C17 UNL     1       9.058  -0.821   0.297  1.00  0.00     0.000 A 
HETATM   26  C18 UNL     1       8.568   0.179  -0.518  1.00  0.00     0.001 A 
HETATM   27  C19 UNL     1       7.205   0.395  -0.609  1.00  0.00     0.012 A 
ENDBRANCH  19  22
ENDBRANCH  14  16
ENDBRANCH  10  14
BRANCH   1  28
HETATM   28  N1  UNL     1      -4.367   1.875  -0.454  1.00  0.00    -0.222 N 
ATOM     29  H1  UNL     1      -4.128   2.727   0.053  1.00  0.00     0.178 HD
BRANCH  28  30
HETATM   30  C5  UNL     1      -5.748   1.629  -0.809  1.00  0.00     0.176 C 
BRANCH  30  31
HETATM   31  C4  UNL     1      -6.535   1.075   0.302  1.00  0.00    -0.040 A 
HETATM   32  C3  UNL     1      -6.664  -0.291   0.437  1.00  0.00     0.009 A 
HETATM   33  C2  UNL     1      -7.402  -0.827   1.480  1.00  0.00     0.001 A 
HETATM   34  C1  UNL     1      -8.008   0.013   2.382  1.00  0.00     0.000 A 
HETATM   35  C24 UNL     1      -7.894   1.371   2.266  1.00  0.00     0.001 A 
HETATM   36  C23 UNL     1      -7.159   1.912   1.228  1.00  0.00     0.009 A 
ENDBRANCH  30  31
ENDBRANCH  28  30
ENDBRANCH   1  28
TORSDOF 6
