REMARK  16 active torsions:
REMARK  status: ('A' for Active; 'I' for Inactive)
REMARK    1  A    between atoms: C2_2  and  C4_4 
REMARK    2  A    between atoms: C13_13  and  O1_14 
REMARK    3  A    between atoms: O1_14  and  C14_15 
REMARK    4  A    between atoms: C14_15  and  C15_17 
REMARK    5  A    between atoms: C15_17  and  N1_18 
REMARK    6  A    between atoms: C19_22  and  C20_23 
REMARK    7  A    between atoms: C20_23  and  O3_24 
REMARK    8  A    between atoms: O3_24  and  N2_25 
REMARK    9  A    between atoms: C21_27  and  C22_28 
REMARK       I    between atoms: C22_28  and  N3_30 
REMARK   10  A    between atoms: N3_30  and  C23_32 
REMARK   11  A    between atoms: C23_32  and  C24_33 
REMARK   12  A    between atoms: C24_33  and  C25_34 
REMARK   13  A    between atoms: C25_34  and  C26_35 
REMARK   14  A    between atoms: C26_35  and  C27_36 
REMARK   15  A    between atoms: C27_36  and  N4_37 
REMARK   16  A    between atoms: C28_41  and  O5_42 
ROOT
HETATM    1  C4  UNL     1      -5.909  -3.715  -0.381  1.00  0.00    -0.003 C 
HETATM    2  C5  UNL     1      -7.273  -3.033  -0.123  1.00  0.00     0.006 C 
HETATM    3  C6  UNL     1      -6.950  -1.798   0.689  1.00  0.00     0.006 C 
HETATM    4  C7  UNL     1      -5.492  -1.865   0.876  1.00  0.00    -0.002 C 
HETATM    5  C8  UNL     1      -4.748  -0.614   1.027  1.00  0.00    -0.005 C 
HETATM    6  C9  UNL     1      -5.137   0.244   2.188  1.00  0.00     0.006 C 
HETATM    7  C10 UNL     1      -4.484   1.605   1.909  1.00  0.00     0.005 C 
HETATM    8  C11 UNL     1      -3.019   1.473   1.714  1.00  0.00    -0.005 C 
HETATM    9  C12 UNL     1      -2.504   2.162   0.447  1.00  0.00     0.038 C 
HETATM   10  C13 UNL     1      -1.007   2.196   0.593  1.00  0.00     0.141 C 
HETATM   11  C19 UNL     1      -0.547   0.766   0.417  1.00  0.00     0.070 C 
HETATM   12  C28 UNL     1      -1.026  -0.002   1.599  1.00  0.00     0.131 C 
HETATM   13  C29 UNL     1      -2.487   0.077   1.880  1.00  0.00     0.023 C 
HETATM   14  C30 UNL     1      -3.274  -0.990   1.231  1.00  0.00    -0.003 C 
HETATM   15  C31 UNL     1      -2.813  -1.461  -0.114  1.00  0.00     0.006 C 
HETATM   16  C32 UNL     1      -3.569  -2.754  -0.407  1.00  0.00     0.010 C 
HETATM   17  C33 UNL     1      -5.046  -2.515  -0.459  1.00  0.00    -0.036 C 
HETATM   18  C34 UNL     1      -5.405  -1.642  -1.612  1.00  0.00     0.016 C 
ENDROOT
BRANCH  11  19
HETATM   19  C20 UNL     1       0.944   0.645   0.326  1.00  0.00     0.211 C 
BRANCH  19  20
HETATM   20  O3  UNL     1       1.484   1.363  -0.763  1.00  0.00    -0.280 OA
BRANCH  20  21
HETATM   21  N2  UNL     1       2.808   1.408  -1.064  1.00  0.00    -0.273 N 
HETATM   22  C21 UNL     1       3.687   0.591  -0.604  1.00  0.00     0.188 C 
ATOM     23  H2  UNL     1       3.126   2.140  -1.699  1.00  0.00     0.193 HD
BRANCH  22  24
HETATM   24  C22 UNL     1       5.074   0.725  -0.988  1.00  0.00     0.258 C 
HETATM   25  O4  UNL     1       5.423   1.655  -1.781  1.00  0.00    -0.267 OA
HETATM   26  N3  UNL     1       6.079  -0.158  -0.503  1.00  0.00    -0.356 N 
ATOM     27  H3  UNL     1       5.822  -0.911   0.135  1.00  0.00     0.162 HD
BRANCH  26  28
HETATM   28  C23 UNL     1       7.458  -0.002  -0.902  1.00  0.00     0.123 C 
BRANCH  28  29
HETATM   29  C24 UNL     1       8.334  -1.061  -0.255  1.00  0.00     0.020 C 
BRANCH  29  30
HETATM   30  C25 UNL     1       9.768  -0.920  -0.655  1.00  0.00     0.003 C 
BRANCH  30  31
HETATM   31  C26 UNL     1      10.626  -1.972  -0.003  1.00  0.00     0.027 C 
BRANCH  31  32
HETATM   32  C27 UNL     1      10.194  -3.353  -0.387  1.00  0.00     0.229 C 
BRANCH  32  33
HETATM   33  N4  UNL     1      10.273  -3.564  -1.830  1.00  0.00    -0.079 N 
ATOM     34  H43 UNL     1       9.745  -2.855  -2.339  1.00  0.00     0.274 HD
ATOM     35  H42 UNL     1      11.206  -3.354  -2.186  1.00  0.00     0.274 HD
ATOM     36  H41 UNL     1       9.979  -4.505  -2.092  1.00  0.00     0.274 HD
ENDBRANCH  32  33
ENDBRANCH  31  32
ENDBRANCH  30  31
ENDBRANCH  29  30
ENDBRANCH  28  29
ENDBRANCH  26  28
ENDBRANCH  22  24
ENDBRANCH  20  21
ENDBRANCH  19  20
ENDBRANCH  11  19
BRANCH  10  37
HETATM   37  O1  UNL     1      -0.338   3.127  -0.160  1.00  0.00    -0.314 OA
BRANCH  37  38
HETATM   38  C14 UNL     1       0.410   4.174   0.357  1.00  0.00     0.285 C 
HETATM   39  O2  UNL     1       0.422   4.201   1.611  1.00  0.00    -0.263 OA
BRANCH  38  40
HETATM   40  C15 UNL     1       1.082   5.104  -0.547  1.00  0.00     0.346 C 
BRANCH  40  41
HETATM   41  N1  UNL     1       1.836   6.140   0.093  1.00  0.00    -0.070 N 
HETATM   42  C16 UNL     1       2.653   5.619   1.155  1.00  0.00     0.272 C 
HETATM   43  C17 UNL     1       2.766   6.655  -0.927  1.00  0.00     0.272 C 
HETATM   44  C18 UNL     1       1.011   7.264   0.499  1.00  0.00     0.272 C 
ENDBRANCH  40  41
ENDBRANCH  38  40
ENDBRANCH  37  38
ENDBRANCH  10  37
BRANCH  12  45
HETATM   45  O5  UNL     1      -0.326   0.522   2.715  1.00  0.00    -0.395 OA
ATOM     46  H5  UNL     1      -0.632   0.032   3.469  1.00  0.00     0.210 HD
ENDBRANCH  12  45
BRANCH   1  47
HETATM   47  C2  UNL     1      -5.974  -4.626  -1.545  1.00  0.00    -0.018 C 
HETATM   48  C1  UNL     1      -7.022  -5.727  -1.334  1.00  0.00     0.010 C 
HETATM   49  C3  UNL     1      -4.659  -5.365  -1.688  1.00  0.00     0.010 C 
ENDBRANCH   1  47
TORSDOF 16
