REMARK  14 active torsions:
REMARK  status: ('A' for Active; 'I' for Inactive)
REMARK    1  A    between atoms: C2_2  and  C4_4 
REMARK    2  A    between atoms: C4_4  and  C5_5 
REMARK    3  A    between atoms: C6_8  and  C7_9 
REMARK    4  A    between atoms: C7_9  and  C8_10 
REMARK    5  A    between atoms: C12_17  and  C13_18 
REMARK    6  A    between atoms: C13_18  and  C14_19 
REMARK    7  A    between atoms: C14_19  and  C15_20 
REMARK    8  A    between atoms: C15_20  and  C16_21 
REMARK    9  A    between atoms: C16_21  and  C17_22 
REMARK   10  A    between atoms: C17_22  and  C18_23 
REMARK       I    between atoms: C18_23  and  N3_25 
REMARK   11  A    between atoms: N3_25  and  C19_27 
REMARK   12  A    between atoms: C19_27  and  C20_28 
REMARK   13  A    between atoms: C20_28  and  C21_29 
REMARK   14  A    between atoms: C21_29  and  N4_30 
ROOT
HETATM    1  C5  UNL     1      -4.377  -1.016  -0.316  1.00  0.00    -0.017 C 
HETATM    2  N1  UNL     1      -3.329  -0.696  -0.938  1.00  0.00    -0.383 N 
ATOM      3  H1  UNL     1      -2.443  -1.099  -0.634  1.00  0.00     0.160 HD
HETATM    4  C6  UNL     1      -3.321   0.247  -2.101  1.00  0.00     0.173 C 
HETATM    5  C11 UNL     1      -1.847   0.626  -2.155  1.00  0.00     0.241 C 
HETATM    6  O1  UNL     1      -1.247   0.594  -3.245  1.00  0.00    -0.271 OA
HETATM    7  N2  UNL     1      -1.085   1.011  -1.050  1.00  0.00    -0.346 N 
ATOM      8  H2  UNL     1      -0.121   0.678  -1.057  1.00  0.00     0.163 HD
HETATM    9  C12 UNL     1      -1.442   1.803   0.098  1.00  0.00     0.176 C 
HETATM   10  C27 UNL     1      -2.039   3.079  -0.194  1.00  0.00     0.240 C 
HETATM   11  O3  UNL     1      -1.331   4.010  -0.737  1.00  0.00    -0.271 OA
HETATM   12  N6  UNL     1      -3.388   3.446   0.058  1.00  0.00    -0.359 N 
ATOM     13  H6  UNL     1      -3.761   4.239  -0.464  1.00  0.00     0.162 HD
HETATM   14  C28 UNL     1      -4.276   2.792   0.991  1.00  0.00     0.123 C 
HETATM   15  C29 UNL     1      -5.665   2.827   0.353  1.00  0.00     0.024 C 
HETATM   16  C30 UNL     1      -6.700   2.071   1.100  1.00  0.00    -0.017 C 
HETATM   17  C31 UNL     1      -7.994   2.154   0.320  1.00  0.00     0.010 C 
HETATM   18  C32 UNL     1      -6.359   0.695   1.539  1.00  0.00     0.005 C 
HETATM   19  C33 UNL     1      -6.651  -0.414   0.601  1.00  0.00     0.006 C 
HETATM   20  C34 UNL     1      -5.756  -0.599  -0.562  1.00  0.00     0.052 C 
ENDROOT
BRANCH   9  21
HETATM   21  C13 UNL     1      -0.211   1.973   0.983  1.00  0.00     0.035 C 
BRANCH  21  22
HETATM   22  C14 UNL     1       0.939   2.665   0.323  1.00  0.00     0.002 C 
BRANCH  22  23
HETATM   23  C15 UNL     1       2.161   2.716   1.257  1.00  0.00     0.001 C 
BRANCH  23  24
HETATM   24  C16 UNL     1       3.262   3.507   0.549  1.00  0.00     0.009 C 
BRANCH  24  25
HETATM   25  C17 UNL     1       4.519   3.621   1.321  1.00  0.00     0.103 C 
BRANCH  25  26
HETATM   26  C18 UNL     1       5.224   2.324   1.560  1.00  0.00     0.217 C 
HETATM   27  O2  UNL     1       4.894   1.277   1.007  1.00  0.00    -0.274 OA
HETATM   28  N3  UNL     1       6.312   2.375   2.470  1.00  0.00    -0.361 N 
ATOM     29  H3  UNL     1       6.557   3.253   2.928  1.00  0.00     0.162 HD
BRANCH  28  30
HETATM   30  C19 UNL     1       7.076   1.167   2.745  1.00  0.00     0.124 C 
BRANCH  30  31
HETATM   31  C20 UNL     1       7.802   0.686   1.509  1.00  0.00     0.050 C 
BRANCH  31  32
HETATM   32  C21 UNL     1       8.576  -0.562   1.836  1.00  0.00     0.274 C 
BRANCH  32  33
HETATM   33  N4  UNL     1       7.716  -1.643   2.215  1.00  0.00     0.091 N 
HETATM   34  C22 UNL     1       6.918  -2.164   1.153  1.00  0.00     0.302 C 
HETATM   35  C23 UNL     1       7.081  -3.655   1.048  1.00  0.00     0.302 C 
HETATM   36  N5  UNL     1       8.477  -4.006   0.998  1.00  0.00     0.087 N 
HETATM   37  C24 UNL     1       9.037  -3.647  -0.274  1.00  0.00     0.310 C 
HETATM   38  C25 UNL     1       9.261  -3.524   2.088  1.00  0.00     0.302 C 
HETATM   39  C26 UNL     1       8.382  -2.650   2.999  1.00  0.00     0.302 C 
ENDBRANCH  32  33
ENDBRANCH  31  32
ENDBRANCH  30  31
ENDBRANCH  28  30
ENDBRANCH  25  26
ENDBRANCH  24  25
ENDBRANCH  23  24
ENDBRANCH  22  23
ENDBRANCH  21  22
ENDBRANCH   9  21
BRANCH   4  40
HETATM   40  C7  UNL     1      -3.793  -0.504  -3.263  1.00  0.00     0.038 C 
BRANCH  40  41
HETATM   41  C8  UNL     1      -4.067   0.000  -4.591  1.00  0.00    -0.020 C 
HETATM   42  C9  UNL     1      -4.545  -1.183  -5.512  1.00  0.00     0.009 C 
HETATM   43  C10 UNL     1      -3.170   0.829  -5.402  1.00  0.00     0.009 C 
ENDBRANCH  40  41
ENDBRANCH   4  40
BRANCH   1  44
HETATM   44  C4  UNL     1      -4.172  -1.983   0.828  1.00  0.00     0.055 C 
BRANCH  44  45
HETATM   45  C2  UNL     1      -4.825  -3.315   0.554  1.00  0.00    -0.018 C 
HETATM   46  C1  UNL     1      -4.614  -4.262   1.721  1.00  0.00     0.010 C 
HETATM   47  C3  UNL     1      -4.080  -3.977  -0.618  1.00  0.00     0.010 C 
ENDBRANCH  44  45
ENDBRANCH   1  44
TORSDOF 14
