REMARK  2 active torsions:
REMARK  status: ('A' for Active; 'I' for Inactive)
REMARK    1  A    between atoms: C7_8  and  N2_9 
REMARK    2  A    between atoms: C10_12  and  N3_13 
ROOT
HETATM    1  N2  UNL     1       0.239  -0.151  -0.382  1.00  0.00     0.093 N 
HETATM    2  C8  UNL     1       0.715  -1.310   0.289  1.00  0.00     0.275 C 
HETATM    3  C9  UNL     1       2.193  -1.380   0.528  1.00  0.00     0.056 C 
HETATM    4  C10 UNL     1       2.952  -0.405  -0.297  1.00  0.00     0.095 C 
HETATM    5  C14 UNL     1       2.378   0.983   0.021  1.00  0.00     0.056 C 
HETATM    6  C15 UNL     1       0.904   1.064  -0.030  1.00  0.00     0.275 C 
ENDROOT
BRANCH   1   7
HETATM    7  C7  UNL     1      -1.166   0.009  -0.010  1.00  0.00     0.227 C 
HETATM    8  C6  UNL     1      -1.956  -1.176  -0.501  1.00  0.00     0.071 C 
HETATM    9  C5  UNL     1      -3.431  -0.902  -0.274  1.00  0.00     0.225 C 
HETATM   10  N1  UNL     1      -3.552   0.129   0.731  1.00  0.00     0.093 N 
HETATM   11  C4  UNL     1      -3.977  -0.300  -1.559  1.00  0.00     0.038 C 
HETATM   12  C1  UNL     1      -4.864   0.239   1.282  1.00  0.00     0.310 C 
HETATM   13  C2  UNL     1      -3.205   1.325  -0.027  1.00  0.00     0.225 C 
HETATM   14  C3  UNL     1      -4.111   1.171  -1.237  1.00  0.00     0.038 C 
HETATM   15  C16 UNL     1      -1.775   1.281  -0.498  1.00  0.00     0.071 C 
ENDBRANCH   1   7
BRANCH   4  16
HETATM   16  N3  UNL     1       4.364  -0.328   0.028  1.00  0.00    -0.328 N 
HETATM   17  C11 UNL     1       5.040   0.823   0.340  1.00  0.00     0.111 A 
HETATM   18  C12 UNL     1       6.346   0.519   0.579  1.00  0.00     0.107 A 
HETATM   19  N4  UNL     1       6.448  -0.798   0.413  1.00  0.00    -0.342 N 
HETATM   20  C13 UNL     1       5.245  -1.343   0.074  1.00  0.00     0.178 A 
ATOM     21  H4  UNL     1       7.312  -1.329   0.525  1.00  0.00     0.167 HD
HETATM   22  S1  UNL     1       5.000  -2.934  -0.210  1.00  0.00    -0.040 SA
ENDBRANCH   4  16
TORSDOF 2
