REMARK  3 active torsions:
REMARK  status: ('A' for Active; 'I' for Inactive)
REMARK    1  A    between atoms: N1_7  and  C7_8 
REMARK    2  A    between atoms: C9_12  and  N3_13 
REMARK    3  A    between atoms: N3_13  and  C10_15 
ROOT
HETATM    1  C7  UNL     1      -2.117  -0.747  -0.273  1.00  0.00     0.683 A 
HETATM    2  N2  UNL     1      -0.863  -0.355   0.101  1.00  0.00    -0.184 N 
ATOM      3  H2  UNL     1      -0.649   0.269   0.879  1.00  0.00     0.184 HD
HETATM    4  C8  UNL     1       0.041  -0.915  -0.709  1.00  0.00     0.137 A 
HETATM    5  C9  UNL     1       1.440  -0.808  -0.715  1.00  0.00     0.134 A 
HETATM    6  N4  UNL     1       2.071  -1.498  -1.663  1.00  0.00    -0.337 N 
ATOM      7  H4  UNL     1       3.089  -1.452  -1.706  1.00  0.00     0.168 HD
HETATM    8  C16 UNL     1       1.411  -2.265  -2.580  1.00  0.00     0.183 A 
HETATM    9  N5  UNL     1       0.070  -2.354  -2.557  1.00  0.00    -0.336 N 
ATOM     10  H5  UNL     1      -0.414  -2.930  -3.246  1.00  0.00     0.168 HD
HETATM   11  C17 UNL     1      -0.634  -1.685  -1.628  1.00  0.00     0.153 A 
HETATM   12  N6  UNL     1      -1.938  -1.564  -1.339  1.00  0.00    -0.174 N 
ATOM     13  H6  UNL     1      -2.691  -2.024  -1.851  1.00  0.00     0.186 HD
ENDROOT
BRANCH   5  14
HETATM   14  N3  UNL     1       1.977  -0.108   0.127  1.00  0.00    -0.370 N 
ATOM     15  H3  UNL     1       1.261   0.302   0.727  1.00  0.00     0.161 HD
BRANCH  14  16
HETATM   16  C10 UNL     1       3.231   0.324   0.551  1.00  0.00     0.083 C 
HETATM   17  C11 UNL     1       3.877   1.163  -0.562  1.00  0.00     0.025 C 
HETATM   18  C12 UNL     1       5.036   1.969  -0.006  1.00  0.00     0.002 C 
HETATM   19  C13 UNL     1       5.922   1.090   0.857  1.00  0.00     0.000 C 
HETATM   20  C14 UNL     1       5.638  -0.364   0.601  1.00  0.00     0.002 C 
HETATM   21  C15 UNL     1       4.225  -0.754   0.920  1.00  0.00     0.025 C 
ENDBRANCH  14  16
ENDBRANCH   5  14
BRANCH   1  22
HETATM   22  N1  UNL     1      -3.354  -0.389   0.313  1.00  0.00    -0.209 N 
HETATM   23  C2  UNL     1      -4.166   0.745  -0.053  1.00  0.00     0.042 C 
HETATM   24  C1  UNL     1      -4.070   1.861   0.966  1.00  0.00     0.039 C 
HETATM   25  C3  UNL     1      -3.839   1.246  -1.444  1.00  0.00     0.039 C 
HETATM   26  C4  UNL     1      -5.569   0.193   0.008  1.00  0.00     0.032 C 
HETATM   27  C5  UNL     1      -5.482  -0.684   1.255  1.00  0.00     0.023 C 
HETATM   28  C6  UNL     1      -4.041  -1.074   1.380  1.00  0.00     0.142 C 
ENDBRANCH   1  22
TORSDOF 3
