REMARK  2 active torsions:
REMARK  status: ('A' for Active; 'I' for Inactive)
REMARK    1  A    between atoms: C3_3  and  N1_5 
REMARK    2  A    between atoms: N1_5  and  C4_7 
ROOT
HETATM    1  C1  UNL     1       3.202   1.513  -0.138  1.00  0.00     0.020 C 
HETATM    2  C2  UNL     1       2.776   0.389  -0.103  1.00  0.00    -0.048 C 
HETATM    3  C3  UNL     1       2.262  -0.956  -0.039  1.00  0.00     0.156 C 
HETATM    4  S1  UNL     1       3.032  -2.001   0.961  1.00  0.00    -0.050 SA
ENDROOT
BRANCH   3   5
HETATM    5  N1  UNL     1       1.161  -1.413  -0.771  1.00  0.00    -0.319 N 
ATOM      6  H1  UNL     1       1.300  -2.138  -1.475  1.00  0.00     0.169 HD
BRANCH   5   7
HETATM    7  C4  UNL     1      -0.050  -0.934  -0.578  1.00  0.00     0.168 A 
HETATM    8  N2  UNL     1      -0.431   0.008   0.286  1.00  0.00    -0.278 N 
HETATM    9  N3  UNL     1      -1.675   0.340   0.321  1.00  0.00    -0.278 N 
ATOM     10  H2  UNL     1       0.246   0.455   0.904  1.00  0.00     0.189 HD
HETATM   11  C5  UNL     1      -2.526  -0.268  -0.503  1.00  0.00     0.160 A 
ATOM     12  H3  UNL     1      -2.003   1.056   0.969  1.00  0.00     0.189 HD
HETATM   13  N4  UNL     1      -3.820  -0.069  -0.616  1.00  0.00    -0.379 N 
HETATM   14  S2  UNL     1      -1.512  -1.343  -1.349  1.00  0.00    -0.015 SA
ATOM     15  H42 UNL     1      -4.427   0.575  -0.109  1.00  0.00     0.158 HD
ATOM     16  H41 UNL     1      -4.472  -0.535  -1.247  1.00  0.00     0.158 HD
ENDBRANCH   5   7
ENDBRANCH   3   5
TORSDOF 2
