REMARK  0 active torsions:
REMARK  status: ('A' for Active; 'I' for Inactive)
ROOT
HETATM    1  C1  UNL     1      -2.184  -0.219   1.133  1.00  0.00     0.004 C 
HETATM    2  C2  UNL     1      -1.929  -1.491   0.411  1.00  0.00     0.033 C 
HETATM    3  C3  UNL     1      -0.814  -1.354  -0.655  1.00  0.00     0.192 C 
HETATM    4  N1  UNL     1      -1.456  -0.292  -1.466  1.00  0.00    -0.064 N 
ATOM      5  H11 UNL     1      -2.445  -0.482  -1.627  1.00  0.00     0.278 HD
ATOM      6  H12 UNL     1      -1.139  -0.310  -2.435  1.00  0.00     0.278 HD
HETATM    7  C4  UNL     1      -1.244   1.028  -0.843  1.00  0.00     0.219 C 
HETATM    8  C5  UNL     1      -2.132   1.059   0.335  1.00  0.00     0.035 C 
HETATM    9  C6  UNL     1       0.149   1.470  -0.772  1.00  0.00     0.249 C 
HETATM   10  N2  UNL     1       0.831   1.600   0.503  1.00  0.00    -0.038 N 
ATOM     11  H21 UNL     1       0.289   1.207   1.272  1.00  0.00     0.280 HD
ATOM     12  H22 UNL     1       0.863   2.567   0.827  1.00  0.00     0.280 HD
HETATM   13  C7  UNL     1       2.133   1.019   0.407  1.00  0.00     0.384 C 
HETATM   14  C8  UNL     1       2.362  -0.317   1.090  1.00  0.00     0.063 C 
HETATM   15  C9  UNL     1       1.603  -1.463   0.355  1.00  0.00     0.012 C 
HETATM   16  C10 UNL     1       0.413  -0.763  -0.138  1.00  0.00     0.049 C 
HETATM   17  C11 UNL     1       0.923   0.199  -1.196  1.00  0.00     0.227 C 
HETATM   18  N3  UNL     1       2.259   0.654  -1.020  1.00  0.00    -0.039 N 
ATOM     19  H31 UNL     1       3.007   0.008  -1.271  1.00  0.00     0.280 HD
ATOM     20  H32 UNL     1       2.592   1.377  -1.658  1.00  0.00     0.280 HD
ENDROOT
TORSDOF 0
