REMARK  11 active torsions:
REMARK  status: ('A' for Active; 'I' for Inactive)
REMARK    1  A    between atoms: C5_6  and  C6_7 
REMARK    2  A    between atoms: C6_7  and  N2_8 
REMARK    3  A    between atoms: N2_8  and  C7_10 
REMARK    4  A    between atoms: C7_10  and  C8_11 
REMARK    5  A    between atoms: C8_11  and  N3_12 
REMARK    6  A    between atoms: N3_12  and  C9_15 
REMARK    7  A    between atoms: C9_15  and  C10_16 
REMARK    8  A    between atoms: C10_16  and  C11_17 
REMARK    9  A    between atoms: C11_17  and  N4_18 
REMARK   10  A    between atoms: N4_18  and  C12_20 
REMARK   11  A    between atoms: C15_27  and  C16_28 
ROOT
HETATM    1  C8  UNL     1       0.379  -1.658  -0.631  1.00  0.00     0.276 C 
ENDROOT
BRANCH   1   2
HETATM    2  C7  UNL     1      -0.837  -2.472  -0.584  1.00  0.00     0.087 C 
BRANCH   2   3
HETATM    3  N2  UNL     1      -1.999  -2.124   0.086  1.00  0.00    -0.376 N 
ATOM      4  H2  UNL     1      -2.247  -2.645   0.927  1.00  0.00     0.164 HD
BRANCH   3   5
HETATM    5  C6  UNL     1      -2.851  -1.094  -0.332  1.00  0.00     0.101 C 
BRANCH   5   6
HETATM    6  C5  UNL     1      -4.040  -0.861   0.472  1.00  0.00     0.007 A 
HETATM    7  C4  UNL     1      -4.337  -1.580   1.588  1.00  0.00     0.016 A 
HETATM    8  C3  UNL     1      -5.478  -1.332   2.340  1.00  0.00     0.018 A 
HETATM    9  C2  UNL     1      -6.291  -0.323   1.901  1.00  0.00     0.091 A 
HETATM   10  N1  UNL     1      -6.022   0.415   0.789  1.00  0.00    -0.359 N 
HETATM   11  C1  UNL     1      -6.986   1.441   0.469  1.00  0.00     0.156 C 
HETATM   12  C15 UNL     1      -4.936   0.162   0.090  1.00  0.00     0.060 A 
BRANCH  12  13
HETATM   13  C16 UNL     1      -4.623   0.897  -1.113  1.00  0.00     0.111 C 
HETATM   14  N7  UNL     1      -5.216   1.832  -1.668  1.00  0.00    -0.406 N 
ATOM     15  H72 UNL     1      -6.065   2.118  -1.181  1.00  0.00     0.155 HD
ATOM     16  H71 UNL     1      -4.995   2.351  -2.518  1.00  0.00     0.155 HD
ENDBRANCH  12  13
ENDBRANCH   5   6
ENDBRANCH   3   5
ENDBRANCH   2   3
ENDBRANCH   1   2
BRANCH   1  17
HETATM   17  N3  UNL     1       0.301  -0.352  -1.234  1.00  0.00    -0.071 N 
ATOM     18  H32 UNL     1      -0.277  -0.339  -2.075  1.00  0.00     0.277 HD
ATOM     19  H31 UNL     1      -0.248   0.306  -0.681  1.00  0.00     0.277 HD
BRANCH  17  20
HETATM   20  C9  UNL     1       1.672   0.117  -1.479  1.00  0.00     0.234 C 
BRANCH  20  21
HETATM   21  C10 UNL     1       2.361   0.431  -0.206  1.00  0.00     0.047 C 
BRANCH  21  22
HETATM   22  C11 UNL     1       3.791   0.838  -0.544  1.00  0.00     0.124 C 
BRANCH  22  23
HETATM   23  N4  UNL     1       4.488   1.153   0.675  1.00  0.00    -0.362 N 
ATOM     24  H4  UNL     1       3.949   1.267   1.534  1.00  0.00     0.162 HD
BRANCH  23  25
HETATM   25  C12 UNL     1       5.922   1.313   0.727  1.00  0.00     0.171 A 
HETATM   26  N5  UNL     1       6.660   2.321   0.678  1.00  0.00    -0.361 N 
HETATM   27  C13 UNL     1       8.075   2.058   0.766  1.00  0.00     0.142 A 
ATOM     28  H5  UNL     1       6.286   3.265   0.582  1.00  0.00     0.162 HD
HETATM   29  C14 UNL     1       8.154   0.553   0.826  1.00  0.00     0.142 A 
HETATM   30  N6  UNL     1       6.771   0.147   0.862  1.00  0.00    -0.361 N 
ATOM     31  H6  UNL     1       6.441  -0.813   0.966  1.00  0.00     0.162 HD
ENDBRANCH  23  25
ENDBRANCH  22  23
ENDBRANCH  21  22
ENDBRANCH  20  21
ENDBRANCH  17  20
ENDBRANCH   1  17
TORSDOF 11
