REMARK  20 active torsions:
REMARK  status: ('A' for Active; 'I' for Inactive)
REMARK    1  A    between atoms: C2_2  and  O1_3 
REMARK    2  A    between atoms: C2_2  and  C3_5 
REMARK    3  A    between atoms: C2_2  and  C4_8 
REMARK    4  A    between atoms: C3_5  and  O2_6 
REMARK    5  A    between atoms: C4_8  and  O3_9 
REMARK    6  A    between atoms: C4_8  and  C5_11 
REMARK    7  A    between atoms: C5_11  and  C6_12 
REMARK    8  A    between atoms: C5_11  and  C7_15 
REMARK    9  A    between atoms: C6_12  and  O4_13 
REMARK   10  A    between atoms: C7_15  and  O5_16 
REMARK   11  A    between atoms: C7_15  and  C8_18 
REMARK   12  A    between atoms: C8_18  and  C9_19 
REMARK   13  A    between atoms: C9_19  and  C10_21 
REMARK   14  A    between atoms: C10_21  and  O7_22 
REMARK   15  A    between atoms: C10_21  and  N1_24 
REMARK   16  A    between atoms: N1_24  and  C11_26 
REMARK   17  A    between atoms: C11_26  and  C14_29 
REMARK   18  A    between atoms: C20_35  and  O8_36 
REMARK   19  A    between atoms: C23_40  and  O9_41 
REMARK   20  A    between atoms: C31_50  and  O10_51 
ROOT
HETATM    1  C11 UNL     1       0.704  -0.805  -0.607  1.00  0.00     0.025 C 
HETATM    2  C12 UNL     1       1.425  -0.173  -1.712  1.00  0.00     0.038 C 
HETATM    3  C13 UNL     1       0.726  -2.299  -0.986  1.00  0.00     0.038 C 
ENDROOT
BRANCH   1   4
HETATM    4  N1  UNL     1       1.562  -0.641   0.585  1.00  0.00    -0.383 N 
ATOM      5  H1  UNL     1       1.272  -0.040   1.356  1.00  0.00     0.157 HD
BRANCH   4   6
HETATM    6  C10 UNL     1       2.797  -1.337   0.635  1.00  0.00     0.285 C 
BRANCH   6   7
HETATM    7  C9  UNL     1       3.785  -0.353   1.220  1.00  0.00     0.176 C 
HETATM    8  O6  UNL     1       4.045  -0.403   2.427  1.00  0.00    -0.293 OA
BRANCH   7   9
HETATM    9  C8  UNL     1       4.473   0.676   0.440  1.00  0.00     0.115 C 
BRANCH   9  10
HETATM   10  C7  UNL     1       5.693   0.371  -0.312  1.00  0.00     0.134 C 
BRANCH  10  11
HETATM   11  C5  UNL     1       6.932  -0.105   0.342  1.00  0.00     0.070 C 
BRANCH  11  12
HETATM   12  C4  UNL     1       8.116   0.234  -0.553  1.00  0.00     0.162 C 
BRANCH  12  13
HETATM   13  C2  UNL     1       9.469   0.242   0.004  1.00  0.00     0.101 C 
HETATM   14  C1  UNL     1      10.076  -0.954   0.614  1.00  0.00     0.051 C 
BRANCH  13  15
HETATM   15  O1  UNL     1      10.333   0.548  -1.119  1.00  0.00    -0.385 OA
ATOM     16  H1  UNL     1       9.942   1.319  -1.512  1.00  0.00     0.210 HD
ENDBRANCH  13  15
BRANCH  13  17
HETATM   17  C3  UNL     1       9.709   1.431   0.940  1.00  0.00     0.204 C 
BRANCH  17  18
HETATM   18  O2  UNL     1      11.044   1.488   1.310  1.00  0.00    -0.398 OA
ATOM     19  H2  UNL     1      11.193   2.225   1.890  1.00  0.00     0.209 HD
ENDBRANCH  17  18
ENDBRANCH  13  17
ENDBRANCH  12  13
BRANCH  12  20
HETATM   20  O3  UNL     1       7.913   1.505  -1.138  1.00  0.00    -0.392 OA
ATOM     21  H3  UNL     1       7.035   1.500  -1.500  1.00  0.00     0.210 HD
ENDBRANCH  12  20
ENDBRANCH  11  12
BRANCH  11  22
HETATM   22  C6  UNL     1       6.978  -1.487   0.860  1.00  0.00     0.174 C 
BRANCH  22  23
HETATM   23  O4  UNL     1       7.005  -2.454  -0.161  1.00  0.00    -0.400 OA
ATOM     24  H4  UNL     1       7.035  -3.343   0.172  1.00  0.00     0.209 HD
ENDBRANCH  22  23
ENDBRANCH  11  22
ENDBRANCH  10  11
BRANCH  10  25
HETATM   25  O5  UNL     1       5.424  -0.246  -1.542  1.00  0.00    -0.395 OA
ATOM     26  H5  UNL     1       4.629   0.060  -1.962  1.00  0.00     0.210 HD
ENDBRANCH  10  25
ENDBRANCH   9  10
ENDBRANCH   7   9
ENDBRANCH   6   7
BRANCH   6  27
HETATM   27  O7  UNL     1       2.737  -2.359   1.634  1.00  0.00    -0.370 OA
ATOM     28  H7  UNL     1       2.116  -2.977   1.266  1.00  0.00     0.212 HD
ENDBRANCH   6  27
ENDBRANCH   4   6
ENDBRANCH   1   4
BRANCH   1  29
HETATM   29  C14 UNL     1      -0.632  -0.392  -0.168  1.00  0.00     0.024 C 
HETATM   30  C15 UNL     1      -0.493   1.074   0.310  1.00  0.00     0.008 C 
HETATM   31  C16 UNL     1      -1.888   1.430   0.624  1.00  0.00     0.006 C 
HETATM   32  C17 UNL     1      -2.574   0.938  -0.648  1.00  0.00     0.001 C 
HETATM   33  C18 UNL     1      -4.018   0.962  -0.510  1.00  0.00     0.002 C 
HETATM   34  C32 UNL     1      -1.856  -0.387  -0.960  1.00  0.00    -0.008 C 
HETATM   35  C19 UNL     1      -4.803   1.832  -1.475  1.00  0.00     0.038 C 
HETATM   36  C28 UNL     1      -4.806  -0.286  -0.374  1.00  0.00    -0.030 C 
HETATM   37  C20 UNL     1      -6.071   2.265  -0.762  1.00  0.00     0.123 C 
HETATM   38  C21 UNL     1      -6.827   1.161  -0.130  1.00  0.00     0.026 C 
HETATM   39  C22 UNL     1      -7.804   1.623   0.934  1.00  0.00     0.039 C 
HETATM   40  C26 UNL     1      -6.028   0.056   0.492  1.00  0.00    -0.030 C 
HETATM   41  C23 UNL     1      -8.800   0.501   1.107  1.00  0.00     0.118 C 
HETATM   42  C24 UNL     1      -8.182  -0.838   1.355  1.00  0.00     0.032 C 
HETATM   43  C25 UNL     1      -6.947  -1.150   0.607  1.00  0.00     0.013 C 
HETATM   44  C27 UNL     1      -5.647   0.437   1.900  1.00  0.00     0.016 C 
HETATM   45  C29 UNL     1      -5.364  -0.870  -1.641  1.00  0.00     0.016 C 
HETATM   46  C30 UNL     1      -3.912  -1.276   0.256  1.00  0.00     0.042 C 
HETATM   47  C31 UNL     1      -2.776  -1.542  -0.747  1.00  0.00     0.128 C 
HETATM   48  C33 UNL     1      -1.599  -0.230  -2.482  1.00  0.00     0.019 C 
BRANCH  37  49
HETATM   49  O8  UNL     1      -5.708   3.260   0.169  1.00  0.00    -0.395 OA
ATOM     50  H8  UNL     1      -6.502   3.531   0.615  1.00  0.00     0.210 HD
ENDBRANCH  37  49
BRANCH  41  51
HETATM   51  O9  UNL     1      -9.646   0.833   2.136  1.00  0.00    -0.396 OA
ATOM     52  H9  UNL     1     -10.273   0.127   2.245  1.00  0.00     0.210 HD
ENDBRANCH  41  51
BRANCH  47  53
HETATM   53  O10 UNL     1      -2.240  -2.708  -0.276  1.00  0.00    -0.395 OA
ATOM     54  H10 UNL     1      -1.539  -2.872  -0.895  1.00  0.00     0.210 HD
ENDBRANCH  47  53
ENDBRANCH   1  29
TORSDOF 20
