REMARK  21 active torsions:
REMARK  status: ('A' for Active; 'I' for Inactive)
REMARK    1  A    between atoms: C3_3  and  O1_4 
REMARK    2  A    between atoms: C3_3  and  C4_6 
REMARK    3  A    between atoms: C4_6  and  C6_8 
REMARK    4  A    between atoms: C6_8  and  O2_9 
REMARK    5  A    between atoms: C6_8  and  C7_11 
REMARK    6  A    between atoms: C7_11  and  O3_12 
REMARK    7  A    between atoms: C7_11  and  C8_14 
REMARK    8  A    between atoms: C17_23  and  O4_24 
REMARK    9  A    between atoms: C20_28  and  C21_29 
REMARK   10  A    between atoms: C21_29  and  O5_30 
REMARK   11  A    between atoms: C23_33  and  C24_34 
REMARK   12  A    between atoms: C24_34  and  O6_35 
REMARK   13  A    between atoms: C24_34  and  C25_37 
REMARK   14  A    between atoms: C25_37  and  C26_38 
REMARK   15  A    between atoms: C26_38  and  C27_39 
REMARK   16  A    between atoms: C27_39  and  O7_40 
REMARK   17  A    between atoms: C27_39  and  C28_42 
REMARK   18  A    between atoms: C32_46  and  O8_47 
REMARK   19  A    between atoms: C33_49  and  C34_50 
REMARK   20  A    between atoms: C34_50  and  O9_51 
REMARK   21  A    between atoms: C35_53  and  O10_54 
ROOT
HETATM    1  C1  UNL     1      -7.623  -2.287  -0.126  1.00  0.00     0.099 C 
HETATM    2  C2  UNL     1      -6.756  -2.447  -0.980  1.00  0.00    -0.156 C 
HETATM    3  C3  UNL     1      -5.752  -2.634  -2.021  1.00  0.00     0.190 C 
ENDROOT
BRANCH   3   4
HETATM    4  O1  UNL     1      -6.392  -3.477  -2.975  1.00  0.00    -0.384 OA
ATOM      5  H1  UNL     1      -5.738  -3.599  -3.653  1.00  0.00     0.211 HD
ENDBRANCH   3   4
BRANCH   3   6
HETATM    6  C4  UNL     1      -4.591  -3.431  -1.510  1.00  0.00     0.053 C 
HETATM    7  C5  UNL     1      -5.194  -4.780  -1.069  1.00  0.00     0.016 C 
BRANCH   6   8
HETATM    8  C6  UNL     1      -3.796  -2.821  -0.404  1.00  0.00     0.154 C 
BRANCH   8   9
HETATM    9  O2  UNL     1      -4.723  -2.636   0.681  1.00  0.00    -0.393 OA
ATOM     10  H2  UNL     1      -4.217  -2.248   1.385  1.00  0.00     0.210 HD
ENDBRANCH   8   9
BRANCH   8  11
HETATM   11  C7  UNL     1      -3.145  -1.504  -0.726  1.00  0.00     0.154 C 
BRANCH  11  12
HETATM   12  O3  UNL     1      -3.980  -0.505  -1.044  1.00  0.00    -0.393 OA
ATOM     13  H3  UNL     1      -3.569   0.327  -1.247  1.00  0.00     0.210 HD
ENDBRANCH  11  12
BRANCH  11  14
HETATM   14  C8  UNL     1      -1.928  -1.172   0.162  1.00  0.00     0.052 C 
HETATM   15  C9  UNL     1      -1.333   0.141  -0.041  1.00  0.00     0.010 C 
HETATM   16  C10 UNL     1       0.159   0.276  -0.170  1.00  0.00    -0.004 C 
HETATM   17  C20 UNL     1      -1.646   1.252   0.987  1.00  0.00    -0.010 C 
HETATM   18  C11 UNL     1       0.316   1.276  -1.314  1.00  0.00     0.006 C 
HETATM   19  C22 UNL     1       1.040  -0.881  -0.139  1.00  0.00     0.012 C 
HETATM   20  C12 UNL     1      -0.529   2.500  -0.896  1.00  0.00     0.007 C 
HETATM   21  C13 UNL     1      -0.913   2.502   0.566  1.00  0.00     0.007 C 
HETATM   22  C14 UNL     1      -1.582   3.821   0.854  1.00  0.00    -0.017 C 
HETATM   23  C15 UNL     1      -1.086   4.466   2.158  1.00  0.00     0.018 C 
HETATM   24  C16 UNL     1      -1.076   4.839  -0.196  1.00  0.00     0.018 C 
HETATM   25  C17 UNL     1      -3.050   3.891   0.731  1.00  0.00     0.126 C 
HETATM   26  C18 UNL     1      -3.730   2.607   0.454  1.00  0.00     0.033 C 
HETATM   27  C19 UNL     1      -3.052   1.541   1.269  1.00  0.00     0.015 C 
HETATM   28  C23 UNL     1       2.218  -0.867  -1.068  1.00  0.00     0.022 C 
HETATM   29  C33 UNL     1       0.423  -2.219  -0.241  1.00  0.00     0.038 C 
HETATM   30  C31 UNL     1       2.379  -2.329  -1.530  1.00  0.00     0.040 C 
HETATM   31  C32 UNL     1       0.959  -2.793  -1.535  1.00  0.00     0.132 C 
HETATM   32  C35 UNL     1      -1.031  -2.355  -0.081  1.00  0.00     0.138 C 
BRANCH  25  33
HETATM   33  O4  UNL     1      -3.529   4.820  -0.208  1.00  0.00    -0.395 OA
ATOM     34  H4  UNL     1      -4.475   4.865  -0.287  1.00  0.00     0.210 HD
ENDBRANCH  25  33
BRANCH  28  35
HETATM   35  C24 UNL     1       3.559  -0.583  -0.431  1.00  0.00     0.122 C 
BRANCH  35  36
HETATM   36  O6  UNL     1       4.464  -0.625  -1.508  1.00  0.00    -0.395 OA
ATOM     37  H6  UNL     1       5.307  -0.447  -1.108  1.00  0.00     0.210 HD
ENDBRANCH  35  36
BRANCH  35  38
HETATM   38  C25 UNL     1       3.664   0.639   0.365  1.00  0.00     0.034 C 
BRANCH  38  39
HETATM   39  C26 UNL     1       4.966   0.951   1.024  1.00  0.00     0.034 C 
BRANCH  39  40
HETATM   40  C27 UNL     1       6.149   1.132   0.126  1.00  0.00     0.121 C 
BRANCH  40  41
HETATM   41  O7  UNL     1       5.969   2.161  -0.794  1.00  0.00    -0.395 OA
ATOM     42  H7  UNL     1       6.720   2.276  -1.364  1.00  0.00     0.210 HD
ENDBRANCH  40  41
BRANCH  40  43
HETATM   43  C28 UNL     1       7.380   1.553   0.944  1.00  0.00     0.006 C 
HETATM   44  C29 UNL     1       8.532   1.719  -0.002  1.00  0.00     0.012 C 
HETATM   45  C30 UNL     1       7.706   0.486   1.939  1.00  0.00     0.012 C 
ENDBRANCH  40  43
ENDBRANCH  39  40
ENDBRANCH  38  39
ENDBRANCH  35  38
ENDBRANCH  28  35
BRANCH  31  46
HETATM   46  O8  UNL     1       0.395  -2.244  -2.667  1.00  0.00    -0.395 OA
ATOM     47  H8  UNL     1      -0.508  -2.539  -2.670  1.00  0.00     0.210 HD
ENDBRANCH  31  46
BRANCH  29  48
HETATM   48  C34 UNL     1       1.023  -3.203   0.807  1.00  0.00     0.179 C 
BRANCH  48  49
HETATM   49  O9  UNL     1       0.416  -4.426   0.661  1.00  0.00    -0.400 OA
ATOM     50  H9  UNL     1       0.782  -5.026   1.300  1.00  0.00     0.209 HD
ENDBRANCH  48  49
ENDBRANCH  29  48
BRANCH  32  51
HETATM   51  O10 UNL     1      -1.399  -3.064  -1.284  1.00  0.00    -0.394 OA
ATOM     52  H10 UNL     1      -0.833  -3.811  -1.437  1.00  0.00     0.210 HD
ENDBRANCH  32  51
BRANCH  17  53
HETATM   53  C21 UNL     1      -1.068   0.733   2.313  1.00  0.00     0.174 C 
BRANCH  53  54
HETATM   54  O5  UNL     1      -1.256   1.628   3.364  1.00  0.00    -0.400 OA
ATOM     55  H5  UNL     1      -0.899   1.307   4.184  1.00  0.00     0.209 HD
ENDBRANCH  53  54
ENDBRANCH  17  53
ENDBRANCH  11  14
ENDBRANCH   8  11
ENDBRANCH   6   8
ENDBRANCH   3   6
TORSDOF 21
