REMARK  10 active torsions:
REMARK  status: ('A' for Active; 'I' for Inactive)
REMARK    1  A    between atoms: C5_8  and  C6_9 
REMARK    2  A    between atoms: C6_9  and  N2_10 
REMARK    3  A    between atoms: N2_10  and  C7_11 
REMARK    4  A    between atoms: C7_11  and  C8_12 
REMARK    5  A    between atoms: C16_21  and  C17_22 
REMARK    6  A    between atoms: C17_22  and  C18_23 
REMARK    7  A    between atoms: C18_23  and  C19_24 
REMARK       I    between atoms: C19_24  and  N3_26 
REMARK    8  A    between atoms: N3_26  and  C20_28 
REMARK    9  A    between atoms: C20_28  and  C21_29 
REMARK   10  A    between atoms: C22_30  and  C23_31 
ROOT
HETATM    1  C1  UNL     1       1.902  -3.218   0.789  1.00  0.00     0.049 C 
HETATM    2  C2  UNL     1       0.528  -2.819   0.464  1.00  0.00    -0.044 A 
HETATM    3  C3  UNL     1      -0.310  -3.871   0.052  1.00  0.00     0.082 A 
HETATM    4  C4  UNL     1      -1.611  -3.645  -0.289  1.00  0.00     0.246 A 
HETATM    5  O1  UNL     1      -2.385  -4.593  -0.667  1.00  0.00    -0.268 OA
HETATM    6  N1  UNL     1      -2.064  -2.383  -0.217  1.00  0.00    -0.322 N 
ATOM      7  H1  UNL     1      -3.035  -2.201  -0.469  1.00  0.00     0.169 HD
HETATM    8  C5  UNL     1      -1.302  -1.352   0.170  1.00  0.00     0.069 A 
HETATM    9  C16 UNL     1       0.053  -1.540   0.533  1.00  0.00    -0.005 A 
ENDROOT
BRANCH   8  10
HETATM   10  C6  UNL     1      -1.856  -0.160   0.202  1.00  0.00     0.239 C 
BRANCH  10  11
HETATM   11  N2  UNL     1      -3.228   0.152  -0.146  1.00  0.00    -0.010 N 
HETATM   12  C9  UNL     1      -3.486  -0.056  -1.525  1.00  0.00     0.290 A 
HETATM   13  C10 UNL     1      -3.522   1.402  -1.784  1.00  0.00     0.004 A 
HETATM   14  C11 UNL     1      -3.661   2.466  -2.651  1.00  0.00     0.011 A 
HETATM   15  C15 UNL     1      -3.347   1.571  -0.428  1.00  0.00     0.150 A 
HETATM   16  C12 UNL     1      -3.622   3.755  -2.111  1.00  0.00     0.001 A 
HETATM   17  C13 UNL     1      -3.449   3.904  -0.756  1.00  0.00     0.002 A 
HETATM   18  C14 UNL     1      -3.312   2.830   0.086  1.00  0.00     0.038 A 
BRANCH  11  19
HETATM   19  C7  UNL     1      -4.194  -0.314   0.764  1.00  0.00     0.261 C 
BRANCH  19  20
HETATM   20  C8  UNL     1      -5.567  -0.618   0.292  1.00  0.00     0.114 C 
HETATM   21 BR1  UNL     1      -6.553   0.858  -0.418  1.00  0.00    -0.095 Br
ENDBRANCH  19  20
ENDBRANCH  11  19
ENDBRANCH  10  11
ENDBRANCH   8  10
BRANCH   9  22
HETATM   22  C17 UNL     1       0.786  -0.551   0.921  1.00  0.00    -0.003 C 
BRANCH  22  23
HETATM   23  C18 UNL     1       2.146  -0.342   1.372  1.00  0.00     0.131 C 
BRANCH  23  24
HETATM   24  C19 UNL     1       3.016   0.306   0.344  1.00  0.00     0.221 C 
HETATM   25  O2  UNL     1       2.516   0.591  -0.749  1.00  0.00    -0.273 OA
HETATM   26  N3  UNL     1       4.356   0.575   0.627  1.00  0.00    -0.350 N 
ATOM     27  H3  UNL     1       4.746   0.330   1.537  1.00  0.00     0.163 HD
BRANCH  26  28
HETATM   28  C20 UNL     1       5.190   1.203  -0.375  1.00  0.00     0.217 C 
BRANCH  28  29
HETATM   29  C21 UNL     1       6.555   1.402   0.107  1.00  0.00    -0.086 C 
HETATM   30  C22 UNL     1       7.676   1.556   0.522  1.00  0.00    -0.094 C 
BRANCH  30  31
HETATM   31  C23 UNL     1       9.048   1.729   1.049  1.00  0.00     0.178 C 
HETATM   32 BR2  UNL     1       9.867  -0.017   1.343  1.00  0.00    -0.083 Br
ENDBRANCH  30  31
ENDBRANCH  28  29
ENDBRANCH  26  28
ENDBRANCH  23  24
ENDBRANCH  22  23
ENDBRANCH   9  22
TORSDOF 10
