REMARK  6 active torsions:
REMARK  status: ('A' for Active; 'I' for Inactive)
REMARK       I    between atoms: C1_2  and  N6_24 
REMARK    1  A    between atoms: N2_3  and  C2_5 
REMARK    2  A    between atoms: C2_5  and  N3_6 
REMARK    3  A    between atoms: C5_9  and  C6_10 
REMARK    4  A    between atoms: C6_10  and  C7_11 
REMARK    5  A    between atoms: C7_11  and  C8_12 
REMARK    6  A    between atoms: C8_12  and  C9_13 
ROOT
HETATM    1  N3  UNL     1       0.680   0.444  -1.252  1.00  0.00    -0.333 N 
HETATM    2  C3  UNL     1       0.137  -0.665  -1.790  1.00  0.00     0.094 A 
HETATM    3  C4  UNL     1      -1.181  -1.048  -1.511  1.00  0.00     0.026 A 
HETATM    4  C5  UNL     1      -1.952  -0.281  -0.668  1.00  0.00    -0.037 A 
HETATM    5  C12 UNL     1      -1.384   0.848  -0.128  1.00  0.00     0.051 A 
HETATM    6 BR1  UNL     1      -2.411   1.966   1.054  1.00  0.00    -0.048 Br
HETATM    7  C13 UNL     1      -0.084   1.180  -0.435  1.00  0.00     0.101 A 
HETATM    8 BR2  UNL     1       0.676   2.751   0.330  1.00  0.00    -0.029 Br
ENDROOT
BRANCH   1   9
HETATM    9  C2  UNL     1       2.056   0.812  -1.568  1.00  0.00     0.254 C 
BRANCH   9  10
HETATM   10  N2  UNL     1       2.994   0.246  -0.651  1.00  0.00    -0.347 N 
HETATM   11  C1  UNL     1       4.218   0.629  -0.665  1.00  0.00     0.207 C 
HETATM   12  N1  UNL     1       4.622   1.617  -1.599  1.00  0.00    -0.062 NA
HETATM   13  N6  UNL     1       5.153   0.075   0.240  1.00  0.00    -0.250 N 
HETATM   14  N7  UNL     1       5.121   0.230   1.623  1.00  0.00    -0.310 N 
HETATM   15  C16 UNL     1       6.306  -0.743  -0.074  1.00  0.00     0.187 C 
HETATM   16  C14 UNL     1       6.297   0.010   2.125  1.00  0.00     0.083 C 
ATOM     17  H7  UNL     1       4.293   0.480   2.163  1.00  0.00     0.186 HD
HETATM   18  C15 UNL     1       7.246  -0.327   1.037  1.00  0.00     0.085 C 
HETATM   19 BR3  UNL     1       5.920  -2.626   0.202  1.00  0.00    -0.066 Br
ATOM     20  H2  UNL     1       2.690  -0.464   0.016  1.00  0.00     0.163 HD
ENDBRANCH   9  10
ENDBRANCH   1   9
BRANCH   4  21
HETATM   21  C6  UNL     1      -3.348  -0.681  -0.366  1.00  0.00     0.040 C 
BRANCH  21  22
HETATM   22  C7  UNL     1      -3.496  -1.300   0.983  1.00  0.00     0.011 C 
BRANCH  22  23
HETATM   23  C8  UNL     1      -4.928  -1.689   1.212  1.00  0.00     0.059 C 
BRANCH  23  24
HETATM   24  C9  UNL     1      -5.857  -0.562   1.156  1.00  0.00     0.025 A 
HETATM   25  C10 UNL     1      -6.533  -0.091   0.038  1.00  0.00     0.113 A 
HETATM   26  N4  UNL     1      -7.291   0.960   0.395  1.00  0.00    -0.360 N 
HETATM   27  C11 UNL     1      -7.113   1.166   1.705  1.00  0.00     0.180 A 
ATOM     28  H4  UNL     1      -7.894   1.503  -0.222  1.00  0.00     0.166 HD
HETATM   29  N5  UNL     1      -6.255   0.254   2.152  1.00  0.00    -0.355 N 
ATOM     30  H5  UNL     1      -5.940   0.182   3.119  1.00  0.00     0.166 HD
ENDBRANCH  23  24
ENDBRANCH  22  23
ENDBRANCH  21  22
ENDBRANCH   4  21
TORSDOF 6
