REMARK  6 active torsions:
REMARK  status: ('A' for Active; 'I' for Inactive)
REMARK    1  A    between atoms: C4_8  and  C5_9 
REMARK    2  A    between atoms: C6_10  and  C7_11 
REMARK    3  A    between atoms: C7_11  and  C8_12 
REMARK    4  A    between atoms: C8_12  and  N3_14 
REMARK    5  A    between atoms: N3_14  and  C10_16 
REMARK    6  A    between atoms: C13_19  and  C14_20 
ROOT
HETATM    1  C5  UNL     1      -3.448  -0.540  -0.379  1.00  0.00     0.044 A 
HETATM    2  C6  UNL     1      -2.704  -0.664   0.764  1.00  0.00    -0.007 A 
HETATM    3  C24 UNL     1      -3.004  -1.739   1.640  1.00  0.00     0.055 A 
HETATM    4 CL1  UNL     1      -2.071  -1.909   3.095  1.00  0.00    -0.083 Cl
HETATM    5  C25 UNL     1      -3.997  -2.640   1.376  1.00  0.00     0.013 A 
HETATM    6  C26 UNL     1      -4.287  -3.692   2.233  1.00  0.00     0.015 A 
HETATM    7  C27 UNL     1      -5.292  -4.599   1.956  1.00  0.00     0.001 A 
HETATM    8  C28 UNL     1      -6.012  -4.434   0.792  1.00  0.00     0.002 A 
HETATM    9  C29 UNL     1      -5.729  -3.390  -0.066  1.00  0.00     0.030 A 
HETATM   10  C30 UNL     1      -4.716  -2.475   0.212  1.00  0.00     0.046 A 
HETATM   11  N5  UNL     1      -4.431  -1.459  -0.609  1.00  0.00    -0.350 N 
HETATM   12  C31 UNL     1      -5.210  -1.318  -1.825  1.00  0.00     0.156 C 
ENDROOT
BRANCH   2  13
HETATM   13  C7  UNL     1      -1.588   0.214   1.081  1.00  0.00     0.067 C 
BRANCH  13  14
HETATM   14  C8  UNL     1      -0.231  -0.170   0.617  1.00  0.00     0.082 C 
HETATM   15  C9  UNL     1      -0.110  -0.303  -0.873  1.00  0.00     0.032 C 
BRANCH  14  16
HETATM   16  N3  UNL     1       0.783   0.781   1.070  1.00  0.00    -0.385 N 
ATOM     17  H3  UNL     1       0.445   1.657   1.467  1.00  0.00     0.160 HD
BRANCH  16  18
HETATM   18  C10 UNL     1       2.159   0.612   1.014  1.00  0.00     0.028 A 
HETATM   19  C11 UNL     1       2.723  -0.611   0.770  1.00  0.00     0.030 A 
HETATM   20  C12 UNL     1       4.099  -0.815   0.696  1.00  0.00     0.014 A 
HETATM   21  C13 UNL     1       4.935   0.269   0.878  1.00  0.00    -0.019 A 
HETATM   22  C22 UNL     1       4.373   1.503   1.124  1.00  0.00     0.014 A 
HETATM   23  C23 UNL     1       2.996   1.693   1.195  1.00  0.00     0.030 A 
BRANCH  21  24
HETATM   24  C14 UNL     1       6.379   0.058   0.800  1.00  0.00     0.055 A 
HETATM   25  C15 UNL     1       7.190   0.327  -0.219  1.00  0.00     0.007 A 
HETATM   26  C16 UNL     1       6.923   0.862  -1.455  1.00  0.00     0.015 A 
HETATM   27  C20 UNL     1       8.490  -0.011   0.080  1.00  0.00     0.046 A 
HETATM   28  C17 UNL     1       7.910   1.070  -2.399  1.00  0.00     0.001 A 
HETATM   29  C18 UNL     1       9.219   0.738  -2.116  1.00  0.00     0.002 A 
HETATM   30  C19 UNL     1       9.489   0.200  -0.875  1.00  0.00     0.030 A 
HETATM   31  N4  UNL     1       8.559  -0.496   1.274  1.00  0.00    -0.322 N 
HETATM   32  C21 UNL     1       7.253  -0.498   1.830  1.00  0.00     0.258 A 
ATOM     33  H4  UNL     1       9.407  -0.822   1.738  1.00  0.00     0.169 HD
HETATM   34  O1  UNL     1       6.915  -0.898   2.982  1.00  0.00    -0.267 OA
ENDBRANCH  21  24
ENDBRANCH  16  18
ENDBRANCH  14  16
ENDBRANCH  13  14
ENDBRANCH   2  13
BRANCH   1  35
HETATM   35  C4  UNL     1      -3.306   0.549  -1.338  1.00  0.00     0.065 C 
HETATM   36  C3  UNL     1      -3.837   1.760  -1.098  1.00  0.00     0.102 A 
HETATM   37  N2  UNL     1      -4.534   2.145  -0.020  1.00  0.00    -0.296 N 
HETATM   38  C32 UNL     1      -3.746   2.835  -1.952  1.00  0.00     0.227 A 
HETATM   39  N1  UNL     1      -4.878   3.405  -0.168  1.00  0.00    -0.297 N 
ATOM     40  H2  UNL     1      -4.760   1.557   0.783  1.00  0.00     0.187 HD
HETATM   41  C2  UNL     1      -4.410   3.873  -1.350  1.00  0.00     0.091 A 
ATOM     42  H1  UNL     1      -5.417   3.949   0.506  1.00  0.00     0.187 HD
HETATM   43  C1  UNL     1      -4.571   5.108  -1.829  1.00  0.00     0.049 C 
HETATM   44  O2  UNL     1      -3.163   2.884  -3.088  1.00  0.00    -0.283 OA
ENDBRANCH   1  35
TORSDOF 6
