REMARK  11 active torsions:
REMARK  status: ('A' for Active; 'I' for Inactive)
REMARK    1  A    between atoms: C3_5  and  C4_6 
REMARK    2  A    between atoms: N2_8  and  C5_9 
REMARK    3  A    between atoms: C5_9  and  C6_10 
REMARK    4  A    between atoms: C9_13  and  C10_14 
REMARK    5  A    between atoms: C11_15  and  C12_16 
REMARK    6  A    between atoms: C16_23  and  C17_24 
REMARK    7  A    between atoms: C17_24  and  C18_25 
REMARK    8  A    between atoms: C19_28  and  C20_29 
REMARK    9  A    between atoms: C22_31  and  C23_32 
REMARK   10  A    between atoms: C23_32  and  C24_33 
REMARK   11  A    between atoms: C24_33  and  O3_34 
ROOT
HETATM    1  C1  UNL     1      -0.992   1.880   3.784  1.00  0.00     0.044 C 
HETATM    2  C2  UNL     1      -0.260   0.943   3.223  1.00  0.00     0.037 A 
HETATM    3  N1  UNL     1       0.845   0.396   3.919  1.00  0.00    -0.344 N 
ATOM      4  H1  UNL     1       1.065   0.744   4.852  1.00  0.00     0.167 HD
HETATM    5  C3  UNL     1       1.663  -0.633   3.349  1.00  0.00     0.114 A 
HETATM    6  N2  UNL     1       1.389  -1.066   2.183  1.00  0.00    -0.324 N 
HETATM    7  C15 UNL     1       0.275  -0.541   1.425  1.00  0.00     0.096 A 
HETATM    8 BR1  UNL     1       0.260  -1.092  -0.413  1.00  0.00    -0.030 Br
HETATM    9  C16 UNL     1      -0.550   0.394   1.836  1.00  0.00     0.026 A 
ENDROOT
BRANCH   9  10
HETATM   10  C17 UNL     1      -1.809   0.788   1.316  1.00  0.00     0.046 C 
BRANCH  10  11
HETATM   11  C18 UNL     1      -2.744   0.372   0.500  1.00  0.00     0.040 A 
HETATM   12  N3  UNL     1      -2.936  -0.707  -0.249  1.00  0.00    -0.356 N 
HETATM   13  C19 UNL     1      -4.043  -0.654  -1.025  1.00  0.00     0.035 A 
ATOM     14  H3  UNL     1      -2.303  -1.507  -0.240  1.00  0.00     0.166 HD
HETATM   15  C22 UNL     1      -4.634   0.535  -0.781  1.00  0.00    -0.022 A 
HETATM   16  C25 UNL     1      -3.864   1.182   0.147  1.00  0.00    -0.027 A 
HETATM   17  C26 UNL     1      -4.193   2.513   0.671  1.00  0.00     0.051 C 
BRANCH  13  18
HETATM   18  C20 UNL     1      -4.487  -1.574  -1.864  1.00  0.00    -0.001 C 
HETATM   19  C21 UNL     1      -3.739  -2.851  -2.036  1.00  0.00     0.038 C 
ENDBRANCH  13  18
BRANCH  15  20
HETATM   20  C23 UNL     1      -5.888   1.014  -1.433  1.00  0.00     0.067 C 
BRANCH  20  21
HETATM   21  C24 UNL     1      -5.573   1.490  -2.847  1.00  0.00     0.168 C 
BRANCH  21  22
HETATM   22  O3  UNL     1      -4.640   2.545  -2.779  1.00  0.00    -0.401 OA
ATOM     23  H3  UNL     1      -4.444   2.842  -3.660  1.00  0.00     0.209 HD
ENDBRANCH  21  22
ENDBRANCH  20  21
ENDBRANCH  15  20
ENDBRANCH  10  11
ENDBRANCH   9  10
BRANCH   6  24
HETATM   24  C5  UNL     1       2.225  -2.107   1.619  1.00  0.00     0.169 C 
BRANCH  24  25
HETATM   25  C6  UNL     1       3.100  -1.618   0.520  1.00  0.00    -0.040 A 
HETATM   26  C7  UNL     1       3.442  -0.287   0.467  1.00  0.00     0.009 A 
HETATM   27  C8  UNL     1       4.254   0.219  -0.538  1.00  0.00     0.012 A 
HETATM   28  C9  UNL     1       4.761  -0.581  -1.535  1.00  0.00    -0.036 A 
HETATM   29  C13 UNL     1       4.403  -1.937  -1.467  1.00  0.00     0.012 A 
HETATM   30  C14 UNL     1       3.599  -2.425  -0.468  1.00  0.00     0.009 A 
BRANCH  28  31
HETATM   31  C10 UNL     1       5.616  -0.103  -2.614  1.00  0.00     0.018 C 
HETATM   32  C11 UNL     1       5.959   1.161  -2.694  1.00  0.00     0.085 C 
BRANCH  32  33
HETATM   33  C12 UNL     1       6.814   1.587  -3.789  1.00  0.00     0.198 C 
HETATM   34  O1  UNL     1       7.156   2.787  -3.885  1.00  0.00    -0.645 OA
HETATM   35  O2  UNL     1       7.258   0.687  -4.732  1.00  0.00    -0.645 OA
ENDBRANCH  32  33
ENDBRANCH  28  31
ENDBRANCH  24  25
ENDBRANCH   6  24
BRANCH   5  36
HETATM   36  C4  UNL     1       2.780  -1.133   4.132  1.00  0.00     0.298 C 
HETATM   37  F1  UNL     1       2.367  -1.846   5.267  1.00  0.00    -0.247 F 
ENDBRANCH   5  36
TORSDOF 11
