REMARK  7 active torsions:
REMARK  status: ('A' for Active; 'I' for Inactive)
REMARK    1  A    between atoms: O1_1  and  C1_3 
REMARK    2  A    between atoms: C4_6  and  C5_7 
REMARK    3  A    between atoms: C5_7  and  O2_8 
REMARK    4  A    between atoms: C5_7  and  N1_10 
REMARK    5  A    between atoms: N2_13  and  C8_14 
REMARK    6  A    between atoms: C8_14  and  C9_15 
REMARK    7  A    between atoms: C9_15  and  C10_16 
ROOT
HETATM    1  N1  UNL     1       2.417   0.010  -0.616  1.00  0.00     0.126 N 
HETATM    2  C6  UNL     1       1.921  -0.959   0.317  1.00  0.00     0.306 C 
HETATM    3  C7  UNL     1       0.608  -1.551  -0.118  1.00  0.00     0.302 C 
HETATM    4  N2  UNL     1      -0.430  -0.553  -0.291  1.00  0.00     0.091 N 
HETATM    5  C16 UNL     1       0.126   0.525  -1.083  1.00  0.00     0.302 C 
HETATM    6  C17 UNL     1       1.477   0.143  -1.690  1.00  0.00     0.306 C 
ENDROOT
BRANCH   1   7
HETATM    7  C5  UNL     1       3.759  -0.240  -1.045  1.00  0.00     0.408 C 
BRANCH   7   8
HETATM    8  C4  UNL     1       4.655  -0.213   0.160  1.00  0.00     0.070 A 
HETATM    9  C3  UNL     1       5.215  -1.273   0.829  1.00  0.00     0.034 A 
HETATM   10  C2  UNL     1       5.976  -0.808   1.887  1.00  0.00     0.058 A 
HETATM   11  C1  UNL     1       5.869   0.567   1.849  1.00  0.00     0.140 A 
HETATM   12  N3  UNL     1       5.079   0.902   0.816  1.00  0.00    -0.337 N 
ATOM     13  H3  UNL     1       4.831   1.858   0.559  1.00  0.00     0.168 HD
BRANCH  11  14
HETATM   14  O1  UNL     1       6.498   1.423   2.760  1.00  0.00    -0.346 OA
ATOM     15  H1  UNL     1       6.424   2.370   2.734  1.00  0.00     0.219 HD
ENDBRANCH  11  14
ENDBRANCH   7   8
BRANCH   7  16
HETATM   16  O2  UNL     1       4.215   0.721  -1.922  1.00  0.00    -0.363 OA
ATOM     17  H2  UNL     1       3.648   0.704  -2.684  1.00  0.00     0.212 HD
ENDBRANCH   7  16
ENDBRANCH   1   7
BRANCH   4  18
HETATM   18  C8  UNL     1      -0.863  -0.137   1.006  1.00  0.00     0.273 C 
BRANCH  18  19
HETATM   19  C9  UNL     1      -1.948   0.903   0.977  1.00  0.00     0.034 C 
BRANCH  19  20
HETATM   20  C10 UNL     1      -3.190   0.464   0.286  1.00  0.00    -0.013 C 
HETATM   21  C11 UNL     1      -3.846  -0.738   0.894  1.00  0.00     0.005 C 
HETATM   22  C12 UNL     1      -4.967  -1.196  -0.002  1.00  0.00     0.000 C 
HETATM   23  C13 UNL     1      -5.486  -0.061  -0.851  1.00  0.00     0.000 C 
HETATM   24  C14 UNL     1      -5.593   1.162   0.066  1.00  0.00     0.000 C 
HETATM   25  C15 UNL     1      -4.188   1.611   0.362  1.00  0.00     0.005 C 
ENDBRANCH  19  20
ENDBRANCH  18  19
ENDBRANCH   4  18
TORSDOF 7
