REMARK  3 active torsions:
REMARK  status: ('A' for Active; 'I' for Inactive)
REMARK    1  A    between atoms: C2_2  and  C8_15 
REMARK    2  A    between atoms: N1_3  and  N2_5 
REMARK       I    between atoms: N2_5  and  C3_7 
REMARK    3  A    between atoms: C3_7  and  C4_9 
ROOT
HETATM    1  C8  UNL     1      -2.553   0.239   0.551  1.00  0.00     0.051 A 
HETATM    2  S1  UNL     1      -3.154  -0.107   2.142  1.00  0.00    -0.074 SA
HETATM    3  C9  UNL     1      -4.802  -0.217   1.788  1.00  0.00     0.082 A 
HETATM    4 CL1  UNL     1      -6.152  -0.554   2.890  1.00  0.00    -0.076 Cl
HETATM    5  C10 UNL     1      -4.866   0.017   0.441  1.00  0.00    -0.011 A 
HETATM    6  C11 UNL     1      -6.225   0.001  -0.269  1.00  0.00     0.052 C 
HETATM    7  C12 UNL     1      -3.694   0.254  -0.201  1.00  0.00     0.071 A 
HETATM    8  C13 UNL     1      -3.641   0.520  -1.659  1.00  0.00     0.101 C 
HETATM    9  N3  UNL     1      -3.625   0.730  -2.823  1.00  0.00    -0.191 NA
ENDROOT
BRANCH   1  10
HETATM   10  C2  UNL     1      -1.151   0.450   0.190  1.00  0.00     0.040 C 
HETATM   11  C1  UNL     1      -0.716   0.738  -1.171  1.00  0.00     0.071 C 
HETATM   12  N1  UNL     1      -0.280   0.373   1.134  1.00  0.00    -0.301 N 
ATOM     13  H1  UNL     1      -0.604   0.171   2.080  1.00  0.00     0.186 HD
BRANCH  12  14
HETATM   14  N2  UNL     1       1.086   0.553   0.923  1.00  0.00    -0.264 N 
HETATM   15  C3  UNL     1       1.895  -0.513   0.515  1.00  0.00     0.295 C 
HETATM   16  O1  UNL     1       1.370  -1.663   0.336  1.00  0.00    -0.264 OA
ATOM     17  H2  UNL     1       1.501   1.473   1.068  1.00  0.00     0.190 HD
BRANCH  15  18
HETATM   18  C4  UNL     1       3.331  -0.402   0.274  1.00  0.00     0.160 C 
HETATM   19  C5  UNL     1       3.997   0.732   0.423  1.00  0.00     0.177 C 
HETATM   20  O2  UNL     1       5.383   0.820   0.186  1.00  0.00    -0.358 OA
HETATM   21  C6  UNL     1       6.117  -0.386   0.300  1.00  0.00     0.201 C 
HETATM   22  C7  UNL     1       5.412  -1.385  -0.626  1.00  0.00     0.202 C 
HETATM   23  O3  UNL     1       4.091  -1.495  -0.131  1.00  0.00    -0.342 OA
ENDBRANCH  15  18
ENDBRANCH  12  14
ENDBRANCH   1  10
TORSDOF 3
