REMARK  6 active torsions:
REMARK  status: ('A' for Active; 'I' for Inactive)
REMARK    1  A    between atoms: C2_2  and  C3_3 
REMARK    2  A    between atoms: C3_3  and  C4_4 
REMARK    3  A    between atoms: C4_4  and  C5_5 
REMARK    4  A    between atoms: C5_5  and  C6_6 
REMARK    5  A    between atoms: C5_5  and  N1_8 
REMARK    6  A    between atoms: C11_19  and  C12_20 
ROOT
HETATM    1  N1  UNL     1       1.590  -0.017  -1.850  1.00  0.00    -0.376 N 
ATOM      2  H1  UNL     1       1.100  -0.256  -2.712  1.00  0.00     0.160 HD
HETATM    3  C7  UNL     1       0.927  -0.278  -0.842  1.00  0.00     0.117 C 
HETATM    4  S1  UNL     1       1.584   0.053   0.780  1.00  0.00    -0.055 SA
HETATM    5  C8  UNL     1       0.686  -0.769   2.070  1.00  0.00     0.067 C 
HETATM    6  N2  UNL     1       1.347  -1.144   3.092  1.00  0.00    -0.396 N 
ATOM      7  H21 UNL     1       0.831  -1.617   3.834  1.00  0.00     0.156 HD
ATOM      8  H22 UNL     1       2.344  -0.929   3.069  1.00  0.00     0.156 HD
HETATM    9  C9  UNL     1      -0.768  -1.082   2.104  1.00  0.00     0.177 C 
HETATM   10  C10 UNL     1      -0.996  -2.479   1.839  1.00  0.00     0.073 C 
HETATM   11  N3  UNL     1      -1.160  -3.616   1.633  1.00  0.00    -0.196 NA
HETATM   12  C11 UNL     1      -1.503  -0.230   1.055  1.00  0.00     0.158 C 
HETATM   13  N4  UNL     1      -1.510  -0.879  -0.206  1.00  0.00    -0.286 N 
HETATM   14  C17 UNL     1      -0.431  -0.877  -1.041  1.00  0.00     0.145 A 
HETATM   15  N5  UNL     1      -0.466  -1.476  -2.233  1.00  0.00    -0.344 N 
ATOM     16  H5  UNL     1       0.346  -1.467  -2.850  1.00  0.00     0.167 HD
HETATM   17  C18 UNL     1      -1.616  -2.098  -2.600  1.00  0.00     0.012 A 
HETATM   18  C19 UNL     1      -1.688  -2.775  -3.936  1.00  0.00     0.068 C 
HETATM   19  C20 UNL     1      -2.709  -2.120  -1.790  1.00  0.00     0.099 A 
HETATM   20  C21 UNL     1      -2.645  -1.487  -0.553  1.00  0.00     0.251 A 
HETATM   21  O1  UNL     1      -3.653  -1.506   0.202  1.00  0.00    -0.268 OA
ENDROOT
BRANCH  12  22
HETATM   22  C12 UNL     1      -2.769   0.216   1.650  1.00  0.00     0.008 A 
HETATM   23  C13 UNL     1      -3.460  -0.167   2.760  1.00  0.00     0.018 A 
HETATM   24  C14 UNL     1      -4.597   0.472   3.054  1.00  0.00     0.015 A 
HETATM   25  C15 UNL     1      -4.992   1.478   2.207  1.00  0.00    -0.021 A 
HETATM   26  C16 UNL     1      -6.223   2.345   2.314  1.00  0.00     0.056 C 
HETATM   27  S2  UNL     1      -3.750   1.483   1.035  1.00  0.00    -0.098 SA
ENDBRANCH  12  22
BRANCH   1  28
HETATM   28  C5  UNL     1       2.846   0.525  -2.087  1.00  0.00     0.096 C 
BRANCH  28  29
HETATM   29  C4  UNL     1       3.617   1.124  -0.956  1.00  0.00     0.030 C 
BRANCH  29  30
HETATM   30  C3  UNL     1       4.917   1.761  -1.449  1.00  0.00     0.028 C 
BRANCH  30  31
HETATM   31  C2  UNL     1       5.635   2.341  -0.257  1.00  0.00    -0.037 C 
HETATM   32  C1  UNL     1       5.877   3.634  -0.199  1.00  0.00     0.007 C 
ENDBRANCH  30  31
ENDBRANCH  29  30
ENDBRANCH  28  29
BRANCH  28  33
HETATM   33  C6  UNL     1       3.718  -0.577  -2.742  1.00  0.00     0.139 C 
HETATM   34 CL1  UNL     1       4.106  -1.831  -1.543  1.00  0.00    -0.128 Cl
ENDBRANCH  28  33
ENDBRANCH   1  28
TORSDOF 6
