REMARK  6 active torsions:
REMARK  status: ('A' for Active; 'I' for Inactive)
REMARK    1  A    between atoms: C7_7  and  N1_8 
REMARK    2  A    between atoms: N1_8  and  N2_10 
REMARK    3  A    between atoms: C8_11  and  C9_12 
REMARK    4  A    between atoms: C9_12  and  S1_13 
REMARK    5  A    between atoms: S1_13  and  C10_14 
REMARK    6  A    between atoms: C11_19  and  C12_20 
ROOT
HETATM    1  N2  UNL     1      -0.970   1.121  -0.236  1.00  0.00    -0.218 N 
HETATM    2  C8  UNL     1       0.068   0.979   0.655  1.00  0.00     0.130 A 
HETATM    3  N5  UNL     1       0.945   1.939   0.399  1.00  0.00    -0.284 N 
ATOM      4  H5  UNL     1       1.821   2.091   0.898  1.00  0.00     0.188 HD
HETATM    5  N6  UNL     1       0.505   2.657  -0.594  1.00  0.00    -0.273 N 
ATOM      6  H6  UNL     1       0.985   3.462  -0.995  1.00  0.00     0.189 HD
HETATM    7  C18 UNL     1      -0.699   2.167  -1.017  1.00  0.00     0.213 A 
HETATM    8  S3  UNL     1      -1.548   2.793  -2.285  1.00  0.00    -0.037 SA
ENDROOT
BRANCH   2   9
HETATM    9  C9  UNL     1       0.154  -0.084   1.723  1.00  0.00     0.161 C 
BRANCH   9  10
HETATM   10  S1  UNL     1       0.962  -1.584   1.115  1.00  0.00    -0.102 SA
BRANCH  10  11
HETATM   11  C10 UNL     1       2.678  -1.335   0.741  1.00  0.00     0.106 A 
HETATM   12  N3  UNL     1       3.226  -0.131   0.926  1.00  0.00    -0.292 N 
HETATM   13  N4  UNL     1       4.487   0.102   0.665  1.00  0.00    -0.299 N 
ATOM     14  H3  UNL     1       2.645   0.629   1.281  1.00  0.00     0.187 HD
HETATM   15  C11 UNL     1       5.342  -0.821   0.197  1.00  0.00     0.060 A 
ATOM     16  H4  UNL     1       4.843   1.044   0.827  1.00  0.00     0.187 HD
HETATM   17  C16 UNL     1       4.817  -2.078  -0.008  1.00  0.00     0.058 A 
HETATM   18  C17 UNL     1       3.475  -2.347   0.263  1.00  0.00     0.071 A 
HETATM   19 CL1  UNL     1       2.840  -3.956  -0.008  1.00  0.00    -0.081 Cl
BRANCH  15  20
HETATM   20  C12 UNL     1       6.767  -0.497  -0.081  1.00  0.00    -0.001 A 
HETATM   21  C13 UNL     1       7.629  -1.405  -0.551  1.00  0.00     0.021 A 
HETATM   22  C14 UNL     1       8.917  -0.993  -0.767  1.00  0.00     0.050 A 
HETATM   23  S2  UNL     1       8.881   0.646  -0.306  1.00  0.00    -0.113 SA
HETATM   24  C15 UNL     1       7.242   0.766   0.146  1.00  0.00     0.063 A 
ENDBRANCH  15  20
ENDBRANCH  10  11
ENDBRANCH   9  10
ENDBRANCH   2   9
BRANCH   1  25
HETATM   25  N1  UNL     1      -2.056   0.259  -0.294  1.00  0.00    -0.321 N 
ATOM     26  H1  UNL     1      -1.963  -0.569   0.294  1.00  0.00     0.181 HD
BRANCH  25  27
HETATM   27  C7  UNL     1      -3.275   0.320  -1.024  1.00  0.00     0.103 C 
HETATM   28  C2  UNL     1      -4.207   1.329  -0.436  1.00  0.00     0.006 C 
HETATM   29  C1  UNL     1      -5.148   1.884  -1.536  1.00  0.00     0.012 C 
HETATM   30  C3  UNL     1      -5.135   0.830   0.613  1.00  0.00     0.006 C 
HETATM   31  C4  UNL     1      -4.653  -0.444   1.214  1.00  0.00     0.001 C 
HETATM   32  C5  UNL     1      -4.609  -1.470   0.126  1.00  0.00     0.002 C 
HETATM   33  C6  UNL     1      -3.872  -1.065  -1.107  1.00  0.00     0.027 C 
ENDBRANCH  25  27
ENDBRANCH   1  25
TORSDOF 6
