REMARK  5 active torsions:
REMARK  status: ('A' for Active; 'I' for Inactive)
REMARK    1  A    between atoms: C2_2  and  N1_3 
REMARK    2  A    between atoms: C6_13  and  S1_14 
REMARK    3  A    between atoms: S1_14  and  C7_15 
REMARK    4  A    between atoms: C7_15  and  C8_16 
REMARK       I    between atoms: C8_16  and  N4_18 
REMARK    5  A    between atoms: N4_18  and  N5_20 
REMARK       I    between atoms: N5_20  and  C9_22 
ROOT
HETATM    1  N1  UNL     1      -2.650  -0.515  -1.144  1.00  0.00    -0.283 N 
HETATM    2  C3  UNL     1      -3.190   0.580  -1.761  1.00  0.00     0.331 A 
HETATM    3  O1  UNL     1      -4.423   0.764  -1.855  1.00  0.00    -0.246 OA
HETATM    4  N2  UNL     1      -2.319   1.472  -2.272  1.00  0.00    -0.273 N 
ATOM      5  H2  UNL     1      -2.689   2.301  -2.738  1.00  0.00     0.173 HD
HETATM    6  C4  UNL     1      -0.999   1.322  -2.197  1.00  0.00     0.280 A 
HETATM    7  O2  UNL     1      -0.154   2.147  -2.671  1.00  0.00    -0.265 OA
HETATM    8  C5  UNL     1      -0.432   0.209  -1.570  1.00  0.00     0.148 A 
HETATM    9  N3  UNL     1       0.830  -0.178  -1.351  1.00  0.00    -0.329 N 
ATOM     10  H3  UNL     1       1.676   0.317  -1.634  1.00  0.00     0.168 HD
HETATM   11  C6  UNL     1       0.769  -1.347  -0.685  1.00  0.00     0.147 A 
HETATM   12  N6  UNL     1      -0.535  -1.663  -0.503  1.00  0.00    -0.321 N 
ATOM     13  H6  UNL     1      -0.874  -2.499  -0.027  1.00  0.00     0.169 HD
HETATM   14  C11 UNL     1      -1.329  -0.695  -1.052  1.00  0.00     0.146 A 
ENDROOT
BRANCH  11  15
HETATM   15  S1  UNL     1       2.208  -2.273  -0.108  1.00  0.00    -0.084 SA
BRANCH  15  16
HETATM   16  C7  UNL     1       3.693  -1.241  -0.429  1.00  0.00     0.186 C 
BRANCH  16  17
HETATM   17  C8  UNL     1       3.678  -0.047   0.449  1.00  0.00     0.245 C 
HETATM   18  O3  UNL     1       4.564   0.814   0.305  1.00  0.00    -0.271 OA
HETATM   19  N4  UNL     1       2.682   0.104   1.420  1.00  0.00    -0.267 N 
ATOM     20  H4  UNL     1       1.962  -0.611   1.524  1.00  0.00     0.190 HD
BRANCH  19  21
HETATM   21  N5  UNL     1       2.669   1.229   2.248  1.00  0.00    -0.268 N 
HETATM   22  C9  UNL     1       1.826   1.356   3.385  1.00  0.00     0.232 C 
HETATM   23  C10 UNL     1       1.895   2.608   4.213  1.00  0.00     0.119 C 
HETATM   24  O4  UNL     1       1.036   0.444   3.699  1.00  0.00    -0.272 OA
ATOM     25  H5  UNL     1       3.298   2.000   2.025  1.00  0.00     0.190 HD
ENDBRANCH  19  21
ENDBRANCH  16  17
ENDBRANCH  15  16
ENDBRANCH  11  15
BRANCH   1  26
HETATM   26  C2  UNL     1      -3.597  -1.440  -0.581  1.00  0.00     0.131 C 
HETATM   27  C1  UNL     1      -4.088  -2.494  -1.521  1.00  0.00     0.027 C 
ENDBRANCH   1  26
TORSDOF 5
