REMARK  4 active torsions:
REMARK  status: ('A' for Active; 'I' for Inactive)
REMARK    1  A    between atoms: C2_2  and  O2_4 
REMARK    2  A    between atoms: O2_4  and  C3_5 
REMARK    3  A    between atoms: C8_12  and  C9_13 
REMARK    4  A    between atoms: C14_18  and  O5_20 
ROOT
HETATM    1  C3  UNL     1       1.977   0.191   0.282  1.00  0.00     0.070 C 
HETATM    2  C4  UNL     1       2.528   1.594   0.431  1.00  0.00     0.047 C 
HETATM    3  C5  UNL     1       1.012   0.049   1.444  1.00  0.00     0.048 C 
HETATM    4  C6  UNL     1       0.467  -1.306   1.677  1.00  0.00     0.114 C 
HETATM    5  C7  UNL     1      -0.930  -1.257   2.186  1.00  0.00     0.259 C 
HETATM    6  O3  UNL     1      -1.064  -1.365   3.432  1.00  0.00    -0.265 OA
HETATM    7  O4  UNL     1      -1.955  -1.103   1.320  1.00  0.00    -0.316 OA
HETATM    8  C8  UNL     1      -2.276  -0.094   0.418  1.00  0.00     0.135 C 
HETATM    9  C12 UNL     1      -1.594  -0.201  -0.922  1.00  0.00     0.036 C 
HETATM   10  C13 UNL     1      -0.766   0.977  -1.287  1.00  0.00     0.040 C 
HETATM   11  C14 UNL     1       0.590   0.699  -1.793  1.00  0.00     0.057 C 
HETATM   12  C15 UNL     1       0.431   0.039  -3.178  1.00  0.00     0.045 C 
HETATM   13  C16 UNL     1       1.488  -0.186  -1.026  1.00  0.00     0.075 C 
ENDROOT
BRANCH   1  14
HETATM   14  O2  UNL     1       3.041  -0.676   0.655  1.00  0.00    -0.311 OA
BRANCH  14  15
HETATM   15  C2  UNL     1       4.269  -0.739   0.079  1.00  0.00     0.255 C 
HETATM   16  C1  UNL     1       5.273  -1.706   0.581  1.00  0.00     0.126 C 
HETATM   17  O1  UNL     1       4.569   0.005  -0.868  1.00  0.00    -0.266 OA
ENDBRANCH  14  15
ENDBRANCH   1  14
BRANCH  11  18
HETATM   18  O5  UNL     1       1.275   1.886  -2.076  1.00  0.00    -0.390 OA
ATOM     19  H5  UNL     1       2.149   1.707  -2.402  1.00  0.00     0.210 HD
ENDBRANCH  11  18
BRANCH   8  20
HETATM   20  C9  UNL     1      -3.796  -0.163   0.257  1.00  0.00     0.007 C 
HETATM   21  C10 UNL     1      -4.483   0.060   1.587  1.00  0.00     0.012 C 
HETATM   22  C11 UNL     1      -4.329   0.813  -0.725  1.00  0.00     0.012 C 
ENDBRANCH   8  20
TORSDOF 4
