REMARK  5 active torsions:
REMARK  status: ('A' for Active; 'I' for Inactive)
REMARK    1  A    between atoms: C4_5  and  C5_6 
REMARK    2  A    between atoms: C4_5  and  S2_21 
REMARK       I    between atoms: C5_6  and  N2_8 
REMARK    3  A    between atoms: N2_8  and  N3_9 
REMARK    4  A    between atoms: C7_16  and  N6_17 
REMARK    5  A    between atoms: S2_21  and  N7_23 
ROOT
HETATM    1  C5  UNL     1      -0.124   0.257  -0.858  1.00  0.00     0.336 C 
HETATM    2  O1  UNL     1      -0.226   0.292  -2.098  1.00  0.00    -0.253 OA
HETATM    3  N2  UNL     1       0.997   0.175  -0.090  1.00  0.00    -0.283 NA
ENDROOT
BRANCH   1   4
HETATM    4  C4  UNL     1      -1.465   0.319  -0.136  1.00  0.00     0.167 C 
HETATM    5  C3  UNL     1      -1.440  -0.636   0.994  1.00  0.00     0.067 C 
HETATM    6  C2  UNL     1      -2.504  -1.659   0.769  1.00  0.00     0.274 C 
HETATM    7  N1  UNL     1      -3.244  -1.269  -0.390  1.00  0.00     0.086 N 
HETATM    8  C1  UNL     1      -3.720  -2.342  -1.214  1.00  0.00     0.310 C 
HETATM    9  C9  UNL     1      -2.537  -0.234  -1.056  1.00  0.00     0.306 C 
BRANCH   4  10
HETATM   10  S2  UNL     1      -1.906   1.968   0.273  1.00  0.00     0.035 S 
HETATM   11  C8  UNL     1      -0.862   2.742   1.450  1.00  0.00     0.137 C 
HETATM   12  O2  UNL     1      -3.365   2.014   0.704  1.00  0.00    -0.249 OA
BRANCH  10  13
HETATM   13  N7  UNL     1      -1.882   2.850  -1.042  1.00  0.00    -0.359 N 
ATOM     14  H72 UNL     1      -1.646   2.501  -1.971  1.00  0.00     0.165 HD
ATOM     15  H71 UNL     1      -2.138   3.808  -0.804  1.00  0.00     0.165 HD
ENDBRANCH  10  13
ENDBRANCH   4  10
ENDBRANCH   1   4
BRANCH   3  16
HETATM   16  N3  UNL     1       2.054   0.097   0.634  1.00  0.00    -0.208 N 
HETATM   17  C6  UNL     1       3.305  -0.049   0.519  1.00  0.00     0.192 A 
HETATM   18  N4  UNL     1       4.101  -0.196  -0.540  1.00  0.00    -0.276 N 
HETATM   19  S1  UNL     1       4.469  -0.106   1.811  1.00  0.00    -0.013 SA
HETATM   20  N5  UNL     1       5.357  -0.328  -0.383  1.00  0.00    -0.278 N 
ATOM     21  H4  UNL     1       3.702  -0.203  -1.479  1.00  0.00     0.189 HD
HETATM   22  C7  UNL     1       5.862  -0.317   0.852  1.00  0.00     0.160 A 
ATOM     23  H5  UNL     1       5.970  -0.441  -1.191  1.00  0.00     0.189 HD
ATOM     24  H3  UNL     1       1.805   0.179   1.620  1.00  0.00     0.204 HD
BRANCH  22  25
HETATM   25  N6  UNL     1       7.125  -0.439   1.206  1.00  0.00    -0.378 N 
ATOM     26  H62 UNL     1       7.959  -0.565   0.632  1.00  0.00     0.158 HD
ATOM     27  H61 UNL     1       7.511  -0.431   2.150  1.00  0.00     0.158 HD
ENDBRANCH  22  25
ENDBRANCH   3  16
TORSDOF 5
