REMARK  11 active torsions:
REMARK  status: ('A' for Active; 'I' for Inactive)
REMARK    1  A    between atoms: C4_4  and  C5_5 
REMARK    2  A    between atoms: C5_5  and  N1_6 
REMARK    3  A    between atoms: N1_6  and  N2_8 
REMARK    4  A    between atoms: N2_8  and  N3_9 
REMARK    5  A    between atoms: C7_15  and  C8_16 
REMARK       I    between atoms: C8_16  and  N5_18 
REMARK    6  A    between atoms: N5_18  and  C9_20 
REMARK    7  A    between atoms: C9_20  and  C10_21 
REMARK    8  A    between atoms: C9_20  and  C11_23 
REMARK    9  A    between atoms: C11_23  and  O3_24 
REMARK   10  A    between atoms: C11_23  and  N6_26 
REMARK   11  A    between atoms: N6_26  and  N7_27 
ROOT
HETATM    1  C1  UNL     1       1.377   1.037   1.508  1.00  0.00     0.050 C 
HETATM    2  C2  UNL     1       1.855  -0.059   0.655  1.00  0.00    -0.029 A 
HETATM    3  C3  UNL     1       3.238  -0.260   0.518  1.00  0.00     0.019 A 
HETATM    4  C4  UNL     1       3.718  -1.299  -0.241  1.00  0.00    -0.022 A 
HETATM    5  C6  UNL     1       2.823  -2.112  -0.844  1.00  0.00     0.097 A 
HETATM    6  N4  UNL     1       1.542  -1.903  -0.702  1.00  0.00    -0.360 N 
ATOM      7  H4  UNL     1       0.913  -2.548  -1.180  1.00  0.00     0.165 HD
HETATM    8  C7  UNL     1       0.956  -0.890   0.035  1.00  0.00     0.106 A 
ENDROOT
BRANCH   8   9
HETATM    9  C8  UNL     1      -0.478  -0.775   0.040  1.00  0.00     0.269 C 
HETATM   10  O1  UNL     1      -1.095  -1.860  -0.315  1.00  0.00    -0.266 OA
HETATM   11  N5  UNL     1      -1.342   0.265   0.344  1.00  0.00    -0.341 N 
ATOM     12  H5  UNL     1      -0.948   1.163   0.625  1.00  0.00     0.163 HD
BRANCH  11  13
HETATM   13  C9  UNL     1      -2.800   0.127   0.278  1.00  0.00     0.192 C 
BRANCH  13  14
HETATM   14  C10 UNL     1      -3.429   0.340   1.599  1.00  0.00     0.260 C 
HETATM   15  O2  UNL     1      -2.815   0.598   2.620  1.00  0.00    -0.304 OA
ENDBRANCH  13  14
BRANCH  13  16
HETATM   16  C11 UNL     1      -3.420   1.068  -0.700  1.00  0.00     0.260 C 
BRANCH  16  17
HETATM   17  O3  UNL     1      -3.169   2.411  -0.391  1.00  0.00    -0.376 OA
ATOM     18  H3  UNL     1      -3.564   3.010  -1.014  1.00  0.00     0.211 HD
ENDBRANCH  16  17
BRANCH  16  19
HETATM   19  N6  UNL     1      -4.861   0.910  -0.606  1.00  0.00    -0.114 NA
BRANCH  19  20
HETATM   20  N7  UNL     1      -5.295  -0.366  -0.892  1.00  0.00    -0.346 N 
ATOM     21  H72 UNL     1      -4.653  -1.117  -1.144  1.00  0.00     0.172 HD
ATOM     22  H71 UNL     1      -6.307  -0.477  -0.826  1.00  0.00     0.172 HD
ENDBRANCH  19  20
ENDBRANCH  16  19
ENDBRANCH  13  16
ENDBRANCH  11  13
ENDBRANCH   8   9
BRANCH   4  23
HETATM   23  C5  UNL     1       5.171  -1.507  -0.383  1.00  0.00     0.195 C 
BRANCH  23  24
HETATM   24  N1  UNL     1       5.916  -0.496   0.363  1.00  0.00    -0.248 N 
ATOM     25  H1  UNL     1       6.210  -0.639   1.329  1.00  0.00     0.197 HD
BRANCH  24  26
HETATM   26  N2  UNL     1       6.168   0.552  -0.259  1.00  0.00    -0.248 NA
BRANCH  26  27
HETATM   27  N3  UNL     1       6.347   1.764  -0.505  1.00  0.00    -0.261 N 
ATOM     28  H32 UNL     1       6.156   2.099   0.439  1.00  0.00     0.193 HD
ATOM     29  H31 UNL     1       6.554   2.623  -1.015  1.00  0.00     0.193 HD
ENDBRANCH  26  27
ENDBRANCH  24  26
ENDBRANCH  23  24
ENDBRANCH   4  23
TORSDOF 11
