REMARK  2 active torsions:
REMARK  status: ('A' for Active; 'I' for Inactive)
REMARK    1  A    between atoms: N1_1  and  C1_5 
REMARK    2  A    between atoms: C1_5  and  C2_6 
ROOT
HETATM    1  C1  UNL     1      -1.577   0.192   0.062  1.00  0.00     0.127 A 
HETATM    2  C8  UNL     1      -2.393  -0.296  -1.126  1.00  0.00     0.041 A 
HETATM    3  C9  UNL     1      -2.625   1.020  -0.504  1.00  0.00     0.041 A 
ENDROOT
BRANCH   1   4
HETATM    4  N1  UNL     1      -1.806  -0.527   1.311  1.00  0.00    -0.070 N 
ATOM      5  H13 UNL     1      -1.313  -1.420   1.315  1.00  0.00     0.275 HD
ATOM      6  H12 UNL     1      -1.328  -0.071   2.089  1.00  0.00     0.275 HD
ATOM      7  H11 UNL     1      -2.797  -0.655   1.515  1.00  0.00     0.275 HD
ENDBRANCH   1   4
BRANCH   1   8
HETATM    8  C2  UNL     1      -0.107   0.382  -0.240  1.00  0.00     0.021 C 
HETATM    9  C3  UNL     1       0.457  -1.043  -0.330  1.00  0.00     0.007 C 
HETATM   10  C4  UNL     1       1.860  -1.006  -0.818  1.00  0.00     0.000 C 
HETATM   11  C5  UNL     1       2.691  -0.010  -0.079  1.00  0.00     0.000 C 
HETATM   12  C6  UNL     1       2.021   0.642   1.072  1.00  0.00     0.000 C 
HETATM   13  C7  UNL     1       0.628   1.092   0.849  1.00  0.00     0.007 C 
ENDBRANCH   1   8
TORSDOF 2
