REMARK  0 active torsions:
REMARK  status: ('A' for Active; 'I' for Inactive)
ROOT
HETATM    1  C1  UNL     1       2.956   0.434   0.040  1.00  0.00     0.015 C 
HETATM    2  C2  UNL     1       1.754  -0.133  -0.728  1.00  0.00     0.020 C 
HETATM    3  C3  UNL     1       0.742   0.920  -0.986  1.00  0.00     0.010 C 
HETATM    4  C4  UNL     1      -0.604   0.279  -1.226  1.00  0.00     0.015 C 
HETATM    5  C5  UNL     1      -1.294   0.133   0.088  1.00  0.00    -0.016 C 
HETATM    6  C6  UNL     1      -1.999   1.463   0.377  1.00  0.00     0.020 C 
HETATM    7  C7  UNL     1      -2.376  -0.927   0.069  1.00  0.00     0.020 C 
HETATM    8  C8  UNL     1      -0.372  -0.143   1.230  1.00  0.00     0.069 C 
HETATM    9  N1  UNL     1       0.489  -1.241   1.083  1.00  0.00    -0.381 N 
ATOM     10  H1  UNL     1       0.542  -1.951   1.813  1.00  0.00     0.164 HD
HETATM   11  C9  UNL     1       1.275  -1.359  -0.068  1.00  0.00     0.064 C 
ENDROOT
TORSDOF 0
