REMARK  0 active torsions:
REMARK  status: ('A' for Active; 'I' for Inactive)
ROOT
HETATM    1  C1  UNL     1       0.786  -0.128  -0.953  1.00  0.00     0.026 C 
HETATM    2  C2  UNL     1       1.702  -0.030   0.264  1.00  0.00     0.077 C 
HETATM    3  S1  UNL     1       0.206  -0.040   1.507  1.00  0.00    -0.143 SA
HETATM    4  S2  UNL     1      -0.708   2.050   1.471  1.00  0.00    -0.035 SA
HETATM    5  S3  UNL     1      -1.357   1.809  -0.566  1.00  0.00    -0.086 SA
HETATM    6  C3  UNL     1      -1.726   0.014  -0.537  1.00  0.00     0.102 C 
HETATM    7  C4  UNL     1      -0.404  -0.638  -0.181  1.00  0.00     0.059 C 
ENDROOT
TORSDOF 0
