REMARK  0 active torsions:
REMARK  status: ('A' for Active; 'I' for Inactive)
ROOT
HETATM    1  C1  UNL     1       1.652  -0.327   0.651  1.00  0.00     0.001 C 
HETATM    2  C2  UNL     1       1.348   1.043   0.185  1.00  0.00     0.004 C 
HETATM    3  C3  UNL     1       0.171   1.160  -0.727  1.00  0.00    -0.014 C 
HETATM    4  C4  UNL     1       0.130  -0.021  -1.628  1.00  0.00     0.005 C 
HETATM    5  C5  UNL     1      -0.747  -1.108  -1.074  1.00  0.00     0.005 C 
HETATM    6  C6  UNL     1      -0.768  -1.037   0.412  1.00  0.00    -0.014 C 
HETATM    7  C7  UNL     1       0.549  -1.182   1.080  1.00  0.00     0.004 C 
HETATM    8  C8  UNL     1      -1.531   0.186   0.844  1.00  0.00     0.005 C 
HETATM    9  C9  UNL     1      -1.068   1.373   0.087  1.00  0.00     0.005 C 
ENDROOT
TORSDOF 0
