REMARK  6 active torsions:
REMARK  status: ('A' for Active; 'I' for Inactive)
REMARK    1  A    between atoms: C2_2  and  C3_3 
REMARK    2  A    between atoms: C3_3  and  N1_4 
REMARK       I    between atoms: N1_4  and  C4_6 
REMARK       I    between atoms: C4_6  and  N2_8 
REMARK    3  A    between atoms: N2_8  and  C5_10 
REMARK    4  A    between atoms: C5_10  and  C7_12 
REMARK       I    between atoms: C7_12  and  N3_14 
REMARK       I    between atoms: N3_14  and  C8_16 
REMARK    5  A    between atoms: C8_16  and  C9_18 
REMARK    6  A    between atoms: C9_18  and  N4_19 
ROOT
HETATM    1  C5  UNL     1       0.207   0.221  -0.903  1.00  0.00     0.174 C 
HETATM    2  C6  UNL     1      -0.444   1.260  -1.818  1.00  0.00     0.042 C 
ENDROOT
BRANCH   1   3
HETATM    3  N2  UNL     1       1.618   0.116  -1.264  1.00  0.00    -0.330 N 
HETATM    4  C4  UNL     1       2.663   0.443  -0.381  1.00  0.00     0.316 C 
HETATM    5  N1  UNL     1       4.005   0.323  -0.782  1.00  0.00    -0.343 N 
HETATM    6  O1  UNL     1       2.388   0.842   0.767  1.00  0.00    -0.247 OA
ATOM      7  H1  UNL     1       4.201  -0.001  -1.729  1.00  0.00     0.164 HD
ATOM      8  H2  UNL     1       1.857  -0.210  -2.201  1.00  0.00     0.165 HD
BRANCH   5   9
HETATM    9  C3  UNL     1       5.119   0.635   0.079  1.00  0.00     0.124 C 
BRANCH   9  10
HETATM   10  C2  UNL     1       5.188  -0.206   1.326  1.00  0.00     0.015 C 
HETATM   11  C1  UNL     1       6.430   0.274   2.091  1.00  0.00     0.006 C 
ENDBRANCH   9  10
ENDBRANCH   5   9
ENDBRANCH   1   3
BRANCH   1  12
HETATM   12  C7  UNL     1      -0.474  -1.074  -1.014  1.00  0.00     0.246 C 
HETATM   13  O2  UNL     1       0.204  -2.016  -1.561  1.00  0.00    -0.271 OA
HETATM   14  N3  UNL     1      -1.776  -1.405  -0.594  1.00  0.00    -0.294 N 
HETATM   15  C8  UNL     1      -2.700  -0.610   0.090  1.00  0.00     0.252 C 
ATOM     16  H3  UNL     1      -2.086  -2.350  -0.819  1.00  0.00     0.171 HD
HETATM   17  O3  UNL     1      -2.411   0.555   0.402  1.00  0.00    -0.271 OA
BRANCH  15  18
HETATM   18  C9  UNL     1      -4.011  -1.139   0.444  1.00  0.00     0.373 C 
BRANCH  18  19
HETATM   19  N4  UNL     1      -4.865  -0.228   1.142  1.00  0.00     0.088 N 
HETATM   20  C10 UNL     1      -6.122  -0.870   1.433  1.00  0.00     0.310 C 
HETATM   21  C11 UNL     1      -5.023   1.047   0.500  1.00  0.00     0.310 C 
ENDBRANCH  18  19
ENDBRANCH  15  18
ENDBRANCH   1  12
TORSDOF 6
