REMARK  2 active torsions:
REMARK  status: ('A' for Active; 'I' for Inactive)
REMARK    1  A    between atoms: N1_1  and  C1_5 
REMARK    2  A    between atoms: C1_5  and  C2_6 
ROOT
HETATM    1  C2  UNL     1       0.072  -0.149   0.166  1.00  0.00     0.106 A 
HETATM    2  N2  UNL     1      -0.484   1.078   0.136  1.00  0.00    -0.353 N 
ATOM      3  H2  UNL     1       0.005   1.973   0.142  1.00  0.00     0.166 HD
HETATM    4  C3  UNL     1      -1.815   0.883   0.097  1.00  0.00     0.106 A 
HETATM    5  C4  UNL     1      -2.085  -0.471   0.103  1.00  0.00     0.106 A 
HETATM    6  N3  UNL     1      -0.889  -1.093   0.147  1.00  0.00    -0.353 N 
ATOM      7  H3  UNL     1      -0.738  -2.102   0.163  1.00  0.00     0.166 HD
ENDROOT
BRANCH   1   8
HETATM    8  C1  UNL     1       1.541  -0.449   0.215  1.00  0.00     0.305 C 
BRANCH   8   9
HETATM    9  N1  UNL     1       2.279   0.800   0.223  1.00  0.00    -0.073 N 
ATOM     10  H13 UNL     1       2.032   1.402  -0.562  1.00  0.00     0.274 HD
ATOM     11  H12 UNL     1       1.984   1.420   0.977  1.00  0.00     0.274 HD
ATOM     12  H11 UNL     1       3.278   0.596   0.256  1.00  0.00     0.274 HD
ENDBRANCH   8   9
ENDBRANCH   1   8
TORSDOF 2
