REMARK  1 active torsions:
REMARK  status: ('A' for Active; 'I' for Inactive)
REMARK    1  A    between atoms: C2_3  and  C3_4 
ROOT
HETATM    1  N1  UNL     1       3.313  -0.213   0.163  1.00  0.00    -0.197 NA
HETATM    2  C1  UNL     1       2.226   0.045  -0.082  1.00  0.00     0.061 C 
HETATM    3  C2  UNL     1       0.858   0.391  -0.405  1.00  0.00     0.158 C 
ENDROOT
BRANCH   3   4
HETATM    4  C3  UNL     1      -0.146  -0.174   0.564  1.00  0.00     0.224 A 
HETATM    5  C4  UNL     1      -1.582   0.190   0.225  1.00  0.00     0.266 A 
HETATM    6  N2  UNL     1      -1.068  -1.183   0.179  1.00  0.00    -0.066 N 
ATOM      7  H22 UNL     1      -1.054  -1.897  -0.550  1.00  0.00     0.277 HD
ATOM      8  H21 UNL     1      -1.369  -2.054   0.616  1.00  0.00     0.277 HD
ENDBRANCH   3   4
TORSDOF 1
