REMARK  5 active torsions:
REMARK  status: ('A' for Active; 'I' for Inactive)
REMARK       I    between atoms: C1_2  and  N4_14 
REMARK       I    between atoms: N2_3  and  C2_5 
REMARK    1  A    between atoms: C2_5  and  C3_7 
REMARK    2  A    between atoms: N4_14  and  N5_16 
REMARK    3  A    between atoms: N5_16  and  C7_18 
REMARK    4  A    between atoms: N9_23  and  C8_24 
REMARK    5  A    between atoms: C8_24  and  C9_25 
ROOT
HETATM    1  N1  UNL     1       0.828  -0.283   0.928  1.00  0.00    -0.062 NA
HETATM    2  C1  UNL     1       0.575   0.167  -0.385  1.00  0.00     0.210 C 
HETATM    3  N2  UNL     1       1.385  -0.070  -1.348  1.00  0.00    -0.294 N 
ATOM      4  H2  UNL     1       1.186   0.263  -2.291  1.00  0.00     0.172 HD
HETATM    5  C2  UNL     1       2.567  -0.808  -1.071  1.00  0.00     0.274 C 
HETATM    6  O1  UNL     1       2.604  -2.046  -1.227  1.00  0.00    -0.266 OA
HETATM    7  N4  UNL     1      -0.606   0.901  -0.650  1.00  0.00    -0.259 N 
ATOM      8  H4  UNL     1      -0.584   1.651  -1.341  1.00  0.00     0.190 HD
ENDROOT
BRANCH   7   9
HETATM    9  N5  UNL     1      -1.804   0.618   0.018  1.00  0.00    -0.127 N 
ATOM     10  H5  UNL     1      -2.153   1.231   0.755  1.00  0.00     0.205 HD
BRANCH   9  11
HETATM   11  C7  UNL     1      -2.453  -0.443  -0.328  1.00  0.00     0.725 A 
HETATM   12  N6  UNL     1      -2.177  -1.368  -1.253  1.00  0.00    -0.115 N 
HETATM   13  N7  UNL     1      -3.128  -2.304  -1.278  1.00  0.00     0.007 NA
ATOM     14  H6  UNL     1      -1.354  -1.360  -1.856  1.00  0.00     0.202 HD
HETATM   15  N8  UNL     1      -3.998  -1.941  -0.350  1.00  0.00     0.009 NA
HETATM   16  N9  UNL     1      -3.613  -0.818   0.241  1.00  0.00    -0.099 N 
BRANCH  16  17
HETATM   17  C8  UNL     1      -4.315  -0.124   1.302  1.00  0.00     0.282 C 
BRANCH  17  18
HETATM   18  C9  UNL     1      -5.288   0.884   0.686  1.00  0.00     0.405 C 
HETATM   19  F1  UNL     1      -5.966   1.556   1.655  1.00  0.00    -0.169 F 
HETATM   20  F2  UNL     1      -4.640   1.701  -0.190  1.00  0.00    -0.169 F 
HETATM   21  F3  UNL     1      -6.187   0.116  -0.058  1.00  0.00    -0.169 F 
ENDBRANCH  17  18
ENDBRANCH  16  17
ENDBRANCH   9  11
ENDBRANCH   7   9
BRANCH   5  22
HETATM   22  C3  UNL     1       3.743  -0.092  -0.598  1.00  0.00     0.102 A 
HETATM   23  C4  UNL     1       3.870   1.260  -0.374  1.00  0.00     0.038 A 
HETATM   24  C5  UNL     1       5.162   1.524   0.074  1.00  0.00     0.045 A 
HETATM   25  C6  UNL     1       5.794   0.299   0.109  1.00  0.00     0.104 A 
HETATM   26 CL1  UNL     1       7.470   0.076   0.613  1.00  0.00    -0.065 Cl
HETATM   27  N3  UNL     1       4.946  -0.660  -0.292  1.00  0.00    -0.342 N 
ATOM     28  H3  UNL     1       5.165  -1.654  -0.358  1.00  0.00     0.167 HD
ENDBRANCH   5  22
TORSDOF 5
