REMARK  3 active torsions:
REMARK  status: ('A' for Active; 'I' for Inactive)
REMARK    1  A    between atoms: C4_6  and  N1_7 
REMARK       I    between atoms: N1_7  and  C5_8 
REMARK    2  A    between atoms: C5_8  and  C6_10 
REMARK    3  A    between atoms: C6_10  and  C7_11 
ROOT
HETATM    1  N1  UNL     1       0.995  -0.159   1.122  1.00  0.00    -0.406 NA
HETATM    2  C5  UNL     1      -0.312  -0.396   0.793  1.00  0.00     0.287 C 
HETATM    3  O1  UNL     1      -1.034  -1.325   1.254  1.00  0.00    -0.258 OA
ENDROOT
BRANCH   1   4
HETATM    4  C4  UNL     1       2.304   0.079   1.452  1.00  0.00     0.211 A 
HETATM    5  C2  UNL     1       3.227   0.415   0.243  1.00  0.00     0.087 A 
HETATM    6  C1  UNL     1       4.491  -0.401   0.165  1.00  0.00     0.037 C 
HETATM    7 CL1  UNL     1       2.443   0.646  -1.342  1.00  0.00    -0.115 Cl
HETATM    8  C3  UNL     1       2.966   1.408   1.283  1.00  0.00     0.146 A 
HETATM    9 CL2  UNL     1       4.271   1.791   2.422  1.00  0.00    -0.119 Cl
ENDBRANCH   1   4
BRANCH   2  10
HETATM   10  C6  UNL     1      -1.081   0.464  -0.200  1.00  0.00     0.123 C 
BRANCH  10  11
HETATM   11  C7  UNL     1      -2.501   0.038  -0.256  1.00  0.00    -0.005 C 
HETATM   12  C8  UNL     1      -3.386   0.821  -1.205  1.00  0.00     0.005 C 
HETATM   13  C9  UNL     1      -4.127  -0.496  -1.455  1.00  0.00     0.001 C 
HETATM   14  C10 UNL     1      -2.793  -1.177  -1.126  1.00  0.00     0.005 C 
ENDBRANCH  10  11
ENDBRANCH   2  10
TORSDOF 3
