REMARK  2 active torsions:
REMARK  status: ('A' for Active; 'I' for Inactive)
REMARK       I    between atoms: C1_2  and  N1_3 
REMARK    1  A    between atoms: C1_2  and  C7_10 
REMARK    2  A    between atoms: N1_3  and  C2_5 
ROOT
HETATM    1  O1  UNL     1       1.939   0.147  -2.121  1.00  0.00    -0.271 OA
HETATM    2  C1  UNL     1       2.116  -0.084  -0.896  1.00  0.00     0.247 C 
HETATM    3  N1  UNL     1       1.002  -0.101  -0.038  1.00  0.00    -0.354 N 
ATOM      4  H1  UNL     1       1.143  -0.288   0.955  1.00  0.00     0.162 HD
ENDROOT
BRANCH   3   5
HETATM    5  C2  UNL     1      -0.333   0.139  -0.523  1.00  0.00     0.084 C 
HETATM    6  C3  UNL     1      -0.953   1.307   0.176  1.00  0.00     0.025 C 
HETATM    7  C4  UNL     1      -1.885   0.657   1.177  1.00  0.00     0.002 C 
HETATM    8  C5  UNL     1      -2.486  -0.448   0.305  1.00  0.00     0.002 C 
HETATM    9  C6  UNL     1      -1.241  -1.058  -0.287  1.00  0.00     0.025 C 
ENDBRANCH   3   5
BRANCH   2  10
HETATM   10  C7  UNL     1       3.504  -0.327  -0.431  1.00  0.00     0.245 C 
HETATM   11 CL1  UNL     1       3.875   0.941   0.790  1.00  0.00    -0.103 Cl
HETATM   12 BR1  UNL     1       3.676  -2.058   0.409  1.00  0.00    -0.064 Br
ENDBRANCH   2  10
TORSDOF 2
