REMARK  11 active torsions:
REMARK  status: ('A' for Active; 'I' for Inactive)
REMARK    1  A    between atoms: C2_2  and  O1_3 
REMARK    2  A    between atoms: C2_2  and  C3_5 
REMARK    3  A    between atoms: C3_5  and  C4_6 
REMARK    4  A    between atoms: C9_11  and  O2_13 
REMARK    5  A    between atoms: O2_13  and  C11_14 
REMARK    6  A    between atoms: C13_17  and  O4_18 
REMARK    7  A    between atoms: C14_20  and  O5_21 
REMARK    8  A    between atoms: C15_23  and  O6_24 
REMARK    9  A    between atoms: C20_30  and  C21_31 
REMARK   10  A    between atoms: C21_31  and  O8_33 
REMARK   11  A    between atoms: O8_33  and  C22_34 
ROOT
HETATM    1  C4  UNL     1      -2.420   0.964  -0.130  1.00  0.00     0.003 C 
HETATM    2  C5  UNL     1      -1.565   2.174  -0.257  1.00  0.00     0.010 C 
HETATM    3  C6  UNL     1      -0.501   2.152   0.815  1.00  0.00     0.035 C 
HETATM    4  C7  UNL     1       0.140   0.791   0.739  1.00  0.00    -0.072 C 
HETATM    5  C8  UNL     1       1.385   0.642   0.315  1.00  0.00     0.014 C 
HETATM    6  C9  UNL     1       2.034  -0.682   0.230  1.00  0.00     0.078 C 
HETATM    7  C10 UNL     1       2.602  -1.222   1.489  1.00  0.00     0.051 C 
HETATM    8  C16 UNL     1       0.965  -1.626  -0.271  1.00  0.00     0.043 C 
HETATM    9  C17 UNL     1      -0.343  -1.559   0.419  1.00  0.00     0.018 C 
HETATM   10  C18 UNL     1      -0.695  -0.336   1.166  1.00  0.00    -0.008 C 
HETATM   11  C19 UNL     1      -0.447  -0.506   2.681  1.00  0.00     0.021 C 
HETATM   12  C20 UNL     1      -2.137   0.099   1.049  1.00  0.00     0.102 C 
ENDROOT
BRANCH   6  13
HETATM   13  O2  UNL     1       3.038  -0.717  -0.737  1.00  0.00    -0.344 OA
BRANCH  13  14
HETATM   14  C11 UNL     1       4.055   0.193  -0.502  1.00  0.00     0.292 C 
HETATM   15  O3  UNL     1       4.116   1.003  -1.642  1.00  0.00    -0.356 OA
HETATM   16  C12 UNL     1       5.017   2.036  -1.516  1.00  0.00     0.205 C 
HETATM   17  C13 UNL     1       6.406   1.457  -1.615  1.00  0.00     0.173 C 
HETATM   18  C14 UNL     1       6.343  -0.068  -1.493  1.00  0.00     0.182 C 
HETATM   19  C15 UNL     1       5.413  -0.460  -0.351  1.00  0.00     0.204 C 
BRANCH  17  20
HETATM   20  O4  UNL     1       7.140   1.963  -0.545  1.00  0.00    -0.391 OA
ATOM     21  H4  UNL     1       8.015   1.598  -0.607  1.00  0.00     0.210 HD
ENDBRANCH  17  20
BRANCH  18  22
HETATM   22  O5  UNL     1       7.636  -0.479  -1.182  1.00  0.00    -0.390 OA
ATOM     23  H5  UNL     1       7.597  -1.425  -1.106  1.00  0.00     0.210 HD
ENDBRANCH  18  22
BRANCH  19  24
HETATM   24  O6  UNL     1       6.070  -0.035   0.821  1.00  0.00    -0.388 OA
ATOM     25  H6  UNL     1       6.922  -0.445   0.916  1.00  0.00     0.210 HD
ENDBRANCH  19  24
ENDBRANCH  13  14
ENDBRANCH   6  13
BRANCH  12  26
HETATM   26  C21 UNL     1      -3.119  -0.983   1.221  1.00  0.00     0.264 C 
HETATM   27  O7  UNL     1      -2.850  -2.208   1.252  1.00  0.00    -0.265 OA
BRANCH  26  28
HETATM   28  O8  UNL     1      -4.493  -0.709   1.370  1.00  0.00    -0.316 OA
BRANCH  28  29
HETATM   29  C22 UNL     1      -5.452  -1.702   1.535  1.00  0.00     0.123 C 
HETATM   30  C23 UNL     1      -6.475  -1.752   0.425  1.00  0.00     0.040 C 
HETATM   31  C24 UNL     1      -6.102  -1.520   2.887  1.00  0.00     0.040 C 
ENDBRANCH  28  29
ENDBRANCH  26  28
ENDBRANCH  12  26
BRANCH   1  32
HETATM   32  C3  UNL     1      -2.517   0.237  -1.447  1.00  0.00     0.037 C 
BRANCH  32  33
HETATM   33  C2  UNL     1      -3.134   1.123  -2.514  1.00  0.00     0.114 C 
HETATM   34  C1  UNL     1      -3.207   0.344  -3.809  1.00  0.00     0.039 C 
BRANCH  33  35
HETATM   35  O1  UNL     1      -4.435   1.436  -2.079  1.00  0.00    -0.396 OA
ATOM     36  H1  UNL     1      -4.389   1.925  -1.266  1.00  0.00     0.210 HD
ENDBRANCH  33  35
ENDBRANCH  32  33
ENDBRANCH   1  32
TORSDOF 11
