REMARK  13 active torsions:
REMARK  status: ('A' for Active; 'I' for Inactive)
REMARK    1  A    between atoms: C1_4  and  C2_6 
REMARK    2  A    between atoms: N3_9  and  C5_10 
REMARK    3  A    between atoms: C5_10  and  C6_11 
REMARK    4  A    between atoms: C6_11  and  C7_12 
REMARK    5  A    between atoms: C7_12  and  C8_13 
REMARK    6  A    between atoms: N4_16  and  N5_17 
REMARK    7  A    between atoms: C11_19  and  C12_20 
REMARK    8  A    between atoms: C15_23  and  C16_24 
REMARK    9  A    between atoms: C16_24  and  C17_25 
REMARK   10  A    between atoms: C17_25  and  C18_26 
REMARK   11  A    between atoms: C18_26  and  N6_27 
REMARK   12  A    between atoms: C20_31  and  O1_32 
REMARK   13  A    between atoms: C22_35  and  O2_36 
ROOT
HETATM    1  N5  UNL     1       0.591  -0.818   0.259  1.00  0.00    -0.305 N 
ATOM      2  H5  UNL     1       1.106  -0.521   1.088  1.00  0.00     0.186 HD
HETATM    3  C11 UNL     1       1.186  -0.841  -0.863  1.00  0.00     0.119 C 
ENDROOT
BRANCH   1   4
HETATM    4  N4  UNL     1      -0.772  -1.195   0.390  1.00  0.00    -0.279 N 
HETATM    5  C10 UNL     1      -1.114  -2.309   1.057  1.00  0.00     0.116 A 
HETATM    6  C9  UNL     1      -2.434  -2.675   1.184  1.00  0.00     0.026 A 
HETATM    7  C8  UNL     1      -3.484  -1.918   0.633  1.00  0.00    -0.055 A 
HETATM    8  C25 UNL     1      -3.103  -0.796  -0.037  1.00  0.00     0.026 A 
HETATM    9  C24 UNL     1      -1.749  -0.454  -0.146  1.00  0.00     0.116 A 
BRANCH   7  10
HETATM   10  C7  UNL     1      -4.879  -2.382   0.761  1.00  0.00     0.040 C 
BRANCH  10  11
HETATM   11  C6  UNL     1      -5.550  -2.111   2.041  1.00  0.00     0.025 C 
BRANCH  11  12
HETATM   12  C5  UNL     1      -5.838  -0.751   2.513  1.00  0.00     0.128 C 
BRANCH  12  13
HETATM   13  N3  UNL     1      -6.776   0.024   1.734  1.00  0.00    -0.366 N 
HETATM   14  C4  UNL     1      -8.113  -0.137   2.007  1.00  0.00     0.091 A 
HETATM   15  C3  UNL     1      -9.081   0.577   1.348  1.00  0.00     0.032 A 
HETATM   16  C2  UNL     1      -8.792   1.500   0.371  1.00  0.00     0.007 A 
HETATM   17  C27 UNL     1      -7.437   1.661   0.098  1.00  0.00     0.032 A 
HETATM   18  C26 UNL     1      -6.486   0.918   0.791  1.00  0.00     0.091 A 
BRANCH  16  19
HETATM   19  C1  UNL     1      -9.805   2.256  -0.330  1.00  0.00     0.120 C 
HETATM   20  N1  UNL     1     -11.037   2.103  -0.075  1.00  0.00    -0.387 N 
ATOM     21  H12 UNL     1     -11.752   2.637  -0.570  1.00  0.00     0.157 HD
ATOM     22  H11 UNL     1     -11.325   1.433   0.638  1.00  0.00     0.157 HD
HETATM   23  N2  UNL     1      -9.405   3.186  -1.319  1.00  0.00    -0.082 NA
ENDBRANCH  16  19
ENDBRANCH  12  13
ENDBRANCH  11  12
ENDBRANCH  10  11
ENDBRANCH   7  10
ENDBRANCH   1   4
BRANCH   3  24
HETATM   24  C12 UNL     1       2.577  -0.453  -0.979  1.00  0.00    -0.017 A 
HETATM   25  C13 UNL     1       3.339  -0.044   0.078  1.00  0.00     0.013 A 
HETATM   26  C14 UNL     1       4.681   0.325  -0.063  1.00  0.00     0.011 A 
HETATM   27  C15 UNL     1       5.268   0.279  -1.301  1.00  0.00    -0.025 A 
HETATM   28  C22 UNL     1       4.529  -0.131  -2.401  1.00  0.00     0.072 A 
HETATM   29  C23 UNL     1       3.213  -0.486  -2.230  1.00  0.00     0.050 A 
BRANCH  27  30
HETATM   30  C16 UNL     1       6.692   0.674  -1.429  1.00  0.00     0.043 C 
BRANCH  30  31
HETATM   31  C17 UNL     1       7.525  -0.581  -1.577  1.00  0.00     0.025 C 
BRANCH  31  32
HETATM   32  C18 UNL     1       8.990  -0.279  -1.715  1.00  0.00     0.129 C 
BRANCH  32  33
HETATM   33  N6  UNL     1       9.536   0.426  -0.588  1.00  0.00    -0.349 N 
HETATM   34  C19 UNL     1       9.597   1.756  -0.441  1.00  0.00     0.184 A 
HETATM   35  N7  UNL     1      10.169   2.071   0.733  1.00  0.00    -0.332 N 
HETATM   36  C20 UNL     1      10.482   0.921   1.353  1.00  0.00     0.156 A 
ATOM     37  H7  UNL     1      10.335   3.012   1.089  1.00  0.00     0.168 HD
HETATM   38  C21 UNL     1      10.081  -0.102   0.516  1.00  0.00     0.147 A 
BRANCH  36  39
HETATM   39  O1  UNL     1      11.093   0.753   2.597  1.00  0.00    -0.345 OA
ATOM     40  H1  UNL     1      11.314  -0.060   3.035  1.00  0.00     0.219 HD
ENDBRANCH  36  39
ENDBRANCH  32  33
ENDBRANCH  31  32
ENDBRANCH  30  31
ENDBRANCH  27  30
BRANCH  28  41
HETATM   41  O2  UNL     1       5.156  -0.165  -3.642  1.00  0.00    -0.360 OA
ATOM     42  H2  UNL     1       4.650  -0.446  -4.395  1.00  0.00     0.217 HD
ENDBRANCH  28  41
ENDBRANCH   3  24
TORSDOF 13
