REMARK  3 active torsions:
REMARK  status: ('A' for Active; 'I' for Inactive)
REMARK    1  A    between atoms: N1_2  and  C2_5 
REMARK    2  A    between atoms: C2_5  and  N2_6 
REMARK    3  A    between atoms: N3_8  and  N4_9 
ROOT
HETATM    1  N2  UNL     1       0.377  -0.025   0.768  1.00  0.00    -0.166 NA
HETATM    2  C3  UNL     1       1.035   0.064  -0.499  1.00  0.00     0.281 C 
HETATM    3  N3  UNL     1       2.109  -0.604   0.183  1.00  0.00    -0.194 N 
HETATM    4  N6  UNL     1       1.161  -1.164   1.027  1.00  0.00    -0.024 NA
ENDROOT
BRANCH   1   5
HETATM    5  C2  UNL     1      -1.045  -0.268   0.736  1.00  0.00     0.344 C 
BRANCH   5   6
HETATM    6  N1  UNL     1      -1.627   0.866  -0.003  1.00  0.00    -0.066 N 
HETATM    7  C1  UNL     1      -3.073   0.719  -0.095  1.00  0.00     0.268 C 
ATOM      8  H12 UNL     1      -1.197   0.983  -0.920  1.00  0.00     0.278 HD
ATOM      9  H11 UNL     1      -1.361   1.763   0.404  1.00  0.00     0.278 HD
ENDBRANCH   5   6
ENDBRANCH   1   5
BRANCH   3  10
HETATM   10  N4  UNL     1       3.481  -0.699   0.100  1.00  0.00    -0.233 N 
HETATM   11  N5  UNL     1       4.290   0.227   0.408  1.00  0.00    -0.330 N 
ATOM     12  H52 UNL     1       3.879   1.099   0.740  1.00  0.00     0.178 HD
ATOM     13  H51 UNL     1       5.306   0.157   0.347  1.00  0.00     0.178 HD
ATOM     14  H4  UNL     1       3.875  -1.579  -0.234  1.00  0.00     0.209 HD
ENDBRANCH   3  10
TORSDOF 3
