REMARK  7 active torsions:
REMARK  status: ('A' for Active; 'I' for Inactive)
REMARK    1  A    between atoms: C3_3  and  C4_4 
REMARK    2  A    between atoms: C4_4  and  C5_5 
REMARK    3  A    between atoms: C6_9  and  N2_10 
REMARK    4  A    between atoms: C8_14  and  N4_15 
REMARK    5  A    between atoms: C15_26  and  S1_27 
REMARK    6  A    between atoms: C17_29  and  O1_30 
REMARK    7  A    between atoms: C18_32  and  O2_33 
ROOT
HETATM    1  N2  UNL     1      -0.336  -0.914  -0.834  1.00  0.00    -0.249 N 
HETATM    2  N3  UNL     1      -1.333  -0.081  -0.486  1.00  0.00    -0.290 N 
ATOM      3  H3  UNL     1      -1.239   0.924  -0.341  1.00  0.00     0.187 HD
HETATM    4  C7  UNL     1      -2.450  -0.767  -0.362  1.00  0.00     0.122 A 
HETATM    5  C8  UNL     1      -3.744  -0.406  -0.029  1.00  0.00     0.135 A 
HETATM    6  N5  UNL     1      -4.663  -1.403   0.002  1.00  0.00    -0.337 N 
ATOM      7  H5  UNL     1      -5.624  -1.164   0.245  1.00  0.00     0.168 HD
HETATM    8  C13 UNL     1      -4.378  -2.687  -0.270  1.00  0.00     0.182 A 
HETATM    9  N6  UNL     1      -3.125  -3.058  -0.596  1.00  0.00    -0.348 N 
ATOM     10  H6  UNL     1      -2.891  -4.029  -0.805  1.00  0.00     0.167 HD
HETATM   11  C14 UNL     1      -2.194  -2.082  -0.633  1.00  0.00     0.100 A 
HETATM   12  C15 UNL     1      -0.843  -2.145  -0.930  1.00  0.00     0.118 A 
ENDROOT
BRANCH   1  13
HETATM   13  C6  UNL     1       0.972  -0.397  -1.026  1.00  0.00     0.339 C 
HETATM   14  N1  UNL     1       1.272   0.526   0.068  1.00  0.00    -0.043 N 
HETATM   15  C5  UNL     1       2.656   0.366   0.398  1.00  0.00     0.223 C 
ATOM     16  H12 UNL     1       0.655   0.405   0.871  1.00  0.00     0.280 HD
ATOM     17  H11 UNL     1       1.023   1.492  -0.147  1.00  0.00     0.280 HD
HETATM   18  C18 UNL     1       3.282  -0.420  -0.736  1.00  0.00     0.181 C 
HETATM   19  C17 UNL     1       2.089  -1.330  -1.097  1.00  0.00     0.201 C 
BRANCH  15  20
HETATM   20  C4  UNL     1       3.335   1.707   0.587  1.00  0.00     0.062 C 
BRANCH  20  21
HETATM   21  C3  UNL     1       4.769   1.554   0.929  1.00  0.00    -0.029 C 
HETATM   22  C2  UNL     1       5.706   2.069   0.150  1.00  0.00    -0.035 C 
HETATM   23  C1  UNL     1       7.143   1.900   0.520  1.00  0.00     0.036 C 
ENDBRANCH  20  21
ENDBRANCH  15  20
BRANCH  18  24
HETATM   24  O2  UNL     1       4.312  -1.224  -0.251  1.00  0.00    -0.391 OA
ATOM     25  H2  UNL     1       4.705  -1.717  -0.962  1.00  0.00     0.210 HD
ENDBRANCH  18  24
BRANCH  19  26
HETATM   26  O1  UNL     1       2.359  -1.727  -2.407  1.00  0.00    -0.389 OA
ATOM     27  H1  UNL     1       3.087  -2.335  -2.453  1.00  0.00     0.210 HD
ENDBRANCH  19  26
ENDBRANCH   1  13
BRANCH  12  28
HETATM   28  S1  UNL     1       0.073  -3.585  -1.360  1.00  0.00    -0.113 SA
HETATM   29  C16 UNL     1      -1.050  -5.008  -1.357  1.00  0.00     0.097 C 
ENDBRANCH  12  28
BRANCH   5  30
HETATM   30  N4  UNL     1      -4.088   0.939   0.265  1.00  0.00    -0.365 N 
HETATM   31  C9  UNL     1      -3.979   2.117  -0.566  1.00  0.00     0.124 C 
HETATM   32  C10 UNL     1      -5.005   3.103  -0.017  1.00  0.00     0.021 C 
HETATM   33  C11 UNL     1      -5.731   2.330   1.065  1.00  0.00     0.021 C 
HETATM   34  C12 UNL     1      -4.639   1.376   1.528  1.00  0.00     0.124 C 
ENDBRANCH   5  30
TORSDOF 7
