REMARK  9 active torsions:
REMARK  status: ('A' for Active; 'I' for Inactive)
REMARK    1  A    between atoms: O1_1  and  N1_3 
REMARK    2  A    between atoms: N1_3  and  N2_5 
REMARK    3  A    between atoms: N2_5  and  C1_6 
REMARK       I    between atoms: N2_5  and  C8_25 
REMARK    4  A    between atoms: C1_6  and  C2_7 
REMARK    5  A    between atoms: C3_9  and  C4_10 
REMARK       I    between atoms: C4_10  and  N3_12 
REMARK    6  A    between atoms: N3_12  and  N4_14 
REMARK    7  A    between atoms: N4_14  and  C5_16 
REMARK    8  A    between atoms: C7_22  and  O4_23 
REMARK       I    between atoms: C8_25  and  N7_27 
REMARK    9  A    between atoms: N7_27  and  C9_29 
ROOT
HETATM    1  N2  UNL     1       0.266  -0.370   2.211  1.00  0.00    -0.221 N 
HETATM    2  C8  UNL     1      -0.716  -0.344   1.189  1.00  0.00     0.339 C 
HETATM    3  O5  UNL     1      -0.376  -0.745   0.050  1.00  0.00    -0.245 OA
HETATM    4  N7  UNL     1      -2.032   0.107   1.405  1.00  0.00    -0.332 N 
ATOM      5  H7  UNL     1      -2.299   0.429   2.335  1.00  0.00     0.165 HD
ENDROOT
BRANCH   1   6
HETATM    6  N1  UNL     1      -0.087   0.069   3.478  1.00  0.00    -0.204 N 
ATOM      7  H1  UNL     1      -0.958   0.585   3.607  1.00  0.00     0.216 HD
BRANCH   6   8
HETATM    8  O1  UNL     1       0.646  -0.158   4.464  1.00  0.00    -0.274 OA
ATOM      9  H1  UNL     1       0.404   0.143   5.332  1.00  0.00     0.246 HD
ENDBRANCH   6   8
ENDBRANCH   1   6
BRANCH   1  10
HETATM   10  C1  UNL     1       1.581  -0.833   1.942  1.00  0.00     0.191 C 
BRANCH  10  11
HETATM   11  C2  UNL     1       2.541   0.209   1.496  1.00  0.00     0.181 A 
HETATM   12  O2  UNL     1       2.853   1.297   2.271  1.00  0.00    -0.364 OA
HETATM   13  C3  UNL     1       3.824   0.312   2.291  1.00  0.00     0.246 A 
BRANCH  13  14
HETATM   14  C4  UNL     1       5.044   0.448   1.492  1.00  0.00     0.267 C 
HETATM   15  O3  UNL     1       5.001   1.077   0.411  1.00  0.00    -0.269 OA
HETATM   16  N3  UNL     1       6.272  -0.112   1.907  1.00  0.00    -0.266 N 
ATOM     17  H3  UNL     1       6.456  -0.147   2.910  1.00  0.00     0.190 HD
BRANCH  16  18
HETATM   18  N4  UNL     1       7.162  -0.573   1.137  1.00  0.00    -0.279 N 
ATOM     19  H4  UNL     1       8.023  -0.960   1.522  1.00  0.00     0.189 HD
BRANCH  18  20
HETATM   20  C5  UNL     1       6.955  -0.548  -0.268  1.00  0.00     0.173 A 
HETATM   21  N5  UNL     1       6.163  -1.327  -1.031  1.00  0.00    -0.334 N 
HETATM   22  C6  UNL     1       6.253  -0.980  -2.322  1.00  0.00     0.184 A 
ATOM     23  H5  UNL     1       5.574  -2.079  -0.674  1.00  0.00     0.168 HD
HETATM   24  N6  UNL     1       7.113   0.042  -2.424  1.00  0.00    -0.330 N 
HETATM   25  C7  UNL     1       7.558   0.326  -1.177  1.00  0.00     0.187 A 
ATOM     26  H6  UNL     1       7.383   0.519  -3.284  1.00  0.00     0.168 HD
BRANCH  25  27
HETATM   27  O4  UNL     1       8.456   1.298  -0.772  1.00  0.00    -0.343 OA
ATOM     28  H4  UNL     1       8.866   1.892  -1.390  1.00  0.00     0.219 HD
ENDBRANCH  25  27
ENDBRANCH  18  20
ENDBRANCH  16  18
ENDBRANCH  13  14
ENDBRANCH  10  11
ENDBRANCH   1  10
BRANCH   4  29
HETATM   29  C9  UNL     1      -3.005   0.126   0.356  1.00  0.00     0.035 C 
HETATM   30  C10 UNL     1      -4.360   0.638   0.921  1.00  0.00     0.035 C 
HETATM   31  C11 UNL     1      -5.331   0.745  -0.205  1.00  0.00    -0.012 C 
HETATM   32  C12 UNL     1      -4.889   1.726  -1.268  1.00  0.00     0.009 C 
HETATM   33  C16 UNL     1      -5.600  -0.570  -0.871  1.00  0.00     0.009 C 
HETATM   34  C13 UNL     1      -3.564   1.274  -1.816  1.00  0.00    -0.012 C 
HETATM   35  C14 UNL     1      -3.691  -0.099  -2.413  1.00  0.00     0.009 C 
HETATM   36  C18 UNL     1      -2.601   1.179  -0.652  1.00  0.00     0.035 C 
HETATM   37  C15 UNL     1      -4.249  -1.051  -1.407  1.00  0.00    -0.012 C 
HETATM   38  C17 UNL     1      -3.313  -1.209  -0.236  1.00  0.00     0.035 C 
ENDBRANCH   4  29
TORSDOF 9
