REMARK  5 active torsions:
REMARK  status: ('A' for Active; 'I' for Inactive)
REMARK    1  A    between atoms: C3_3  and  N1_4 
REMARK    2  A    between atoms: N2_7  and  C6_8 
REMARK    3  A    between atoms: C6_8  and  C7_9 
REMARK    4  A    between atoms: C7_9  and  N3_11 
REMARK    5  A    between atoms: N3_11  and  C9_13 
ROOT
HETATM    1  C1  UNL     1       7.377   1.965   1.762  1.00  0.00     0.013 C 
HETATM    2  C2  UNL     1       6.908   1.262   0.890  1.00  0.00    -0.087 C 
HETATM    3  C3  UNL     1       6.314   0.422  -0.169  1.00  0.00     0.365 C 
ENDROOT
BRANCH   3   4
HETATM    4  N1  UNL     1       4.976   0.081   0.245  1.00  0.00     0.102 N 
HETATM    5  C4  UNL     1       4.374  -0.744  -0.779  1.00  0.00     0.303 C 
HETATM    6  C5  UNL     1       3.047  -1.188  -0.200  1.00  0.00     0.302 C 
HETATM    7  N2  UNL     1       2.180  -0.043  -0.160  1.00  0.00     0.093 N 
HETATM    8  C16 UNL     1       2.730   1.073   0.542  1.00  0.00     0.302 C 
HETATM    9  C17 UNL     1       4.193   1.227   0.558  1.00  0.00     0.303 C 
BRANCH   7  10
HETATM   10  C6  UNL     1       0.837  -0.363   0.228  1.00  0.00     0.297 C 
BRANCH  10  11
HETATM   11  C7  UNL     1      -0.140   0.765   0.191  1.00  0.00     0.107 C 
HETATM   12  C8  UNL     1      -0.293   1.333  -1.201  1.00  0.00     0.034 C 
BRANCH  11  13
HETATM   13  N3  UNL     1      -1.381   0.373   0.805  1.00  0.00    -0.368 N 
ATOM     14  H3  UNL     1      -1.376   0.329   1.824  1.00  0.00     0.161 HD
BRANCH  13  15
HETATM   15  C9  UNL     1      -2.480   0.075   0.246  1.00  0.00     0.134 A 
HETATM   16  N4  UNL     1      -2.734   0.057  -1.070  1.00  0.00    -0.331 N 
HETATM   17  C10 UNL     1      -3.906  -0.265  -1.636  1.00  0.00     0.079 A 
ATOM     18  H4  UNL     1      -1.969   0.310  -1.695  1.00  0.00     0.168 HD
HETATM   19  C11 UNL     1      -4.109  -0.260  -3.112  1.00  0.00     0.089 C 
HETATM   20  N5  UNL     1      -4.936  -0.605  -0.837  1.00  0.00    -0.343 N 
HETATM   21  C12 UNL     1      -4.768  -0.615   0.513  1.00  0.00     0.089 A 
ATOM     22  H5  UNL     1      -5.838  -0.854  -1.243  1.00  0.00     0.167 HD
HETATM   23  C13 UNL     1      -5.661  -0.924   1.517  1.00  0.00     0.051 A 
HETATM   24  C15 UNL     1      -3.556  -0.280   1.073  1.00  0.00     0.120 A 
HETATM   25  C14 UNL     1      -7.077  -1.339   1.380  1.00  0.00     0.072 C 
HETATM   26  N6  UNL     1      -4.977  -0.773   2.672  1.00  0.00    -0.302 N 
HETATM   27  N7  UNL     1      -3.728  -0.389   2.384  1.00  0.00    -0.295 N 
ATOM     28  H6  UNL     1      -5.351  -0.926   3.609  1.00  0.00     0.186 HD
ATOM     29  H7  UNL     1      -3.005  -0.205   3.079  1.00  0.00     0.187 HD
ENDBRANCH  13  15
ENDBRANCH  11  13
ENDBRANCH  10  11
ENDBRANCH   7  10
ENDBRANCH   3   4
TORSDOF 5
