REMARK  3 active torsions:
REMARK  status: ('A' for Active; 'I' for Inactive)
REMARK    1  A    between atoms: C2_2  and  O2_4 
REMARK    2  A    between atoms: O2_4  and  C3_5 
REMARK    3  A    between atoms: C15_19  and  C16_20 
ROOT
HETATM    1  C3  UNL     1       2.330   0.375  -1.110  1.00  0.00     0.152 C 
HETATM    2  C4  UNL     1       1.404  -0.202  -0.371  1.00  0.00    -0.016 C 
HETATM    3  C5  UNL     1       1.416  -0.379   1.097  1.00  0.00     0.040 C 
HETATM    4  C6  UNL     1      -0.082  -0.403   1.431  1.00  0.00     0.013 C 
HETATM    5  C7  UNL     1      -0.631  -1.232   0.348  1.00  0.00     0.036 C 
HETATM    6  C8  UNL     1      -2.072  -1.212   0.095  1.00  0.00    -0.011 C 
HETATM    7  C9  UNL     1      -2.722  -2.503   0.616  1.00  0.00     0.010 C 
HETATM    8  C10 UNL     1      -2.832  -0.019   0.557  1.00  0.00     0.008 C 
HETATM    9  C11 UNL     1      -3.161   0.922  -0.610  1.00  0.00     0.043 C 
HETATM   10  C12 UNL     1      -2.035   1.887  -0.864  1.00  0.00     0.110 A 
HETATM   11  C13 UNL     1      -2.083   3.106   0.059  1.00  0.00     0.051 C 
HETATM   12  O3  UNL     1      -1.542   2.092  -2.134  1.00  0.00    -0.343 OA
HETATM   13  C14 UNL     1      -0.745   1.338  -1.129  1.00  0.00     0.297 A 
HETATM   14  O4  UNL     1      -0.637   0.054  -1.589  1.00  0.00    -0.335 OA
HETATM   15  C15 UNL     1       0.159  -0.791  -0.872  1.00  0.00     0.146 C 
ENDROOT
BRANCH   1  16
HETATM   16  O2  UNL     1       3.498   0.914  -0.553  1.00  0.00    -0.291 OA
BRANCH  16  17
HETATM   17  C2  UNL     1       4.641   0.118  -0.406  1.00  0.00     0.259 C 
HETATM   18  C1  UNL     1       5.903   0.605   0.168  1.00  0.00     0.126 C 
HETATM   19  O1  UNL     1       4.532  -1.073  -0.802  1.00  0.00    -0.265 OA
ENDBRANCH  16  17
ENDBRANCH   1  16
BRANCH  15  20
HETATM   20  C16 UNL     1       0.478  -1.984  -1.693  1.00  0.00     0.274 C 
HETATM   21  O5  UNL     1       0.047  -2.091  -2.816  1.00  0.00    -0.303 OA
ENDBRANCH  15  20
TORSDOF 3
