REMARK  11 active torsions:
REMARK  status: ('A' for Active; 'I' for Inactive)
REMARK    1  A    between atoms: C4_6  and  C5_7 
REMARK    2  A    between atoms: C5_7  and  C6_8 
REMARK    3  A    between atoms: C6_8  and  N2_9 
REMARK    4  A    between atoms: N2_9  and  C7_11 
REMARK    5  A    between atoms: C9_17  and  N5_18 
REMARK    6  A    between atoms: N5_18  and  C10_20 
REMARK    7  A    between atoms: C14_25  and  C15_26 
REMARK    8  A    between atoms: C15_26  and  O1_27 
REMARK    9  A    between atoms: C18_31  and  C19_32 
REMARK   10  A    between atoms: C19_32  and  C20_33 
REMARK   11  A    between atoms: C24_41  and  C25_42 
ROOT
HETATM    1  C7  UNL     1       2.727  -0.259   0.202  1.00  0.00     0.117 A 
HETATM    2  N3  UNL     1       2.702   1.005   0.647  1.00  0.00    -0.338 N 
ATOM      3  H3  UNL     1       3.500   1.626   0.511  1.00  0.00     0.168 HD
HETATM    4  C8  UNL     1       1.589   1.431   1.280  1.00  0.00     0.183 A 
HETATM    5  N4  UNL     1       0.532   0.634   1.470  1.00  0.00    -0.338 N 
ATOM      6  H4  UNL     1      -0.286   1.002   1.956  1.00  0.00     0.168 HD
HETATM    7  C9  UNL     1       0.518  -0.649   1.035  1.00  0.00     0.121 A 
HETATM    8  C24 UNL     1       1.634  -1.097   0.393  1.00  0.00     0.062 A 
ENDROOT
BRANCH   7   9
HETATM    9  N5  UNL     1      -0.632  -1.469   1.267  1.00  0.00    -0.337 N 
ATOM     10  H5  UNL     1      -0.653  -2.440   0.954  1.00  0.00     0.167 HD
BRANCH   9  11
HETATM   11  C10 UNL     1      -1.748  -0.895   1.947  1.00  0.00     0.112 A 
HETATM   12  C11 UNL     1      -1.808  -0.950   3.322  1.00  0.00     0.146 A 
HETATM   13  F1  UNL     1      -0.780  -1.565   3.988  1.00  0.00    -0.204 F 
HETATM   14  C12 UNL     1      -2.879  -0.397   3.990  1.00  0.00     0.045 A 
HETATM   15  C13 UNL     1      -3.887   0.209   3.277  1.00  0.00     0.016 A 
HETATM   16  C14 UNL     1      -3.878   0.293   1.877  1.00  0.00     0.017 A 
HETATM   17  C23 UNL     1      -2.795  -0.270   1.267  1.00  0.00     0.155 A 
HETATM   18  F3  UNL     1      -2.727  -0.210  -0.080  1.00  0.00    -0.203 F 
BRANCH  16  19
HETATM   19  C15 UNL     1      -4.995   0.936   1.200  1.00  0.00     0.090 C 
HETATM   20  C16 UNL     1      -5.786  -0.175   0.510  1.00  0.00     0.043 C 
HETATM   21  C17 UNL     1      -6.962   0.381  -0.258  1.00  0.00     0.011 C 
HETATM   22  C18 UNL     1      -6.366   1.314  -1.278  1.00  0.00     0.030 C 
HETATM   23  C21 UNL     1      -5.918   2.517  -0.474  1.00  0.00     0.177 C 
HETATM   24  F2  UNL     1      -6.924   2.899   0.401  1.00  0.00    -0.249 F 
HETATM   25  C22 UNL     1      -4.685   2.088   0.333  1.00  0.00     0.080 C 
BRANCH  19  26
HETATM   26  O1  UNL     1      -5.897   1.402   2.196  1.00  0.00    -0.385 OA
ATOM     27  H1  UNL     1      -6.626   1.822   1.754  1.00  0.00     0.211 HD
ENDBRANCH  19  26
BRANCH  22  28
HETATM   28  C19 UNL     1      -7.209   1.643  -2.443  1.00  0.00     0.120 C 
BRANCH  28  29
HETATM   29  C20 UNL     1      -7.534   0.456  -3.245  1.00  0.00     0.172 C 
HETATM   30  O2  UNL     1      -7.025  -0.655  -2.994  1.00  0.00    -0.648 OA
HETATM   31  O3  UNL     1      -8.428   0.516  -4.329  1.00  0.00    -0.648 OA
ENDBRANCH  28  29
ENDBRANCH  22  28
ENDBRANCH  16  19
ENDBRANCH   9  11
ENDBRANCH   7   9
BRANCH   8  32
HETATM   32  C25 UNL     1       1.623  -2.480  -0.078  1.00  0.00    -0.015 A 
HETATM   33  C26 UNL     1       2.228  -3.478   0.653  1.00  0.00     0.016 A 
HETATM   34  C27 UNL     1       2.241  -4.804   0.244  1.00  0.00     0.046 A 
HETATM   35  C28 UNL     1       1.618  -5.126  -0.947  1.00  0.00     0.154 A 
HETATM   36  F4  UNL     1       1.583  -6.388  -1.419  1.00  0.00    -0.203 F 
HETATM   37  C29 UNL     1       1.013  -4.129  -1.678  1.00  0.00     0.155 A 
HETATM   38  F5  UNL     1       0.380  -4.388  -2.866  1.00  0.00    -0.203 F 
HETATM   39  C30 UNL     1       1.007  -2.817  -1.261  1.00  0.00     0.058 A 
ENDBRANCH   8  32
BRANCH   1  40
HETATM   40  N2  UNL     1       3.745  -0.743  -0.410  1.00  0.00    -0.375 N 
ATOM     41  H2  UNL     1       3.671  -1.714  -0.713  1.00  0.00     0.161 HD
BRANCH  40  42
HETATM   42  C6  UNL     1       4.967  -0.078  -0.715  1.00  0.00     0.128 C 
BRANCH  42  43
HETATM   43  C5  UNL     1       6.078  -0.388   0.257  1.00  0.00     0.096 C 
BRANCH  43  44
HETATM   44  C4  UNL     1       7.282   0.364  -0.163  1.00  0.00     0.082 A 
HETATM   45  N1  UNL     1       7.488   1.620   0.330  1.00  0.00    -0.355 N 
HETATM   46  C3  UNL     1       8.555   2.359  -0.004  1.00  0.00     0.097 A 
ATOM     47  H1  UNL     1       6.804   2.011   0.977  1.00  0.00     0.166 HD
HETATM   48  C2  UNL     1       9.481   1.823  -0.884  1.00  0.00    -0.031 A 
HETATM   49  C1  UNL     1      10.688   2.593  -1.295  1.00  0.00     0.051 C 
HETATM   50  C31 UNL     1       9.299   0.571  -1.392  1.00  0.00     0.097 A 
HETATM   51  N6  UNL     1       8.202  -0.108  -1.007  1.00  0.00    -0.355 N 
ATOM     52  H6  UNL     1       8.065  -1.045  -1.385  1.00  0.00     0.166 HD
ENDBRANCH  43  44
ENDBRANCH  42  43
ENDBRANCH  40  42
ENDBRANCH   1  40
TORSDOF 11
