REMARK  6 active torsions:
REMARK  status: ('A' for Active; 'I' for Inactive)
REMARK    1  A    between atoms: N1_4  and  C4_5 
REMARK    2  A    between atoms: C8_9  and  N2_10 
REMARK    3  A    between atoms: N2_10  and  C9_12 
REMARK    4  A    between atoms: C12_20  and  N5_21 
REMARK    5  A    between atoms: C15_24  and  O1_25 
REMARK    6  A    between atoms: C15_24  and  C16_27 
ROOT
HETATM    1  C9  UNL     1      -0.975   1.265  -0.803  1.00  0.00     0.132 A 
HETATM    2  N3  UNL     1      -2.174   1.778  -1.147  1.00  0.00    -0.337 N 
ATOM      3  H3  UNL     1      -3.019   1.365  -0.752  1.00  0.00     0.168 HD
HETATM    4  C10 UNL     1      -2.293   2.818  -1.996  1.00  0.00     0.183 A 
HETATM    5  N4  UNL     1      -1.216   3.402  -2.550  1.00  0.00    -0.341 N 
ATOM      6  H4  UNL     1      -1.308   4.189  -3.193  1.00  0.00     0.167 HD
HETATM    7  C11 UNL     1      -0.007   2.901  -2.218  1.00  0.00     0.135 A 
HETATM    8 CL1  UNL     1       1.428   3.631  -2.916  1.00  0.00    -0.062 Cl
HETATM    9  C12 UNL     1       0.161   1.841  -1.355  1.00  0.00     0.113 A 
ENDROOT
BRANCH   9  10
HETATM   10  N5  UNL     1       1.468   1.379  -1.061  1.00  0.00    -0.375 N 
HETATM   11  C13 UNL     1       2.032   0.345  -1.904  1.00  0.00     0.126 C 
HETATM   12  C14 UNL     1       2.685  -0.749  -1.070  1.00  0.00     0.058 C 
HETATM   13  C15 UNL     1       3.736  -0.070  -0.223  1.00  0.00     0.067 C 
HETATM   14  C20 UNL     1       3.034   0.828   0.760  1.00  0.00     0.058 C 
HETATM   15  C21 UNL     1       2.240   1.899   0.034  1.00  0.00     0.126 C 
BRANCH  13  16
HETATM   16  O1  UNL     1       4.565   0.635  -1.095  1.00  0.00    -0.389 OA
ATOM     17  H1  UNL     1       5.226   1.062  -0.562  1.00  0.00     0.210 HD
ENDBRANCH  13  16
BRANCH  13  18
HETATM   18  C16 UNL     1       4.604  -1.058   0.513  1.00  0.00    -0.020 C 
HETATM   19  C17 UNL     1       5.305  -1.946  -0.493  1.00  0.00     0.017 C 
HETATM   20  C18 UNL     1       3.843  -1.854   1.535  1.00  0.00     0.017 C 
HETATM   21  C19 UNL     1       5.671  -0.257   1.245  1.00  0.00     0.017 C 
ENDBRANCH  13  18
ENDBRANCH   9  10
BRANCH   1  22
HETATM   22  N2  UNL     1      -0.834   0.288  -0.007  1.00  0.00    -0.368 N 
ATOM     23  H2  UNL     1       0.123  -0.013   0.177  1.00  0.00     0.161 HD
BRANCH  22  24
HETATM   24  C8  UNL     1      -1.863  -0.434   0.658  1.00  0.00     0.117 C 
HETATM   25  C2  UNL     1      -2.536   0.341   1.769  1.00  0.00     0.034 C 
HETATM   26  C1  UNL     1      -2.022  -0.038   3.123  1.00  0.00     0.014 C 
HETATM   27  C3  UNL     1      -3.969  -0.193   1.653  1.00  0.00     0.279 C 
HETATM   28  N1  UNL     1      -4.125  -0.282   0.235  1.00  0.00     0.094 N 
HETATM   29  C7  UNL     1      -2.951  -0.945  -0.234  1.00  0.00     0.298 C 
BRANCH  28  30
HETATM   30  C4  UNL     1      -5.353  -0.903  -0.164  1.00  0.00     0.215 C 
HETATM   31  C5  UNL     1      -5.464  -0.968  -1.654  1.00  0.00     0.042 C 
HETATM   32  C6  UNL     1      -5.599  -2.243   0.445  1.00  0.00     0.042 C 
ENDBRANCH  28  30
ENDBRANCH  22  24
ENDBRANCH   1  22
TORSDOF 6
