REMARK  16 active torsions:
REMARK  status: ('A' for Active; 'I' for Inactive)
REMARK    1  A    between atoms: C7_7  and  N1_8 
REMARK       I    between atoms: N1_8  and  C8_10 
REMARK    2  A    between atoms: C8_10  and  C9_12 
REMARK    3  A    between atoms: C9_12  and  C10_13 
REMARK    4  A    between atoms: C10_13  and  S1_14 
REMARK    5  A    between atoms: S1_14  and  N2_17 
REMARK    6  A    between atoms: N2_17  and  C11_19 
REMARK    7  A    between atoms: C11_19  and  C12_20 
REMARK    8  A    between atoms: N3_23  and  C15_24 
REMARK    9  A    between atoms: C15_24  and  C16_25 
REMARK   10  A    between atoms: C16_25  and  O4_26 
REMARK   11  A    between atoms: C16_25  and  C17_28 
REMARK   12  A    between atoms: C17_28  and  O5_29 
REMARK   13  A    between atoms: C17_28  and  C18_31 
REMARK   14  A    between atoms: C18_31  and  O6_32 
REMARK   15  A    between atoms: C18_31  and  C19_34 
REMARK   16  A    between atoms: C19_34  and  O7_35 
ROOT
HETATM    1  C12 UNL     1       1.182  -1.052   1.856  1.00  0.00     0.013 C 
HETATM    2  C13 UNL     1       1.735  -2.169   0.999  1.00  0.00     0.051 C 
HETATM    3  C14 UNL     1       2.893  -1.598   0.218  1.00  0.00     0.063 C 
HETATM    4  N3  UNL     1       3.867  -0.956   0.984  1.00  0.00    -0.371 N 
HETATM    5  C20 UNL     1       3.560  -0.309   2.181  1.00  0.00     0.063 C 
HETATM    6  C21 UNL     1       2.262  -0.651   2.817  1.00  0.00     0.051 C 
ENDROOT
BRANCH   1   7
HETATM    7  C11 UNL     1       0.868   0.111   0.939  1.00  0.00     0.137 C 
BRANCH   7   8
HETATM    8  N2  UNL     1       0.331   1.202   1.760  1.00  0.00    -0.319 N 
ATOM      9  H2  UNL     1       0.188   1.189   2.770  1.00  0.00     0.172 HD
BRANCH   8  10
HETATM   10  S1  UNL     1      -0.011   2.510   0.689  1.00  0.00     0.227 S 
HETATM   11  O2  UNL     1       1.268   2.922  -0.016  1.00  0.00    -0.206 OA
HETATM   12  O3  UNL     1      -0.481   3.723   1.433  1.00  0.00    -0.206 OA
BRANCH  10  13
HETATM   13  C10 UNL     1      -1.226   1.990  -0.474  1.00  0.00     0.172 C 
BRANCH  13  14
HETATM   14  C9  UNL     1      -2.513   1.582   0.184  1.00  0.00     0.119 C 
BRANCH  14  15
HETATM   15  C8  UNL     1      -3.500   1.159  -0.820  1.00  0.00     0.218 C 
HETATM   16  N1  UNL     1      -4.818   0.769  -0.470  1.00  0.00    -0.356 N 
ATOM     17  H1  UNL     1      -5.091   0.782   0.513  1.00  0.00     0.162 HD
HETATM   18  O1  UNL     1      -3.177   1.139  -2.030  1.00  0.00    -0.274 OA
BRANCH  16  19
HETATM   19  C7  UNL     1      -5.792   0.351  -1.464  1.00  0.00     0.088 C 
HETATM   20  C2  UNL     1      -6.192  -1.048  -1.163  1.00  0.00     0.004 C 
HETATM   21  C1  UNL     1      -6.981  -1.715  -2.263  1.00  0.00     0.012 C 
HETATM   22  C3  UNL     1      -6.845  -1.131   0.180  1.00  0.00     0.006 C 
HETATM   23  C4  UNL     1      -7.767  -0.017   0.519  1.00  0.00     0.001 C 
HETATM   24  C5  UNL     1      -8.100   0.891  -0.629  1.00  0.00     0.002 C 
HETATM   25  C6  UNL     1      -6.920   1.343  -1.408  1.00  0.00     0.025 C 
ENDBRANCH  16  19
ENDBRANCH  14  15
ENDBRANCH  13  14
ENDBRANCH  10  13
ENDBRANCH   8  10
ENDBRANCH   7   8
ENDBRANCH   1   7
BRANCH   4  26
HETATM   26  C15 UNL     1       5.154  -0.729   0.396  1.00  0.00     0.165 C 
BRANCH  26  27
HETATM   27  C16 UNL     1       5.014   0.304  -0.735  1.00  0.00     0.195 C 
BRANCH  27  28
HETATM   28  O4  UNL     1       4.448   1.479  -0.136  1.00  0.00    -0.387 OA
ATOM     29  H4  UNL     1       4.362   2.117  -0.835  1.00  0.00     0.210 HD
ENDBRANCH  27  28
BRANCH  27  30
HETATM   30  C17 UNL     1       6.365   0.693  -1.253  1.00  0.00     0.104 C 
BRANCH  30  31
HETATM   31  O5  UNL     1       7.210   1.071  -0.209  1.00  0.00    -0.360 OA
ATOM     32  H5  UNL     1       8.067   1.318  -0.537  1.00  0.00     0.217 HD
ENDBRANCH  30  31
BRANCH  30  33
HETATM   33  C18 UNL     1       6.973  -0.077  -2.338  1.00  0.00     0.098 C 
BRANCH  33  34
HETATM   34  O6  UNL     1       6.035  -0.484  -3.278  1.00  0.00    -0.360 OA
ATOM     35  H6  UNL     1       6.430  -0.984  -3.983  1.00  0.00     0.217 HD
ENDBRANCH  33  34
BRANCH  33  36
HETATM   36  C19 UNL     1       8.016  -1.091  -2.053  1.00  0.00     0.231 C 
BRANCH  36  37
HETATM   37  O7  UNL     1       7.547  -2.300  -1.630  1.00  0.00    -0.394 OA
ATOM     38  H7  UNL     1       8.215  -2.950  -1.447  1.00  0.00     0.209 HD
ENDBRANCH  36  37
ENDBRANCH  33  36
ENDBRANCH  30  33
ENDBRANCH  27  30
ENDBRANCH  26  27
ENDBRANCH   4  26
TORSDOF 16
