REMARK  10 active torsions:
REMARK  status: ('A' for Active; 'I' for Inactive)
REMARK    1  A    between atoms: C4_4  and  O1_5 
REMARK    2  A    between atoms: O1_5  and  C5_6 
REMARK    3  A    between atoms: C5_6  and  C6_7 
REMARK    4  A    between atoms: C6_7  and  O2_8 
REMARK    5  A    between atoms: C6_7  and  C7_10 
REMARK    6  A    between atoms: C14_20  and  O3_21 
REMARK    7  A    between atoms: O3_21  and  C15_22 
REMARK    8  A    between atoms: C15_22  and  C16_24 
REMARK    9  A    between atoms: C16_24  and  C19_27 
REMARK   10  A    between atoms: C19_27  and  O5_28 
ROOT
HETATM    1  C1  UNL     1      -4.858  -3.528  -1.692  1.00  0.00     0.019 C 
HETATM    2  C2  UNL     1      -4.005  -2.540  -1.563  1.00  0.00    -0.065 C 
HETATM    3  C3  UNL     1      -4.231  -1.402  -0.671  1.00  0.00     0.039 C 
HETATM    4  C4  UNL     1      -3.259  -0.570  -0.327  1.00  0.00     0.051 C 
HETATM    5  C8  UNL     1      -1.893  -0.738  -0.818  1.00  0.00     0.052 C 
HETATM    6  C9  UNL     1      -1.641  -2.135  -1.381  1.00  0.00     0.000 C 
HETATM    7  C10 UNL     1      -0.312  -2.018  -2.119  1.00  0.00     0.006 C 
HETATM    8  C11 UNL     1       0.802  -1.685  -1.200  1.00  0.00     0.012 C 
HETATM    9  C12 UNL     1       0.528  -0.540  -0.265  1.00  0.00    -0.013 C 
HETATM   10  C13 UNL     1       0.776   0.742  -1.038  1.00  0.00     0.018 C 
HETATM   11  C14 UNL     1       1.526  -0.628   0.864  1.00  0.00     0.140 C 
HETATM   12  C20 UNL     1       0.948  -0.360   2.214  1.00  0.00     0.033 C 
HETATM   13  C21 UNL     1      -0.308  -1.097   2.529  1.00  0.00     0.003 C 
HETATM   14  C22 UNL     1      -0.986  -1.633   1.266  1.00  0.00     0.006 C 
HETATM   15  C23 UNL     1      -0.874  -0.508   0.256  1.00  0.00     0.007 C 
HETATM   16  C24 UNL     1      -2.735  -2.526  -2.335  1.00  0.00     0.043 C 
ENDROOT
BRANCH   4  17
HETATM   17  O1  UNL     1      -3.529   0.494   0.524  1.00  0.00    -0.352 OA
BRANCH  17  18
HETATM   18  C5  UNL     1      -3.486   1.789  -0.046  1.00  0.00     0.216 C 
BRANCH  18  19
HETATM   19  C6  UNL     1      -3.794   2.866   0.956  1.00  0.00     0.249 C 
BRANCH  19  20
HETATM   20  O2  UNL     1      -5.085   2.683   1.494  1.00  0.00    -0.384 OA
ATOM     21  H2  UNL     1      -5.280   3.364   2.127  1.00  0.00     0.210 HD
ENDBRANCH  19  20
BRANCH  19  22
HETATM   22  C7  UNL     1      -2.822   2.948   2.082  1.00  0.00     0.415 C 
HETATM   23  F1  UNL     1      -3.239   3.982   2.915  1.00  0.00    -0.168 F 
HETATM   24  F2  UNL     1      -2.904   1.793   2.866  1.00  0.00    -0.168 F 
HETATM   25  F3  UNL     1      -1.551   3.217   1.677  1.00  0.00    -0.168 F 
ENDBRANCH  19  22
ENDBRANCH  18  19
ENDBRANCH  17  18
ENDBRANCH   4  17
BRANCH  11  26
HETATM   26  O3  UNL     1       2.547   0.333   0.667  1.00  0.00    -0.315 OA
BRANCH  26  27
HETATM   27  C15 UNL     1       3.881   0.012   0.534  1.00  0.00     0.269 C 
HETATM   28  O4  UNL     1       4.197  -1.197   0.591  1.00  0.00    -0.264 OA
BRANCH  27  29
HETATM   29  C16 UNL     1       4.852   1.108   0.333  1.00  0.00     0.062 C 
HETATM   30  C17 UNL     1       4.821   2.077   1.509  1.00  0.00     0.028 C 
HETATM   31  C18 UNL     1       6.236   0.568   0.123  1.00  0.00     0.028 C 
BRANCH  29  32
HETATM   32  C19 UNL     1       4.504   1.935  -0.899  1.00  0.00     0.183 C 
BRANCH  32  33
HETATM   33  O5  UNL     1       4.518   1.126  -2.016  1.00  0.00    -0.400 OA
ATOM     34  H5  UNL     1       4.301   1.641  -2.784  1.00  0.00     0.209 HD
ENDBRANCH  32  33
ENDBRANCH  29  32
ENDBRANCH  27  29
ENDBRANCH  26  27
ENDBRANCH  11  26
TORSDOF 10
