REMARK  9 active torsions:
REMARK  status: ('A' for Active; 'I' for Inactive)
REMARK    1  A    between atoms: C2_2  and  C3_3 
REMARK    2  A    between atoms: C3_3  and  N1_4 
REMARK    3  A    between atoms: N1_4  and  C4_7 
REMARK    4  A    between atoms: C4_7  and  C5_8 
REMARK       I    between atoms: N2_15  and  C12_16 
REMARK    5  A    between atoms: C12_16  and  C13_18 
REMARK    6  A    between atoms: C16_24  and  C17_25 
REMARK       I    between atoms: C17_25  and  N4_27 
REMARK    7  A    between atoms: N4_27  and  C18_29 
REMARK    8  A    between atoms: C18_29  and  C20_32 
REMARK    9  A    between atoms: C20_32  and  C22_34 
ROOT
HETATM    1  C18 UNL     1      -5.824   1.593   0.936  1.00  0.00     0.195 C 
HETATM    2  C19 UNL     1      -5.964   1.810   2.405  1.00  0.00     0.085 C 
HETATM    3  N5  UNL     1      -6.057   1.968   3.545  1.00  0.00    -0.195 NA
ENDROOT
BRANCH   1   4
HETATM    4  N4  UNL     1      -4.988   0.436   0.721  1.00  0.00    -0.343 N 
HETATM    5  C17 UNL     1      -3.675   0.627   0.230  1.00  0.00     0.225 C 
HETATM    6  O2  UNL     1      -3.227   1.778  -0.030  1.00  0.00    -0.273 OA
ATOM      7  H4  UNL     1      -5.337  -0.502   0.919  1.00  0.00     0.163 HD
BRANCH   5   8
HETATM    8  C16 UNL     1      -2.811  -0.551   0.018  1.00  0.00     0.118 C 
HETATM    9  C13 UNL     1      -1.446  -0.212  -0.460  1.00  0.00     0.118 C 
HETATM   10  C14 UNL     1      -1.117  -1.265  -1.474  1.00  0.00     0.247 C 
HETATM   11  N3  UNL     1      -2.251  -2.196  -1.536  1.00  0.00    -0.073 N 
HETATM   12  C15 UNL     1      -3.380  -1.388  -1.098  1.00  0.00     0.247 C 
ATOM     13  H32 UNL     1      -2.380  -2.645  -2.443  1.00  0.00     0.277 HD
ATOM     14  H31 UNL     1      -2.119  -3.058  -1.008  1.00  0.00     0.277 HD
BRANCH   9  15
HETATM   15  C12 UNL     1      -0.450  -0.172   0.645  1.00  0.00     0.226 C 
HETATM   16  N2  UNL     1       0.873   0.246   0.354  1.00  0.00    -0.351 N 
HETATM   17  C11 UNL     1       1.482   0.683  -0.885  1.00  0.00     0.126 C 
HETATM   18  C24 UNL     1       1.975   0.324   1.343  1.00  0.00     0.135 C 
HETATM   19  C10 UNL     1       2.959   0.296  -0.772  1.00  0.00     0.031 C 
HETATM   20  C9  UNL     1       3.108  -0.355   0.563  1.00  0.00    -0.017 C 
HETATM   21  C5  UNL     1       4.443  -0.175   1.218  1.00  0.00     0.021 C 
HETATM   22  C8  UNL     1       2.856  -1.847   0.499  1.00  0.00     0.012 C 
HETATM   23  C6  UNL     1       4.544  -1.419   2.071  1.00  0.00     0.007 C 
HETATM   24  C7  UNL     1       4.072  -2.501   1.125  1.00  0.00     0.001 C 
HETATM   25  O1  UNL     1      -0.764  -0.500   1.807  1.00  0.00    -0.273 OA
BRANCH  21  26
HETATM   26  C4  UNL     1       5.581  -0.177   0.237  1.00  0.00     0.238 C 
BRANCH  26  27
HETATM   27  N1  UNL     1       6.887  -0.181   0.831  1.00  0.00    -0.072 N 
ATOM     28  H12 UNL     1       7.004  -0.970   1.467  1.00  0.00     0.277 HD
ATOM     29  H11 UNL     1       6.993   0.581   1.501  1.00  0.00     0.277 HD
BRANCH  27  30
HETATM   30  C3  UNL     1       7.939  -0.151  -0.177  1.00  0.00     0.259 C 
BRANCH  30  31
HETATM   31  C2  UNL     1       7.944   1.159  -0.880  1.00  0.00    -0.010 C 
HETATM   32  C1  UNL     1       9.016   1.911  -0.837  1.00  0.00     0.008 C 
ENDBRANCH  30  31
ENDBRANCH  27  30
ENDBRANCH  26  27
ENDBRANCH  21  26
ENDBRANCH   9  15
ENDBRANCH   5   8
ENDBRANCH   1   4
BRANCH   1  33
HETATM   33  C20 UNL     1      -7.190   1.540   0.377  1.00  0.00     0.018 C 
HETATM   34  C21 UNL     1      -8.028   0.404   0.909  1.00  0.00     0.013 C 
BRANCH  33  35
HETATM   35  C22 UNL     1      -7.322   1.609  -1.104  1.00  0.00     0.003 C 
HETATM   36  C23 UNL     1      -6.647   0.518  -1.866  1.00  0.00     0.005 C 
ENDBRANCH  33  35
ENDBRANCH   1  33
TORSDOF 9
