REMARK  11 active torsions:
REMARK  status: ('A' for Active; 'I' for Inactive)
REMARK       I    between atoms: N2_3  and  C2_5 
REMARK       I    between atoms: C2_5  and  N3_7 
REMARK    1  A    between atoms: N3_7  and  C3_9 
REMARK    2  A    between atoms: C3_9  and  C4_10 
REMARK    3  A    between atoms: C4_10  and  C5_11 
REMARK    4  A    between atoms: C5_11  and  C6_12 
REMARK    5  A    between atoms: C6_12  and  C7_13 
REMARK    6  A    between atoms: C7_13  and  N4_14 
REMARK    7  A    between atoms: C10_17  and  C11_18 
REMARK    8  A    between atoms: C11_18  and  C12_19 
REMARK    9  A    between atoms: C12_19  and  C13_20 
REMARK       I    between atoms: C13_20  and  N5_22 
REMARK   10  A    between atoms: N5_22  and  C14_24 
REMARK   11  A    between atoms: C22_32  and  N6_33 
ROOT
HETATM    1  C1  UNL     1      12.860   2.116   2.266  1.00  0.00     0.258 C 
HETATM    2  N1  UNL     1      12.189   1.187   2.196  1.00  0.00    -0.346 NA
HETATM    3  N2  UNL     1      11.407   0.095   2.110  1.00  0.00    -0.186 N 
ATOM      4  H2  UNL     1      11.479  -0.633   2.821  1.00  0.00     0.206 HD
HETATM    5  C2  UNL     1      10.458  -0.061   1.013  1.00  0.00     0.348 C 
HETATM    6  O1  UNL     1      10.427   0.868   0.187  1.00  0.00    -0.244 OA
HETATM    7  N3  UNL     1       9.648  -1.190   0.921  1.00  0.00    -0.321 N 
ATOM      8  H3  UNL     1       9.814  -1.872   1.661  1.00  0.00     0.169 HD
ENDROOT
BRANCH   7   9
HETATM    9  C3  UNL     1       8.648  -1.578   0.013  1.00  0.00     0.065 C 
BRANCH   9  10
HETATM   10  C4  UNL     1       7.347  -0.868   0.024  1.00  0.00     0.044 C 
BRANCH  10  11
HETATM   11  C5  UNL     1       7.390   0.569  -0.210  1.00  0.00     0.007 C 
BRANCH  11  12
HETATM   12  C6  UNL     1       6.071   1.310  -0.245  1.00  0.00     0.030 C 
BRANCH  12  13
HETATM   13  C7  UNL     1       5.084   0.923  -1.250  1.00  0.00     0.272 C 
BRANCH  13  14
HETATM   14  N4  UNL     1       4.518  -0.374  -1.231  1.00  0.00     0.088 N 
HETATM   15  C8  UNL     1       3.631  -0.501  -2.372  1.00  0.00     0.272 C 
HETATM   16  C9  UNL     1       2.422   0.370  -2.268  1.00  0.00     0.035 C 
HETATM   17  C10 UNL     1       1.693   0.162  -0.945  1.00  0.00    -0.011 C 
HETATM   18  C27 UNL     1       2.335  -0.954  -0.195  1.00  0.00     0.035 C 
HETATM   19  C28 UNL     1       3.804  -0.712  -0.048  1.00  0.00     0.272 C 
BRANCH  17  20
HETATM   20  C11 UNL     1       0.217   0.018  -1.154  1.00  0.00     0.014 C 
BRANCH  20  21
HETATM   21  C12 UNL     1      -0.533  -0.186   0.129  1.00  0.00     0.103 C 
BRANCH  21  22
HETATM   22  C13 UNL     1      -1.998  -0.311  -0.164  1.00  0.00     0.218 C 
HETATM   23  O2  UNL     1      -2.372  -0.247  -1.345  1.00  0.00    -0.274 OA
HETATM   24  N5  UNL     1      -2.928  -0.495   0.870  1.00  0.00    -0.352 N 
ATOM     25  H5  UNL     1      -2.562  -0.539   1.821  1.00  0.00     0.163 HD
BRANCH  24  26
HETATM   26  C14 UNL     1      -4.365  -0.628   0.709  1.00  0.00     0.035 C 
HETATM   27  C15 UNL     1      -4.606  -1.825  -0.169  1.00  0.00     0.031 C 
HETATM   28  C16 UNL     1      -5.926  -2.482   0.028  1.00  0.00     0.007 C 
HETATM   29  C17 UNL     1      -7.080  -1.569   0.232  1.00  0.00    -0.012 C 
HETATM   30  C18 UNL     1      -7.318  -1.355   1.728  1.00  0.00     0.009 C 
HETATM   31  C25 UNL     1      -7.046  -0.293  -0.525  1.00  0.00     0.046 C 
HETATM   32  C19 UNL     1      -6.344  -0.335   2.266  1.00  0.00    -0.009 C 
HETATM   33  C20 UNL     1      -4.950  -0.794   2.086  1.00  0.00     0.035 C 
HETATM   34  C21 UNL     1      -6.635   0.987   1.608  1.00  0.00     0.046 C 
HETATM   35  C22 UNL     1      -6.333   0.845   0.155  1.00  0.00     0.162 C 
HETATM   36  C26 UNL     1      -4.844   0.609  -0.002  1.00  0.00     0.072 C 
BRANCH  35  37
HETATM   37  N6  UNL     1      -6.651   2.043  -0.556  1.00  0.00     0.089 N 
HETATM   38  C23 UNL     1      -8.026   2.426  -0.541  1.00  0.00     0.310 C 
HETATM   39  C24 UNL     1      -5.831   3.182  -0.212  1.00  0.00     0.310 C 
ENDBRANCH  35  37
ENDBRANCH  24  26
ENDBRANCH  21  22
ENDBRANCH  20  21
ENDBRANCH  17  20
ENDBRANCH  13  14
ENDBRANCH  12  13
ENDBRANCH  11  12
ENDBRANCH  10  11
ENDBRANCH   9  10
ENDBRANCH   7   9
TORSDOF 11
