REMARK  11 active torsions:
REMARK  status: ('A' for Active; 'I' for Inactive)
REMARK    1  A    between atoms: C2_2  and  C3_3 
REMARK    2  A    between atoms: C2_2  and  C21_36 
REMARK    3  A    between atoms: C3_3  and  C4_4 
REMARK    4  A    between atoms: C4_4  and  N1_5 
REMARK    5  A    between atoms: C4_4  and  C5_9 
REMARK       I    between atoms: C5_9  and  N2_11 
REMARK    6  A    between atoms: C9_15  and  C10_16 
REMARK       I    between atoms: C10_16  and  N3_18 
REMARK    7  A    between atoms: N3_18  and  C11_20 
REMARK    8  A    between atoms: C11_20  and  C12_21 
REMARK    9  A    between atoms: C11_20  and  C16_29 
REMARK   10  A    between atoms: C12_21  and  C13_22 
REMARK   11  A    between atoms: C16_29  and  C17_31 
ROOT
HETATM    1  C5  UNL     1       1.477   1.094  -1.564  1.00  0.00     0.251 C 
HETATM    2  O1  UNL     1       0.901   0.324  -2.339  1.00  0.00    -0.271 OA
HETATM    3  N2  UNL     1       0.799   1.898  -0.624  1.00  0.00    -0.337 N 
HETATM    4  C6  UNL     1       1.536   2.895   0.242  1.00  0.00     0.127 C 
HETATM    5  C7  UNL     1       0.975   2.561   1.596  1.00  0.00     0.022 C 
HETATM    6  C8  UNL     1      -0.449   2.159   1.330  1.00  0.00     0.037 C 
HETATM    7  C9  UNL     1      -0.541   2.067  -0.207  1.00  0.00     0.179 C 
ENDROOT
BRANCH   7   8
HETATM    8  C10 UNL     1      -1.557   1.088  -0.568  1.00  0.00     0.241 C 
HETATM    9  O2  UNL     1      -1.374  -0.007  -1.087  1.00  0.00    -0.271 OA
HETATM   10  N3  UNL     1      -2.927   1.438  -0.285  1.00  0.00    -0.347 N 
ATOM     11  H3  UNL     1      -3.153   2.333   0.148  1.00  0.00     0.163 HD
BRANCH  10  12
HETATM   12  C11 UNL     1      -4.022   0.463  -0.638  1.00  0.00     0.160 C 
BRANCH  12  13
HETATM   13  C12 UNL     1      -4.912   1.317  -1.501  1.00  0.00     0.091 C 
BRANCH  13  14
HETATM   14  C13 UNL     1      -6.135   0.720  -2.049  1.00  0.00     0.028 A 
HETATM   15  C14 UNL     1      -7.412   0.785  -1.539  1.00  0.00     0.114 A 
HETATM   16  N4  UNL     1      -8.211   0.103  -2.355  1.00  0.00    -0.360 N 
HETATM   17  C15 UNL     1      -7.466  -0.381  -3.356  1.00  0.00     0.180 A 
ATOM     18  H4  UNL     1      -9.216  -0.028  -2.238  1.00  0.00     0.166 HD
HETATM   19  N5  UNL     1      -6.196  -0.008  -3.176  1.00  0.00    -0.354 N 
ATOM     20  H5  UNL     1      -5.411  -0.236  -3.787  1.00  0.00     0.166 HD
ENDBRANCH  13  14
ENDBRANCH  12  13
BRANCH  12  21
HETATM   21  C16 UNL     1      -4.621   0.153   0.679  1.00  0.00     0.154 C 
HETATM   22  O3  UNL     1      -4.911   1.169   1.358  1.00  0.00    -0.295 OA
BRANCH  21  23
HETATM   23  C17 UNL     1      -4.874  -1.183   1.235  1.00  0.00     0.067 C 
HETATM   24  C18 UNL     1      -5.579  -1.043   2.564  1.00  0.00     0.023 C 
HETATM   25  C19 UNL     1      -5.731  -2.441   3.121  1.00  0.00     0.075 C 
HETATM   26  S1  UNL     1      -6.188  -3.362   1.616  1.00  0.00    -0.168 SA
HETATM   27  C20 UNL     1      -5.661  -2.071   0.379  1.00  0.00     0.086 C 
ENDBRANCH  21  23
ENDBRANCH  12  21
ENDBRANCH  10  12
ENDBRANCH   7   8
BRANCH   1  28
HETATM   28  C4  UNL     1       2.986   1.134  -1.672  1.00  0.00     0.278 C 
BRANCH  28  29
HETATM   29  C3  UNL     1       3.554   0.297  -0.551  1.00  0.00     0.076 C 
BRANCH  29  30
HETATM   30  C2  UNL     1       5.016   0.197  -0.520  1.00  0.00    -0.083 C 
HETATM   31  C1  UNL     1       5.784   0.896  -1.313  1.00  0.00     0.015 C 
BRANCH  30  32
HETATM   32  C21 UNL     1       5.672  -0.749   0.452  1.00  0.00     0.014 C 
HETATM   33  C22 UNL     1       5.115  -2.112   0.179  1.00  0.00     0.009 C 
HETATM   34  C23 UNL     1       5.932  -3.157   0.920  1.00  0.00     0.001 C 
HETATM   35  C24 UNL     1       6.810  -2.497   1.962  1.00  0.00     0.000 C 
HETATM   36  C25 UNL     1       7.839  -1.662   1.259  1.00  0.00     0.001 C 
HETATM   37  C26 UNL     1       7.151  -0.717   0.311  1.00  0.00     0.009 C 
ENDBRANCH  30  32
ENDBRANCH  29  30
ENDBRANCH  28  29
BRANCH  28  38
HETATM   38  N1  UNL     1       3.370   0.516  -2.960  1.00  0.00    -0.066 N 
ATOM     39  H13 UNL     1       4.377   0.380  -3.044  1.00  0.00     0.275 HD
ATOM     40  H12 UNL     1       3.092  -0.463  -3.023  1.00  0.00     0.275 HD
ATOM     41  H11 UNL     1       2.986   1.081  -3.717  1.00  0.00     0.275 HD
ENDBRANCH  28  38
ENDBRANCH   1  28
TORSDOF 11
