REMARK  7 active torsions:
REMARK  status: ('A' for Active; 'I' for Inactive)
REMARK    1  A    between atoms: C2_2  and  C5_5 
REMARK    2  A    between atoms: C9_10  and  C10_11 
REMARK    3  A    between atoms: C10_11  and  C11_12 
REMARK    4  A    between atoms: C11_12  and  C12_13 
REMARK    5  A    between atoms: C12_13  and  C13_14 
REMARK    6  A    between atoms: C13_14  and  O2_15 
REMARK    7  A    between atoms: N1_17  and  O3_19 
ROOT
HETATM    1  C5  UNL     1      -1.583   0.488   0.185  1.00  0.00     0.136 C 
HETATM    2  C6  UNL     1      -2.094   0.927   1.518  1.00  0.00     0.111 C 
HETATM    3  C7  UNL     1      -0.918   1.030   2.459  1.00  0.00     0.131 C 
HETATM    4  O1  UNL     1      -1.024   0.810   3.642  1.00  0.00    -0.298 OA
HETATM    5  C8  UNL     1       0.354   1.422   1.793  1.00  0.00     0.110 C 
HETATM    6  C9  UNL     1       0.670   0.392   0.744  1.00  0.00     0.129 C 
HETATM    7  O4  UNL     1      -0.422  -0.246   0.229  1.00  0.00    -0.379 OA
ENDROOT
BRANCH   6   8
HETATM    8  C10 UNL     1       1.540   1.057  -0.302  1.00  0.00     0.033 C 
BRANCH   8   9
HETATM    9  C11 UNL     1       1.929   0.143  -1.406  1.00  0.00     0.010 C 
BRANCH   9  10
HETATM   10  C12 UNL     1       2.694  -1.072  -1.045  1.00  0.00     0.086 C 
BRANCH  10  11
HETATM   11  C13 UNL     1       4.008  -0.859  -0.422  1.00  0.00     0.135 C 
HETATM   12  N1  UNL     1       4.593   0.269  -0.264  1.00  0.00    -0.251 N 
ATOM     13  H1  UNL     1       4.120   1.110  -0.594  1.00  0.00     0.196 HD
BRANCH  11  14
HETATM   14  O2  UNL     1       4.699  -1.994   0.047  1.00  0.00    -0.348 OA
ATOM     15  H2  UNL     1       5.548  -1.856   0.450  1.00  0.00     0.219 HD
ENDBRANCH  11  14
BRANCH  12  16
HETATM   16  O3  UNL     1       5.818   0.402   0.324  1.00  0.00    -0.288 OA
ATOM     17  H3  UNL     1       6.252   1.239   0.441  1.00  0.00     0.244 HD
ENDBRANCH  12  16
ENDBRANCH  10  11
ENDBRANCH   9  10
ENDBRANCH   8   9
ENDBRANCH   6   8
BRANCH   1  18
HETATM   18  C2  UNL     1      -2.649  -0.421  -0.415  1.00  0.00    -0.025 C 
HETATM   19  C1  UNL     1      -3.908   0.411  -0.532  1.00  0.00     0.017 C 
HETATM   20  C3  UNL     1      -2.169  -0.905  -1.745  1.00  0.00     0.017 C 
HETATM   21  C4  UNL     1      -2.974  -1.563   0.540  1.00  0.00     0.017 C 
ENDBRANCH   1  18
TORSDOF 7
