REMARK  5 active torsions:
REMARK  status: ('A' for Active; 'I' for Inactive)
REMARK    1  A    between atoms: C7_7  and  C9_9 
REMARK    2  A    between atoms: C9_9  and  O1_10 
REMARK    3  A    between atoms: C12_14  and  O2_15 
REMARK    4  A    between atoms: C16_20  and  C18_22 
REMARK    5  A    between atoms: C18_22  and  O3_23 
ROOT
HETATM    1  C1  UNL     1      -3.210  -0.510   1.817  1.00  0.00     0.015 C 
HETATM    2  C2  UNL     1      -1.973  -0.610   1.453  1.00  0.00    -0.078 C 
HETATM    3  C3  UNL     1      -1.488  -1.966   1.057  1.00  0.00     0.034 C 
HETATM    4  C4  UNL     1      -1.254  -1.706  -0.416  1.00  0.00     0.010 C 
HETATM    5  C5  UNL     1      -0.206  -0.708  -0.741  1.00  0.00     0.002 C 
HETATM    6  C6  UNL     1      -0.071   0.465   0.210  1.00  0.00     0.015 C 
HETATM    7  C7  UNL     1       0.091   1.682  -0.637  1.00  0.00    -0.018 C 
HETATM    8  C8  UNL     1      -1.035   1.854  -1.663  1.00  0.00     0.018 C 
HETATM    9  C10 UNL     1       1.367   1.584  -1.470  1.00  0.00     0.014 C 
HETATM   10  C11 UNL     1       1.595   0.496  -2.375  1.00  0.00     0.033 C 
HETATM   11  C12 UNL     1       2.193  -0.658  -1.575  1.00  0.00     0.126 C 
HETATM   12  C13 UNL     1       1.040  -1.462  -1.053  1.00  0.00    -0.018 C 
HETATM   13  C14 UNL     1       0.672  -2.419  -2.212  1.00  0.00     0.018 C 
HETATM   14  C15 UNL     1       1.564  -2.343   0.042  1.00  0.00     0.018 C 
HETATM   15  C16 UNL     1      -0.916   0.446   1.400  1.00  0.00     0.005 C 
HETATM   16  C17 UNL     1      -1.576   1.686   1.899  1.00  0.00     0.023 C 
ENDROOT
BRANCH   7  17
HETATM   17  C9  UNL     1       0.357   3.003   0.035  1.00  0.00     0.173 C 
BRANCH  17  18
HETATM   18  O1  UNL     1       1.515   3.000   0.777  1.00  0.00    -0.400 OA
ATOM     19  H1  UNL     1       1.683   3.833   1.201  1.00  0.00     0.209 HD
ENDBRANCH  17  18
ENDBRANCH   7  17
BRANCH  15  20
HETATM   20  C18 UNL     1      -0.071   0.047   2.660  1.00  0.00     0.178 C 
BRANCH  20  21
HETATM   21  O3  UNL     1      -0.883   0.103   3.804  1.00  0.00    -0.400 OA
ATOM     22  H3  UNL     1      -0.371  -0.139   4.567  1.00  0.00     0.209 HD
ENDBRANCH  20  21
ENDBRANCH  15  20
BRANCH  11  23
HETATM   23  O2  UNL     1       3.074  -0.203  -0.637  1.00  0.00    -0.395 OA
ATOM     24  H2  UNL     1       3.446  -0.921  -0.139  1.00  0.00     0.210 HD
ENDBRANCH  11  23
TORSDOF 5
