REMARK  3 active torsions:
REMARK  status: ('A' for Active; 'I' for Inactive)
REMARK    1  A    between atoms: C2_3  and  C3_4 
REMARK    2  A    between atoms: C3_4  and  N1_5 
REMARK    3  A    between atoms: N2_11  and  C8_13 
ROOT
HETATM    1  C3  UNL     1       2.724  -1.127  -0.070  1.00  0.00     0.124 C 
ENDROOT
BRANCH   1   2
HETATM    2  C2  UNL     1       4.103  -0.470  -0.025  1.00  0.00     0.132 A 
HETATM    3  C1  UNL     1       5.306  -1.067  -0.090  1.00  0.00     0.282 A 
HETATM    4  O1  UNL     1       5.364  -2.281  -0.438  1.00  0.00    -0.265 OA
HETATM    5  N6  UNL     1       6.397  -0.363   0.214  1.00  0.00    -0.268 N 
HETATM    6  C16 UNL     1       6.304   0.905   0.585  1.00  0.00     0.144 A 
HETATM    7  C19 UNL     1       7.588  -0.978   0.052  1.00  0.00     0.144 A 
HETATM    8  N4  UNL     1       5.077   1.509   0.653  1.00  0.00    -0.283 N 
HETATM    9  C17 UNL     1       7.439   1.638   0.834  1.00  0.00     0.139 A 
HETATM   10  N3  UNL     1       4.025   0.827   0.353  1.00  0.00    -0.293 N 
ATOM     11  H4  UNL     1       4.996   2.485   0.937  1.00  0.00     0.188 HD
ATOM     12  H3  UNL     1       3.111   1.276   0.402  1.00  0.00     0.187 HD
HETATM   13  N5  UNL     1       8.629   1.039   0.676  1.00  0.00    -0.352 N 
HETATM   14  C18 UNL     1       8.718  -0.248   0.286  1.00  0.00     0.119 A 
ATOM     15  H5  UNL     1       9.483   1.568   0.854  1.00  0.00     0.166 HD
HETATM   16 CL1  UNL     1      10.299  -0.983   0.005  1.00  0.00    -0.063 Cl
ENDBRANCH   1   2
BRANCH   1  17
HETATM   17  N1  UNL     1       1.844  -0.103  -0.334  1.00  0.00    -0.370 N 
HETATM   18  C4  UNL     1       0.894   0.582   0.289  1.00  0.00    -0.013 C 
HETATM   19  C5  UNL     1       0.087   1.355  -0.764  1.00  0.00     0.058 C 
HETATM   20  C15 UNL     1       0.094   0.149   1.439  1.00  0.00     0.058 C 
HETATM   21  C6  UNL     1      -1.383   1.125  -0.588  1.00  0.00     0.057 C 
HETATM   22  C7  UNL     1      -1.648  -0.358  -0.254  1.00  0.00    -0.017 C 
HETATM   23  N2  UNL     1      -2.800  -0.821  -0.810  1.00  0.00    -0.392 N 
HETATM   24  C14 UNL     1      -1.214  -0.561   1.144  1.00  0.00     0.057 C 
ATOM     25  H2  UNL     1      -2.682  -1.561  -1.502  1.00  0.00     0.159 HD
ATOM     26  H1  UNL     1       1.955   0.227  -1.293  1.00  0.00     0.165 HD
BRANCH  23  27
HETATM   27  C8  UNL     1      -4.084  -0.444  -0.581  1.00  0.00     0.081 C 
HETATM   28  C9  UNL     1      -4.824  -1.278   0.427  1.00  0.00     0.025 C 
HETATM   29  C10 UNL     1      -6.308  -1.247  -0.023  1.00  0.00     0.002 C 
HETATM   30  C11 UNL     1      -6.559   0.193  -0.446  1.00  0.00     0.000 C 
HETATM   31  C12 UNL     1      -5.699   1.141   0.337  1.00  0.00     0.002 C 
HETATM   32  C13 UNL     1      -4.228   0.973   0.015  1.00  0.00     0.025 C 
ENDBRANCH  23  27
ENDBRANCH   1  17
TORSDOF 3
