REMARK  1 active torsions:
REMARK  status: ('A' for Active; 'I' for Inactive)
REMARK    1  A    between atoms: O1_1  and  C1_3 
ROOT
HETATM    1  C1  UNL     1       1.251  -0.604   0.549  1.00  0.00     0.062 C 
HETATM    2  C2  UNL     1       0.527   0.363   1.435  1.00  0.00     0.042 C 
HETATM    3  C3  UNL     1      -0.481   1.207   0.763  1.00  0.00    -0.009 C 
HETATM    4  C4  UNL     1      -1.832   0.529   0.588  1.00  0.00     0.005 C 
HETATM    5  C5  UNL     1      -1.795  -0.498  -0.488  1.00  0.00     0.008 C 
HETATM    6  C6  UNL     1      -0.444  -0.778  -1.051  1.00  0.00     0.028 C 
HETATM    7  C7  UNL     1       0.323  -1.629  -0.062  1.00  0.00     0.045 C 
HETATM    8  C8  UNL     1       0.382   0.420  -1.360  1.00  0.00     0.110 C 
HETATM    9  F1  UNL     1       0.508   0.677  -2.693  1.00  0.00    -0.242 F 
HETATM   10  C9  UNL     1      -0.077   1.666  -0.627  1.00  0.00     0.048 C 
HETATM   11  C10 UNL     1       1.738   0.088  -0.717  1.00  0.00     0.081 C 
ENDROOT
BRANCH   1  12
HETATM   12  O1  UNL     1       2.273  -1.203   1.245  1.00  0.00    -0.390 OA
ATOM     13  H1  UNL     1       2.732  -1.816   0.683  1.00  0.00     0.210 HD
ENDBRANCH   1  12
TORSDOF 1
