REMARK  11 active torsions:
REMARK  status: ('A' for Active; 'I' for Inactive)
REMARK       I    between atoms: N1_2  and  C2_4 
REMARK    1  A    between atoms: C2_4  and  C3_6 
REMARK    2  A    between atoms: C5_8  and  N2_9 
REMARK    3  A    between atoms: N2_9  and  C6_11 
REMARK    4  A    between atoms: C7_14  and  N4_15 
REMARK    5  A    between atoms: N4_15  and  C8_17 
REMARK    6  A    between atoms: C11_20  and  N5_22 
REMARK    7  A    between atoms: N5_22  and  C13_25 
REMARK    8  A    between atoms: N8_35  and  C19_36 
REMARK    9  A    between atoms: C19_36  and  C20_37 
REMARK   10  A    between atoms: C23_40  and  C24_41 
REMARK   11  A    between atoms: C24_41  and  O2_42 
ROOT
HETATM    1  C13 UNL     1      -9.725   0.895  -0.350  1.00  0.00     0.356 C 
HETATM    2  C14 UNL     1     -10.713   1.842  -0.880  1.00  0.00     0.086 C 
HETATM    3  N6  UNL     1     -11.495   2.597  -1.323  1.00  0.00    -0.196 NA
ENDROOT
BRANCH   1   4
HETATM    4  N5  UNL     1      -8.453   1.554  -0.182  1.00  0.00    -0.055 N 
ATOM      5  H52 UNL     1      -8.551   2.385   0.401  1.00  0.00     0.279 HD
ATOM      6  H51 UNL     1      -8.155   1.992  -1.054  1.00  0.00     0.279 HD
BRANCH   4   7
HETATM    7  C11 UNL     1      -7.421   0.689   0.333  1.00  0.00     0.123 C 
HETATM    8  C10 UNL     1      -7.141  -0.423  -0.629  1.00  0.00     0.040 C 
HETATM    9  C9  UNL     1      -5.686  -0.463  -1.050  1.00  0.00     0.028 C 
HETATM   10  C8  UNL     1      -4.770  -0.490   0.168  1.00  0.00     0.099 C 
HETATM   11  C16 UNL     1      -5.007   0.720   1.032  1.00  0.00     0.028 C 
HETATM   12  C15 UNL     1      -6.186   1.539   0.550  1.00  0.00     0.040 C 
HETATM   13  C12 UNL     1      -7.923   0.143   1.663  1.00  0.00     0.046 C 
BRANCH  10  14
HETATM   14  N4  UNL     1      -3.420  -0.622  -0.290  1.00  0.00    -0.221 N 
ATOM     15  H4  UNL     1      -3.209  -0.351  -1.250  1.00  0.00     0.178 HD
BRANCH  14  16
HETATM   16  C7  UNL     1      -2.446  -1.069   0.450  1.00  0.00     0.679 A 
HETATM   17  N3  UNL     1      -1.196  -1.179  -0.015  1.00  0.00    -0.175 N 
HETATM   18  C6  UNL     1      -0.156  -1.632   0.696  1.00  0.00     0.145 A 
ATOM     19  H3  UNL     1      -1.023  -0.898  -0.980  1.00  0.00     0.186 HD
HETATM   20  C18 UNL     1      -0.383  -2.019   2.011  1.00  0.00     0.094 A 
HETATM   21  C17 UNL     1      -1.658  -1.913   2.504  1.00  0.00     0.133 A 
HETATM   22 CL1  UNL     1       0.939  -2.637   3.002  1.00  0.00    -0.079 Cl
HETATM   23  N7  UNL     1      -2.641  -1.448   1.723  1.00  0.00    -0.200 N 
ATOM     24  H7  UNL     1      -3.581  -1.379   2.113  1.00  0.00     0.183 HD
BRANCH  18  25
HETATM   25  N2  UNL     1       1.149  -1.759   0.210  1.00  0.00    -0.325 N 
ATOM     26  H2  UNL     1       1.697  -2.514   0.623  1.00  0.00     0.169 HD
BRANCH  25  27
HETATM   27  C5  UNL     1       1.757  -1.062  -0.681  1.00  0.00     0.130 A 
HETATM   28  C4  UNL     1       1.200   0.014  -1.366  1.00  0.00     0.087 A 
HETATM   29  C3  UNL     1       2.184   0.414  -2.268  1.00  0.00     0.120 A 
HETATM   30  N9  UNL     1       3.245  -0.387  -2.106  1.00  0.00    -0.288 N 
HETATM   31  N8  UNL     1       3.016  -1.278  -1.162  1.00  0.00    -0.250 N 
ATOM     32  H9  UNL     1       4.111  -0.317  -2.640  1.00  0.00     0.188 HD
BRANCH  29  33
HETATM   33  C2  UNL     1       2.016   1.539  -3.213  1.00  0.00     0.269 C 
HETATM   34  N1  UNL     1       3.057   1.865  -4.086  1.00  0.00    -0.360 N 
HETATM   35  C1  UNL     1       2.888   2.975  -5.019  1.00  0.00     0.149 C 
ATOM     36  H1  UNL     1       3.927   1.332  -4.072  1.00  0.00     0.162 HD
HETATM   37  O1  UNL     1       0.950   2.203  -3.239  1.00  0.00    -0.266 OA
ENDBRANCH  29  33
BRANCH  31  38
HETATM   38  C19 UNL     1       3.929  -2.250  -0.707  1.00  0.00     0.121 C 
BRANCH  38  39
HETATM   39  C20 UNL     1       5.008  -1.824   0.252  1.00  0.00    -0.062 C 
HETATM   40  C21 UNL     1       4.612  -1.237   1.536  1.00  0.00     0.036 C 
HETATM   41  C22 UNL     1       4.851   0.240   1.711  1.00  0.00     0.011 C 
HETATM   42  C23 UNL     1       6.294   0.536   1.385  1.00  0.00     0.010 C 
HETATM   43  C26 UNL     1       6.411   0.263  -0.108  1.00  0.00     0.011 C 
HETATM   44  C27 UNL     1       6.155  -1.147  -0.459  1.00  0.00     0.036 C 
BRANCH  42  45
HETATM   45  C24 UNL     1       7.228  -0.307   2.186  1.00  0.00     0.171 C 
BRANCH  45  46
HETATM   46  O2  UNL     1       8.561  -0.098   1.954  1.00  0.00    -0.396 OA
HETATM   47  C25 UNL     1       9.041   1.159   2.194  1.00  0.00     0.201 C 
ENDBRANCH  45  46
ENDBRANCH  42  45
ENDBRANCH  38  39
ENDBRANCH  31  38
ENDBRANCH  25  27
ENDBRANCH  18  25
ENDBRANCH  14  16
ENDBRANCH  10  14
ENDBRANCH   4   7
ENDBRANCH   1   4
TORSDOF 11
