REMARK  7 active torsions:
REMARK  status: ('A' for Active; 'I' for Inactive)
REMARK    1  A    between atoms: O1_1  and  C1_3 
REMARK    2  A    between atoms: C1_3  and  C2_4 
REMARK    3  A    between atoms: C3_6  and  C4_7 
REMARK    4  A    between atoms: C7_10  and  O3_11 
REMARK    5  A    between atoms: C8_13  and  O4_14 
REMARK    6  A    between atoms: C9_16  and  O5_17 
REMARK    7  A    between atoms: C10_19  and  O6_20 
ROOT
HETATM    1  C2  UNL     1       2.284  -0.126  -1.126  1.00  0.00     0.176 C 
HETATM    2  O2  UNL     1       1.069  -0.743  -0.894  1.00  0.00    -0.373 OA
HETATM    3  C3  UNL     1       0.193   0.221  -0.419  1.00  0.00     0.160 C 
HETATM    4  C9  UNL     1       1.081   1.031   0.516  1.00  0.00     0.178 C 
HETATM    5  C10 UNL     1       2.343   1.124  -0.315  1.00  0.00     0.180 C 
ENDROOT
BRANCH   3   6
HETATM    6  C4  UNL     1      -0.939  -0.444   0.344  1.00  0.00     0.049 C 
HETATM    7  C5  UNL     1      -1.636  -1.370  -0.645  1.00  0.00     0.012 C 
HETATM    8  C6  UNL     1      -3.064  -0.870  -0.742  1.00  0.00     0.035 C 
HETATM    9  C7  UNL     1      -3.262  -0.243   0.623  1.00  0.00     0.147 C 
HETATM   10  C8  UNL     1      -1.977   0.580   0.739  1.00  0.00     0.153 C 
BRANCH   9  11
HETATM   11  O3  UNL     1      -4.378   0.567   0.677  1.00  0.00    -0.393 OA
ATOM     12  H3  UNL     1      -4.502   0.960   1.533  1.00  0.00     0.210 HD
ENDBRANCH   9  11
BRANCH  10  13
HETATM   13  O4  UNL     1      -1.796   1.071   2.013  1.00  0.00    -0.393 OA
ATOM     14  H4  UNL     1      -2.449   1.715   2.261  1.00  0.00     0.210 HD
ENDBRANCH  10  13
ENDBRANCH   3   6
BRANCH   4  15
HETATM   15  O5  UNL     1       0.550   2.263   0.820  1.00  0.00    -0.390 OA
ATOM     16  H5  UNL     1       1.104   2.768   1.403  1.00  0.00     0.210 HD
ENDBRANCH   4  15
BRANCH   1  17
HETATM   17  C1  UNL     1       3.399  -1.085  -0.766  1.00  0.00     0.198 C 
BRANCH  17  18
HETATM   18  O1  UNL     1       3.369  -1.478   0.555  1.00  0.00    -0.398 OA
ATOM     19  H1  UNL     1       4.069  -2.080   0.781  1.00  0.00     0.209 HD
ENDBRANCH  17  18
ENDBRANCH   1  17
BRANCH   5  20
HETATM   20  O6  UNL     1       3.485   1.186   0.489  1.00  0.00    -0.390 OA
ATOM     21  H6  UNL     1       3.523   1.982   1.006  1.00  0.00     0.210 HD
ENDBRANCH   5  20
TORSDOF 7
