REMARK  4 active torsions:
REMARK  status: ('A' for Active; 'I' for Inactive)
REMARK       I    between atoms: C1_2  and  N1_3 
REMARK    1  A    between atoms: C1_2  and  C8_14 
REMARK    2  A    between atoms: N1_3  and  C2_5 
REMARK    3  A    between atoms: C5_8  and  C6_9 
REMARK    4  A    between atoms: C6_9  and  O2_10 
ROOT
HETATM    1  C2  UNL     1       1.058  -0.508  -0.061  1.00  0.00     0.108 C 
HETATM    2  C3  UNL     1       1.875  -0.741  -1.327  1.00  0.00     0.030 C 
HETATM    3  C4  UNL     1       3.349  -0.608  -0.928  1.00  0.00     0.036 C 
HETATM    4  C5  UNL     1       3.565   0.860  -0.621  1.00  0.00     0.145 C 
HETATM    5  O3  UNL     1       2.531   1.401   0.106  1.00  0.00    -0.382 OA
HETATM    6  C7  UNL     1       1.802   0.463   0.815  1.00  0.00     0.193 C 
ENDROOT
BRANCH   1   7
HETATM    7  N1  UNL     1      -0.275  -0.069  -0.373  1.00  0.00    -0.354 N 
HETATM    8  C1  UNL     1      -1.441  -0.823  -0.032  1.00  0.00     0.222 C 
HETATM    9  O1  UNL     1      -1.334  -1.923   0.567  1.00  0.00    -0.273 OA
ATOM     10  H1  UNL     1      -0.394   0.820  -0.859  1.00  0.00     0.162 HD
BRANCH   8  11
HETATM   11  C8  UNL     1      -2.802  -0.356  -0.361  1.00  0.00     0.078 C 
HETATM   12  C9  UNL     1      -3.123   0.977   0.268  1.00  0.00     0.014 C 
HETATM   13  C10 UNL     1      -4.628   0.980   0.265  1.00  0.00     0.001 C 
HETATM   14  C11 UNL     1      -5.071  -0.464   0.231  1.00  0.00     0.001 C 
HETATM   15  C12 UNL     1      -3.805  -1.302   0.252  1.00  0.00     0.014 C 
ENDBRANCH   8  11
ENDBRANCH   1   7
BRANCH   4  16
HETATM   16  C6  UNL     1       4.907   1.066   0.095  1.00  0.00     0.196 C 
BRANCH  16  17
HETATM   17  O2  UNL     1       5.948   0.530  -0.621  1.00  0.00    -0.398 OA
ATOM     18  H2  UNL     1       6.779   0.657  -0.178  1.00  0.00     0.209 HD
ENDBRANCH  16  17
ENDBRANCH   4  16
TORSDOF 4
