REMARK  3 active torsions:
REMARK  status: ('A' for Active; 'I' for Inactive)
REMARK    1  A    between atoms: C8_8  and  C9_9 
REMARK       I    between atoms: C9_9  and  N1_11 
REMARK    2  A    between atoms: N1_11  and  N2_13 
REMARK    3  A    between atoms: C10_15  and  C11_16 
ROOT
HETATM    1  C9  UNL     1       1.128   0.660   0.528  1.00  0.00     0.240 C 
HETATM    2  O1  UNL     1       1.624   0.001   1.476  1.00  0.00    -0.271 OA
HETATM    3  N1  UNL     1       1.993   1.348  -0.346  1.00  0.00    -0.270 N 
ATOM      4  H1  UNL     1       1.610   1.889  -1.121  1.00  0.00     0.190 HD
ENDROOT
BRANCH   1   5
HETATM    5  C8  UNL     1      -0.344   0.738   0.300  1.00  0.00     0.084 C 
HETATM    6  C2  UNL     1      -0.634   0.185  -1.059  1.00  0.00    -0.005 C 
HETATM    7  C1  UNL     1      -1.173   1.243  -2.007  1.00  0.00     0.011 C 
HETATM    8  C3  UNL     1      -1.613  -0.954  -0.889  1.00  0.00     0.014 C 
HETATM    9  C4  UNL     1      -2.234  -0.753   0.455  1.00  0.00    -0.047 C 
HETATM   10  C5  UNL     1      -2.643  -2.057   1.106  1.00  0.00     0.015 C 
HETATM   11  C6  UNL     1      -3.445   0.138   0.380  1.00  0.00     0.015 C 
HETATM   12  C7  UNL     1      -1.110  -0.123   1.261  1.00  0.00     0.023 C 
ENDBRANCH   1   5
BRANCH   3  13
HETATM   13  N2  UNL     1       3.361   1.290  -0.153  1.00  0.00    -0.303 N 
HETATM   14  C10 UNL     1       4.060   0.224  -0.290  1.00  0.00     0.191 C 
ATOM     15  H2  UNL     1       3.844   2.148   0.115  1.00  0.00     0.186 HD
BRANCH  14  16
HETATM   16  C11 UNL     1       5.495   0.300  -0.058  1.00  0.00     0.216 C 
HETATM   17  O2  UNL     1       6.059   1.377   0.271  1.00  0.00    -0.643 OA
HETATM   18  O3  UNL     1       6.309  -0.819  -0.189  1.00  0.00    -0.643 OA
ENDBRANCH  14  16
ENDBRANCH   3  13
TORSDOF 3
