REMARK  7 active torsions:
REMARK  status: ('A' for Active; 'I' for Inactive)
REMARK    1  A    between atoms: C1_2  and  C2_4 
REMARK    2  A    between atoms: C4_6  and  C5_7 
REMARK    3  A    between atoms: C8_11  and  N1_12 
REMARK    4  A    between atoms: N1_12  and  C9_14 
REMARK    5  A    between atoms: C9_14  and  C10_16 
REMARK    6  A    between atoms: C10_16  and  O3_17 
REMARK    7  A    between atoms: C10_16  and  N2_19 
ROOT
HETATM    1  N1  UNL     1       0.423   0.090  -0.796  1.00  0.00    -0.337 N 
ATOM      2  H1  UNL     1       0.447  -0.229  -1.765  1.00  0.00     0.167 HD
ENDROOT
BRANCH   1   3
HETATM    3  C8  UNL     1       1.661   0.478  -0.236  1.00  0.00     0.092 A 
HETATM    4  C2  UNL     1       2.087   1.378   0.680  1.00  0.00     0.075 A 
HETATM    5  C3  UNL     1       3.340   1.255   1.170  1.00  0.00     0.036 A 
HETATM    6  C4  UNL     1       4.109   0.234   0.703  1.00  0.00    -0.010 A 
HETATM    7  S1  UNL     1       3.091  -0.543  -0.403  1.00  0.00    -0.075 SA
BRANCH   4   8
HETATM    8  C1  UNL     1       1.310   2.636   0.923  1.00  0.00     0.212 C 
HETATM    9  O1  UNL     1       1.673   3.429   1.824  1.00  0.00    -0.644 OA
HETATM   10  O2  UNL     1       0.208   2.994   0.197  1.00  0.00    -0.644 OA
ENDBRANCH   4   8
BRANCH   6  11
HETATM   11  C5  UNL     1       5.531  -0.113   1.086  1.00  0.00     0.026 A 
HETATM   12  C6  UNL     1       5.778  -1.609   1.131  1.00  0.00     0.010 A 
HETATM   13  C7  UNL     1       6.410  -0.729   0.066  1.00  0.00     0.010 A 
ENDBRANCH   6  11
ENDBRANCH   1   3
BRANCH   1  14
HETATM   14  C9  UNL     1      -0.816   0.092  -0.186  1.00  0.00     0.152 C 
HETATM   15  S2  UNL     1      -1.006   0.283   1.419  1.00  0.00    -0.056 SA
BRANCH  14  16
HETATM   16  C10 UNL     1      -2.014  -0.258  -0.955  1.00  0.00     0.177 C 
BRANCH  16  17
HETATM   17  O3  UNL     1      -1.765  -0.555  -2.196  1.00  0.00    -0.344 OA
ATOM     18  H3  UNL     1      -2.541  -0.782  -2.694  1.00  0.00     0.219 HD
ENDBRANCH  16  17
BRANCH  16  19
HETATM   19  N2  UNL     1      -3.331  -0.300  -0.504  1.00  0.00    -0.355 N 
HETATM   20  C11 UNL     1      -4.385  -0.685  -1.439  1.00  0.00     0.151 C 
HETATM   21  C12 UNL     1      -5.189  -1.770  -0.738  1.00  0.00     0.187 C 
HETATM   22  O4  UNL     1      -5.727  -1.299   0.434  1.00  0.00    -0.388 OA
HETATM   23  C13 UNL     1      -5.278  -0.061   0.820  1.00  0.00     0.187 C 
HETATM   24  C14 UNL     1      -3.734   0.015   0.825  1.00  0.00     0.151 C 
ENDBRANCH  16  19
ENDBRANCH  14  16
ENDBRANCH   1  14
TORSDOF 7
