REMARK  4 active torsions:
REMARK  status: ('A' for Active; 'I' for Inactive)
REMARK    1  A    between atoms: N1_2  and  C2_4 
REMARK    2  A    between atoms: N3_7  and  C3_8 
REMARK    3  A    between atoms: C6_11  and  O1_12 
REMARK    4  A    between atoms: C6_11  and  C7_14 
ROOT
HETATM    1  C3  UNL     1       1.250  -0.808   0.406  1.00  0.00     0.125 C 
HETATM    2  C4  UNL     1       0.731  -1.373  -0.894  1.00  0.00     0.032 C 
HETATM    3  C5  UNL     1      -0.661  -0.881  -1.208  1.00  0.00     0.040 C 
HETATM    4  C6  UNL     1      -1.458  -0.695   0.083  1.00  0.00     0.063 C 
HETATM    5  C12 UNL     1      -0.828   0.294   1.003  1.00  0.00     0.059 C 
HETATM    6  C13 UNL     1       0.621   0.526   0.624  1.00  0.00     0.120 C 
HETATM    7  C14 UNL     1       1.221   1.236   1.773  1.00  0.00     0.066 C 
HETATM    8  N4  UNL     1       1.697   1.784   2.680  1.00  0.00    -0.197 NA
ENDROOT
BRANCH   1   9
HETATM    9  N3  UNL     1       2.690  -0.775   0.393  1.00  0.00    -0.294 N 
HETATM   10  N2  UNL     1       3.497   0.242   0.125  1.00  0.00    -0.282 N 
HETATM   11  C2  UNL     1       4.765  -0.146   0.222  1.00  0.00     0.139 A 
ATOM     12  H2  UNL     1       3.190   1.184  -0.120  1.00  0.00     0.189 HD
HETATM   13  C16 UNL     1       4.783  -1.480   0.568  1.00  0.00     0.096 A 
HETATM   14  C15 UNL     1       3.454  -1.847   0.668  1.00  0.00     0.138 A 
HETATM   15 CL1  UNL     1       6.217  -2.443   0.813  1.00  0.00    -0.079 Cl
BRANCH  11  16
HETATM   16  N1  UNL     1       5.795   0.602   0.023  1.00  0.00    -0.378 N 
HETATM   17  C1  UNL     1       5.715   1.988  -0.336  1.00  0.00     0.147 C 
ATOM     18  H1  UNL     1       6.720   0.185   0.127  1.00  0.00     0.160 HD
ENDBRANCH  11  16
ENDBRANCH   1   9
BRANCH   4  19
HETATM   19  O1  UNL     1      -1.440  -1.949   0.718  1.00  0.00    -0.389 OA
ATOM     20  H1  UNL     1      -1.935  -1.833   1.520  1.00  0.00     0.210 HD
ENDBRANCH   4  19
BRANCH   4  21
HETATM   21  C7  UNL     1      -2.893  -0.391  -0.239  1.00  0.00     0.024 C 
HETATM   22  C8  UNL     1      -3.631  -0.219   1.075  1.00  0.00     0.034 C 
HETATM   23  C9  UNL     1      -4.797   0.719   0.790  1.00  0.00     0.168 C 
HETATM   24  O2  UNL     1      -5.337   0.481  -0.464  1.00  0.00    -0.391 OA
HETATM   25  C10 UNL     1      -4.521   0.918  -1.492  1.00  0.00     0.168 C 
HETATM   26  C11 UNL     1      -3.062   0.888  -1.016  1.00  0.00     0.034 C 
ENDBRANCH   4  21
TORSDOF 4
