REMARK  5 active torsions:
REMARK  status: ('A' for Active; 'I' for Inactive)
REMARK    1  A    between atoms: C1_2  and  C2_4 
REMARK    2  A    between atoms: C8_13  and  S1_14 
REMARK    3  A    between atoms: S1_14  and  S2_15 
REMARK    4  A    between atoms: S2_15  and  C9_16 
REMARK    5  A    between atoms: C14_28  and  O4_29 
ROOT
HETATM    1  C2  UNL     1       4.308  -0.694   0.421  1.00  0.00     0.118 C 
HETATM    2  C3  UNL     1       3.762   0.395  -0.515  1.00  0.00     0.044 C 
HETATM    3  C4  UNL     1       2.282   0.419  -0.233  1.00  0.00     0.109 C 
HETATM    4  C5  UNL     1       2.053  -1.047   0.082  1.00  0.00     0.131 C 
HETATM    5  C6  UNL     1       0.650  -1.129   0.519  1.00  0.00     0.232 C 
HETATM    6  O3  UNL     1       0.222  -1.488   1.622  1.00  0.00    -0.273 OA
HETATM    7  N1  UNL     1      -0.272  -0.728  -0.518  1.00  0.00    -0.310 N 
ATOM      8  H1  UNL     1      -1.205  -1.133  -0.594  1.00  0.00     0.170 HD
HETATM    9  C7  UNL     1       0.192   0.265  -1.430  1.00  0.00     0.146 A 
HETATM   10  C8  UNL     1      -0.450   0.789  -2.527  1.00  0.00     0.126 A 
HETATM   11  N3  UNL     1       0.440   1.666  -3.093  1.00  0.00    -0.343 N 
ATOM     12  H3  UNL     1       0.281   2.228  -3.929  1.00  0.00     0.167 HD
HETATM   13  C13 UNL     1       1.540   1.652  -2.362  1.00  0.00     0.186 A 
HETATM   14  N4  UNL     1       1.441   0.795  -1.310  1.00  0.00    -0.321 N 
HETATM   15  C14 UNL     1       3.081  -1.242   1.165  1.00  0.00     0.147 C 
ENDROOT
BRANCH  10  16
HETATM   16  S1  UNL     1      -2.058   0.542  -3.207  1.00  0.00    -0.034 SA
BRANCH  16  17
HETATM   17  S2  UNL     1      -3.342  -0.703  -2.178  1.00  0.00    -0.057 SA
BRANCH  17  18
HETATM   18  C9  UNL     1      -4.369   0.201  -1.037  1.00  0.00     0.260 C 
HETATM   19  C10 UNL     1      -3.673   0.826   0.137  1.00  0.00     0.048 C 
HETATM   20  C11 UNL     1      -4.785   0.761   1.225  1.00  0.00     0.052 C 
HETATM   21  C12 UNL     1      -5.303  -0.615   0.954  1.00  0.00     0.282 C 
HETATM   22 CL1  UNL     1      -6.982  -0.817   1.537  1.00  0.00    -0.095 Cl
HETATM   23  N2  UNL     1      -5.354  -0.717  -0.479  1.00  0.00    -0.044 N 
ATOM     24  H22 UNL     1      -6.291  -0.562  -0.851  1.00  0.00     0.280 HD
ATOM     25  H21 UNL     1      -5.231  -1.674  -0.810  1.00  0.00     0.280 HD
ENDBRANCH  17  18
ENDBRANCH  16  17
ENDBRANCH  10  16
BRANCH  15  26
HETATM   26  O4  UNL     1       3.195  -2.601   1.411  1.00  0.00    -0.394 OA
ATOM     27  H4  UNL     1       2.436  -2.940   1.871  1.00  0.00     0.210 HD
ENDBRANCH  15  26
BRANCH   1  28
HETATM   28  C1  UNL     1       5.371  -0.226   1.299  1.00  0.00     0.179 C 
HETATM   29  O1  UNL     1       6.509  -0.806   1.263  1.00  0.00    -0.648 OA
HETATM   30  O2  UNL     1       5.220   0.820   2.179  1.00  0.00    -0.648 OA
ENDBRANCH   1  28
TORSDOF 5
