REMARK  8 active torsions:
REMARK  status: ('A' for Active; 'I' for Inactive)
REMARK    1  A    between atoms: N1_1  and  C1_4 
REMARK    2  A    between atoms: C3_11  and  N4_12 
REMARK    3  A    between atoms: N4_12  and  C4_14 
REMARK    4  A    between atoms: C4_14  and  C5_15 
REMARK    5  A    between atoms: C5_15  and  C6_16 
REMARK    6  A    between atoms: C6_16  and  S1_17 
REMARK    7  A    between atoms: S1_17  and  C7_18 
REMARK    8  A    between atoms: N8_27  and  N9_28 
ROOT
HETATM    1  C4  UNL     1       1.174   0.871   0.126  1.00  0.00     0.139 C 
ENDROOT
BRANCH   1   2
HETATM    2  N4  UNL     1       2.512   1.256  -0.216  1.00  0.00    -0.225 N 
ATOM      3  H4  UNL     1       2.677   2.226  -0.485  1.00  0.00     0.177 HD
BRANCH   2   4
HETATM    4  C3  UNL     1       3.524   0.448  -0.205  1.00  0.00     0.696 A 
HETATM    5  N3  UNL     1       4.736   0.919  -0.545  1.00  0.00    -0.140 N 
HETATM    6  C2  UNL     1       5.820   0.106  -0.546  1.00  0.00     0.352 A 
ATOM      7  H3  UNL     1       4.841   1.900  -0.805  1.00  0.00     0.189 HD
HETATM    8  N2  UNL     1       5.689  -1.178  -0.206  1.00  0.00    -0.141 N 
HETATM    9  O1  UNL     1       6.944   0.573  -0.869  1.00  0.00    -0.246 OA
HETATM   10  C1  UNL     1       4.482  -1.694   0.144  1.00  0.00     0.694 A 
ATOM     11  H2  UNL     1       6.510  -1.783  -0.209  1.00  0.00     0.189 HD
HETATM   12  N10 UNL     1       3.432  -0.849   0.131  1.00  0.00    -0.022 N 
ATOM     13  H10 UNL     1       2.516  -1.215   0.391  1.00  0.00     0.203 HD
BRANCH  10  14
HETATM   14  N1  UNL     1       4.374  -2.944   0.471  1.00  0.00    -0.234 N 
ATOM     15  H12 UNL     1       5.169  -3.583   0.481  1.00  0.00     0.174 HD
ATOM     16  H11 UNL     1       3.468  -3.331   0.734  1.00  0.00     0.174 HD
ENDBRANCH  10  14
ENDBRANCH   2   4
ENDBRANCH   1   2
BRANCH   1  17
HETATM   17  C5  UNL     1       0.240   1.890  -0.535  1.00  0.00     0.031 C 
BRANCH  17  18
HETATM   18  C6  UNL     1      -1.198   1.489  -0.176  1.00  0.00     0.084 C 
BRANCH  18  19
HETATM   19  S1  UNL     1      -1.581  -0.147  -0.766  1.00  0.00    -0.090 SA
BRANCH  19  20
HETATM   20  C7  UNL     1      -3.224  -0.629  -0.341  1.00  0.00     0.185 A 
HETATM   21  N5  UNL     1      -3.648  -1.821  -0.749  1.00  0.00    -0.264 N 
HETATM   22  N6  UNL     1      -4.905  -2.321  -0.487  1.00  0.00    -0.237 N 
ATOM     23  H5  UNL     1      -3.004  -2.400  -1.288  1.00  0.00     0.190 HD
HETATM   24  N7  UNL     1      -5.792  -1.541   0.246  1.00  0.00    -0.235 N 
ATOM     25  H6  UNL     1      -5.179  -3.244  -0.824  1.00  0.00     0.208 HD
HETATM   26  C8  UNL     1      -5.416  -0.258   0.716  1.00  0.00     0.363 A 
ATOM     27  H7  UNL     1      -6.726  -1.897   0.448  1.00  0.00     0.193 HD
HETATM   28  O2  UNL     1      -6.147   0.505   1.377  1.00  0.00    -0.243 OA
HETATM   29  N8  UNL     1      -4.084   0.195   0.402  1.00  0.00    -0.186 N 
BRANCH  29  30
HETATM   30  N9  UNL     1      -3.707   1.442   0.858  1.00  0.00    -0.332 N 
ATOM     31  H92 UNL     1      -2.765   1.763   0.636  1.00  0.00     0.177 HD
ATOM     32  H91 UNL     1      -4.332   2.041   1.398  1.00  0.00     0.177 HD
ENDBRANCH  29  30
ENDBRANCH  19  20
ENDBRANCH  18  19
ENDBRANCH  17  18
ENDBRANCH   1  17
TORSDOF 8
