REMARK  8 active torsions:
REMARK  status: ('A' for Active; 'I' for Inactive)
REMARK    1  A    between atoms: N1_1  and  C1_4 
REMARK    2  A    between atoms: C2_7  and  N3_8 
REMARK    3  A    between atoms: C3_13  and  N5_14 
REMARK    4  A    between atoms: N5_14  and  C4_16 
REMARK    5  A    between atoms: C4_16  and  C5_17 
REMARK    6  A    between atoms: C5_17  and  N6_18 
REMARK    7  A    between atoms: N6_18  and  C6_20 
REMARK    8  A    between atoms: C6_20  and  C7_21 
ROOT
HETATM    1  N5  UNL     1       2.071  -0.872   0.759  1.00  0.00    -0.224 N 
ATOM      2  H5  UNL     1       1.777  -1.799   0.451  1.00  0.00     0.177 HD
ENDROOT
BRANCH   1   3
HETATM    3  C3  UNL     1       3.233  -0.465   0.409  1.00  0.00     0.707 A 
HETATM    4  N4  UNL     1       4.001  -1.288  -0.348  1.00  0.00    -0.022 N 
HETATM    5  C2  UNL     1       5.214  -0.855  -0.716  1.00  0.00     0.705 A 
ATOM      6  H4  UNL     1       3.665  -2.209  -0.629  1.00  0.00     0.203 HD
HETATM    7  N2  UNL     1       5.678   0.362  -0.354  1.00  0.00    -0.022 N 
HETATM    8  C1  UNL     1       4.897   1.158   0.396  1.00  0.00     0.705 A 
ATOM      9  H2  UNL     1       6.605   0.671  -0.645  1.00  0.00     0.203 HD
HETATM   10  N8  UNL     1       3.673   0.746   0.779  1.00  0.00    -0.022 N 
ATOM     11  H8  UNL     1       3.083   1.353   1.348  1.00  0.00     0.203 HD
BRANCH   5  12
HETATM   12  N3  UNL     1       5.998  -1.598  -1.448  1.00  0.00    -0.234 N 
ATOM     13  H32 UNL     1       6.922  -1.268  -1.728  1.00  0.00     0.174 HD
ATOM     14  H31 UNL     1       5.648  -2.516  -1.721  1.00  0.00     0.174 HD
ENDBRANCH   5  12
BRANCH   8  15
HETATM   15  N1  UNL     1       5.266   2.338   0.774  1.00  0.00    -0.234 N 
ATOM     16  H12 UNL     1       6.193   2.650   0.484  1.00  0.00     0.174 HD
ATOM     17  H11 UNL     1       4.673   2.942   1.343  1.00  0.00     0.174 HD
ENDBRANCH   8  15
ENDBRANCH   1   3
BRANCH   1  18
HETATM   18  C4  UNL     1       1.162  -0.111   1.552  1.00  0.00     0.157 C 
BRANCH  18  19
HETATM   19  C5  UNL     1      -0.267  -0.670   1.412  1.00  0.00     0.139 C 
BRANCH  19  20
HETATM   20  N6  UNL     1      -0.640  -0.553   0.055  1.00  0.00    -0.397 N 
ATOM     21  H6  UNL     1      -0.020  -0.103  -0.619  1.00  0.00     0.158 HD
BRANCH  20  22
HETATM   22  C6  UNL     1      -1.871  -1.064  -0.343  1.00  0.00     0.109 C 
BRANCH  22  23
HETATM   23  C7  UNL     1      -3.035  -0.293   0.260  1.00  0.00     0.268 C 
HETATM   24  N7  UNL     1      -4.271  -1.020   0.050  1.00  0.00    -0.323 N 
HETATM   25  C8  UNL     1      -5.459  -0.592  -0.599  1.00  0.00     0.293 C 
ATOM     26  H7  UNL     1      -4.290  -1.971   0.420  1.00  0.00     0.165 HD
HETATM   27  O1  UNL     1      -6.171  -1.489  -1.122  1.00  0.00    -0.264 OA
HETATM   28  C9  UNL     1      -5.974   0.766  -0.744  1.00  0.00     0.240 C 
HETATM   29  O2  UNL     1      -7.088   0.952  -1.289  1.00  0.00    -0.282 OA
HETATM   30  C10 UNL     1      -5.260   1.968  -0.281  1.00  0.00     0.085 C 
HETATM   31  C11 UNL     1      -3.983   2.077   0.011  1.00  0.00     0.142 C 
HETATM   32  O3  UNL     1      -3.058   1.048  -0.070  1.00  0.00    -0.333 OA
ENDBRANCH  22  23
ENDBRANCH  20  22
ENDBRANCH  19  20
ENDBRANCH  18  19
ENDBRANCH   1  18
TORSDOF 8
