REMARK  8 active torsions:
REMARK  status: ('A' for Active; 'I' for Inactive)
REMARK    1  A    between atoms: C3_8  and  S1_9 
REMARK    2  A    between atoms: S1_9  and  N3_12 
REMARK    3  A    between atoms: N3_12  and  N4_14 
REMARK    4  A    between atoms: N4_14  and  C4_15 
REMARK    5  A    between atoms: N4_14  and  N7_21 
REMARK    6  A    between atoms: C4_15  and  C5_16 
REMARK    7  A    between atoms: N7_21  and  C6_23 
REMARK    8  A    between atoms: C9_28  and  C10_29 
ROOT
HETATM    1  N4  UNL     1      -1.485  -1.198  -0.484  1.00  0.00    -0.216 N 
ENDROOT
BRANCH   1   2
HETATM    2  N3  UNL     1      -1.814  -0.252   0.438  1.00  0.00    -0.204 N 
ATOM      3  H3  UNL     1      -1.085   0.291   0.901  1.00  0.00     0.202 HD
BRANCH   2   4
HETATM    4  S1  UNL     1      -3.430   0.014   0.807  1.00  0.00     0.296 S 
HETATM    5  O2  UNL     1      -4.281  -1.230   0.837  1.00  0.00    -0.197 OA
HETATM    6  O3  UNL     1      -3.497   0.562   2.231  1.00  0.00    -0.197 OA
BRANCH   4   7
HETATM    7  C3  UNL     1      -4.212   1.207  -0.195  1.00  0.00     0.197 A 
HETATM    8  C2  UNL     1      -4.289   2.557   0.038  1.00  0.00     0.072 A 
HETATM    9  C1  UNL     1      -3.738   3.332   1.182  1.00  0.00     0.074 C 
HETATM   10  N1  UNL     1      -4.979   3.077  -0.990  1.00  0.00    -0.243 N 
HETATM   11  O1  UNL     1      -5.292   2.100  -1.784  1.00  0.00    -0.156 OA
ATOM     12  H1  UNL     1      -5.214   4.061  -1.122  1.00  0.00     0.196 HD
HETATM   13  N2  UNL     1      -4.851   0.970  -1.342  1.00  0.00    -0.227 N 
ATOM     14  H2  UNL     1      -4.970   0.061  -1.789  1.00  0.00     0.197 HD
ENDBRANCH   4   7
ENDBRANCH   2   4
ENDBRANCH   1   2
BRANCH   1  15
HETATM   15  C4  UNL     1      -2.034  -2.541  -0.528  1.00  0.00     0.242 C 
BRANCH  15  16
HETATM   16  C5  UNL     1      -1.817  -3.320   0.705  1.00  0.00     0.108 C 
HETATM   17  N5  UNL     1      -1.217  -2.800   1.695  1.00  0.00    -0.390 N 
ATOM     18  H52 UNL     1      -0.876  -1.840   1.647  1.00  0.00     0.157 HD
ATOM     19  H51 UNL     1      -1.067  -3.339   2.548  1.00  0.00     0.157 HD
HETATM   20  N6  UNL     1      -2.289  -4.651   0.772  1.00  0.00    -0.086 NA
ENDBRANCH  15  16
ENDBRANCH   1  15
BRANCH   1  21
HETATM   21  N7  UNL     1      -0.565  -0.847  -1.465  1.00  0.00    -0.262 N 
ATOM     22  H7  UNL     1      -0.848  -0.889  -2.444  1.00  0.00     0.191 HD
BRANCH  21  23
HETATM   23  C6  UNL     1       0.658  -0.463  -1.172  1.00  0.00     0.165 A 
HETATM   24  N8  UNL     1       1.222  -0.339   0.030  1.00  0.00    -0.338 N 
HETATM   25  C7  UNL     1       2.474   0.066   0.097  1.00  0.00     0.029 A 
ATOM     26  H8  UNL     1       0.696  -0.553   0.878  1.00  0.00     0.168 HD
HETATM   27  C8  UNL     1       3.249   0.253   1.400  1.00  0.00     0.070 C 
HETATM   28  C9  UNL     1       3.110   0.334  -1.083  1.00  0.00     0.083 A 
HETATM   29  S2  UNL     1       1.911   0.001  -2.235  1.00  0.00    -0.046 SA
BRANCH  28  30
HETATM   30  C10 UNL     1       4.490   0.798  -1.318  1.00  0.00     0.185 A 
HETATM   31  N9  UNL     1       5.409   1.053  -0.400  1.00  0.00    -0.275 N 
HETATM   32  N10 UNL     1       6.507   1.444  -1.024  1.00  0.00    -0.263 N 
ATOM     33  H9  UNL     1       5.291   0.964   0.609  1.00  0.00     0.189 HD
HETATM   34  C11 UNL     1       6.274   1.433  -2.346  1.00  0.00     0.238 A 
ATOM     35  H10 UNL     1       7.384   1.709  -0.576  1.00  0.00     0.190 HD
HETATM   36  N11 UNL     1       7.093   1.748  -3.299  1.00  0.00    -0.364 N 
HETATM   37  O4  UNL     1       5.015   1.027  -2.474  1.00  0.00    -0.259 OA
ATOM     38 2H11 UNL     1       8.059   2.060  -3.201  1.00  0.00     0.159 HD
ATOM     39 1H11 UNL     1       6.916   1.740  -4.303  1.00  0.00     0.159 HD
ENDBRANCH  28  30
ENDBRANCH  21  23
ENDBRANCH   1  21
TORSDOF 8
