REMARK  7 active torsions:
REMARK  status: ('A' for Active; 'I' for Inactive)
REMARK    1  A    between atoms: O1_2  and  C2_3 
REMARK    2  A    between atoms: C3_4  and  O2_5 
REMARK    3  A    between atoms: C7_12  and  O4_13 
REMARK    4  A    between atoms: C7_12  and  O5_15 
REMARK    5  A    between atoms: O5_15  and  C8_16 
REMARK    6  A    between atoms: C8_16  and  C10_18 
REMARK    7  A    between atoms: C10_18  and  N1_19 
ROOT
HETATM    1  C2  UNL     1      -0.513   0.999   0.514  1.00  0.00     0.217 C 
HETATM    2  C3  UNL     1      -1.938   0.674   0.181  1.00  0.00     0.181 C 
HETATM    3  C4  UNL     1      -2.284  -0.756   0.077  1.00  0.00     0.150 C 
HETATM    4  C5  UNL     1      -3.298  -0.996  -1.054  1.00  0.00     0.042 C 
HETATM    5  O3  UNL     1      -1.273  -1.647  -0.098  1.00  0.00    -0.362 OA
HETATM    6  C6  UNL     1      -0.082  -1.176  -0.554  1.00  0.00     0.259 C 
HETATM    7  S1  UNL     1      -0.103  -0.530  -2.227  1.00  0.00    -0.057 SA
HETATM    8  C7  UNL     1       0.418  -0.173   0.465  1.00  0.00     0.229 C 
ENDROOT
BRANCH   8   9
HETATM    9  O4  UNL     1       0.518  -0.840   1.678  1.00  0.00    -0.361 OA
ATOM     10  H4  UNL     1       1.109  -1.583   1.647  1.00  0.00     0.213 HD
ENDBRANCH   8   9
BRANCH   8  11
HETATM   11  O5  UNL     1       1.715   0.212  -0.019  1.00  0.00    -0.332 OA
BRANCH  11  12
HETATM   12  C8  UNL     1       2.736  -0.671  -0.155  1.00  0.00     0.209 C 
HETATM   13  C9  UNL     1       3.448  -1.218   1.022  1.00  0.00     0.054 C 
BRANCH  12  14
HETATM   14  C10 UNL     1       3.161  -1.098  -1.328  1.00  0.00    -0.045 C 
BRANCH  14  15
HETATM   15  N1  UNL     1       3.683  -1.261  -2.492  1.00  0.00    -0.367 N 
ATOM     16  H12 UNL     1       4.044  -0.307  -2.482  1.00  0.00     0.165 HD
ATOM     17  H11 UNL     1       4.012  -1.591  -3.399  1.00  0.00     0.165 HD
ENDBRANCH  14  15
ENDBRANCH  12  14
ENDBRANCH  11  12
ENDBRANCH   8  11
BRANCH   1  18
HETATM   18  O1  UNL     1      -0.499   1.699   1.682  1.00  0.00    -0.382 OA
HETATM   19  C1  UNL     1      -0.080   2.997   1.632  1.00  0.00     0.202 C 
ENDBRANCH   1  18
BRANCH   2  20
HETATM   20  O2  UNL     1      -2.354   1.302  -1.022  1.00  0.00    -0.390 OA
ATOM     21  H2  UNL     1      -3.257   1.096  -1.233  1.00  0.00     0.210 HD
ENDBRANCH   2  20
TORSDOF 7
