REMARK  3 active torsions:
REMARK  status: ('A' for Active; 'I' for Inactive)
REMARK    1  A    between atoms: C2_2  and  O1_5 
REMARK    2  A    between atoms: O1_5  and  N1_6 
REMARK    3  A    between atoms: C5_8  and  C6_9 
ROOT
HETATM    1  N1  UNL     1      -0.092  -0.394   0.702  1.00  0.00    -0.281 N 
ATOM      2  H1  UNL     1       0.548  -0.735   1.419  1.00  0.00     0.193 HD
HETATM    3  C5  UNL     1       0.439   0.193  -0.291  1.00  0.00     0.093 C 
ENDROOT
BRANCH   3   4
HETATM    4  C6  UNL     1       1.898   0.344  -0.350  1.00  0.00     0.053 C 
HETATM    5  C7  UNL     1       2.635  -0.971  -0.269  1.00  0.00     0.039 C 
HETATM    6  C8  UNL     1       4.025  -0.465   0.121  1.00  0.00     0.233 C 
HETATM    7  N2  UNL     1       3.738   0.521   1.143  1.00  0.00    -0.074 N 
HETATM    8  C9  UNL     1       2.462   1.113   0.815  1.00  0.00     0.242 C 
ATOM      9  H22 UNL     1       3.771   0.139   2.088  1.00  0.00     0.277 HD
ATOM     10  H21 UNL     1       4.482   1.210   1.255  1.00  0.00     0.277 HD
ENDBRANCH   3   4
BRANCH   1  11
HETATM   11  O1  UNL     1      -1.404  -0.619   0.918  1.00  0.00    -0.271 OA
BRANCH  11  12
HETATM   12  C2  UNL     1      -2.459  -0.183   0.085  1.00  0.00     0.078 C 
HETATM   13  C1  UNL     1      -2.458   1.344  -0.027  1.00  0.00     0.048 C 
HETATM   14  C3  UNL     1      -2.386  -0.841  -1.259  1.00  0.00     0.048 C 
HETATM   15  C4  UNL     1      -3.785  -0.565   0.710  1.00  0.00     0.048 C 
ENDBRANCH  11  12
ENDBRANCH   1  11
TORSDOF 3
