REMARK  5 active torsions:
REMARK  status: ('A' for Active; 'I' for Inactive)
REMARK    1  A    between atoms: C3_5  and  C4_6 
REMARK    2  A    between atoms: C12_15  and  C13_16 
REMARK    3  A    between atoms: C13_16  and  O1_17 
REMARK    4  A    between atoms: C13_16  and  C14_19 
REMARK    5  A    between atoms: C14_19  and  N3_20 
ROOT
HETATM    1  C4  UNL     1       1.262  -0.513   0.317  1.00  0.00     0.241 C 
HETATM    2  C5  UNL     1       0.604  -1.634  -0.465  1.00  0.00     0.076 C 
HETATM    3  C6  UNL     1      -0.723  -1.068  -0.968  1.00  0.00     0.155 C 
HETATM    4  C7  UNL     1      -1.830  -1.889  -0.713  1.00  0.00    -0.158 C 
HETATM    5  C8  UNL     1      -3.015  -2.589  -0.397  1.00  0.00     0.086 C 
HETATM    6  C9  UNL     1      -3.829  -1.653   0.560  1.00  0.00     0.040 C 
HETATM    7  C10 UNL     1      -3.380  -0.200   0.431  1.00  0.00    -0.009 C 
HETATM    8  C11 UNL     1      -2.012   0.224   0.642  1.00  0.00     0.085 C 
HETATM    9  N2  UNL     1      -0.990   0.244  -0.295  1.00  0.00    -0.346 N 
HETATM   10  C12 UNL     1      -0.079   1.214  -0.534  1.00  0.00     0.318 C 
HETATM   11  N4  UNL     1       1.275   0.620  -0.572  1.00  0.00    -0.042 N 
ATOM     12  H41 UNL     1       1.584   0.386  -1.516  1.00  0.00     0.280 HD
ATOM     13  H42 UNL     1       2.013   1.290  -0.356  1.00  0.00     0.280 HD
ENDROOT
BRANCH  10  14
HETATM   14  C13 UNL     1       0.011   2.489   0.179  1.00  0.00     0.193 C 
BRANCH  14  15
HETATM   15  O1  UNL     1       0.191   2.486   1.538  1.00  0.00    -0.390 OA
ATOM     16  H1  UNL     1       0.249   3.314   2.001  1.00  0.00     0.210 HD
ENDBRANCH  14  15
BRANCH  14  17
HETATM   17  C14 UNL     1      -0.996   3.556  -0.176  1.00  0.00     0.265 C 
BRANCH  17  18
HETATM   18  N3  UNL     1      -1.252   3.612  -1.602  1.00  0.00    -0.077 N 
ATOM     19  H33 UNL     1      -0.386   3.731  -2.128  1.00  0.00     0.274 HD
ATOM     20  H32 UNL     1      -1.536   2.701  -1.962  1.00  0.00     0.274 HD
ATOM     21  H31 UNL     1      -1.932   4.333  -1.842  1.00  0.00     0.274 HD
ENDBRANCH  17  18
ENDBRANCH  14  17
ENDBRANCH  10  14
BRANCH   1  22
HETATM   22  C3  UNL     1       2.690  -0.899   0.666  1.00  0.00     0.047 A 
HETATM   23  N1  UNL     1       3.604  -0.960  -0.267  1.00  0.00    -0.355 N 
HETATM   24  C2  UNL     1       4.838  -1.296   0.051  1.00  0.00     0.047 A 
ATOM     25  H1  UNL     1       3.363  -0.749  -1.235  1.00  0.00     0.166 HD
HETATM   26  C1  UNL     1       6.007  -1.413  -0.895  1.00  0.00     0.076 C 
HETATM   27  S1  UNL     1       4.738  -1.545   1.733  1.00  0.00    -0.087 SA
HETATM   28  C15 UNL     1       3.081  -1.196   1.944  1.00  0.00     0.078 A 
ENDBRANCH   1  22
TORSDOF 5
