REMARK  4 active torsions:
REMARK  status: ('A' for Active; 'I' for Inactive)
REMARK    1  A    between atoms: N4_13  and  C6_14 
REMARK    2  A    between atoms: C14_23  and  C15_24 
REMARK    3  A    between atoms: C15_24  and  C16_25 
REMARK    4  A    between atoms: C16_25  and  O1_26 
ROOT
HETATM    1  C6  UNL     1       1.253   0.271   0.084  1.00  0.00     0.109 C 
HETATM    2  C7  UNL     1       2.006  -0.270  -1.156  1.00  0.00     0.027 C 
HETATM    3  C8  UNL     1       2.912  -1.353  -0.625  1.00  0.00     0.004 C 
HETATM    4  C9  UNL     1       3.687  -0.884   0.583  1.00  0.00     0.019 C 
HETATM    5  C10 UNL     1       3.666   0.590   0.764  1.00  0.00     0.095 C 
HETATM    6  C11 UNL     1       4.659   1.232  -0.130  1.00  0.00     0.064 C 
HETATM    7  N5  UNL     1       5.428   1.729  -0.836  1.00  0.00    -0.197 NA
HETATM    8  C12 UNL     1       2.352   1.261   0.629  1.00  0.00     0.046 C 
ENDROOT
BRANCH   1   9
HETATM    9  N4  UNL     1       0.176   1.115  -0.292  1.00  0.00    -0.286 N 
HETATM   10  N3  UNL     1       0.348   2.364  -0.818  1.00  0.00    -0.308 N 
HETATM   11  C5  UNL     1      -0.792   2.922  -1.100  1.00  0.00     0.124 A 
ATOM     12  H3  UNL     1       1.256   2.803  -0.970  1.00  0.00     0.186 HD
HETATM   13  C4  UNL     1      -1.801   2.049  -0.765  1.00  0.00     0.053 A 
HETATM   14  C3  UNL     1      -3.170   2.106  -0.851  1.00  0.00     0.113 A 
HETATM   15  C13 UNL     1      -1.143   0.908  -0.252  1.00  0.00     0.074 A 
HETATM   16  N1  UNL     1      -3.874   1.051  -0.435  1.00  0.00    -0.345 N 
HETATM   17  N2  UNL     1      -3.715   3.176  -1.328  1.00  0.00    -0.385 N 
HETATM   18  C2  UNL     1      -3.287  -0.052   0.060  1.00  0.00     0.015 A 
ATOM     19  H1  UNL     1      -4.892   1.083  -0.495  1.00  0.00     0.167 HD
HETATM   20  C1  UNL     1      -4.161  -1.186   0.519  1.00  0.00     0.069 C 
HETATM   21  C14 UNL     1      -1.902  -0.172   0.172  1.00  0.00    -0.004 A 
ATOM     22  H22 UNL     1      -4.732   3.218  -1.392  1.00  0.00     0.157 HD
ATOM     23  H21 UNL     1      -3.177   3.982  -1.646  1.00  0.00     0.157 HD
BRANCH  21  24
HETATM   24  C15 UNL     1      -1.255  -1.369   0.692  1.00  0.00     0.069 C 
BRANCH  24  25
HETATM   25  C16 UNL     1      -1.075  -2.510  -0.275  1.00  0.00     0.168 C 
BRANCH  25  26
HETATM   26  O1  UNL     1      -0.428  -3.594   0.367  1.00  0.00    -0.401 OA
ATOM     27  H1  UNL     1      -0.314  -4.314  -0.243  1.00  0.00     0.209 HD
ENDBRANCH  25  26
ENDBRANCH  24  25
ENDBRANCH  21  24
ENDBRANCH   1   9
TORSDOF 4
