REMARK  4 active torsions:
REMARK  status: ('A' for Active; 'I' for Inactive)
REMARK    1  A    between atoms: C2_2  and  C4_4 
REMARK    2  A    between atoms: C9_14  and  C10_15 
REMARK    3  A    between atoms: C11_18  and  O1_19 
REMARK    4  A    between atoms: C13_23  and  O2_24 
ROOT
HETATM    1  C4  UNL     1      -1.749  -0.446   0.251  1.00  0.00     0.001 A 
HETATM    2  S1  UNL     1      -2.833   0.798  -0.417  1.00  0.00    -0.074 SA
HETATM    3  C5  UNL     1      -1.925   2.191   0.238  1.00  0.00     0.098 A 
HETATM    4  N1  UNL     1      -1.887   3.549   0.312  1.00  0.00    -0.293 N 
ATOM      5  H1  UNL     1      -2.563   4.183  -0.115  1.00  0.00     0.187 HD
HETATM    6  N2  UNL     1      -0.840   3.917   1.022  1.00  0.00    -0.304 N 
ATOM      7  H2  UNL     1      -0.563   4.874   1.240  1.00  0.00     0.186 HD
HETATM    8  C6  UNL     1      -0.203   2.795   1.406  1.00  0.00     0.032 A 
HETATM    9  C7  UNL     1       1.040   2.858   2.235  1.00  0.00     0.070 C 
HETATM   10  C8  UNL     1      -0.875   1.680   0.919  1.00  0.00     0.016 A 
HETATM   11  C9  UNL     1      -0.706   0.245   0.980  1.00  0.00     0.118 A 
ENDROOT
BRANCH  11  12
HETATM   12  C10 UNL     1       0.594  -0.110   0.305  1.00  0.00     0.077 A 
HETATM   13  N3  UNL     1       1.720  -0.546   0.885  1.00  0.00    -0.321 N 
HETATM   14  C11 UNL     1       2.661  -0.750  -0.044  1.00  0.00     0.225 A 
ATOM     15  H3  UNL     1       1.842  -0.700   1.886  1.00  0.00     0.169 HD
HETATM   16  N4  UNL     1       2.122  -0.439  -1.228  1.00  0.00    -0.296 N 
HETATM   17  C12 UNL     1       2.818  -0.519  -2.531  1.00  0.00     0.162 C 
HETATM   18  C13 UNL     1       0.864  -0.047  -1.034  1.00  0.00     0.169 A 
BRANCH  14  19
HETATM   19  O1  UNL     1       3.978  -1.207   0.161  1.00  0.00    -0.332 OA
ATOM     20  H1  UNL     1       4.646  -1.352  -0.499  1.00  0.00     0.221 HD
ENDBRANCH  14  19
BRANCH  18  21
HETATM   21  O2  UNL     1      -0.028   0.362  -2.044  1.00  0.00    -0.344 OA
ATOM     22  H2  UNL     1       0.160   0.406  -2.974  1.00  0.00     0.219 HD
ENDBRANCH  18  21
ENDBRANCH  11  12
BRANCH   1  23
HETATM   23  C2  UNL     1      -1.897  -1.732   0.094  1.00  0.00    -0.073 C 
HETATM   24  C1  UNL     1      -0.947  -2.707   0.685  1.00  0.00     0.044 C 
HETATM   25  C3  UNL     1      -3.031  -2.289  -0.689  1.00  0.00     0.044 C 
ENDBRANCH   1  23
TORSDOF 4
