REMARK  1 active torsions:
REMARK  status: ('A' for Active; 'I' for Inactive)
REMARK    1  A    between atoms: N4_9  and  N5_11 
ROOT
HETATM    1  N1  UNL     1       6.639  -1.232  -0.351  1.00  0.00    -0.191 NA
HETATM    2  C1  UNL     1       5.538  -0.878  -0.410  1.00  0.00     0.105 C 
HETATM    3  C2  UNL     1       4.141  -0.445  -0.507  1.00  0.00     0.114 A 
HETATM    4  C3  UNL     1       3.673   0.412   0.464  1.00  0.00     0.141 A 
HETATM    5  N2  UNL     1       4.596   0.819   1.505  1.00  0.00    -0.081 NA
HETATM    6  N3  UNL     1       2.441   0.917   0.553  1.00  0.00    -0.323 N 
ATOM      7  H3  UNL     1       2.261   1.539   1.341  1.00  0.00     0.169 HD
HETATM    8  C4  UNL     1       1.424   0.699  -0.271  1.00  0.00     0.166 A 
HETATM    9  N4  UNL     1       0.269   1.265  -0.057  1.00  0.00    -0.278 N 
ATOM     10  H4  UNL     1       0.102   1.886   0.735  1.00  0.00     0.189 HD
HETATM   11  S1  UNL     1       1.772  -0.347  -1.568  1.00  0.00    -0.039 SA
HETATM   12  C10 UNL     1       3.376  -0.913  -1.554  1.00  0.00     0.099 A 
HETATM   13  S2  UNL     1       4.006  -1.928  -2.666  1.00  0.00    -0.070 SA
ENDROOT
BRANCH   9  14
HETATM   14  N5  UNL     1      -0.731   0.956  -1.000  1.00  0.00    -0.287 N 
HETATM   15  C5  UNL     1      -1.769   0.366  -0.577  1.00  0.00     0.091 C 
HETATM   16  C6  UNL     1      -1.982  -0.015   0.866  1.00  0.00     0.077 C 
HETATM   17  N6  UNL     1      -2.832   0.014  -1.459  1.00  0.00    -0.379 N 
HETATM   18  C7  UNL     1      -3.421   0.333   1.176  1.00  0.00     0.009 C 
HETATM   19  C8  UNL     1      -4.405  -0.372   0.293  1.00  0.00     0.020 C 
HETATM   20  C9  UNL     1      -3.781  -0.962  -0.953  1.00  0.00     0.121 C 
ATOM     21  H6  UNL     1      -2.921   0.423  -2.389  1.00  0.00     0.160 HD
ATOM     22  H5  UNL     1      -0.623   1.198  -1.985  1.00  0.00     0.188 HD
ENDBRANCH   9  14
TORSDOF 1
