REMARK  4 active torsions:
REMARK  status: ('A' for Active; 'I' for Inactive)
REMARK    1  A    between atoms: C2_2  and  N1_5 
REMARK    2  A    between atoms: C12_18  and  C13_19 
REMARK    3  A    between atoms: C13_19  and  O1_20 
REMARK    4  A    between atoms: N5_22  and  O2_24 
ROOT
HETATM    1  N1  UNL     1      -1.788   0.829  -0.237  1.00  0.00    -0.331 N 
HETATM    2  C5  UNL     1      -1.131   1.813  -0.932  1.00  0.00     0.184 A 
HETATM    3  N2  UNL     1       0.180   1.648  -0.919  1.00  0.00    -0.350 N 
ATOM      4  H2  UNL     1       0.864   2.256  -1.369  1.00  0.00     0.166 HD
HETATM    5  C6  UNL     1       0.454   0.551  -0.217  1.00  0.00     0.070 A 
HETATM    6  C7  UNL     1       1.662  -0.024   0.074  1.00  0.00    -0.000 A 
HETATM    7  C8  UNL     1       1.662  -1.176   0.832  1.00  0.00     0.039 A 
HETATM    8  C9  UNL     1       0.461  -1.695   1.261  1.00  0.00     0.058 A 
HETATM    9  C10 UNL     1      -0.771  -1.106   0.963  1.00  0.00     0.077 A 
HETATM   10  N3  UNL     1      -1.952  -1.703   1.440  1.00  0.00    -0.100 NA
HETATM   11  C11 UNL     1      -0.778   0.037   0.211  1.00  0.00     0.088 A 
HETATM   12  N4  UNL     1       3.015  -1.590   0.994  1.00  0.00    -0.377 N 
ATOM     13  H4  UNL     1       3.379  -2.196   1.729  1.00  0.00     0.160 HD
HETATM   14  C12 UNL     1       3.790  -0.977  -0.101  1.00  0.00     0.162 C 
HETATM   15  C14 UNL     1       3.077   0.357  -0.267  1.00  0.00     0.076 C 
ENDROOT
BRANCH  14  16
HETATM   16  C13 UNL     1       5.201  -0.809   0.256  1.00  0.00     0.159 C 
HETATM   17  N5  UNL     1       5.863   0.235  -0.020  1.00  0.00    -0.249 N 
ATOM     18  H5  UNL     1       6.835   0.223   0.288  1.00  0.00     0.196 HD
BRANCH  16  19
HETATM   19  O1  UNL     1       5.889  -1.850   0.943  1.00  0.00    -0.347 OA
ATOM     20  H1  UNL     1       6.804  -1.741   1.174  1.00  0.00     0.219 HD
ENDBRANCH  16  19
BRANCH  17  21
HETATM   21  O2  UNL     1       5.480   1.363  -0.660  1.00  0.00    -0.288 OA
ATOM     22  H2  UNL     1       5.977   2.146  -0.867  1.00  0.00     0.244 HD
ENDBRANCH  17  21
ENDBRANCH  14  16
BRANCH   1  23
HETATM   23  C2  UNL     1      -3.221   0.720  -0.059  1.00  0.00     0.027 C 
HETATM   24  C1  UNL     1      -3.780   1.952  -0.836  1.00  0.00     0.038 C 
HETATM   25  C3  UNL     1      -3.888  -0.407  -0.775  1.00  0.00     0.038 C 
HETATM   26  C4  UNL     1      -3.711   0.998   1.333  1.00  0.00     0.038 C 
ENDBRANCH   1  23
TORSDOF 4
