REMARK  2 active torsions:
REMARK  status: ('A' for Active; 'I' for Inactive)
REMARK    1  A    between atoms: S1_2  and  C2_3 
REMARK    2  A    between atoms: C11_16  and  N3_17 
REMARK       I    between atoms: N3_17  and  C12_19 
ROOT
HETATM    1  C2  UNL     1       2.913  -0.958  -0.385  1.00  0.00     0.092 A 
HETATM    2  N1  UNL     1       1.979  -1.767  -0.679  1.00  0.00    -0.259 N 
ATOM      3  H1  UNL     1       2.250  -2.723  -0.910  1.00  0.00     0.195 HD
HETATM    4  O1  UNL     1       0.650  -1.475  -0.714  1.00  0.00    -0.258 OA
HETATM    5  C3  UNL     1       0.162  -0.212  -0.420  1.00  0.00     0.148 A 
HETATM    6  C4  UNL     1      -0.515   0.425  -1.617  1.00  0.00     0.018 C 
HETATM    7  C5  UNL     1      -1.810   0.670  -1.834  1.00  0.00     0.010 C 
HETATM    8  C6  UNL     1      -2.855   0.337  -0.880  1.00  0.00     0.279 A 
HETATM    9  C7  UNL     1      -2.626  -1.168  -0.611  1.00  0.00     0.260 A 
HETATM   10  C8  UNL     1      -1.897  -1.209   0.665  1.00  0.00     0.042 C 
HETATM   11  C9  UNL     1      -0.762  -0.217   0.774  1.00  0.00     0.054 C 
HETATM   12  N2  UNL     1      -3.854  -0.611  -0.936  1.00  0.00     0.101 N 
HETATM   13  C10 UNL     1      -4.974  -0.499  -0.059  1.00  0.00     0.311 C 
HETATM   14  C11 UNL     1       1.274   0.714  -0.081  1.00  0.00     0.055 A 
HETATM   15  C13 UNL     1       2.537   0.411  -0.054  1.00  0.00     0.067 A 
ENDROOT
BRANCH  14  16
HETATM   16  N3  UNL     1       0.878   2.059   0.242  1.00  0.00    -0.331 N 
HETATM   17  C12 UNL     1       1.427   2.789   1.323  1.00  0.00     0.186 C 
HETATM   18  N4  UNL     1       2.333   3.667   1.065  1.00  0.00    -0.374 N 
HETATM   19  N5  UNL     1       1.043   2.618   2.678  1.00  0.00    -0.064 NA
ATOM     20  H42 UNL     1       2.609   3.790   0.091  1.00  0.00     0.158 HD
ATOM     21  H41 UNL     1       2.729   4.193   1.844  1.00  0.00     0.158 HD
ATOM     22  H3  UNL     1       0.167   2.508  -0.336  1.00  0.00     0.168 HD
ENDBRANCH  14  16
BRANCH   1  23
HETATM   23  S1  UNL     1       4.647  -1.382  -0.351  1.00  0.00    -0.115 SA
HETATM   24  C1  UNL     1       4.850  -3.120  -0.795  1.00  0.00     0.097 C 
ENDBRANCH   1  23
TORSDOF 2
