REMARK  15 active torsions:
REMARK  status: ('A' for Active; 'I' for Inactive)
REMARK    1  A    between atoms: N1_1  and  N2_4 
REMARK       I    between atoms: N2_4  and  C1_6 
REMARK    2  A    between atoms: C1_6  and  O2_8 
REMARK    3  A    between atoms: O2_8  and  C2_9 
REMARK    4  A    between atoms: N4_11  and  C3_12 
REMARK    5  A    between atoms: C6_15  and  O3_16 
REMARK    6  A    between atoms: C7_19  and  C8_20 
REMARK    7  A    between atoms: C8_20  and  O5_21 
REMARK    8  A    between atoms: C8_20  and  C9_23 
REMARK    9  A    between atoms: C11_29  and  C12_30 
REMARK   10  A    between atoms: C11_29  and  C13_33 
REMARK   11  A    between atoms: C12_30  and  O8_31 
REMARK   12  A    between atoms: C13_33  and  O9_34 
REMARK   13  A    between atoms: C15_37  and  O10_38 
REMARK   14  A    between atoms: C16_40  and  O11_41 
REMARK   15  A    between atoms: C17_43  and  O12_44 
ROOT
HETATM    1  C3  UNL     1      -0.606  -0.316   0.436  1.00  0.00     0.118 C 
HETATM    2  C4  UNL     1      -1.957  -0.368  -0.130  1.00  0.00     0.060 C 
HETATM    3  C5  UNL     1      -2.234   0.249  -1.442  1.00  0.00     0.073 C 
HETATM    4  C6  UNL     1      -3.591   0.969  -1.346  1.00  0.00     0.258 C 
HETATM    5  O4  UNL     1      -4.500   0.220  -0.601  1.00  0.00    -0.347 OA
HETATM    6  C7  UNL     1      -4.241   0.247   0.759  1.00  0.00     0.209 C 
HETATM    7  C10 UNL     1      -2.751   0.382   0.880  1.00  0.00     0.021 C 
HETATM    8  N5  UNL     1      -1.997   1.024   1.676  1.00  0.00    -0.379 N 
ATOM      9  H5  UNL     1      -2.337   1.603   2.444  1.00  0.00     0.160 HD
HETATM   10  C11 UNL     1      -0.599   0.835   1.361  1.00  0.00     0.090 C 
ENDROOT
BRANCH   1  11
HETATM   11  N4  UNL     1       0.482  -0.297  -0.505  1.00  0.00    -0.222 NA
HETATM   12  N3  UNL     1       1.645  -0.424   0.305  1.00  0.00    -0.129 NA
HETATM   13  C2  UNL     1       2.863  -0.330  -0.424  1.00  0.00     0.272 C 
HETATM   14  C17 UNL     1       3.222  -1.593  -1.180  1.00  0.00     0.196 C 
HETATM   15  C16 UNL     1       2.672  -1.561  -2.589  1.00  0.00     0.180 C 
HETATM   16  C15 UNL     1       1.193  -1.322  -2.637  1.00  0.00     0.164 C 
HETATM   17  C14 UNL     1       0.502  -1.500  -1.329  1.00  0.00     0.144 C 
BRANCH  13  18
HETATM   18  O2  UNL     1       3.894  -0.166   0.564  1.00  0.00    -0.277 OA
BRANCH  18  19
HETATM   19  C1  UNL     1       4.713   0.926   0.626  1.00  0.00     0.380 C 
HETATM   20  N2  UNL     1       5.702   0.993   1.640  1.00  0.00    -0.252 N 
ATOM     21  H2  UNL     1       5.775   0.218   2.300  1.00  0.00     0.191 HD
HETATM   22  O1  UNL     1       4.548   1.829  -0.232  1.00  0.00    -0.237 OA
BRANCH  20  23
HETATM   23  N1  UNL     1       6.587   2.078   1.779  1.00  0.00    -0.341 N 
ATOM     24  H12 UNL     1       6.500   2.844   1.111  1.00  0.00     0.177 HD
ATOM     25  H11 UNL     1       7.298   2.126   2.508  1.00  0.00     0.177 HD
ENDBRANCH  20  23
ENDBRANCH  18  19
ENDBRANCH  13  18
BRANCH  14  26
HETATM   26  O12 UNL     1       4.631  -1.634  -1.330  1.00  0.00    -0.389 OA
ATOM     27  H12 UNL     1       4.856  -2.426  -1.804  1.00  0.00     0.210 HD
ENDBRANCH  14  26
BRANCH  15  28
HETATM   28  O11 UNL     1       3.387  -0.558  -3.269  1.00  0.00    -0.390 OA
ATOM     29  H11 UNL     1       4.324  -0.709  -3.239  1.00  0.00     0.210 HD
ENDBRANCH  15  28
BRANCH  16  30
HETATM   30  O10 UNL     1       0.981  -0.054  -3.181  1.00  0.00    -0.392 OA
ATOM     31  H10 UNL     1       1.422   0.059  -4.015  1.00  0.00     0.210 HD
ENDBRANCH  16  30
ENDBRANCH   1  11
BRANCH  10  32
HETATM   32  C12 UNL     1      -0.018   2.085   0.756  1.00  0.00     0.199 C 
BRANCH  32  33
HETATM   33  O8  UNL     1      -0.133   3.173   1.657  1.00  0.00    -0.398 OA
ATOM     34  H8  UNL     1       0.234   3.962   1.275  1.00  0.00     0.209 HD
ENDBRANCH  32  33
ENDBRANCH  10  32
BRANCH  10  35
HETATM   35  C13 UNL     1       0.056   0.514   2.709  1.00  0.00     0.199 C 
BRANCH  35  36
HETATM   36  O9  UNL     1      -0.142   1.571   3.603  1.00  0.00    -0.398 OA
ATOM     37  H9  UNL     1       0.264   1.372   4.439  1.00  0.00     0.209 HD
ENDBRANCH  35  36
ENDBRANCH  10  35
BRANCH   4  38
HETATM   38  O3  UNL     1      -3.444   2.262  -0.879  1.00  0.00    -0.371 OA
ATOM     39  H3  UNL     1      -4.282   2.706  -0.820  1.00  0.00     0.212 HD
ENDBRANCH   4  38
BRANCH   6  40
HETATM   40  C8  UNL     1      -4.623  -1.057   1.421  1.00  0.00     0.253 C 
BRANCH  40  41
HETATM   41  O5  UNL     1      -4.357  -1.025   2.794  1.00  0.00    -0.382 OA
ATOM     42  H5  UNL     1      -4.597  -1.845   3.210  1.00  0.00     0.210 HD
ENDBRANCH  40  41
BRANCH  40  43
HETATM   43  C9  UNL     1      -6.051  -1.387   1.162  1.00  0.00     0.205 C 
HETATM   44  O6  UNL     1      -6.823  -1.592   2.126  1.00  0.00    -0.646 OA
HETATM   45  O7  UNL     1      -6.490  -1.460  -0.141  1.00  0.00    -0.646 OA
ENDBRANCH  40  43
ENDBRANCH   6  40
TORSDOF 15
