REMARK  14 active torsions:
REMARK  status: ('A' for Active; 'I' for Inactive)
REMARK    1  A    between atoms: C2_2  and  C3_3 
REMARK    2  A    between atoms: C3_3  and  N1_4 
REMARK    3  A    between atoms: C3_3  and  C15_20 
REMARK       I    between atoms: N1_4  and  C4_6 
REMARK    4  A    between atoms: C4_6  and  C5_8 
REMARK    5  A    between atoms: C5_8  and  C6_9 
REMARK    6  A    between atoms: C5_8  and  C10_13 
REMARK    7  A    between atoms: C15_20  and  C16_22 
REMARK    8  A    between atoms: C16_22  and  C17_24 
REMARK    9  A    between atoms: C17_24  and  C18_25 
REMARK   10  A    between atoms: C17_24  and  N2_31 
REMARK   11  A    between atoms: C18_25  and  C19_26 
REMARK       I    between atoms: N2_31  and  C24_33 
REMARK   12  A    between atoms: C24_33  and  C25_35 
REMARK   13  A    between atoms: C25_35  and  N3_36 
REMARK   14  A    between atoms: C25_35  and  C29_43 
REMARK       I    between atoms: N3_36  and  C26_38 
REMARK       I    between atoms: C26_38  and  N4_40 
ROOT
HETATM    1  C16 UNL     1       0.681  -0.422   1.474  1.00  0.00     0.219 C 
HETATM    2  O5  UNL     1       1.108   0.425   2.317  1.00  0.00    -0.287 OA
ENDROOT
BRANCH   1   3
HETATM    3  C15 UNL     1      -0.738  -0.490   1.219  1.00  0.00     0.219 C 
HETATM    4  O4  UNL     1      -1.153  -1.384   0.437  1.00  0.00    -0.287 OA
BRANCH   3   5
HETATM    5  C3  UNL     1      -1.766   0.395   1.794  1.00  0.00     0.162 C 
BRANCH   5   6
HETATM    6  C2  UNL     1      -1.484   1.884   1.452  1.00  0.00     0.029 C 
HETATM    7  C1  UNL     1      -2.430   2.735   2.279  1.00  0.00     0.007 C 
ENDBRANCH   5   6
BRANCH   5   8
HETATM    8  N1  UNL     1      -3.119   0.051   1.497  1.00  0.00    -0.349 N 
HETATM    9  C4  UNL     1      -3.924   0.470   0.433  1.00  0.00     0.226 C 
HETATM   10  O1  UNL     1      -3.500   1.261  -0.479  1.00  0.00    -0.273 OA
ATOM     11  H1  UNL     1      -3.562  -0.592   2.154  1.00  0.00     0.163 HD
BRANCH   9  12
HETATM   12  C5  UNL     1      -5.385   0.053   0.227  1.00  0.00     0.122 C 
BRANCH  12  13
HETATM   13  C6  UNL     1      -5.390  -1.291  -0.330  1.00  0.00    -0.036 C 
HETATM   14  C7  UNL     1      -6.747  -1.892  -0.634  1.00  0.00     0.015 C 
HETATM   15  C8  UNL     1      -4.538  -1.500  -1.562  1.00  0.00     0.015 C 
HETATM   16  C9  UNL     1      -4.805  -2.302   0.691  1.00  0.00     0.015 C 
ENDBRANCH  12  13
BRANCH  12  17
HETATM   17  C10 UNL     1      -6.053   1.190  -0.487  1.00  0.00     0.105 C 
HETATM   18  C11 UNL     1      -5.822   2.404   0.464  1.00  0.00     0.050 C 
HETATM   19  C12 UNL     1      -7.524   1.145  -0.669  1.00  0.00     0.044 C 
HETATM   20  C13 UNL     1      -7.936   1.422  -2.116  1.00  0.00     0.032 C 
HETATM   21  C14 UNL     1      -7.169   2.604  -2.660  1.00  0.00     0.210 C 
HETATM   22  O2  UNL     1      -5.908   2.698  -2.063  1.00  0.00    -0.240 OA
HETATM   23  O3  UNL     1      -5.466   1.530  -1.675  1.00  0.00    -0.229 OA
ENDBRANCH  12  17
ENDBRANCH   9  12
ENDBRANCH   5   8
ENDBRANCH   3   5
ENDBRANCH   1   3
BRANCH   1  24
HETATM   24  C17 UNL     1       1.709  -1.264   0.834  1.00  0.00     0.163 C 
BRANCH  24  25
HETATM   25  C18 UNL     1       1.667  -1.154  -0.662  1.00  0.00     0.038 C 
BRANCH  25  26
HETATM   26  C19 UNL     1       2.700  -2.018  -1.364  1.00  0.00    -0.012 C 
HETATM   27  C20 UNL     1       2.445  -3.488  -0.991  1.00  0.00     0.005 C 
HETATM   28  C21 UNL     1       2.987  -4.267  -2.167  1.00  0.00     0.000 C 
HETATM   29  C22 UNL     1       3.142  -3.290  -3.310  1.00  0.00     0.000 C 
HETATM   30  C23 UNL     1       2.360  -2.096  -2.861  1.00  0.00     0.005 C 
ENDBRANCH  25  26
ENDBRANCH  24  25
BRANCH  24  31
HETATM   31  N2  UNL     1       3.015  -0.996   1.404  1.00  0.00    -0.347 N 
HETATM   32  C24 UNL     1       3.959  -0.040   1.026  1.00  0.00     0.241 C 
HETATM   33  O6  UNL     1       3.646   0.740   0.044  1.00  0.00    -0.271 OA
ATOM     34  H2  UNL     1       3.281  -1.589   2.191  1.00  0.00     0.163 HD
BRANCH  32  35
HETATM   35  C25 UNL     1       5.279   0.135   1.675  1.00  0.00     0.181 C 
BRANCH  35  36
HETATM   36  N3  UNL     1       5.930   1.348   1.110  1.00  0.00    -0.329 N 
HETATM   37  C26 UNL     1       6.224   2.484   1.891  1.00  0.00     0.318 C 
HETATM   38  O7  UNL     1       5.927   2.485   3.119  1.00  0.00    -0.247 OA
HETATM   39  N4  UNL     1       6.845   3.636   1.351  1.00  0.00    -0.343 N 
HETATM   40  C27 UNL     1       7.193   3.662  -0.068  1.00  0.00     0.154 C 
HETATM   41  C28 UNL     1       7.156   4.800   2.155  1.00  0.00     0.154 C 
ATOM     42  H3  UNL     1       6.173   1.358   0.119  1.00  0.00     0.165 HD
ENDBRANCH  35  36
BRANCH  35  43
HETATM   43  C29 UNL     1       6.230  -1.003   1.581  1.00  0.00     0.009 C 
HETATM   44  C30 UNL     1       5.792  -2.289   2.176  1.00  0.00     0.012 C 
HETATM   45  C31 UNL     1       6.732  -1.252   0.173  1.00  0.00     0.012 C 
ENDBRANCH  35  43
ENDBRANCH  32  35
ENDBRANCH  24  31
ENDBRANCH   1  24
TORSDOF 14
