REMARK  16 active torsions:
REMARK  status: ('A' for Active; 'I' for Inactive)
REMARK    1  A    between atoms: C2_2  and  C5_5 
REMARK    2  A    between atoms: C8_8  and  C9_9 
REMARK    3  A    between atoms: C9_9  and  O1_10 
REMARK    4  A    between atoms: C9_9  and  C10_12 
REMARK    5  A    between atoms: C12_16  and  C13_17 
REMARK    6  A    between atoms: C13_17  and  O4_18 
REMARK    7  A    between atoms: C13_17  and  C23_34 
REMARK    8  A    between atoms: O4_18  and  C14_19 
REMARK    9  A    between atoms: C14_19  and  C15_21 
REMARK   10  A    between atoms: C15_21  and  C16_22 
REMARK   11  A    between atoms: C16_22  and  C17_23 
REMARK   12  A    between atoms: C17_23  and  C18_24 
REMARK   13  A    between atoms: C18_24  and  C19_25 
REMARK   14  A    between atoms: C19_25  and  C20_26 
REMARK   15  A    between atoms: C20_26  and  C21_27 
REMARK       I    between atoms: C21_27  and  N1_29 
REMARK   16  A    between atoms: C26_37  and  C27_38 
ROOT
HETATM    1  C13 UNL     1       0.339  -2.070  -0.901  1.00  0.00     0.090 C 
ENDROOT
BRANCH   1   2
HETATM    2  C12 UNL     1      -0.793  -2.141   0.059  1.00  0.00     0.213 C 
HETATM    3  C10 UNL     1      -1.875  -1.103  -0.143  1.00  0.00     0.188 C 
HETATM    4  O2  UNL     1      -2.937  -1.885  -0.504  1.00  0.00    -0.356 OA
HETATM    5  C11 UNL     1      -2.769  -3.046   0.289  1.00  0.00     0.339 C 
HETATM    6  O3  UNL     1      -1.432  -3.335   0.164  1.00  0.00    -0.352 OA
BRANCH   3   7
HETATM    7  C9  UNL     1      -2.216  -0.338   1.114  1.00  0.00     0.154 C 
BRANCH   7   8
HETATM    8  C8  UNL     1      -3.215   0.742   0.763  1.00  0.00     0.017 C 
HETATM    9  C7  UNL     1      -3.392   1.614   1.999  1.00  0.00     0.007 C 
HETATM   10  C6  UNL     1      -4.513   2.543   2.013  1.00  0.00     0.006 C 
HETATM   11  C5  UNL     1      -5.533   2.520   0.949  1.00  0.00    -0.007 C 
HETATM   12  C31 UNL     1      -5.270   1.515  -0.142  1.00  0.00     0.006 C 
HETATM   13  C30 UNL     1      -4.592   0.261   0.430  1.00  0.00     0.007 C 
BRANCH  11  14
HETATM   14  C2  UNL     1      -6.972   2.439   1.439  1.00  0.00    -0.048 C 
HETATM   15  C1  UNL     1      -7.288   1.232   2.246  1.00  0.00     0.015 C 
HETATM   16  C3  UNL     1      -7.947   2.517   0.282  1.00  0.00     0.015 C 
HETATM   17  C4  UNL     1      -7.300   3.664   2.304  1.00  0.00     0.015 C 
ENDBRANCH  11  14
ENDBRANCH   7   8
BRANCH   7  18
HETATM   18  O1  UNL     1      -1.035   0.398   1.489  1.00  0.00    -0.393 OA
ATOM     19  H1  UNL     1      -0.408  -0.280   1.709  1.00  0.00     0.210 HD
ENDBRANCH   7  18
ENDBRANCH   3   7
ENDBRANCH   1   2
BRANCH   1  20
HETATM   20  O4  UNL     1       0.835  -0.777  -0.838  1.00  0.00    -0.280 OA
BRANCH  20  21
HETATM   21  C14 UNL     1       2.035  -0.354  -0.319  1.00  0.00     0.263 C 
HETATM   22  O5  UNL     1       2.680  -1.327   0.118  1.00  0.00    -0.265 OA
BRANCH  21  23
HETATM   23  C15 UNL     1       2.409   1.054  -0.326  1.00  0.00     0.111 C 
BRANCH  23  24
HETATM   24  C16 UNL     1       3.834   1.245   0.104  1.00  0.00     0.010 C 
BRANCH  24  25
HETATM   25  C17 UNL     1       4.773   0.598  -0.850  1.00  0.00     0.000 C 
BRANCH  25  26
HETATM   26  C18 UNL     1       6.233   0.755  -0.471  1.00  0.00     0.000 C 
BRANCH  26  27
HETATM   27  C19 UNL     1       6.689   2.168  -0.380  1.00  0.00     0.009 C 
BRANCH  27  28
HETATM   28  C20 UNL     1       8.140   2.230  -0.019  1.00  0.00     0.103 C 
BRANCH  28  29
HETATM   29  C21 UNL     1       8.427   1.632   1.294  1.00  0.00     0.223 C 
HETATM   30  O6  UNL     1       7.544   1.365   2.138  1.00  0.00    -0.273 OA
HETATM   31  N1  UNL     1       9.774   1.346   1.620  1.00  0.00    -0.304 N 
HETATM   32  C22 UNL     1      10.566   2.088   2.278  1.00  0.00     0.203 C 
ATOM     33  H1  UNL     1      10.146   0.454   1.293  1.00  0.00     0.171 HD
HETATM   34  N2  UNL     1      10.139   3.354   2.778  1.00  0.00    -0.066 NA
HETATM   35  N3  UNL     1      11.898   1.689   2.539  1.00  0.00    -0.066 NA
ENDBRANCH  28  29
ENDBRANCH  27  28
ENDBRANCH  26  27
ENDBRANCH  25  26
ENDBRANCH  24  25
ENDBRANCH  23  24
ENDBRANCH  21  23
ENDBRANCH  20  21
ENDBRANCH   1  20
BRANCH   1  36
HETATM   36  C23 UNL     1       0.245  -2.734  -2.204  1.00  0.00    -0.047 C 
HETATM   37  C24 UNL     1      -0.794  -2.390  -3.180  1.00  0.00     0.037 C 
HETATM   38  C25 UNL     1      -1.746  -3.500  -3.554  1.00  0.00     0.020 C 
HETATM   39  C26 UNL     1      -1.069  -4.798  -3.869  1.00  0.00     0.087 C 
HETATM   40  C28 UNL     1       0.390  -4.787  -3.476  1.00  0.00     0.020 C 
HETATM   41  C29 UNL     1       0.419  -4.262  -2.054  1.00  0.00     0.037 C 
BRANCH  39  42
HETATM   42  C27 UNL     1      -1.793  -5.913  -3.197  1.00  0.00     0.177 C 
HETATM   43  O7  UNL     1      -1.556  -7.106  -3.515  1.00  0.00    -0.648 OA
HETATM   44  O8  UNL     1      -2.742  -5.698  -2.210  1.00  0.00    -0.648 OA
ENDBRANCH  39  42
ENDBRANCH   1  36
TORSDOF 16
