REMARK  4 active torsions:
REMARK  status: ('A' for Active; 'I' for Inactive)
REMARK       I    between atoms: C1_2  and  N1_3 
REMARK    1  A    between atoms: C1_2  and  C5_8 
REMARK    2  A    between atoms: N1_3  and  C2_5 
REMARK       I    between atoms: N2_12  and  C9_13 
REMARK    3  A    between atoms: C9_13  and  C10_15 
REMARK       I    between atoms: N3_19  and  C14_20 
REMARK       I    between atoms: C14_20  and  N4_22 
REMARK    4  A    between atoms: N4_22  and  C15_24 
ROOT
HETATM    1  C10 UNL     1      -0.189  -1.175  -0.086  1.00  0.00     0.181 C 
HETATM    2  C11 UNL     1       0.092  -2.112   1.051  1.00  0.00     0.037 C 
HETATM    3  C12 UNL     1      -1.290  -2.655   1.363  1.00  0.00     0.022 C 
HETATM    4  C13 UNL     1      -2.181  -1.450   1.115  1.00  0.00     0.129 C 
HETATM    5  N3  UNL     1      -1.520  -0.696   0.090  1.00  0.00    -0.321 N 
HETATM    6  C14 UNL     1      -2.191   0.346  -0.617  1.00  0.00     0.319 C 
HETATM    7  O3  UNL     1      -1.594   0.944  -1.525  1.00  0.00    -0.247 OA
HETATM    8  N4  UNL     1      -3.510   0.701  -0.301  1.00  0.00    -0.338 N 
ATOM      9  H4  UNL     1      -3.968   0.187   0.452  1.00  0.00     0.164 HD
ENDROOT
BRANCH   1  10
HETATM   10  C9  UNL     1       0.848  -0.106  -0.161  1.00  0.00     0.243 C 
HETATM   11  N2  UNL     1       2.158  -0.541  -0.580  1.00  0.00    -0.337 N 
HETATM   12  C5  UNL     1       3.337   0.304  -0.735  1.00  0.00     0.179 C 
HETATM   13  C8  UNL     1       2.590  -1.877  -0.940  1.00  0.00     0.127 C 
HETATM   14  C6  UNL     1       3.841  -0.149  -2.092  1.00  0.00     0.037 C 
HETATM   15  C7  UNL     1       3.612  -1.634  -2.037  1.00  0.00     0.022 C 
HETATM   16  O2  UNL     1       0.696   1.088   0.094  1.00  0.00    -0.271 OA
BRANCH  12  17
HETATM   17  C1  UNL     1       4.329   0.108   0.321  1.00  0.00     0.241 C 
HETATM   18  O1  UNL     1       4.072  -0.700   1.270  1.00  0.00    -0.271 OA
HETATM   19  N1  UNL     1       5.580   0.759   0.376  1.00  0.00    -0.355 N 
ATOM     20  H1  UNL     1       5.814   1.413  -0.371  1.00  0.00     0.162 HD
BRANCH  19  21
HETATM   21  C2  UNL     1       6.547   0.554   1.427  1.00  0.00     0.084 A 
HETATM   22  C3  UNL     1       8.002   0.567   1.144  1.00  0.00     0.027 A 
HETATM   23  C4  UNL     1       7.400   1.757   1.816  1.00  0.00     0.027 A 
ENDBRANCH  19  21
ENDBRANCH  12  17
ENDBRANCH   1  10
BRANCH   8  24
HETATM   24  C15 UNL     1      -4.267   1.732  -0.954  1.00  0.00     0.086 C 
HETATM   25  C16 UNL     1      -4.855   2.679   0.070  1.00  0.00     0.025 C 
HETATM   26  C17 UNL     1      -5.663   1.929   1.080  1.00  0.00     0.002 C 
HETATM   27  C18 UNL     1      -6.733   1.072   0.492  1.00  0.00     0.000 C 
HETATM   28  C19 UNL     1      -6.329   0.303  -0.728  1.00  0.00     0.002 C 
HETATM   29  C20 UNL     1      -5.452   1.085  -1.676  1.00  0.00     0.025 C 
ENDBRANCH   8  24
TORSDOF 4
