REMARK  5 active torsions:
REMARK  status: ('A' for Active; 'I' for Inactive)
REMARK    1  A    between atoms: C3_3  and  N1_4 
REMARK       I    between atoms: N1_4  and  C4_6 
REMARK       I    between atoms: C4_6  and  N2_8 
REMARK    2  A    between atoms: N2_8  and  C5_9 
REMARK    3  A    between atoms: C11_15  and  C12_16 
REMARK    4  A    between atoms: C12_16  and  O2_17 
REMARK    5  A    between atoms: C12_16  and  N3_19 
ROOT
HETATM    1  C1  UNL     1       6.190   4.210   0.588  1.00  0.00     0.014 C 
HETATM    2  C2  UNL     1       6.011   3.267  -0.153  1.00  0.00    -0.098 C 
HETATM    3  C3  UNL     1       5.814   2.105  -1.043  1.00  0.00     0.219 C 
ENDROOT
BRANCH   3   4
HETATM    4  N1  UNL     1       4.743   1.346  -0.525  1.00  0.00    -0.321 N 
HETATM    5  C4  UNL     1       4.249   0.084  -1.162  1.00  0.00     0.389 C 
HETATM    6  O1  UNL     1       4.918  -0.172  -2.168  1.00  0.00    -0.231 OA
HETATM    7  N2  UNL     1       3.224  -0.565  -0.612  1.00  0.00    -0.391 NA
ATOM      8  H1  UNL     1       4.283   1.673   0.325  1.00  0.00     0.166 HD
BRANCH   7   9
HETATM    9  C5  UNL     1       2.135  -1.254  -0.028  1.00  0.00     0.169 C 
HETATM   10  C6  UNL     1       2.088  -0.978   1.472  1.00  0.00     0.044 C 
HETATM   11  C7  UNL     1       0.728  -1.148   2.013  1.00  0.00    -0.010 C 
HETATM   12  C8  UNL     1       0.268  -2.547   1.646  1.00  0.00     0.010 C 
HETATM   13  C17 UNL     1      -0.285  -0.112   1.730  1.00  0.00     0.023 C 
HETATM   14  C9  UNL     1      -0.587  -2.464   0.413  1.00  0.00    -0.008 C 
HETATM   15  C10 UNL     1      -1.896  -1.829   0.949  1.00  0.00     0.023 C 
HETATM   16  C18 UNL     1      -0.411  -1.248  -0.394  1.00  0.00     0.009 C 
HETATM   17  C11 UNL     1      -1.265  -0.515   0.600  1.00  0.00     0.029 C 
HETATM   18  C19 UNL     1       0.887  -0.647  -0.627  1.00  0.00     0.045 C 
BRANCH  17  19
HETATM   19  C12 UNL     1      -2.084   0.601   0.175  1.00  0.00     0.122 C 
BRANCH  19  20
HETATM   20  O2  UNL     1      -1.770   1.730   0.782  1.00  0.00    -0.349 OA
ATOM     21  H2  UNL     1      -2.307   2.462   0.503  1.00  0.00     0.219 HD
ENDBRANCH  19  20
BRANCH  19  22
HETATM   22  N3  UNL     1      -3.117   0.724  -0.727  1.00  0.00    -0.361 N 
HETATM   23  C13 UNL     1      -3.710  -0.290  -1.524  1.00  0.00     0.151 C 
HETATM   24  C14 UNL     1      -5.159  -0.414  -0.965  1.00  0.00     0.187 C 
HETATM   25  O3  UNL     1      -5.775   0.801  -1.209  1.00  0.00    -0.388 OA
HETATM   26  C15 UNL     1      -5.212   1.866  -0.507  1.00  0.00     0.187 C 
HETATM   27  C16 UNL     1      -3.740   2.063  -0.921  1.00  0.00     0.151 C 
ENDBRANCH  19  22
ENDBRANCH  17  19
ENDBRANCH   7   9
ENDBRANCH   3   4
TORSDOF 5
