REMARK  7 active torsions:
REMARK  status: ('A' for Active; 'I' for Inactive)
REMARK    1  A    between atoms: C2_2  and  C3_3 
REMARK    2  A    between atoms: C3_3  and  O1_4 
REMARK    3  A    between atoms: O1_4  and  C4_5 
REMARK    4  A    between atoms: C4_5  and  C5_7 
REMARK    5  A    between atoms: N1_11  and  C9_12 
REMARK    6  A    between atoms: C9_12  and  N2_14 
REMARK    7  A    between atoms: N2_14  and  C10_16 
ROOT
HETATM    1  C5  UNL     1       0.726  -1.439  -0.232  1.00  0.00     0.186 C 
HETATM    2  C6  UNL     1       1.004  -1.669   1.205  1.00  0.00     0.037 C 
HETATM    3  C7  UNL     1      -0.290  -1.490   1.905  1.00  0.00     0.022 C 
HETATM    4  C8  UNL     1      -1.119  -0.664   0.945  1.00  0.00     0.126 C 
HETATM    5  N1  UNL     1      -0.599  -0.918  -0.364  1.00  0.00    -0.344 N 
ENDROOT
BRANCH   5   6
HETATM    6  C9  UNL     1      -1.221  -0.714  -1.621  1.00  0.00     0.175 C 
HETATM    7  S1  UNL     1      -0.351  -1.128  -3.006  1.00  0.00    -0.041 SA
BRANCH   6   8
HETATM    8  N2  UNL     1      -2.493  -0.213  -1.892  1.00  0.00    -0.328 N 
ATOM      9  H2  UNL     1      -2.735  -0.138  -2.880  1.00  0.00     0.168 HD
BRANCH   8  10
HETATM   10  C10 UNL     1      -3.490   0.204  -0.988  1.00  0.00     0.118 A 
HETATM   11  C11 UNL     1      -3.465   1.468  -0.443  1.00  0.00     0.184 A 
HETATM   12  F1  UNL     1      -2.435   2.330  -0.740  1.00  0.00    -0.200 F 
HETATM   13  C12 UNL     1      -4.446   1.930   0.407  1.00  0.00     0.160 A 
HETATM   14  F2  UNL     1      -4.385   3.194   0.928  1.00  0.00    -0.203 F 
HETATM   15  C13 UNL     1      -5.503   1.128   0.747  1.00  0.00     0.091 A 
HETATM   16  C14 UNL     1      -5.565  -0.126   0.231  1.00  0.00     0.160 A 
HETATM   17  F3  UNL     1      -6.619  -0.917   0.574  1.00  0.00    -0.203 F 
HETATM   18  C15 UNL     1      -4.586  -0.592  -0.620  1.00  0.00     0.184 A 
HETATM   19  F4  UNL     1      -4.618  -1.834  -1.150  1.00  0.00    -0.200 F 
ENDBRANCH   8  10
ENDBRANCH   6   8
ENDBRANCH   5   6
BRANCH   1  20
HETATM   20  C4  UNL     1       1.761  -0.502  -0.745  1.00  0.00     0.282 C 
HETATM   21  O2  UNL     1       1.453   0.620  -1.171  1.00  0.00    -0.263 OA
BRANCH  20  22
HETATM   22  O1  UNL     1       3.055  -0.909  -0.733  1.00  0.00    -0.315 OA
BRANCH  22  23
HETATM   23  C3  UNL     1       4.228  -0.328  -1.103  1.00  0.00     0.218 C 
BRANCH  23  24
HETATM   24  C2  UNL     1       4.698   0.834  -0.345  1.00  0.00     0.008 C 
HETATM   25  C1  UNL     1       3.977   2.105  -0.232  1.00  0.00     0.051 C 
HETATM   26  C16 UNL     1       5.893   0.759   0.287  1.00  0.00     0.271 C 
HETATM   27  F5  UNL     1       6.380   1.809   0.981  1.00  0.00    -0.173 F 
HETATM   28  F6  UNL     1       6.641  -0.368   0.247  1.00  0.00    -0.173 F 
ENDBRANCH  23  24
ENDBRANCH  22  23
ENDBRANCH  20  22
ENDBRANCH   1  20
TORSDOF 7
