REMARK  5 active torsions:
REMARK  status: ('A' for Active; 'I' for Inactive)
REMARK    1  A    between atoms: N1_4  and  C4_5 
REMARK    2  A    between atoms: C4_5  and  N2_7 
REMARK    3  A    between atoms: N2_7  and  C5_9 
REMARK    4  A    between atoms: C5_9  and  C6_10 
REMARK    5  A    between atoms: C6_10  and  C7_11 
ROOT
HETATM    1  C1  UNL     1      -1.183   2.461  -2.325  1.00  0.00     0.012 C 
HETATM    2  C2  UNL     1      -0.790   2.101  -0.883  1.00  0.00     0.016 C 
HETATM    3  C3  UNL     1       0.665   2.025  -0.765  1.00  0.00     0.131 C 
HETATM    4  N1  UNL     1       1.230   0.763  -0.419  1.00  0.00    -0.349 N 
HETATM    5  C8  UNL     1       0.411  -0.190   0.268  1.00  0.00     0.136 C 
HETATM    6  C9  UNL     1      -0.041   0.328   1.628  1.00  0.00     0.260 C 
HETATM    7  N3  UNL     1      -1.481   0.252   1.787  1.00  0.00    -0.067 N 
ATOM      8  H31 UNL     1      -1.765   0.453   2.746  1.00  0.00     0.277 HD
ATOM      9  H32 UNL     1      -1.816  -0.709   1.724  1.00  0.00     0.277 HD
HETATM   10  C10 UNL     1      -2.152   1.113   0.841  1.00  0.00     0.209 C 
HETATM   11  C11 UNL     1      -3.603   0.870   0.686  1.00  0.00     0.058 C 
HETATM   12  C12 UNL     1      -3.880   0.731  -0.749  1.00  0.00    -0.021 C 
HETATM   13  C13 UNL     1      -2.779   0.737  -1.426  1.00  0.00    -0.016 C 
HETATM   14  C14 UNL     1      -1.611   0.882  -0.526  1.00  0.00     0.034 C 
HETATM   15  C15 UNL     1      -0.792  -0.350  -0.677  1.00  0.00     0.140 C 
HETATM   16  N4  UNL     1      -1.463  -1.588  -0.468  1.00  0.00    -0.215 N 
HETATM   17  C16 UNL     1      -0.580  -2.683  -0.868  1.00  0.00     0.169 C 
HETATM   18  C17 UNL     1      -2.683  -2.140  -0.006  1.00  0.00     0.669 C 
HETATM   19  N5  UNL     1      -2.849  -3.388  -0.231  1.00  0.00    -0.235 N 
ATOM     20  H51 UNL     1      -3.727  -3.785   0.102  1.00  0.00     0.174 HD
ATOM     21  H52 UNL     1      -2.051  -3.791  -0.723  1.00  0.00     0.174 HD
HETATM   22  N6  UNL     1      -3.788  -1.581   0.675  1.00  0.00    -0.226 N 
ATOM     23  H6  UNL     1      -4.630  -2.153   0.610  1.00  0.00     0.177 HD
HETATM   24  C18 UNL     1      -3.979  -0.376   1.442  1.00  0.00     0.148 C 
ENDROOT
BRANCH   4  25
HETATM   25  C4  UNL     1       2.562   0.462  -0.744  1.00  0.00     0.170 C 
HETATM   26  S1  UNL     1       3.449   1.625  -1.553  1.00  0.00    -0.041 SA
BRANCH  25  27
HETATM   27  N2  UNL     1       3.242  -0.731  -0.471  1.00  0.00    -0.367 N 
ATOM     28  H2  UNL     1       2.734  -1.475   0.007  1.00  0.00     0.161 HD
BRANCH  27  29
HETATM   29  C5  UNL     1       4.605  -0.965  -0.824  1.00  0.00     0.127 C 
BRANCH  29  30
HETATM   30  C6  UNL     1       5.621  -0.181  -0.056  1.00  0.00     0.090 C 
BRANCH  30  31
HETATM   31  C7  UNL     1       5.561  -0.464   1.432  1.00  0.00     0.354 C 
HETATM   32  F1  UNL     1       4.336  -0.153   1.962  1.00  0.00    -0.214 F 
HETATM   33  F2  UNL     1       6.555   0.272   2.037  1.00  0.00    -0.214 F 
ENDBRANCH  30  31
ENDBRANCH  29  30
ENDBRANCH  27  29
ENDBRANCH  25  27
ENDBRANCH   4  25
TORSDOF 5
