REMARK  3 active torsions:
REMARK  status: ('A' for Active; 'I' for Inactive)
REMARK       I    between atoms: C1_4  and  N3_6 
REMARK    1  A    between atoms: C8_15  and  C9_16 
REMARK    2  A    between atoms: C8_15  and  C10_18 
REMARK    3  A    between atoms: C11_20  and  O1_21 
ROOT
HETATM    1  N1  UNL     1       3.682  -0.652  -0.678  1.00  0.00    -0.374 N 
ATOM      2  H11 UNL     1       3.961   0.283  -0.382  1.00  0.00     0.158 HD
ATOM      3  H12 UNL     1       4.284  -1.250  -1.244  1.00  0.00     0.158 HD
HETATM    4  C1  UNL     1       2.540  -1.111  -0.341  1.00  0.00     0.186 C 
HETATM    5  N2  UNL     1       2.151  -2.414  -0.753  1.00  0.00    -0.064 NA
HETATM    6  N3  UNL     1       1.703  -0.280   0.445  1.00  0.00    -0.327 N 
HETATM    7  C2  UNL     1       0.849  -0.811   1.454  1.00  0.00     0.158 C 
HETATM    8  C3  UNL     1      -0.580  -0.974   1.104  1.00  0.00     0.280 C 
HETATM    9  N4  UNL     1      -1.074  -0.397  -0.059  1.00  0.00     0.013 N 
HETATM   10  C4  UNL     1      -2.447   0.083   0.181  1.00  0.00     0.262 C 
HETATM   11  C5  UNL     1      -3.182  -1.232   0.461  1.00  0.00     0.048 C 
HETATM   12  C6  UNL     1      -2.470  -2.175  -0.443  1.00  0.00     0.144 C 
HETATM   13  N5  UNL     1      -1.398  -1.430  -1.002  1.00  0.00    -0.047 NA
HETATM   14  C7  UNL     1      -0.328   0.509  -0.809  1.00  0.00     0.275 C 
HETATM   15  C8  UNL     1       0.421   1.623  -0.178  1.00  0.00     0.048 C 
HETATM   16  C11 UNL     1       1.823   1.135   0.115  1.00  0.00     0.234 C 
ENDROOT
BRANCH  16  17
HETATM   17  O1  UNL     1       2.356   1.734   1.253  1.00  0.00    -0.376 OA
ATOM     18  H1  UNL     1       2.434   2.656   1.038  1.00  0.00     0.212 HD
ENDBRANCH  16  17
BRANCH  15  19
HETATM   19  C9  UNL     1       0.600   2.708  -1.256  1.00  0.00     0.101 C 
HETATM   20 BR1  UNL     1       1.576   1.971  -2.737  1.00  0.00    -0.095 Br
ENDBRANCH  15  19
BRANCH  15  21
HETATM   21  C10 UNL     1      -0.255   2.296   0.952  1.00  0.00     0.101 C 
HETATM   22 BR2  UNL     1       0.851   3.743   1.601  1.00  0.00    -0.095 Br
ENDBRANCH  15  21
TORSDOF 3
