REMARK  1 active torsions:
REMARK  status: ('A' for Active; 'I' for Inactive)
REMARK    1  A    between atoms: N3_4  and  C2_6 
ROOT
HETATM    1  C2  UNL     1       0.284   0.374  -0.405  1.00  0.00     0.192 A 
HETATM    2  N4  UNL     1       0.603  -0.837   0.086  1.00  0.00    -0.277 N 
ATOM      3  H4  UNL     1      -0.145  -1.451   0.408  1.00  0.00     0.189 HD
HETATM    4  N5  UNL     1       1.856  -1.259   0.165  1.00  0.00    -0.250 N 
ATOM      5  H5  UNL     1       2.050  -2.186   0.545  1.00  0.00     0.192 HD
HETATM    6  C3  UNL     1       2.890  -0.478  -0.252  1.00  0.00     0.341 A 
HETATM    7  O1  UNL     1       4.058  -0.935  -0.151  1.00  0.00    -0.245 OA
HETATM    8  N6  UNL     1       2.611   0.740  -0.748  1.00  0.00    -0.271 N 
ATOM      9  H6  UNL     1       3.369   1.345  -1.066  1.00  0.00     0.174 HD
HETATM   10  C4  UNL     1       1.329   1.168  -0.828  1.00  0.00     0.295 A 
HETATM   11  O2  UNL     1       1.117   2.300  -1.294  1.00  0.00    -0.264 OA
ENDROOT
BRANCH   1  12
HETATM   12  N3  UNL     1      -1.042   0.866  -0.508  1.00  0.00    -0.313 N 
HETATM   13  C1  UNL     1      -2.076   0.207  -0.143  1.00  0.00     0.202 C 
HETATM   14  N1  UNL     1      -2.069  -1.100   0.414  1.00  0.00    -0.066 NA
HETATM   15  N2  UNL     1      -3.345   0.829  -0.306  1.00  0.00    -0.066 NA
ATOM     16  H3  UNL     1      -1.179   1.799  -0.896  1.00  0.00     0.170 HD
ENDBRANCH   1  12
TORSDOF 1
