REMARK  16 active torsions:
REMARK  status: ('A' for Active; 'I' for Inactive)
REMARK    1  A    between atoms: C2_2  and  O1_3 
REMARK    2  A    between atoms: C2_2  and  C3_5 
REMARK    3  A    between atoms: C2_2  and  C22_39 
REMARK    4  A    between atoms: C3_5  and  C4_6 
REMARK    5  A    between atoms: C4_6  and  O3_8 
REMARK    6  A    between atoms: O3_8  and  C5_9 
REMARK    7  A    between atoms: C10_14  and  C11_15 
REMARK    8  A    between atoms: C11_15  and  O5_17 
REMARK    9  A    between atoms: O5_17  and  C12_18 
REMARK   10  A    between atoms: C17_23  and  O6_24 
REMARK   11  A    between atoms: C18_27  and  C19_28 
REMARK   12  A    between atoms: C18_27  and  C20_31 
REMARK   13  A    between atoms: N1_35  and  O12_37 
REMARK   14  A    between atoms: C22_39  and  C23_41 
REMARK   15  A    between atoms: C23_41  and  C24_43 
REMARK   16  A    between atoms: C24_43  and  O15_44 
ROOT
HETATM    1  C11 UNL     1      -0.851  -2.457  -0.772  1.00  0.00     0.301 C 
HETATM    2  O4  UNL     1      -1.986  -2.958  -0.542  1.00  0.00    -0.259 OA
ENDROOT
BRANCH   1   3
HETATM    3  C10 UNL     1       0.150  -3.242  -1.479  1.00  0.00     0.073 A 
HETATM    4  C5  UNL     1       1.419  -2.788  -1.772  1.00  0.00     0.095 A 
HETATM    5  C6  UNL     1       2.342  -3.559  -2.454  1.00  0.00     0.038 A 
HETATM    6  C7  UNL     1       2.000  -4.813  -2.857  1.00  0.00     0.003 A 
HETATM    7  C8  UNL     1       0.735  -5.304  -2.580  1.00  0.00     0.001 A 
HETATM    8  C9  UNL     1      -0.179  -4.514  -1.894  1.00  0.00     0.020 A 
BRANCH   4   9
HETATM    9  O3  UNL     1       1.726  -1.506  -1.343  1.00  0.00    -0.278 OA
BRANCH   9  10
HETATM   10  C4  UNL     1       2.390  -1.354  -0.137  1.00  0.00     0.267 C 
HETATM   11  O2  UNL     1       2.663  -2.416   0.472  1.00  0.00    -0.265 OA
BRANCH  10  12
HETATM   12  C3  UNL     1       2.754  -0.009   0.399  1.00  0.00     0.157 C 
BRANCH  12  13
HETATM   13  C2  UNL     1       4.215   0.268   0.110  1.00  0.00     0.131 C 
HETATM   14  C1  UNL     1       4.343   0.218  -1.418  1.00  0.00     0.055 C 
BRANCH  13  15
HETATM   15  O1  UNL     1       5.049  -0.656   0.709  1.00  0.00    -0.381 OA
ATOM     16  H1  UNL     1       4.970  -0.625   1.655  1.00  0.00     0.211 HD
ENDBRANCH  13  15
BRANCH  13  17
HETATM   17  C22 UNL     1       4.609   1.626   0.542  1.00  0.00     0.231 C 
HETATM   18  O13 UNL     1       3.953   2.624   0.087  1.00  0.00    -0.286 OA
BRANCH  17  19
HETATM   19  C23 UNL     1       5.713   1.809   1.459  1.00  0.00     0.221 C 
HETATM   20  O14 UNL     1       6.345   0.824   1.891  1.00  0.00    -0.287 OA
BRANCH  19  21
HETATM   21  C24 UNL     1       6.152   3.148   1.934  1.00  0.00     0.251 C 
BRANCH  21  22
HETATM   22  O15 UNL     1       7.219   3.073   2.807  1.00  0.00    -0.393 OA
ATOM     23  H15 UNL     1       7.499   3.928   3.110  1.00  0.00     0.210 HD
ENDBRANCH  21  22
ENDBRANCH  19  21
ENDBRANCH  17  19
ENDBRANCH  13  17
ENDBRANCH  12  13
ENDBRANCH  10  12
ENDBRANCH   9  10
ENDBRANCH   4   9
ENDBRANCH   1   3
BRANCH   1  24
HETATM   24  O5  UNL     1      -0.673  -1.171  -0.313  1.00  0.00    -0.272 OA
BRANCH  24  25
HETATM   25  C12 UNL     1      -1.655  -0.443   0.363  1.00  0.00     0.115 A 
HETATM   26  C13 UNL     1      -1.797  -0.422   1.712  1.00  0.00     0.041 A 
HETATM   27  C14 UNL     1      -2.826   0.352   2.251  1.00  0.00     0.019 A 
HETATM   28  C15 UNL     1      -3.684   1.079   1.476  1.00  0.00     0.029 A 
HETATM   29  C16 UNL     1      -3.548   1.064   0.099  1.00  0.00     0.120 A 
HETATM   30  C21 UNL     1      -4.827   1.958   1.746  1.00  0.00     0.102 C 
HETATM   31  C17 UNL     1      -2.518   0.289  -0.443  1.00  0.00     0.134 A 
HETATM   32  O7  UNL     1      -4.528   1.872  -0.467  1.00  0.00    -0.309 OA
HETATM   33  C18 UNL     1      -5.594   2.056   0.475  1.00  0.00     0.288 C 
HETATM   34  N1  UNL     1      -5.107   2.524   2.847  1.00  0.00    -0.268 N 
ATOM     35  H1  UNL     1      -5.934   3.117   2.914  1.00  0.00     0.194 HD
BRANCH  31  36
HETATM   36  O6  UNL     1      -2.370   0.266  -1.831  1.00  0.00    -0.356 OA
ATOM     37  H6  UNL     1      -2.960   0.767  -2.382  1.00  0.00     0.218 HD
ENDBRANCH  31  36
BRANCH  33  38
HETATM   38  C19 UNL     1      -6.498   0.905   0.361  1.00  0.00     0.228 C 
HETATM   39  O8  UNL     1      -7.542   0.804   1.079  1.00  0.00    -0.645 OA
HETATM   40  O9  UNL     1      -6.235  -0.102  -0.533  1.00  0.00    -0.645 OA
ENDBRANCH  33  38
BRANCH  33  41
HETATM   41  C20 UNL     1      -6.257   3.352   0.289  1.00  0.00     0.228 C 
HETATM   42  O10 UNL     1      -5.851   4.120  -0.624  1.00  0.00    -0.645 OA
HETATM   43  O11 UNL     1      -7.310   3.796   1.056  1.00  0.00    -0.645 OA
ENDBRANCH  33  41
BRANCH  34  44
HETATM   44  O12 UNL     1      -4.319   2.348   3.934  1.00  0.00    -0.290 OA
ATOM     45  H12 UNL     1      -4.529   2.772   4.758  1.00  0.00     0.244 HD
ENDBRANCH  34  44
ENDBRANCH  24  25
ENDBRANCH   1  24
TORSDOF 16
