REMARK  15 active torsions:
REMARK  status: ('A' for Active; 'I' for Inactive)
REMARK    1  A    between atoms: C2_2  and  N1_3 
REMARK    2  A    between atoms: C2_2  and  C14_35 
REMARK    3  A    between atoms: N1_3  and  C3_5 
REMARK    4  A    between atoms: C5_7  and  O1_8 
REMARK    5  A    between atoms: C7_11  and  C8_12 
REMARK    6  A    between atoms: C8_12  and  O2_13 
REMARK    7  A    between atoms: O2_13  and  C9_14 
REMARK       I    between atoms: C9_14  and  N2_16 
REMARK    8  A    between atoms: N2_16  and  C10_18 
REMARK    9  A    between atoms: C10_18  and  C12_23 
REMARK   10  A    between atoms: C12_23  and  N5_24 
REMARK   11  A    between atoms: C12_23  and  N6_28 
REMARK   12  A    between atoms: C13_32  and  O4_33 
REMARK       I    between atoms: C14_35  and  N7_37 
REMARK   13  A    between atoms: N7_37  and  S1_39 
REMARK   14  A    between atoms: S1_39  and  C15_42 
REMARK   15  A    between atoms: C17_44  and  N8_45 
ROOT
HETATM    1  C10 UNL     1      -7.259   0.815  -0.405  1.00  0.00     0.153 C 
HETATM    2  N3  UNL     1      -8.484   0.879   0.058  1.00  0.00    -0.279 N 
ATOM      3  H3  UNL     1      -9.197   0.289  -0.370  1.00  0.00     0.179 HD
HETATM    4  C11 UNL     1      -8.856   1.715   1.107  1.00  0.00     0.183 C 
HETATM    5  N4  UNL     1      -9.181   2.401   1.987  1.00  0.00    -0.172 NA
ENDROOT
BRANCH   1   6
HETATM    6  N2  UNL     1      -6.291   1.628   0.190  1.00  0.00    -0.288 N 
HETATM    7  C9  UNL     1      -4.951   1.675  -0.199  1.00  0.00     0.366 C 
HETATM    8  O3  UNL     1      -4.474   0.994  -1.122  1.00  0.00    -0.238 OA
ATOM      9  H2  UNL     1      -6.583   2.228   0.961  1.00  0.00     0.172 HD
BRANCH   7  10
HETATM   10  O2  UNL     1      -4.077   2.545   0.487  1.00  0.00    -0.299 OA
BRANCH  10  11
HETATM   11  C8  UNL     1      -2.734   2.609   0.148  1.00  0.00     0.222 C 
BRANCH  11  12
HETATM   12  C7  UNL     1      -2.002   1.354   0.447  1.00  0.00     0.004 A 
HETATM   13  C6  UNL     1      -2.540   0.279   1.113  1.00  0.00     0.048 A 
HETATM   14  C5  UNL     1      -1.772  -0.850   1.398  1.00  0.00     0.068 A 
HETATM   15  C4  UNL     1      -0.441  -0.923   1.018  1.00  0.00     0.068 A 
HETATM   16  C3  UNL     1       0.130   0.134   0.352  1.00  0.00     0.065 A 
HETATM   17  C13 UNL     1      -0.654   1.252   0.076  1.00  0.00     0.100 A 
BRANCH  14  18
HETATM   18  O1  UNL     1      -2.360  -1.896   2.064  1.00  0.00    -0.361 OA
ATOM     19  H1  UNL     1      -3.272  -1.846   2.324  1.00  0.00     0.217 HD
ENDBRANCH  14  18
BRANCH  16  20
HETATM   20  N1  UNL     1       1.482   0.122  -0.094  1.00  0.00    -0.375 N 
ATOM     21  H1  UNL     1       1.831   0.877  -0.684  1.00  0.00     0.160 HD
BRANCH  20  22
HETATM   22  C2  UNL     1       2.352  -0.950   0.285  1.00  0.00     0.171 C 
HETATM   23  C1  UNL     1       2.763  -0.908   1.725  1.00  0.00     0.042 C 
BRANCH  22  24
HETATM   24  C14 UNL     1       3.568  -1.029  -0.577  1.00  0.00     0.253 C 
HETATM   25  O5  UNL     1       3.796  -0.238  -1.520  1.00  0.00    -0.270 OA
HETATM   26  N7  UNL     1       4.529  -2.055  -0.324  1.00  0.00    -0.248 N 
ATOM     27  H7  UNL     1       4.351  -2.703   0.443  1.00  0.00     0.182 HD
BRANCH  26  28
HETATM   28  S1  UNL     1       5.969  -2.257  -1.241  1.00  0.00     0.271 S 
HETATM   29  O6  UNL     1       5.669  -2.310  -2.720  1.00  0.00    -0.200 OA
HETATM   30  O7  UNL     1       6.654  -3.523  -0.821  1.00  0.00    -0.200 OA
BRANCH  28  31
HETATM   31  C15 UNL     1       7.010  -0.867  -0.879  1.00  0.00     0.122 A 
HETATM   32  C16 UNL     1       8.258  -0.890  -0.319  1.00  0.00     0.069 A 
HETATM   33  C17 UNL     1       8.875   0.287  -0.134  1.00  0.00     0.111 A 
HETATM   34  C18 UNL     1       8.195   1.412  -0.524  1.00  0.00     0.087 A 
HETATM   35  S2  UNL     1       6.729   0.792  -1.132  1.00  0.00    -0.086 SA
BRANCH  33  36
HETATM   36  N8  UNL     1      10.199   0.413   0.449  1.00  0.00    -0.115 N 
HETATM   37  O8  UNL     1      10.850  -0.584   0.812  1.00  0.00    -0.532 OA
HETATM   38  O9  UNL     1      10.797   1.628   0.629  1.00  0.00    -0.532 OA
ENDBRANCH  33  36
ENDBRANCH  28  31
ENDBRANCH  26  28
ENDBRANCH  22  24
ENDBRANCH  20  22
ENDBRANCH  16  20
BRANCH  17  39
HETATM   39  O4  UNL     1      -0.052   2.285  -0.588  1.00  0.00    -0.358 OA
ATOM     40  H4  UNL     1      -0.587   3.047  -0.776  1.00  0.00     0.217 HD
ENDBRANCH  17  39
ENDBRANCH  11  12
ENDBRANCH  10  11
ENDBRANCH   7  10
ENDBRANCH   1   6
BRANCH   1  41
HETATM   41  C12 UNL     1      -7.015  -0.129  -1.501  1.00  0.00     0.445 C 
BRANCH  41  42
HETATM   42  N5  UNL     1      -8.310  -0.597  -2.021  1.00  0.00    -0.043 N 
ATOM     43  H53 UNL     1      -8.903  -0.992  -1.291  1.00  0.00     0.277 HD
ATOM     44  H52 UNL     1      -8.920   0.172  -2.298  1.00  0.00     0.277 HD
ATOM     45  H51 UNL     1      -8.140  -1.253  -2.783  1.00  0.00     0.277 HD
ENDBRANCH  41  42
BRANCH  41  46
HETATM   46  N6  UNL     1      -6.255  -1.309  -1.049  1.00  0.00    -0.043 N 
ATOM     47  H63 UNL     1      -5.384  -1.037  -0.592  1.00  0.00     0.277 HD
ATOM     48  H62 UNL     1      -6.713  -1.766  -0.261  1.00  0.00     0.277 HD
ATOM     49  H61 UNL     1      -6.085  -1.965  -1.811  1.00  0.00     0.277 HD
ENDBRANCH  41  46
ENDBRANCH   1  41
TORSDOF 15
