REMARK  13 active torsions:
REMARK  status: ('A' for Active; 'I' for Inactive)
REMARK    1  A    between atoms: C2_2  and  C3_3 
REMARK    2  A    between atoms: C3_3  and  C4_6 
REMARK       I    between atoms: C4_6  and  N1_8 
REMARK    3  A    between atoms: N1_8  and  C5_10 
REMARK    4  A    between atoms: C5_10  and  C6_11 
REMARK    5  A    between atoms: C6_11  and  C7_12 
REMARK    6  A    between atoms: C7_12  and  C8_13 
REMARK    7  A    between atoms: C8_13  and  C9_14 
REMARK    8  A    between atoms: C9_14  and  N2_15 
REMARK       I    between atoms: N2_15  and  C10_17 
REMARK    9  A    between atoms: C10_17  and  C11_19 
REMARK   10  A    between atoms: C11_19  and  C12_20 
REMARK   11  A    between atoms: C12_20  and  C13_21 
REMARK   12  A    between atoms: C18_26  and  C19_27 
REMARK   13  A    between atoms: C19_27  and  O3_28 
ROOT
HETATM    1  N2  UNL     1      -1.107   1.119  -1.562  1.00  0.00    -0.361 N 
ATOM      2  H2  UNL     1      -1.463   1.337  -2.493  1.00  0.00     0.162 HD
HETATM    3  C10 UNL     1      -1.936   0.470  -0.624  1.00  0.00     0.217 C 
HETATM    4  O2  UNL     1      -1.496   0.209   0.517  1.00  0.00    -0.274 OA
ENDROOT
BRANCH   1   5
HETATM    5  C9  UNL     1       0.243   1.475  -1.207  1.00  0.00     0.122 C 
BRANCH   5   6
HETATM    6  C8  UNL     1       1.115   0.302  -0.861  1.00  0.00     0.020 C 
BRANCH   6   7
HETATM    7  C7  UNL     1       2.486   0.859  -0.518  1.00  0.00     0.003 C 
BRANCH   7   8
HETATM    8  C6  UNL     1       3.454  -0.270  -0.148  1.00  0.00     0.020 C 
BRANCH   8   9
HETATM    9  C5  UNL     1       4.771   0.381   0.171  1.00  0.00     0.122 C 
BRANCH   9  10
HETATM   10  N1  UNL     1       5.775  -0.585   0.538  1.00  0.00    -0.358 N 
HETATM   11  C4  UNL     1       7.077  -0.136   0.870  1.00  0.00     0.256 C 
HETATM   12  O1  UNL     1       7.306   1.104   0.830  1.00  0.00    -0.270 OA
ATOM     13  H1  UNL     1       5.551  -1.580   0.559  1.00  0.00     0.162 HD
BRANCH  11  14
HETATM   14  C3  UNL     1       8.143  -1.106   1.255  1.00  0.00     0.192 C 
HETATM   15 CL1  UNL     1       7.595  -2.001   2.674  1.00  0.00    -0.091 Cl
HETATM   16 CL2  UNL     1       8.437  -2.196  -0.134  1.00  0.00    -0.091 Cl
BRANCH  14  17
HETATM   17  C2  UNL     1       9.438  -0.418   1.565  1.00  0.00     0.048 C 
HETATM   18  C1  UNL     1       9.948   0.365   0.372  1.00  0.00     0.009 C 
ENDBRANCH  14  17
ENDBRANCH  11  14
ENDBRANCH   9  10
ENDBRANCH   8   9
ENDBRANCH   7   8
ENDBRANCH   6   7
ENDBRANCH   5   6
ENDBRANCH   1   5
BRANCH   3  19
HETATM   19  C11 UNL     1      -3.320   0.115  -1.030  1.00  0.00     0.103 C 
BRANCH  19  20
HETATM   20  C12 UNL     1      -3.982  -0.563   0.152  1.00  0.00     0.014 C 
BRANCH  20  21
HETATM   21  C13 UNL     1      -5.378  -0.920  -0.264  1.00  0.00    -0.004 C 
HETATM   22  C14 UNL     1      -6.150  -1.602   0.819  1.00  0.00    -0.009 C 
HETATM   23  C15 UNL     1      -7.579  -1.485   0.271  1.00  0.00     0.010 C 
HETATM   24  C17 UNL     1      -6.546  -0.463   1.733  1.00  0.00     0.010 C 
HETATM   25  C16 UNL     1      -7.349   0.000   0.507  1.00  0.00    -0.007 C 
HETATM   26  C18 UNL     1      -6.231   0.341  -0.427  1.00  0.00     0.018 C 
BRANCH  26  27
HETATM   27  C19 UNL     1      -6.685   0.505  -1.855  1.00  0.00     0.169 C 
BRANCH  27  28
HETATM   28  O3  UNL     1      -7.455   1.662  -1.957  1.00  0.00    -0.400 OA
ATOM     29  H3  UNL     1      -7.741   1.765  -2.857  1.00  0.00     0.209 HD
ENDBRANCH  27  28
ENDBRANCH  26  27
ENDBRANCH  20  21
ENDBRANCH  19  20
ENDBRANCH   3  19
TORSDOF 13
