REMARK  5 active torsions:
REMARK  status: ('A' for Active; 'I' for Inactive)
REMARK    1  A    between atoms: C2_2  and  C3_3 
REMARK    2  A    between atoms: C3_3  and  C4_4 
REMARK    3  A    between atoms: C4_4  and  C5_5 
REMARK    4  A    between atoms: N2_9  and  C7_10 
REMARK    5  A    between atoms: C15_18  and  O1_19 
ROOT
HETATM    1  C7  UNL     1       1.446  -1.805   1.276  1.00  0.00     0.116 C 
HETATM    2  C8  UNL     1       0.720  -0.648   1.977  1.00  0.00     0.033 C 
HETATM    3  C9  UNL     1      -0.557  -1.381   1.638  1.00  0.00     0.002 C 
HETATM    4  C10 UNL     1      -1.756  -0.586   1.304  1.00  0.00    -0.001 C 
HETATM    5  C11 UNL     1      -1.592   0.918   1.473  1.00  0.00     0.033 C 
HETATM    6  C12 UNL     1      -2.971   1.463   1.397  1.00  0.00    -0.023 C 
HETATM    7  C13 UNL     1      -3.861   0.950   0.608  1.00  0.00    -0.072 C 
HETATM    8  C14 UNL     1      -5.224   1.539   0.575  1.00  0.00     0.066 C 
HETATM    9  C15 UNL     1      -5.900   1.326  -0.729  1.00  0.00     0.122 C 
HETATM   10  C16 UNL     1      -5.067   1.045  -1.909  1.00  0.00     0.033 C 
HETATM   11  C17 UNL     1      -3.725   0.411  -1.681  1.00  0.00     0.016 C 
HETATM   12  C18 UNL     1      -3.618  -0.189  -0.284  1.00  0.00    -0.017 C 
HETATM   13  C19 UNL     1      -4.806  -1.179  -0.216  1.00  0.00     0.020 C 
HETATM   14  C20 UNL     1      -2.362  -0.915  -0.039  1.00  0.00     0.003 C 
HETATM   15  C21 UNL     1      -1.350  -0.903  -1.157  1.00  0.00     0.007 C 
HETATM   16  C22 UNL     1       0.071  -1.023  -0.712  1.00  0.00     0.012 C 
HETATM   17  C23 UNL     1       0.167  -1.953   0.443  1.00  0.00    -0.017 C 
HETATM   18  C24 UNL     1      -0.090  -3.393   0.144  1.00  0.00     0.018 C 
ENDROOT
BRANCH   1  19
HETATM   19  N2  UNL     1       2.596  -1.376   0.515  1.00  0.00    -0.298 N 
HETATM   20  N1  UNL     1       3.277  -2.050  -0.391  1.00  0.00    -0.309 N 
HETATM   21  C6  UNL     1       4.267  -1.311  -0.867  1.00  0.00     0.115 A 
ATOM     22  H1  UNL     1       3.070  -3.005  -0.684  1.00  0.00     0.186 HD
HETATM   23  C5  UNL     1       4.241  -0.081  -0.242  1.00  0.00    -0.024 A 
HETATM   24  C25 UNL     1       3.156  -0.159   0.637  1.00  0.00     0.119 A 
BRANCH  23  25
HETATM   25  C4  UNL     1       5.148   1.080  -0.441  1.00  0.00     0.041 C 
BRANCH  25  26
HETATM   26  C3  UNL     1       6.322   0.982   0.508  1.00  0.00     0.004 C 
BRANCH  26  27
HETATM   27  C2  UNL     1       7.266   2.164   0.323  1.00  0.00    -0.004 C 
HETATM   28  C1  UNL     1       7.757   2.134  -1.104  1.00  0.00     0.005 C 
ENDBRANCH  26  27
ENDBRANCH  25  26
ENDBRANCH  23  25
ENDBRANCH   1  19
BRANCH   9  29
HETATM   29  O1  UNL     1      -6.609   2.533  -0.987  1.00  0.00    -0.395 OA
ATOM     30  H1  UNL     1      -7.042   2.397  -1.822  1.00  0.00     0.210 HD
ENDBRANCH   9  29
TORSDOF 5
