REMARK  3 active torsions:
REMARK  status: ('A' for Active; 'I' for Inactive)
REMARK    1  A    between atoms: C6_7  and  C7_8 
REMARK    2  A    between atoms: C10_11  and  C11_12 
REMARK    3  A    between atoms: C15_17  and  O2_18 
ROOT
HETATM    1  N1  UNL     1      -8.194   2.090   2.085  1.00  0.00    -0.191 NA
HETATM    2  C1  UNL     1      -7.385   1.532   1.476  1.00  0.00     0.099 C 
HETATM    3  C2  UNL     1      -6.382   0.840   0.716  1.00  0.00     0.045 A 
HETATM    4  C3  UNL     1      -6.804  -0.194  -0.090  1.00  0.00     0.023 A 
HETATM    5  C4  UNL     1      -5.857  -0.870  -0.827  1.00  0.00     0.002 A 
HETATM    6  C5  UNL     1      -4.502  -0.517  -0.758  1.00  0.00     0.014 A 
HETATM    7  C6  UNL     1      -4.085   0.513   0.046  1.00  0.00    -0.001 A 
HETATM    8  C20 UNL     1      -5.043   1.174   0.772  1.00  0.00     0.037 A 
ENDROOT
BRANCH   7   9
HETATM    9  C7  UNL     1      -2.679   0.903   0.138  1.00  0.00     0.086 A 
HETATM   10  C8  UNL     1      -2.169   1.934   0.927  1.00  0.00     0.041 A 
HETATM   11  C9  UNL     1      -0.815   1.922   0.686  1.00  0.00     0.040 A 
HETATM   12  C10 UNL     1      -0.513   0.922  -0.214  1.00  0.00     0.079 A 
HETATM   13  O4  UNL     1      -1.688   0.353  -0.498  1.00  0.00    -0.310 OA
BRANCH  12  14
HETATM   14  C11 UNL     1       0.758   0.506  -0.781  1.00  0.00     0.080 C 
HETATM   15  C12 UNL     1       1.839   0.075  -0.190  1.00  0.00     0.146 A 
HETATM   16  O1  UNL     1       2.935  -0.248  -1.036  1.00  0.00    -0.303 OA
HETATM   17  C19 UNL     1       1.995  -0.099   1.233  1.00  0.00     0.280 A 
HETATM   18  C13 UNL     1       4.116  -0.712  -0.536  1.00  0.00     0.105 A 
HETATM   19  C14 UNL     1       5.166  -1.015  -1.417  1.00  0.00     0.076 A 
HETATM   20  C18 UNL     1       4.275  -0.879   0.813  1.00  0.00     0.069 A 
HETATM   21  C15 UNL     1       6.353  -1.477  -0.955  1.00  0.00     0.068 A 
HETATM   22  C16 UNL     1       6.529  -1.651   0.402  1.00  0.00     0.039 A 
HETATM   23  C17 UNL     1       5.487  -1.350   1.276  1.00  0.00     0.035 A 
HETATM   24  N2  UNL     1       3.246  -0.587   1.743  1.00  0.00    -0.319 N 
ATOM     25  H2  UNL     1       3.390  -0.719   2.744  1.00  0.00     0.169 HD
HETATM   26  O3  UNL     1       1.062   0.166   2.014  1.00  0.00    -0.265 OA
BRANCH  21  27
HETATM   27  O2  UNL     1       7.399  -1.779  -1.837  1.00  0.00    -0.361 OA
ATOM     28  H2  UNL     1       8.231  -2.103  -1.513  1.00  0.00     0.217 HD
ENDBRANCH  21  27
ENDBRANCH  12  14
ENDBRANCH   7   9
TORSDOF 3
