REMARK  3 active torsions:
REMARK  status: ('A' for Active; 'I' for Inactive)
REMARK    1  A    between atoms: O1_2  and  C2_3 
REMARK    2  A    between atoms: C4_5  and  O2_6 
REMARK    3  A    between atoms: C17_20  and  O4_21 
ROOT
HETATM    1  C2  UNL     1       3.543   0.964  -0.889  1.00  0.00     0.071 A 
HETATM    2  C3  UNL     1       3.264  -0.135  -0.110  1.00  0.00     0.074 A 
HETATM    3  C4  UNL     1       1.966  -0.542   0.233  1.00  0.00     0.083 A 
HETATM    4  C6  UNL     1       0.922   0.199  -0.235  1.00  0.00     0.025 A 
HETATM    5  C7  UNL     1       1.187   1.319  -1.025  1.00  0.00     0.033 A 
HETATM    6  C8  UNL     1       2.470   1.697  -1.348  1.00  0.00     0.053 A 
HETATM    7  C9  UNL     1      -0.074   1.936  -1.375  1.00  0.00     0.210 A 
HETATM    8  O3  UNL     1      -0.241   2.964  -2.075  1.00  0.00    -0.285 OA
HETATM    9  C10 UNL     1      -1.113   1.129  -0.754  1.00  0.00     0.098 A 
HETATM   10  C11 UNL     1      -0.543   0.102  -0.082  1.00  0.00     0.015 A 
HETATM   11  C12 UNL     1      -1.406  -0.846   0.629  1.00  0.00    -0.040 A 
HETATM   12  C13 UNL     1      -0.846  -2.031   1.300  1.00  0.00     0.050 C 
HETATM   13  C14 UNL     1      -2.743  -0.733   0.649  1.00  0.00    -0.026 A 
HETATM   14  C15 UNL     1      -3.524  -1.728   1.394  1.00  0.00     0.051 C 
HETATM   15  C16 UNL     1      -3.368   0.360  -0.065  1.00  0.00     0.063 A 
HETATM   16  C17 UNL     1      -4.676   0.468  -0.080  1.00  0.00     0.161 C 
HETATM   17  N1  UNL     1      -2.540   1.269  -0.752  1.00  0.00    -0.345 N 
HETATM   18  C18 UNL     1      -3.148   2.384  -1.467  1.00  0.00     0.156 C 
ENDROOT
BRANCH  16  19
HETATM   19  O4  UNL     1      -5.376   1.461  -0.722  1.00  0.00    -0.370 OA
ATOM     20  H4  UNL     1      -6.323   1.539  -0.733  1.00  0.00     0.216 HD
ENDBRANCH  16  19
BRANCH   3  21
HETATM   21  O2  UNL     1       1.907  -1.649   1.013  1.00  0.00    -0.355 OA
HETATM   22  C5  UNL     1       2.973  -2.398   1.486  1.00  0.00     0.210 C 
ENDBRANCH   3  21
BRANCH   1  23
HETATM   23  O1  UNL     1       4.832   1.348  -1.217  1.00  0.00    -0.356 OA
HETATM   24  C1  UNL     1       5.905   0.559  -0.719  1.00  0.00     0.210 C 
ENDBRANCH   1  23
TORSDOF 3
