REMARK  3 active torsions:
REMARK  status: ('A' for Active; 'I' for Inactive)
REMARK    1  A    between atoms: S1_2  and  N1_5 
REMARK    2  A    between atoms: N1_5  and  C3_7 
REMARK    3  A    between atoms: C3_7  and  C4_11 
ROOT
HETATM    1  C3  UNL     1       0.443  -1.072   0.259  1.00  0.00     0.086 C 
HETATM    2  N2  UNL     1       0.078  -2.162   0.823  1.00  0.00    -0.388 N 
ATOM      3  H21 UNL     1       0.790  -2.791   1.194  1.00  0.00     0.157 HD
ATOM      4  H22 UNL     1      -0.918  -2.373   0.885  1.00  0.00     0.157 HD
ENDROOT
BRANCH   1   5
HETATM    5  N1  UNL     1      -0.541  -0.203  -0.254  1.00  0.00    -0.306 N 
ATOM      6  H1  UNL     1      -0.346   0.309  -1.114  1.00  0.00     0.176 HD
BRANCH   5   7
HETATM    7  S1  UNL     1      -2.047   0.022   0.515  1.00  0.00     0.018 S 
HETATM    8  C1  UNL     1      -3.177  -0.930  -0.083  1.00  0.00     0.136 C 
HETATM    9  C2  UNL     1      -2.622   1.678   0.460  1.00  0.00     0.136 C 
HETATM   10  O1  UNL     1      -2.018  -0.437   1.959  1.00  0.00    -0.250 OA
ENDBRANCH   5   7
ENDBRANCH   1   5
BRANCH   1  11
HETATM   11  C4  UNL     1       1.883  -0.767   0.169  1.00  0.00     0.053 C 
HETATM   12  C5  UNL     1       2.423  -0.604  -1.226  1.00  0.00     0.012 C 
HETATM   13  C6  UNL     1       2.506   0.872  -1.014  1.00  0.00     0.002 C 
HETATM   14  C7  UNL     1       2.253   0.666   0.449  1.00  0.00     0.012 C 
ENDBRANCH   1  11
TORSDOF 3
