REMARK  9 active torsions:
REMARK  status: ('A' for Active; 'I' for Inactive)
REMARK    1  A    between atoms: C2_2  and  C3_3 
REMARK    2  A    between atoms: C7_7  and  C8_8 
REMARK    3  A    between atoms: C8_8  and  C9_9 
REMARK    4  A    between atoms: C9_9  and  C10_10 
REMARK    5  A    between atoms: C10_10  and  C11_12 
REMARK    6  A    between atoms: C11_12  and  C12_13 
REMARK    7  A    between atoms: C12_13  and  O2_14 
REMARK    8  A    between atoms: C12_13  and  C13_16 
REMARK    9  A    between atoms: C13_16  and  C14_17 
ROOT
HETATM    1  C12 UNL     1      -0.653   0.080  -1.486  1.00  0.00     0.126 C 
ENDROOT
BRANCH   1   2
HETATM    2  C11 UNL     1       0.282   1.094  -0.988  1.00  0.00     0.110 C 
BRANCH   2   3
HETATM    3  C10 UNL     1       1.093   0.721   0.212  1.00  0.00     0.129 C 
HETATM    4  O1  UNL     1       1.023  -0.375   0.731  1.00  0.00    -0.298 OA
BRANCH   3   5
HETATM    5  C9  UNL     1       2.020   1.691   0.815  1.00  0.00     0.081 C 
BRANCH   5   6
HETATM    6  C8  UNL     1       3.342   1.836   0.211  1.00  0.00     0.039 C 
BRANCH   6   7
HETATM    7  C7  UNL     1       4.271   0.708   0.181  1.00  0.00     0.122 C 
HETATM    8  C6  UNL     1       3.817  -0.474  -0.590  1.00  0.00     0.032 C 
HETATM    9  C5  UNL     1       4.978  -0.938  -1.529  1.00  0.00     0.005 C 
HETATM   10  C4  UNL     1       6.241  -1.055  -0.743  1.00  0.00     0.032 C 
HETATM   11  C3  UNL     1       6.454   0.185   0.078  1.00  0.00     0.121 C 
HETATM   12  O4  UNL     1       5.543   1.151  -0.312  1.00  0.00    -0.381 OA
BRANCH  11  13
HETATM   13  C2  UNL     1       7.865   0.727  -0.159  1.00  0.00     0.027 C 
HETATM   14  C1  UNL     1       8.825  -0.359   0.259  1.00  0.00     0.007 C 
ENDBRANCH  11  13
ENDBRANCH   6   7
ENDBRANCH   5   6
ENDBRANCH   3   5
ENDBRANCH   2   3
ENDBRANCH   1   2
BRANCH   1  15
HETATM   15  O2  UNL     1      -1.287   0.647  -2.629  1.00  0.00    -0.395 OA
ATOM     16  H2  UNL     1      -1.893  -0.010  -2.952  1.00  0.00     0.210 HD
ENDBRANCH   1  15
BRANCH   1  17
HETATM   17  C13 UNL     1      -1.629  -0.571  -0.610  1.00  0.00     0.043 C 
BRANCH  17  18
HETATM   18  C14 UNL     1      -2.661   0.216   0.084  1.00  0.00    -0.021 C 
HETATM   19  C15 UNL     1      -2.214   1.263   1.053  1.00  0.00     0.017 C 
HETATM   20  C16 UNL     1      -3.552   0.987  -0.925  1.00  0.00     0.012 C 
HETATM   21  C17 UNL     1      -4.944   0.962  -0.271  1.00  0.00     0.010 C 
HETATM   22  C18 UNL     1      -4.992  -0.498   0.088  1.00  0.00     0.036 C 
HETATM   23  C19 UNL     1      -3.648  -0.661   0.784  1.00  0.00     0.101 C 
HETATM   24  C21 UNL     1      -6.049  -0.898   1.048  1.00  0.00     0.033 C 
HETATM   25  N1  UNL     1      -3.387  -2.062   0.778  1.00  0.00    -0.337 N 
HETATM   26  C20 UNL     1      -4.441  -2.834   1.409  1.00  0.00     0.317 C 
ATOM     27  H1  UNL     1      -2.548  -2.478   0.373  1.00  0.00     0.164 HD
HETATM   28  O3  UNL     1      -4.344  -4.050   1.626  1.00  0.00    -0.247 OA
HETATM   29  N2  UNL     1      -5.601  -2.081   1.759  1.00  0.00    -0.334 N 
ATOM     30  H2  UNL     1      -6.150  -2.394   2.560  1.00  0.00     0.165 HD
HETATM   31  C22 UNL     1      -7.311  -1.229   0.236  1.00  0.00     0.038 C 
HETATM   32  C23 UNL     1      -6.446   0.217   1.986  1.00  0.00     0.038 C 
ENDBRANCH  17  18
ENDBRANCH   1  17
TORSDOF 9
