REMARK  2 active torsions:
REMARK  status: ('A' for Active; 'I' for Inactive)
REMARK    1  A    between atoms: N1_1  and  N2_4 
REMARK    2  A    between atoms: N2_4  and  C1_6 
ROOT
HETATM    1  C1  UNL     1      -1.329   0.651  -0.263  1.00  0.00     0.072 A 
HETATM    2  C2  UNL     1       0.066   0.558  -0.167  1.00  0.00    -0.013 A 
HETATM    3  C3  UNL     1       0.698  -0.680  -0.022  1.00  0.00    -0.014 A 
HETATM    4  C4  UNL     1      -0.118  -1.787   0.020  1.00  0.00     0.051 A 
HETATM    5  C5  UNL     1      -1.494  -1.744  -0.070  1.00  0.00     0.092 A 
HETATM    6  O1  UNL     1      -2.242  -2.810  -0.027  1.00  0.00    -0.322 OA
HETATM    7  C6  UNL     1      -3.551  -2.788  -0.114  1.00  0.00     0.146 A 
HETATM    8  C7  UNL     1      -4.224  -1.599  -0.259  1.00  0.00     0.080 A 
HETATM    9  C8  UNL     1      -3.451  -0.431  -0.308  1.00  0.00     0.189 A 
HETATM   10  O2  UNL     1      -4.012   0.687  -0.441  1.00  0.00    -0.287 OA
HETATM   11  C9  UNL     1      -2.084  -0.489  -0.214  1.00  0.00     0.076 A 
HETATM   12  C10 UNL     1       2.145  -0.483   0.051  1.00  0.00    -0.019 A 
HETATM   13  C11 UNL     1       3.182  -1.386   0.194  1.00  0.00     0.013 A 
HETATM   14  C12 UNL     1       4.471  -0.956   0.239  1.00  0.00     0.001 A 
HETATM   15  C13 UNL     1       4.730   0.400   0.139  1.00  0.00     0.001 A 
HETATM   16  C14 UNL     1       3.687   1.296  -0.003  1.00  0.00     0.008 A 
HETATM   17  C15 UNL     1       2.368   0.874  -0.050  1.00  0.00    -0.043 A 
HETATM   18  C16 UNL     1       1.087   1.611  -0.194  1.00  0.00     0.081 A 
ENDROOT
BRANCH   1  19
HETATM   19  N2  UNL     1      -1.946   1.913  -0.410  1.00  0.00    -0.306 N 
ATOM     20  H2  UNL     1      -2.202   2.222  -1.348  1.00  0.00     0.186 HD
BRANCH  19  21
HETATM   21  N1  UNL     1      -2.223   2.761   0.672  1.00  0.00    -0.345 N 
ATOM     22  H12 UNL     1      -1.960   2.436   1.602  1.00  0.00     0.176 HD
ATOM     23  H11 UNL     1      -2.669   3.672   0.566  1.00  0.00     0.176 HD
ENDBRANCH  19  21
ENDBRANCH   1  19
TORSDOF 2
