REMARK  11 active torsions:
REMARK  status: ('A' for Active; 'I' for Inactive)
REMARK    1  A    between atoms: C2_2  and  C3_3 
REMARK    2  A    between atoms: C11_11  and  C12_12 
REMARK    3  A    between atoms: C11_11  and  C15_17 
REMARK    4  A    between atoms: C12_12  and  O1_13 
REMARK    5  A    between atoms: O1_13  and  C13_14 
REMARK    6  A    between atoms: C24_28  and  O5_29 
REMARK    7  A    between atoms: O5_29  and  C25_30 
REMARK    8  A    between atoms: C25_30  and  C26_32 
REMARK    9  A    between atoms: C26_32  and  O7_33 
REMARK   10  A    between atoms: C26_32  and  N1_35 
REMARK   11  A    between atoms: N1_35  and  C27_37 
ROOT
HETATM    1  C3  UNL     1       1.845  -0.372  -1.946  1.00  0.00     0.000 C 
HETATM    2  C4  UNL     1       2.244   0.652  -3.006  1.00  0.00     0.022 C 
HETATM    3  C5  UNL     1       0.364  -0.412  -1.897  1.00  0.00     0.022 C 
HETATM    4  C6  UNL     1      -0.247  -0.527  -0.490  1.00  0.00     0.003 C 
HETATM    5  C7  UNL     1       0.336   0.419   0.464  1.00  0.00    -0.037 C 
HETATM    6  C8  UNL     1       0.718  -0.140   1.821  1.00  0.00     0.015 C 
HETATM    7  C9  UNL     1      -0.487   1.704   0.669  1.00  0.00     0.011 C 
HETATM    8  C10 UNL     1      -1.502   1.361   1.663  1.00  0.00     0.024 C 
HETATM    9  C11 UNL     1      -2.798   1.142   0.886  1.00  0.00     0.074 C 
HETATM   10  C16 UNL     1      -2.649   0.389  -0.358  1.00  0.00     0.015 C 
HETATM   11  C17 UNL     1      -4.049   0.008  -0.788  1.00  0.00     0.007 C 
HETATM   12  C18 UNL     1      -4.061  -0.333  -2.293  1.00  0.00     0.000 C 
HETATM   13  C19 UNL     1      -3.362  -1.694  -2.254  1.00  0.00     0.001 C 
HETATM   14  C20 UNL     1      -1.955  -1.378  -1.873  1.00  0.00     0.010 C 
HETATM   15  C21 UNL     1      -1.733  -0.733  -0.508  1.00  0.00    -0.035 C 
HETATM   16  C22 UNL     1      -2.105  -1.893   0.438  1.00  0.00     0.016 C 
HETATM   17  C23 UNL     1       1.667   1.018  -0.036  1.00  0.00     0.043 C 
HETATM   18  C24 UNL     1       2.473  -0.067  -0.611  1.00  0.00     0.144 C 
ENDROOT
BRANCH  18  19
HETATM   19  O5  UNL     1       3.853   0.169  -0.681  1.00  0.00    -0.311 OA
BRANCH  19  20
HETATM   20  C25 UNL     1       4.796  -0.636  -0.087  1.00  0.00     0.308 C 
HETATM   21  O6  UNL     1       4.363  -1.624   0.542  1.00  0.00    -0.260 OA
BRANCH  20  22
HETATM   22  C26 UNL     1       6.256  -0.394  -0.155  1.00  0.00     0.315 C 
BRANCH  22  23
HETATM   23  O7  UNL     1       6.938  -1.382   0.547  1.00  0.00    -0.368 OA
ATOM     24  H7  UNL     1       7.874  -1.227   0.503  1.00  0.00     0.212 HD
ENDBRANCH  22  23
BRANCH  22  25
HETATM   25  N1  UNL     1       6.519   0.874   0.451  1.00  0.00    -0.389 N 
ATOM     26  H1  UNL     1       6.920   1.652  -0.072  1.00  0.00     0.156 HD
BRANCH  25  27
HETATM   27  C27 UNL     1       6.184   0.981   1.835  1.00  0.00     0.112 C 
HETATM   28  C28 UNL     1       7.034   0.170   2.755  1.00  0.00     0.026 C 
ENDBRANCH  25  27
ENDBRANCH  22  25
ENDBRANCH  20  22
ENDBRANCH  19  20
ENDBRANCH  18  19
BRANCH   1  29
HETATM   29  C2  UNL     1       2.494  -1.641  -2.386  1.00  0.00    -0.025 C 
HETATM   30  C1  UNL     1       3.021  -1.831  -3.588  1.00  0.00     0.008 C 
ENDBRANCH   1  29
BRANCH   9  31
HETATM   31  C12 UNL     1      -3.768   0.738   1.931  1.00  0.00     0.199 C 
BRANCH  31  32
HETATM   32  O1  UNL     1      -5.085   0.469   1.540  1.00  0.00    -0.320 OA
BRANCH  32  33
HETATM   33  C13 UNL     1      -6.003   0.095   2.480  1.00  0.00     0.254 C 
HETATM   34  C14 UNL     1      -7.391  -0.184   2.049  1.00  0.00     0.126 C 
HETATM   35  O2  UNL     1      -5.641  -0.000   3.687  1.00  0.00    -0.266 OA
ENDBRANCH  32  33
ENDBRANCH  31  32
ENDBRANCH   9  31
BRANCH   9  36
HETATM   36  C15 UNL     1      -3.209   2.554   0.502  1.00  0.00     0.184 C 
HETATM   37  O3  UNL     1      -3.350   2.940  -0.664  1.00  0.00    -0.647 OA
HETATM   38  O4  UNL     1      -3.451   3.496   1.507  1.00  0.00    -0.647 OA
ENDBRANCH   9  36
TORSDOF 11
