REMARK  5 active torsions:
REMARK  status: ('A' for Active; 'I' for Inactive)
REMARK    1  A    between atoms: C3_4  and  C4_5 
REMARK    2  A    between atoms: C6_7  and  C7_8 
REMARK    3  A    between atoms: C8_9  and  C9_10 
REMARK    4  A    between atoms: N3_26  and  C21_27 
REMARK    5  A    between atoms: C21_27  and  C22_28 
ROOT
HETATM    1  O1  UNL     1      -3.075   2.895   0.745  1.00  0.00    -0.267 OA
HETATM    2  C1  UNL     1      -3.059   1.645   0.741  1.00  0.00     0.259 A 
HETATM    3  C2  UNL     1      -1.782   0.864   0.642  1.00  0.00     0.047 A 
HETATM    4  C3  UNL     1      -0.605   1.416   0.586  1.00  0.00     0.049 C 
HETATM    5  C15 UNL     1      -2.191  -0.529   0.672  1.00  0.00     0.007 A 
HETATM    6  C16 UNL     1      -1.477  -1.725   0.639  1.00  0.00     0.015 A 
HETATM    7  C17 UNL     1      -2.131  -2.937   0.702  1.00  0.00     0.001 A 
HETATM    8  C18 UNL     1      -3.498  -2.972   0.800  1.00  0.00     0.002 A 
HETATM    9  C19 UNL     1      -4.256  -1.825   0.840  1.00  0.00     0.030 A 
HETATM   10  C20 UNL     1      -3.588  -0.617   0.776  1.00  0.00     0.049 A 
HETATM   11  N3  UNL     1      -4.098   0.719   0.817  1.00  0.00    -0.307 N 
ENDROOT
BRANCH   4  12
HETATM   12  C4  UNL     1       0.742   0.893   0.480  1.00  0.00     0.051 A 
HETATM   13  C5  UNL     1       1.306   0.179  -0.531  1.00  0.00     0.061 A 
HETATM   14  C6  UNL     1       2.655  -0.123  -0.231  1.00  0.00     0.050 A 
HETATM   15  N1  UNL     1       2.811   0.448   0.980  1.00  0.00    -0.300 N 
HETATM   16  N2  UNL     1       1.722   1.041   1.411  1.00  0.00    -0.300 N 
ATOM     17  H1  UNL     1       3.684   0.422   1.507  1.00  0.00     0.187 HD
ATOM     18  H2  UNL     1       1.627   1.533   2.300  1.00  0.00     0.187 HD
BRANCH  14  19
HETATM   19  C7  UNL     1       3.510  -0.959  -1.023  1.00  0.00     0.032 C 
HETATM   20  C8  UNL     1       4.747  -1.124  -1.154  1.00  0.00     0.013 C 
BRANCH  20  21
HETATM   21  C9  UNL     1       5.911  -0.527  -0.569  1.00  0.00    -0.036 A 
HETATM   22  C10 UNL     1       7.085  -1.307  -0.594  1.00  0.00     0.011 A 
HETATM   23  C11 UNL     1       8.305  -0.863  -0.180  1.00  0.00     0.001 A 
HETATM   24  C12 UNL     1       8.392   0.439   0.297  1.00  0.00     0.000 A 
HETATM   25  C13 UNL     1       7.264   1.237   0.338  1.00  0.00     0.001 A 
HETATM   26  C14 UNL     1       6.054   0.744  -0.093  1.00  0.00     0.011 A 
ENDBRANCH  20  21
ENDBRANCH  14  19
ENDBRANCH   4  12
BRANCH  11  27
HETATM   27  C21 UNL     1      -5.507   1.101   0.931  1.00  0.00     0.197 C 
BRANCH  27  28
HETATM   28  C22 UNL     1      -6.091   1.249  -0.443  1.00  0.00     0.070 A 
HETATM   29  C23 UNL     1      -5.497   1.106  -1.671  1.00  0.00     0.036 A 
HETATM   30  C24 UNL     1      -6.433   1.340  -2.656  1.00  0.00     0.027 A 
HETATM   31  C25 UNL     1      -7.594   1.624  -1.967  1.00  0.00     0.142 A 
HETATM   32  O2  UNL     1      -7.354   1.561  -0.679  1.00  0.00    -0.325 OA
ENDBRANCH  27  28
ENDBRANCH  11  27
TORSDOF 5
