REMARK  7 active torsions:
REMARK  status: ('A' for Active; 'I' for Inactive)
REMARK    1  A    between atoms: S1_2  and  C2_3 
REMARK    2  A    between atoms: C2_3  and  C3_4 
REMARK    3  A    between atoms: C3_4  and  C4_5 
REMARK    4  A    between atoms: C4_5  and  N1_6 
REMARK    5  A    between atoms: C4_5  and  C19_28 
REMARK       I    between atoms: N1_6  and  C5_8 
REMARK    6  A    between atoms: C5_8  and  C6_10 
REMARK    7  A    between atoms: C7_11  and  O2_12 
ROOT
HETATM    1  C6  UNL     1      -0.071   0.517   0.490  1.00  0.00     0.141 A 
HETATM    2  C7  UNL     1      -1.131   0.967   1.319  1.00  0.00     0.100 A 
HETATM    3  C8  UNL     1      -2.421   0.623   1.033  1.00  0.00     0.034 A 
HETATM    4  C9  UNL     1      -3.492   1.029   1.800  1.00  0.00     0.026 A 
HETATM    5  C10 UNL     1      -4.806   0.678   1.509  1.00  0.00    -0.026 A 
HETATM    6  C11 UNL     1      -5.927   1.147   2.375  1.00  0.00     0.051 C 
HETATM    7  C12 UNL     1      -5.010  -0.111   0.397  1.00  0.00     0.094 A 
HETATM    8  O3  UNL     1      -6.118  -0.595  -0.123  1.00  0.00    -0.321 OA
HETATM    9  C13 UNL     1      -5.818  -1.303  -1.200  1.00  0.00     0.150 A 
HETATM   10  C14 UNL     1      -4.451  -1.281  -1.395  1.00  0.00    -0.024 A 
HETATM   11  C15 UNL     1      -3.683  -1.940  -2.480  1.00  0.00     0.051 C 
HETATM   12  C16 UNL     1      -3.946  -0.514  -0.366  1.00  0.00     0.041 A 
HETATM   13  C17 UNL     1      -2.632  -0.168  -0.080  1.00  0.00     0.106 A 
HETATM   14  O4  UNL     1      -1.638  -0.564  -0.821  1.00  0.00    -0.273 OA
HETATM   15  C18 UNL     1      -0.361  -0.256  -0.585  1.00  0.00     0.307 A 
HETATM   16  O5  UNL     1       0.510  -0.717  -1.398  1.00  0.00    -0.259 OA
ENDROOT
BRANCH   1  17
HETATM   17  C5  UNL     1       1.259   0.912   0.844  1.00  0.00     0.261 C 
HETATM   18  N1  UNL     1       2.427   0.574   0.159  1.00  0.00    -0.342 N 
ATOM     19  H1  UNL     1       2.369  -0.008  -0.677  1.00  0.00     0.163 HD
HETATM   20  O1  UNL     1       1.448   1.654   1.890  1.00  0.00    -0.267 OA
BRANCH  18  21
HETATM   21  C4  UNL     1       3.748   1.048   0.629  1.00  0.00     0.186 C 
BRANCH  21  22
HETATM   22  C3  UNL     1       4.555  -0.146   1.033  1.00  0.00     0.046 C 
BRANCH  22  23
HETATM   23  C2  UNL     1       4.779  -1.124  -0.085  1.00  0.00     0.076 C 
BRANCH  23  24
HETATM   24  S1  UNL     1       5.652  -0.414  -1.483  1.00  0.00    -0.173 SA
HETATM   25  C1  UNL     1       5.843  -1.718  -2.744  1.00  0.00     0.089 C 
ENDBRANCH  23  24
ENDBRANCH  22  23
ENDBRANCH  21  22
BRANCH  21  26
HETATM   26  C19 UNL     1       4.367   1.887  -0.395  1.00  0.00     0.196 C 
HETATM   27  O6  UNL     1       3.834   2.152  -1.504  1.00  0.00    -0.646 OA
HETATM   28  O7  UNL     1       5.617   2.432  -0.145  1.00  0.00    -0.646 OA
ENDBRANCH  21  26
ENDBRANCH  18  21
ENDBRANCH   1  17
BRANCH   2  29
HETATM   29  O2  UNL     1      -0.830   1.754   2.412  1.00  0.00    -0.358 OA
ATOM     30  H2  UNL     1      -1.540   2.055   2.967  1.00  0.00     0.217 HD
ENDBRANCH   2  29
TORSDOF 7
