REMARK  9 active torsions:
REMARK  status: ('A' for Active; 'I' for Inactive)
REMARK    1  A    between atoms: C2_2  and  N1_3 
REMARK    2  A    between atoms: N1_3  and  C3_4 
REMARK    3  A    between atoms: N1_3  and  C8_10 
REMARK    4  A    between atoms: C3_4  and  C4_5 
REMARK    5  A    between atoms: C4_5  and  C5_6 
REMARK    6  A    between atoms: C5_6  and  N2_7 
REMARK    7  A    between atoms: C8_10  and  C9_11 
REMARK       I    between atoms: C9_11  and  N3_13 
REMARK    8  A    between atoms: N3_13  and  C10_15 
REMARK    9  A    between atoms: N6_30  and  C20_31 
ROOT
HETATM    1  C10 UNL     1      -0.902   1.758  -0.588  1.00  0.00     0.152 A 
HETATM    2  N4  UNL     1      -0.188   2.452   0.351  1.00  0.00    -0.283 N 
ATOM      3  H4  UNL     1       0.702   2.924   0.191  1.00  0.00     0.188 HD
HETATM    4  N5  UNL     1      -0.837   2.410   1.490  1.00  0.00    -0.293 N 
ATOM      5  H5  UNL     1      -0.537   2.843   2.364  1.00  0.00     0.187 HD
HETATM    6  C11 UNL     1      -1.974   1.694   1.310  1.00  0.00     0.130 A 
HETATM    7  C12 UNL     1      -2.973   1.362   2.190  1.00  0.00     0.214 A 
HETATM    8  O2  UNL     1      -2.881   1.767   3.377  1.00  0.00    -0.285 OA
HETATM    9  C13 UNL     1      -4.014   0.604   1.708  1.00  0.00     0.043 A 
HETATM   10  C14 UNL     1      -5.015   0.256   2.587  1.00  0.00     0.018 A 
HETATM   11  C15 UNL     1      -6.072  -0.513   2.153  1.00  0.00     0.008 A 
HETATM   12  C16 UNL     1      -6.134  -0.936   0.845  1.00  0.00    -0.060 A 
HETATM   13  C17 UNL     1      -7.299  -1.764   0.437  1.00  0.00     0.048 C 
HETATM   14  C18 UNL     1      -5.137  -0.598  -0.058  1.00  0.00     0.037 A 
HETATM   15  C19 UNL     1      -4.078   0.177   0.384  1.00  0.00     0.049 A 
HETATM   16  N6  UNL     1      -3.082   0.515  -0.475  1.00  0.00    -0.341 N 
HETATM   17  C22 UNL     1      -2.055   1.261   0.001  1.00  0.00     0.113 A 
ENDROOT
BRANCH   1  18
HETATM   18  N3  UNL     1      -0.563   1.593  -1.802  1.00  0.00    -0.309 N 
HETATM   19  C9  UNL     1       0.632   2.128  -2.340  1.00  0.00     0.251 C 
HETATM   20  O1  UNL     1       0.580   3.123  -3.153  1.00  0.00    -0.271 OA
ATOM     21  H3  UNL     1      -1.177   1.054  -2.413  1.00  0.00     0.170 HD
BRANCH  19  22
HETATM   22  C8  UNL     1       1.991   1.644  -2.051  1.00  0.00     0.374 C 
BRANCH  22  23
HETATM   23  N1  UNL     1       2.073   0.518  -1.164  1.00  0.00     0.097 N 
BRANCH  23  24
HETATM   24  C2  UNL     1       1.605  -0.680  -1.734  1.00  0.00     0.268 C 
HETATM   25  C1  UNL     1       1.189  -1.697  -0.688  1.00  0.00     0.037 C 
ENDBRANCH  23  24
BRANCH  23  26
HETATM   26  C3  UNL     1       3.295   0.554  -0.473  1.00  0.00     0.275 C 
BRANCH  26  27
HETATM   27  C4  UNL     1       3.414  -0.152   0.826  1.00  0.00     0.060 C 
BRANCH  27  28
HETATM   28  C5  UNL     1       4.831   0.072   1.351  1.00  0.00     0.273 C 
BRANCH  28  29
HETATM   29  N2  UNL     1       5.825  -0.428   0.459  1.00  0.00     0.080 N 
HETATM   30  C6  UNL     1       7.128  -0.183   1.039  1.00  0.00     0.309 C 
HETATM   31  C7  UNL     1       5.719  -1.816   0.141  1.00  0.00     0.309 C 
ENDBRANCH  28  29
ENDBRANCH  27  28
ENDBRANCH  26  27
ENDBRANCH  23  26
ENDBRANCH  22  23
ENDBRANCH  19  22
ENDBRANCH   1  18
BRANCH  16  32
HETATM   32  C20 UNL     1      -3.171   0.113  -1.849  1.00  0.00     0.125 C 
HETATM   33  C21 UNL     1      -2.570  -1.233  -2.045  1.00  0.00     0.027 C 
ENDBRANCH  16  32
TORSDOF 9
