REMARK  7 active torsions:
REMARK  status: ('A' for Active; 'I' for Inactive)
REMARK    1  A    between atoms: C6_9  and  C7_10 
REMARK    2  A    between atoms: C7_10  and  O1_11 
REMARK    3  A    between atoms: O1_11  and  C8_12 
REMARK    4  A    between atoms: C13_19  and  C14_20 
REMARK       I    between atoms: C14_20  and  N2_22 
REMARK    5  A    between atoms: N2_22  and  C15_24 
REMARK    6  A    between atoms: C15_24  and  C16_25 
REMARK    7  A    between atoms: C16_25  and  N3_26 
ROOT
HETATM    1  C8  UNL     1      -1.364  -0.309  -2.811  1.00  0.00     0.086 A 
HETATM    2  C9  UNL     1      -2.366  -0.436  -3.797  1.00  0.00     0.063 A 
HETATM    3  C10 UNL     1      -2.100  -0.101  -5.096  1.00  0.00     0.054 A 
HETATM    4 CL1  UNL     1      -3.290  -0.236  -6.346  1.00  0.00    -0.083 Cl
HETATM    5  C11 UNL     1      -0.842   0.354  -5.387  1.00  0.00     0.033 A 
HETATM    6 BR1  UNL     1      -0.406   0.839  -7.184  1.00  0.00    -0.049 Br
HETATM    7  C12 UNL     1       0.146   0.485  -4.448  1.00  0.00     0.040 A 
HETATM    8  C13 UNL     1      -0.105   0.146  -3.104  1.00  0.00     0.066 A 
ENDROOT
BRANCH   8   9
HETATM    9  C14 UNL     1       0.942   0.289  -2.118  1.00  0.00     0.254 C 
HETATM   10  O2  UNL     1       2.057   0.737  -2.604  1.00  0.00    -0.268 OA
HETATM   11  N2  UNL     1       0.912   0.015  -0.740  1.00  0.00    -0.355 N 
ATOM     12  H2  UNL     1       0.048  -0.348  -0.337  1.00  0.00     0.162 HD
BRANCH  11  13
HETATM   13  C15 UNL     1       2.050   0.223   0.138  1.00  0.00     0.143 C 
BRANCH  13  14
HETATM   14  C16 UNL     1       2.401   1.662   0.193  1.00  0.00     0.146 C 
BRANCH  14  15
HETATM   15  N3  UNL     1       3.520   1.955   1.053  1.00  0.00    -0.372 N 
HETATM   16  C17 UNL     1       3.299   1.770   2.429  1.00  0.00     0.063 C 
HETATM   17  C18 UNL     1       3.919   0.546   3.000  1.00  0.00     0.045 C 
HETATM   18  C19 UNL     1       5.002  -0.082   2.195  1.00  0.00     0.010 C 
HETATM   19  C20 UNL     1       5.736   1.024   1.458  1.00  0.00     0.045 C 
HETATM   20  C21 UNL     1       4.779   1.662   0.500  1.00  0.00     0.063 C 
ENDBRANCH  14  15
ENDBRANCH  13  14
ENDBRANCH  11  13
ENDBRANCH   8   9
BRANCH   1  21
HETATM   21  O1  UNL     1      -1.708  -0.668  -1.520  1.00  0.00    -0.349 OA
BRANCH  21  22
HETATM   22  C7  UNL     1      -3.001  -1.130  -1.239  1.00  0.00     0.186 C 
BRANCH  22  23
HETATM   23  C6  UNL     1      -3.143  -1.461   0.214  1.00  0.00     0.055 C 
HETATM   24  C1  UNL     1      -2.910  -0.317   1.118  1.00  0.00    -0.014 C 
HETATM   25  N1  UNL     1      -2.716   0.868   0.719  1.00  0.00    -0.405 N 
HETATM   26  C2  UNL     1      -2.914  -0.600   2.581  1.00  0.00     0.052 C 
ATOM     27  H12 UNL     1      -2.555   1.658   1.343  1.00  0.00     0.155 HD
ATOM     28  H11 UNL     1      -2.713   1.062  -0.282  1.00  0.00     0.155 HD
HETATM   29  C3  UNL     1      -4.251  -1.244   2.893  1.00  0.00     0.006 C 
HETATM   30  C4  UNL     1      -5.155  -1.304   1.695  1.00  0.00     0.001 C 
HETATM   31  C5  UNL     1      -4.544  -1.960   0.490  1.00  0.00     0.013 C 
ENDBRANCH  22  23
ENDBRANCH  21  22
ENDBRANCH   1  21
TORSDOF 7
