REMARK  3 active torsions:
REMARK  status: ('A' for Active; 'I' for Inactive)
REMARK    1  A    between atoms: N2_4  and  N3_6 
REMARK    2  A    between atoms: C1_8  and  N4_9 
REMARK    3  A    between atoms: N4_9  and  C2_11 
ROOT
HETATM    1  N3  UNL     1       1.984   0.088   0.667  1.00  0.00    -0.283 N 
ATOM      2  H3  UNL     1       1.512   0.702   1.331  1.00  0.00     0.189 HD
HETATM    3  C1  UNL     1       1.264  -0.787   0.073  1.00  0.00     0.194 C 
ENDROOT
BRANCH   1   4
HETATM    4  N2  UNL     1       3.338   0.278   0.493  1.00  0.00    -0.248 N 
HETATM    5  N1  UNL     1       3.722   1.444   0.120  1.00  0.00    -0.331 N 
ATOM      6  H12 UNL     1       3.042   2.188  -0.037  1.00  0.00     0.178 HD
ATOM      7  H11 UNL     1       4.724   1.585  -0.009  1.00  0.00     0.178 HD
ATOM      8  H2  UNL     1       4.006  -0.476   0.654  1.00  0.00     0.207 HD
ENDBRANCH   1   4
BRANCH   3   9
HETATM    9  N4  UNL     1      -0.113  -0.842   0.374  1.00  0.00    -0.380 N 
ATOM     10  H4  UNL     1      -0.443  -1.417   1.149  1.00  0.00     0.160 HD
BRANCH   9  11
HETATM   11  C2  UNL     1      -1.047  -0.091  -0.408  1.00  0.00     0.082 A 
HETATM   12  C3  UNL     1      -2.480  -0.191  -0.042  1.00  0.00     0.027 A 
HETATM   13  C4  UNL     1      -1.758   1.094   0.233  1.00  0.00     0.027 A 
ENDBRANCH   9  11
ENDBRANCH   3   9
TORSDOF 3
