REMARK  9 active torsions:
REMARK  status: ('A' for Active; 'I' for Inactive)
REMARK    1  A    between atoms: C3_3  and  C4_4 
REMARK    2  A    between atoms: C4_4  and  C5_5 
REMARK    3  A    between atoms: C5_5  and  C6_10 
REMARK    4  A    between atoms: N1_6  and  O1_8 
REMARK       I    between atoms: C6_10  and  N2_12 
REMARK    5  A    between atoms: C15_21  and  C16_22 
REMARK       I    between atoms: C16_22  and  N3_24 
REMARK    6  A    between atoms: N3_24  and  C17_26 
REMARK    7  A    between atoms: C17_26  and  C18_27 
REMARK    8  A    between atoms: C17_26  and  C20_31 
REMARK    9  A    between atoms: C18_27  and  C19_28 
ROOT
HETATM    1  C1  UNL     1       3.902   1.400  -1.869  1.00  0.00     0.015 C 
HETATM    2  C2  UNL     1       3.236   0.698  -1.008  1.00  0.00    -0.076 C 
HETATM    3  C3  UNL     1       2.945   0.511   0.422  1.00  0.00     0.025 C 
HETATM    4  C9  UNL     1       1.553   0.136  -0.051  1.00  0.00     0.007 C 
HETATM    5  C10 UNL     1       0.795  -0.919   0.637  1.00  0.00     0.016 C 
HETATM    6  C11 UNL     1      -0.644  -0.872   0.120  1.00  0.00     0.020 C 
HETATM    7  C12 UNL     1      -0.760  -0.181  -1.164  1.00  0.00    -0.072 C 
HETATM    8  C13 UNL     1      -1.824   0.398  -1.735  1.00  0.00    -0.058 A 
HETATM    9  C14 UNL     1      -2.738   1.143  -2.710  1.00  0.00     0.059 A 
HETATM   10  C15 UNL     1      -3.252   0.631  -1.391  1.00  0.00     0.068 A 
HETATM   11  C21 UNL     1      -3.942  -0.715  -1.424  1.00  0.00     0.025 C 
HETATM   12  C22 UNL     1      -3.563  -1.441  -0.173  1.00  0.00     0.011 C 
HETATM   13  C23 UNL     1      -2.551  -2.524  -0.308  1.00  0.00    -0.035 C 
HETATM   14  C24 UNL     1      -2.531  -3.156  -1.682  1.00  0.00     0.010 C 
HETATM   15  C25 UNL     1      -1.836  -4.508  -1.689  1.00  0.00     0.006 C 
HETATM   16  C26 UNL     1      -1.123  -4.633  -0.380  1.00  0.00    -0.006 C 
HETATM   17  C27 UNL     1      -0.305  -3.379  -0.140  1.00  0.00     0.011 C 
HETATM   18  C28 UNL     1      -1.199  -2.224   0.262  1.00  0.00     0.002 C 
HETATM   19  C29 UNL     1      -2.178  -4.821   0.683  1.00  0.00    -0.043 C 
HETATM   20  C30 UNL     1      -2.946  -6.086   0.290  1.00  0.00     0.015 C 
HETATM   21  C31 UNL     1      -1.611  -5.060   2.043  1.00  0.00     0.015 C 
HETATM   22  C32 UNL     1      -3.112  -3.669   0.582  1.00  0.00     0.019 C 
HETATM   23  C33 UNL     1       0.121   0.174  -2.301  1.00  0.00     0.036 C 
HETATM   24  C34 UNL     1       1.432  -0.490  -2.378  1.00  0.00     0.018 C 
HETATM   25  C35 UNL     1       2.309  -0.474  -1.208  1.00  0.00    -0.016 C 
HETATM   26  C36 UNL     1       3.059  -1.723  -0.999  1.00  0.00     0.020 C 
ENDROOT
BRANCH  10  27
HETATM   27  C16 UNL     1      -3.680   1.655  -0.440  1.00  0.00     0.231 C 
HETATM   28  O3  UNL     1      -4.413   1.346   0.575  1.00  0.00    -0.272 OA
HETATM   29  N3  UNL     1      -3.362   3.020  -0.518  1.00  0.00    -0.345 N 
ATOM     30  H3  UNL     1      -2.784   3.348  -1.292  1.00  0.00     0.163 HD
BRANCH  29  31
HETATM   31  C17 UNL     1      -3.839   4.006   0.491  1.00  0.00     0.195 C 
BRANCH  31  32
HETATM   32  C18 UNL     1      -2.650   4.588   1.189  1.00  0.00     0.149 C 
BRANCH  32  33
HETATM   33  C19 UNL     1      -2.997   5.511   2.252  1.00  0.00     0.175 C 
HETATM   34  O4  UNL     1      -4.166   5.625   2.693  1.00  0.00    -0.648 OA
HETATM   35  O5  UNL     1      -2.028   6.350   2.864  1.00  0.00    -0.648 OA
ENDBRANCH  32  33
ENDBRANCH  31  32
BRANCH  31  36
HETATM   36  C20 UNL     1      -4.546   5.081  -0.249  1.00  0.00     0.197 C 
HETATM   37  O6  UNL     1      -4.592   4.985  -1.526  1.00  0.00    -0.646 OA
HETATM   38  O7  UNL     1      -5.165   6.178   0.272  1.00  0.00    -0.646 OA
ENDBRANCH  31  36
ENDBRANCH  29  31
ENDBRANCH  10  27
BRANCH   3  39
HETATM   39  C4  UNL     1       3.001   1.677   1.350  1.00  0.00     0.074 C 
BRANCH  39  40
HETATM   40  C5  UNL     1       4.360   2.270   1.354  1.00  0.00     0.100 C 
HETATM   41  N1  UNL     1       4.520   3.528   1.015  1.00  0.00    -0.268 N 
ATOM     42  H1  UNL     1       5.445   3.958   1.006  1.00  0.00     0.194 HD
BRANCH  41  43
HETATM   43  O1  UNL     1       3.409   4.241   0.676  1.00  0.00    -0.290 OA
ATOM     44  H1  UNL     1       3.525   5.151   0.431  1.00  0.00     0.244 HD
ENDBRANCH  41  43
BRANCH  40  45
HETATM   45  C6  UNL     1       5.545   1.551   1.744  1.00  0.00     0.267 C 
HETATM   46  O2  UNL     1       5.397   0.324   2.083  1.00  0.00    -0.266 OA
HETATM   47  N2  UNL     1       6.862   2.032   1.802  1.00  0.00    -0.356 N 
HETATM   48  C7  UNL     1       7.976   1.165   2.231  1.00  0.00     0.152 C 
HETATM   49  C8  UNL     1       7.189   3.384   1.453  1.00  0.00     0.152 C 
ENDBRANCH  40  45
ENDBRANCH  39  40
ENDBRANCH   3  39
TORSDOF 9
