REMARK  16 active torsions:
REMARK  status: ('A' for Active; 'I' for Inactive)
REMARK    1  A    between atoms: C1_2  and  C2_4 
REMARK       I    between atoms: C2_4  and  N2_6 
REMARK    2  A    between atoms: C3_7  and  O3_8 
REMARK    3  A    between atoms: C4_10  and  O4_11 
REMARK    4  A    between atoms: O4_11  and  C5_12 
REMARK    5  A    between atoms: C9_16  and  O5_17 
REMARK    6  A    between atoms: C12_22  and  O7_23 
REMARK    7  A    between atoms: O7_23  and  C13_24 
REMARK    8  A    between atoms: C13_24  and  C14_26 
REMARK       I    between atoms: N3_28  and  C16_29 
REMARK    9  A    between atoms: C16_29  and  C17_31 
REMARK   10  A    between atoms: C17_31  and  O10_32 
REMARK   11  A    between atoms: C17_31  and  C18_34 
REMARK   12  A    between atoms: C18_34  and  O11_35 
REMARK   13  A    between atoms: C18_34  and  C19_37 
REMARK   14  A    between atoms: C19_37  and  O12_38 
REMARK   15  A    between atoms: C22_44  and  O15_45 
REMARK   16  A    between atoms: C23_47  and  C24_48 
ROOT
HETATM    1  C5  UNL     1      -1.859  -0.334   0.410  1.00  0.00     0.185 C 
HETATM    2  C6  UNL     1      -1.518   0.120   1.798  1.00  0.00     0.153 C 
HETATM    3  C7  UNL     1      -1.901  -0.907   2.807  1.00  0.00     0.037 C 
HETATM    4  C8  UNL     1      -2.594  -2.109   2.260  1.00  0.00     0.037 C 
HETATM    5  C9  UNL     1      -1.988  -2.687   1.024  1.00  0.00     0.149 C 
HETATM    6  C10 UNL     1      -1.214  -1.689   0.193  1.00  0.00     0.182 C 
HETATM    7  O6  UNL     1       0.100  -1.703   0.614  1.00  0.00    -0.370 OA
HETATM    8  C11 UNL     1       0.837  -0.638   0.103  1.00  0.00     0.180 C 
HETATM    9  C12 UNL     1       2.220  -0.574   0.660  1.00  0.00     0.165 C 
HETATM   10  C20 UNL     1       1.977   0.845   1.062  1.00  0.00     0.070 C 
HETATM   11  C21 UNL     1       0.502   0.638   0.797  1.00  0.00     0.156 C 
HETATM   12  O13 UNL     1      -0.201   0.461   1.977  1.00  0.00    -0.375 OA
ENDROOT
BRANCH   1  13
HETATM   13  O4  UNL     1      -3.245  -0.420   0.293  1.00  0.00    -0.346 OA
BRANCH  13  14
HETATM   14  C4  UNL     1      -3.738   0.394  -0.707  1.00  0.00     0.312 C 
HETATM   15  C3  UNL     1      -4.693   1.441  -0.136  1.00  0.00     0.279 C 
HETATM   16  N2  UNL     1      -6.049   0.969  -0.054  1.00  0.00    -0.293 N 
HETATM   17  C2  UNL     1      -7.033   1.688   0.693  1.00  0.00     0.311 C 
HETATM   18  C23 UNL     1      -6.493  -0.260  -0.739  1.00  0.00     0.246 C 
HETATM   19  O2  UNL     1      -8.213   1.209   0.737  1.00  0.00    -0.263 OA
HETATM   20  C22 UNL     1      -5.327  -1.130  -1.117  1.00  0.00     0.293 C 
HETATM   21  O14 UNL     1      -4.390  -0.274  -1.722  1.00  0.00    -0.325 OA
BRANCH  15  22
HETATM   22  O3  UNL     1      -4.610   2.568  -0.988  1.00  0.00    -0.371 OA
ATOM     23  H3  UNL     1      -3.714   2.880  -1.042  1.00  0.00     0.212 HD
ENDBRANCH  15  22
BRANCH  17  24
HETATM   24  C1  UNL     1      -6.799   2.908   1.397  1.00  0.00     0.322 C 
HETATM   25  N1  UNL     1      -7.901   3.507   2.119  1.00  0.00    -0.053 NA
HETATM   26  O1  UNL     1      -5.732   3.512   1.451  1.00  0.00    -0.266 OA
ENDBRANCH  17  24
BRANCH  18  27
HETATM   27  C24 UNL     1      -7.238   0.061  -1.964  1.00  0.00     0.202 C 
HETATM   28  O16 UNL     1      -7.417   1.253  -2.292  1.00  0.00    -0.646 OA
HETATM   29  O17 UNL     1      -7.737  -0.950  -2.750  1.00  0.00    -0.646 OA
ENDBRANCH  18  27
BRANCH  20  30
HETATM   30  O15 UNL     1      -5.690  -2.108  -2.042  1.00  0.00    -0.368 OA
ATOM     31  H15 UNL     1      -6.323  -2.686  -1.633  1.00  0.00     0.212 HD
ENDBRANCH  20  30
ENDBRANCH  13  14
ENDBRANCH   1  13
BRANCH   5  32
HETATM   32  O5  UNL     1      -1.160  -3.789   1.330  1.00  0.00    -0.393 OA
ATOM     33  H5  UNL     1      -0.774  -4.157   0.544  1.00  0.00     0.210 HD
ENDBRANCH   5  32
BRANCH   9  34
HETATM   34  O7  UNL     1       3.265  -0.776  -0.270  1.00  0.00    -0.311 OA
BRANCH  34  35
HETATM   35  C13 UNL     1       4.306  -1.674  -0.089  1.00  0.00     0.284 C 
HETATM   36  O8  UNL     1       4.295  -2.336   0.979  1.00  0.00    -0.263 OA
BRANCH  35  37
HETATM   37  C14 UNL     1       5.391  -1.874  -1.070  1.00  0.00     0.205 A 
HETATM   38  C15 UNL     1       5.168  -1.761  -2.512  1.00  0.00     0.162 A 
HETATM   39  N3  UNL     1       5.957  -0.762  -1.762  1.00  0.00    -0.332 N 
HETATM   40  C16 UNL     1       6.713   0.454  -1.855  1.00  0.00     0.252 C 
HETATM   41  O9  UNL     1       6.849   1.029  -2.967  1.00  0.00    -0.270 OA
BRANCH  40  42
HETATM   42  C17 UNL     1       7.334   1.040  -0.660  1.00  0.00     0.240 C 
BRANCH  42  43
HETATM   43  O10 UNL     1       6.889   0.292   0.477  1.00  0.00    -0.383 OA
ATOM     44  H10 UNL     1       7.291   0.671   1.250  1.00  0.00     0.210 HD
ENDBRANCH  42  43
BRANCH  42  45
HETATM   45  C18 UNL     1       8.854   0.944  -0.636  1.00  0.00     0.179 C 
BRANCH  45  46
HETATM   46  O11 UNL     1       9.332   1.480   0.576  1.00  0.00    -0.390 OA
ATOM     47  H11 UNL     1      10.280   1.420   0.591  1.00  0.00     0.210 HD
ENDBRANCH  45  46
BRANCH  45  48
HETATM   48  C19 UNL     1       9.436   1.710  -1.798  1.00  0.00     0.199 C 
BRANCH  48  49
HETATM   49  O12 UNL     1      10.852   1.614  -1.676  1.00  0.00    -0.398 OA
ATOM     50  H12 UNL     1      11.219   2.096  -2.408  1.00  0.00     0.209 HD
ENDBRANCH  48  49
ENDBRANCH  45  48
ENDBRANCH  42  45
ENDBRANCH  40  42
ENDBRANCH  35  37
ENDBRANCH  34  35
ENDBRANCH   9  34
TORSDOF 16
