REMARK  8 active torsions:
REMARK  status: ('A' for Active; 'I' for Inactive)
REMARK    1  A    between atoms: C2_2  and  C3_3 
REMARK    2  A    between atoms: C3_3  and  C4_4 
REMARK    3  A    between atoms: C8_13  and  O1_14 
REMARK    4  A    between atoms: O1_14  and  C9_15 
REMARK    5  A    between atoms: C9_15  and  C10_16 
REMARK    6  A    between atoms: C10_16  and  O2_17 
REMARK    7  A    between atoms: C10_16  and  C11_19 
REMARK    8  A    between atoms: C11_19  and  N3_20 
ROOT
HETATM    1  C4  UNL     1       2.965   1.003  -0.317  1.00  0.00     0.020 A 
HETATM    2  S1  UNL     1       3.398   0.756  -1.942  1.00  0.00    -0.072 SA
HETATM    3  C5  UNL     1       2.777  -0.813  -2.171  1.00  0.00     0.105 A 
HETATM    4  N1  UNL     1       2.610  -1.845  -3.041  1.00  0.00    -0.345 N 
ATOM      5  H1  UNL     1       2.921  -1.876  -4.012  1.00  0.00     0.167 HD
HETATM    6  C6  UNL     1       1.961  -2.811  -2.382  1.00  0.00     0.182 A 
HETATM    7  N2  UNL     1       1.738  -2.379  -1.141  1.00  0.00    -0.348 N 
ATOM      8  H2  UNL     1       1.258  -2.918  -0.420  1.00  0.00     0.167 HD
HETATM    9  C7  UNL     1       2.241  -1.110  -0.959  1.00  0.00     0.102 A 
HETATM   10  C8  UNL     1       2.330  -0.171   0.021  1.00  0.00     0.111 A 
ENDROOT
BRANCH  10  11
HETATM   11  O1  UNL     1       1.828  -0.347   1.304  1.00  0.00    -0.345 OA
BRANCH  11  12
HETATM   12  C9  UNL     1       0.658  -0.069   1.909  1.00  0.00     0.209 C 
BRANCH  12  13
HETATM   13  C10 UNL     1      -0.621  -0.659   1.447  1.00  0.00     0.160 C 
BRANCH  13  14
HETATM   14  O2  UNL     1      -0.672  -2.045   1.423  1.00  0.00    -0.392 OA
ATOM     15  H2  UNL     1      -1.492  -2.423   1.127  1.00  0.00     0.210 HD
ENDBRANCH  13  14
BRANCH  13  16
HETATM   16  C11 UNL     1      -1.240   0.011   0.246  1.00  0.00     0.155 C 
BRANCH  16  17
HETATM   17  N3  UNL     1      -2.620  -0.266   0.091  1.00  0.00    -0.391 N 
HETATM   18  C12 UNL     1      -3.535   0.249   1.025  1.00  0.00     0.122 C 
HETATM   19  C13 UNL     1      -4.530   1.113   0.234  1.00  0.00     0.020 C 
HETATM   20  C14 UNL     1      -5.330   0.119  -0.580  1.00  0.00     0.007 C 
HETATM   21  C15 UNL     1      -4.510  -0.841  -1.365  1.00  0.00     0.044 C 
HETATM   22  C16 UNL     1      -3.068  -0.936  -1.037  1.00  0.00     0.058 C 
ENDBRANCH  16  17
ENDBRANCH  13  16
ENDBRANCH  12  13
ENDBRANCH  11  12
ENDBRANCH  10  11
BRANCH   1  23
HETATM   23  C3  UNL     1       3.194   2.205   0.569  1.00  0.00     0.049 C 
BRANCH  23  24
HETATM   24  C2  UNL     1       4.314   1.873   1.535  1.00  0.00     0.001 C 
HETATM   25  C1  UNL     1       5.610   1.540   0.840  1.00  0.00     0.005 C 
ENDBRANCH  23  24
ENDBRANCH   1  23
TORSDOF 8
