REMARK  3 active torsions:
REMARK  status: ('A' for Active; 'I' for Inactive)
REMARK    1  A    between atoms: C12_14  and  O3_15 
REMARK    2  A    between atoms: O3_15  and  O4_16 
REMARK    3  A    between atoms: C13_18  and  C14_19 
ROOT
HETATM    1  C1  UNL     1      -2.499   1.244   2.349  1.00  0.00     0.049 C 
HETATM    2  C2  UNL     1      -1.872   1.704   1.291  1.00  0.00     0.082 C 
HETATM    3  O1  UNL     1      -1.444   3.001   1.138  1.00  0.00    -0.202 OA
HETATM    4  O2  UNL     1      -0.490   2.995   0.211  1.00  0.00    -0.224 OA
HETATM    5  C3  UNL     1      -0.832   1.995  -0.719  1.00  0.00     0.103 C 
HETATM    6  C4  UNL     1      -1.865   2.772  -1.579  1.00  0.00     0.050 C 
HETATM    7  C5  UNL     1       0.294   1.764  -1.604  1.00  0.00     0.042 C 
HETATM    8  C6  UNL     1       1.498   1.090  -1.094  1.00  0.00     0.011 C 
HETATM    9  C7  UNL     1       1.393   0.472   0.268  1.00  0.00     0.028 C 
HETATM   10  C8  UNL     1       2.705   0.134   0.871  1.00  0.00    -0.012 C 
HETATM   11  C9  UNL     1       3.876   0.052  -0.061  1.00  0.00     0.010 C 
HETATM   12  C10 UNL     1       2.447  -1.124   1.633  1.00  0.00     0.008 C 
HETATM   13  C11 UNL     1       0.975  -1.405   1.539  1.00  0.00     0.042 C 
HETATM   14  C12 UNL     1       0.466  -0.692   0.298  1.00  0.00     0.105 C 
HETATM   15  C13 UNL     1      -0.979  -0.356   0.339  1.00  0.00     0.040 C 
HETATM   16  C17 UNL     1      -1.488   0.970   0.053  1.00  0.00     0.089 C 
ENDROOT
BRANCH  14  17
HETATM   17  O3  UNL     1       0.665  -1.594  -0.746  1.00  0.00    -0.231 OA
BRANCH  17  18
HETATM   18  O4  UNL     1       1.820  -2.141  -0.808  1.00  0.00    -0.250 OA
ATOM     19  H4  UNL     1       1.956  -2.756  -1.519  1.00  0.00     0.253 HD
ENDBRANCH  17  18
ENDBRANCH  14  17
BRANCH  15  20
HETATM   20  C14 UNL     1      -1.874  -1.436  -0.291  1.00  0.00    -0.015 C 
HETATM   21  C15 UNL     1      -1.755  -2.765   0.412  1.00  0.00     0.010 C 
HETATM   22  C16 UNL     1      -1.853  -1.507  -1.750  1.00  0.00     0.010 C 
ENDBRANCH  15  20
TORSDOF 3
