REMARK  9 active torsions:
REMARK  status: ('A' for Active; 'I' for Inactive)
REMARK    1  A    between atoms: C2_2  and  N1_4 
REMARK       I    between atoms: N1_4  and  C4_6 
REMARK    2  A    between atoms: C4_6  and  C5_8 
REMARK    3  A    between atoms: C5_8  and  N2_9 
REMARK    4  A    between atoms: N2_9  and  C6_10 
REMARK       I    between atoms: N2_9  and  C13_21 
REMARK    5  A    between atoms: C6_10  and  C7_11 
REMARK       I    between atoms: C7_11  and  N3_13 
REMARK    6  A    between atoms: N3_13  and  N4_15 
REMARK    7  A    between atoms: C13_21  and  C14_23 
REMARK    8  A    between atoms: C14_23  and  O4_24 
REMARK    9  A    between atoms: N5_26  and  O5_28 
ROOT
HETATM    1  N2  UNL     1       1.221   0.680  -0.818  1.00  0.00    -0.328 N 
HETATM    2  C13 UNL     1       1.496   2.042  -0.690  1.00  0.00     0.297 C 
HETATM    3  O3  UNL     1       2.262   2.536  -1.605  1.00  0.00    -0.263 OA
ENDROOT
BRANCH   1   4
HETATM    4  C5  UNL     1       1.777  -0.051  -1.962  1.00  0.00     0.229 C 
BRANCH   4   5
HETATM    5  C4  UNL     1       3.098  -0.625  -1.642  1.00  0.00     0.235 C 
HETATM    6  N1  UNL     1       3.688  -0.492  -0.385  1.00  0.00    -0.356 N 
ATOM      7  H1  UNL     1       3.161   0.023   0.320  1.00  0.00     0.162 HD
HETATM    8  O1  UNL     1       3.745  -1.272  -2.530  1.00  0.00    -0.272 OA
BRANCH   6   9
HETATM    9  C2  UNL     1       4.976  -1.015   0.014  1.00  0.00     0.076 C 
HETATM   10  C1  UNL     1       5.779  -0.071   0.851  1.00  0.00     0.032 C 
HETATM   11  C3  UNL     1       4.814  -2.321   0.779  1.00  0.00     0.032 C 
ENDBRANCH   6   9
ENDBRANCH   4   5
ENDBRANCH   1   4
BRANCH   1  12
HETATM   12  C6  UNL     1       0.440  -0.045   0.133  1.00  0.00     0.231 C 
BRANCH  12  13
HETATM   13  C7  UNL     1      -1.023   0.035  -0.232  1.00  0.00     0.253 C 
HETATM   14  O2  UNL     1      -1.376   0.671  -1.240  1.00  0.00    -0.270 OA
HETATM   15  N3  UNL     1      -2.007  -0.608   0.560  1.00  0.00    -0.271 N 
ATOM     16  H3  UNL     1      -1.719  -1.132   1.386  1.00  0.00     0.189 HD
BRANCH  15  17
HETATM   17  N4  UNL     1      -3.312  -0.541   0.245  1.00  0.00    -0.325 N 
HETATM   18  C8  UNL     1      -4.219   0.125   1.106  1.00  0.00     0.142 C 
HETATM   19  C9  UNL     1      -5.633  -0.394   0.998  1.00  0.00     0.021 C 
HETATM   20  C10 UNL     1      -5.560  -1.697   0.210  1.00  0.00     0.003 C 
HETATM   21  C11 UNL     1      -5.129  -1.296  -1.206  1.00  0.00     0.021 C 
HETATM   22  C12 UNL     1      -3.738  -0.719  -1.090  1.00  0.00     0.142 C 
ENDBRANCH  15  17
ENDBRANCH  12  13
ENDBRANCH   1  12
BRANCH   2  23
HETATM   23  C14 UNL     1       1.055   2.980   0.302  1.00  0.00     0.230 C 
HETATM   24  N5  UNL     1       0.289   2.755   1.306  1.00  0.00    -0.243 N 
ATOM     25  H5  UNL     1      -0.058   1.804   1.430  1.00  0.00     0.196 HD
BRANCH  23  26
HETATM   26  O4  UNL     1       1.490   4.319   0.199  1.00  0.00    -0.341 OA
ATOM     27  H4  UNL     1       1.198   4.940   0.856  1.00  0.00     0.219 HD
ENDBRANCH  23  26
BRANCH  24  28
HETATM   28  O5  UNL     1      -0.097   3.689   2.220  1.00  0.00    -0.288 OA
ATOM     29  H5  UNL     1      -0.664   3.522   2.964  1.00  0.00     0.244 HD
ENDBRANCH  24  28
ENDBRANCH   2  23
TORSDOF 9
