REMARK  13 active torsions:
REMARK  status: ('A' for Active; 'I' for Inactive)
REMARK    1  A    between atoms: C2_2  and  N1_5 
REMARK    2  A    between atoms: N1_5  and  C5_7 
REMARK    3  A    between atoms: C5_7  and  O1_8 
REMARK    4  A    between atoms: C5_7  and  N2_10 
REMARK    5  A    between atoms: N2_10  and  C6_12 
REMARK    6  A    between atoms: C6_12  and  O2_13 
REMARK    7  A    between atoms: C6_12  and  C7_15 
REMARK    8  A    between atoms: C7_15  and  O3_16 
REMARK    9  A    between atoms: O3_16  and  C8_17 
REMARK   10  A    between atoms: C8_17  and  C9_19 
REMARK   11  A    between atoms: C12_22  and  O5_23 
REMARK   12  A    between atoms: O5_23  and  C13_24 
REMARK   13  A    between atoms: C13_24  and  C14_26 
ROOT
HETATM    1  O3  UNL     1       1.234  -0.438  -0.547  1.00  0.00    -0.309 OA
ENDROOT
BRANCH   1   2
HETATM    2  C7  UNL     1       2.640  -0.493  -0.328  1.00  0.00     0.263 C 
BRANCH   2   3
HETATM    3  C6  UNL     1       3.123  -1.775   0.091  1.00  0.00     0.143 C 
BRANCH   3   4
HETATM    4  N2  UNL     1       4.405  -2.160   0.409  1.00  0.00    -0.305 N 
ATOM      5  H2  UNL     1       4.512  -3.131   0.703  1.00  0.00     0.171 HD
BRANCH   4   6
HETATM    6  C5  UNL     1       5.579  -1.408   0.386  1.00  0.00     0.219 C 
BRANCH   6   7
HETATM    7  N1  UNL     1       5.803  -0.061   0.048  1.00  0.00    -0.348 N 
ATOM      8  H1  UNL     1       5.020   0.526  -0.239  1.00  0.00     0.163 HD
BRANCH   7   9
HETATM    9  C2  UNL     1       7.156   0.506   0.105  1.00  0.00     0.022 C 
HETATM   10  C1  UNL     1       8.110  -0.231  -0.803  1.00  0.00     0.037 C 
HETATM   11  C3  UNL     1       7.053   1.963  -0.321  1.00  0.00     0.037 C 
HETATM   12  C4  UNL     1       7.683   0.421   1.516  1.00  0.00     0.037 C 
ENDBRANCH   7   9
ENDBRANCH   6   7
BRANCH   6  13
HETATM   13  O1  UNL     1       6.681  -2.046   0.737  1.00  0.00    -0.332 OA
ATOM     14  H1  UNL     1       6.530  -2.956   0.965  1.00  0.00     0.220 HD
ENDBRANCH   6  13
ENDBRANCH   4   6
ENDBRANCH   3   4
BRANCH   3  15
HETATM   15  O2  UNL     1       2.223  -2.710   0.184  1.00  0.00    -0.348 OA
ATOM     16  H2  UNL     1       1.338  -2.444  -0.036  1.00  0.00     0.219 HD
ENDBRANCH   3  15
ENDBRANCH   2   3
ENDBRANCH   1   2
BRANCH   1  17
HETATM   17  C8  UNL     1       0.265  -0.637   0.390  1.00  0.00     0.293 C 
HETATM   18  O4  UNL     1       0.593  -0.889   1.578  1.00  0.00    -0.259 OA
BRANCH  17  19
HETATM   19  C9  UNL     1      -1.162  -0.573   0.085  1.00  0.00     0.039 A 
HETATM   20  C10 UNL     1      -2.117  -0.787   1.055  1.00  0.00     0.020 A 
HETATM   21  C11 UNL     1      -3.462  -0.733   0.785  1.00  0.00     0.038 A 
HETATM   22  C12 UNL     1      -3.887  -0.460  -0.473  1.00  0.00     0.079 A 
HETATM   23  C18 UNL     1      -2.980  -0.239  -1.473  1.00  0.00     0.038 A 
HETATM   24  C19 UNL     1      -1.637  -0.298  -1.184  1.00  0.00     0.020 A 
BRANCH  22  25
HETATM   25  O5  UNL     1      -5.271  -0.421  -0.680  1.00  0.00    -0.278 OA
BRANCH  25  26
HETATM   26  C13 UNL     1      -6.051   0.699  -0.490  1.00  0.00     0.271 C 
HETATM   27  O6  UNL     1      -5.531   1.757  -0.112  1.00  0.00    -0.264 OA
BRANCH  26  28
HETATM   28  C14 UNL     1      -7.532   0.686  -0.728  1.00  0.00     0.037 C 
HETATM   29  C15 UNL     1      -7.785   0.408  -2.174  1.00  0.00     0.025 C 
HETATM   30  C16 UNL     1      -8.189  -0.407   0.088  1.00  0.00     0.025 C 
HETATM   31  C17 UNL     1      -8.151   1.992  -0.338  1.00  0.00     0.025 C 
ENDBRANCH  26  28
ENDBRANCH  25  26
ENDBRANCH  22  25
ENDBRANCH  17  19
ENDBRANCH   1  17
TORSDOF 13
