REMARK  14 active torsions:
REMARK  status: ('A' for Active; 'I' for Inactive)
REMARK    1  A    between atoms: N1_1  and  C1_5 
REMARK    2  A    between atoms: C1_5  and  O1_6 
REMARK    3  A    between atoms: C1_5  and  N2_8 
REMARK    4  A    between atoms: N2_8  and  C2_11 
REMARK    5  A    between atoms: C2_11  and  C3_12 
REMARK    6  A    between atoms: C2_11  and  C4_17 
REMARK    7  A    between atoms: N3_13  and  O2_15 
REMARK    8  A    between atoms: C4_17  and  N4_18 
REMARK    9  A    between atoms: C6_20  and  C7_21 
REMARK       I    between atoms: C7_21  and  N5_23 
REMARK   10  A    between atoms: C10_29  and  C11_30 
REMARK   11  A    between atoms: C11_30  and  O4_31 
REMARK   12  A    between atoms: C14_38  and  C15_39 
REMARK   13  A    between atoms: C16_42  and  N10_43 
REMARK   14  A    between atoms: N12_49  and  O6_50 
ROOT
HETATM    1  N4  UNL     1      -0.727  -1.285  -0.849  1.00  0.00    -0.339 N 
HETATM    2  C5  UNL     1       0.382  -1.888  -0.448  1.00  0.00     0.127 A 
HETATM    3  C6  UNL     1       1.338  -0.932  -0.157  1.00  0.00     0.118 A 
HETATM    4  N7  UNL     1       0.739   0.236  -0.404  1.00  0.00    -0.338 N 
ATOM      5  H7  UNL     1       1.177   1.150  -0.287  1.00  0.00     0.167 HD
HETATM    6  C14 UNL     1      -0.521   0.039  -0.828  1.00  0.00     0.123 A 
ENDROOT
BRANCH   1   7
HETATM    7  C4  UNL     1      -1.949  -1.974  -1.241  1.00  0.00     0.168 C 
BRANCH   7   8
HETATM    8  C2  UNL     1      -2.863  -2.177  -0.043  1.00  0.00     0.249 C 
BRANCH   8   9
HETATM    9  N2  UNL     1      -4.045  -2.866  -0.519  1.00  0.00    -0.013 N 
ATOM     10  H22 UNL     1      -3.814  -3.781  -0.907  1.00  0.00     0.283 HD
ATOM     11  H21 UNL     1      -4.420  -2.428  -1.361  1.00  0.00     0.283 HD
BRANCH   9  12
HETATM   12  C1  UNL     1      -5.053  -2.968   0.524  1.00  0.00     0.520 C 
BRANCH  12  13
HETATM   13  N1  UNL     1      -6.220  -3.658   0.029  1.00  0.00    -0.027 N 
ATOM     14  H13 UNL     1      -6.041  -4.642  -0.170  1.00  0.00     0.279 HD
ATOM     15  H12 UNL     1      -6.933  -3.791   0.746  1.00  0.00     0.279 HD
ATOM     16  H11 UNL     1      -6.569  -3.149  -0.783  1.00  0.00     0.279 HD
ENDBRANCH  12  13
BRANCH  12  17
HETATM   17  O1  UNL     1      -4.576  -3.664   1.634  1.00  0.00    -0.349 OA
ATOM     18  H1  UNL     1      -3.808  -3.210   1.960  1.00  0.00     0.213 HD
ENDBRANCH  12  17
ENDBRANCH   9  12
ENDBRANCH   8   9
BRANCH   8  19
HETATM   19  C3  UNL     1      -2.188  -2.893   1.064  1.00  0.00     0.121 C 
HETATM   20  N3  UNL     1      -1.680  -2.237   2.046  1.00  0.00    -0.282 N 
ATOM     21  H3  UNL     1      -1.757  -1.220   2.035  1.00  0.00     0.192 HD
BRANCH  20  22
HETATM   22  O2  UNL     1      -1.045  -2.822   3.100  1.00  0.00    -0.290 OA
ATOM     23  H2  UNL     1      -0.670  -2.337   3.826  1.00  0.00     0.244 HD
ENDBRANCH  20  22
ENDBRANCH   8  19
ENDBRANCH   7   8
ENDBRANCH   1   7
BRANCH   6  24
HETATM   24  C15 UNL     1      -1.540   1.036  -1.212  1.00  0.00     0.285 C 
HETATM   25  N8  UNL     1      -1.602   2.140  -0.259  1.00  0.00    -0.112 NA
HETATM   26  N9  UNL     1      -2.779   2.834  -0.549  1.00  0.00    -0.091 NA
HETATM   27  C16 UNL     1      -2.815   3.313  -1.913  1.00  0.00     0.405 C 
HETATM   28  N11 UNL     1      -2.314   2.395  -2.880  1.00  0.00    -0.286 N 
HETATM   29  N12 UNL     1      -1.209   1.663  -2.501  1.00  0.00    -0.080 NA
ATOM     30  H11 UNL     1      -2.747   2.286  -3.797  1.00  0.00     0.180 HD
BRANCH  27  31
HETATM   31  N10 UNL     1      -2.173   4.628  -1.977  1.00  0.00    -0.042 N 
ATOM     32 3H10 UNL     1      -2.585   5.293  -1.322  1.00  0.00     0.278 HD
ATOM     33 2H10 UNL     1      -1.227   4.617  -1.595  1.00  0.00     0.278 HD
ATOM     34 1H10 UNL     1      -2.198   4.966  -2.939  1.00  0.00     0.278 HD
ENDBRANCH  27  31
BRANCH  29  35
HETATM   35  O6  UNL     1      -0.189   2.557  -2.287  1.00  0.00    -0.292 OA
ATOM     36  H6  UNL     1       0.025   2.962  -3.119  1.00  0.00     0.239 HD
ENDBRANCH  29  35
ENDBRANCH   6  24
BRANCH   3  37
HETATM   37  C7  UNL     1       2.689  -1.143   0.313  1.00  0.00     0.279 C 
HETATM   38  O3  UNL     1       3.087  -2.337   0.492  1.00  0.00    -0.265 OA
HETATM   39  N5  UNL     1       3.572  -0.059   0.574  1.00  0.00    -0.274 N 
HETATM   40  C8  UNL     1       3.238   1.315   0.410  1.00  0.00     0.184 A 
HETATM   41  C13 UNL     1       4.918  -0.138   1.036  1.00  0.00     0.264 A 
HETATM   42  C9  UNL     1       4.477   2.076   0.801  1.00  0.00     0.035 A 
HETATM   43  S1  UNL     1       5.183   3.612   0.981  1.00  0.00    -0.016 SA
HETATM   44  C12 UNL     1       5.486   1.234   1.177  1.00  0.00     0.073 A 
HETATM   45  N6  UNL     1       6.706   3.151   1.517  1.00  0.00    -0.327 N 
HETATM   46  C10 UNL     1       6.647   1.822   1.549  1.00  0.00     0.056 A 
ATOM     47  H6  UNL     1       7.494   3.751   1.761  1.00  0.00     0.174 HD
HETATM   48  O5  UNL     1       5.467  -1.242   1.265  1.00  0.00    -0.267 OA
BRANCH  46  49
HETATM   49  C11 UNL     1       7.879   1.054   1.998  1.00  0.00     0.222 C 
BRANCH  49  50
HETATM   50  O4  UNL     1       8.917   1.879   2.319  1.00  0.00    -0.395 OA
ATOM     51  H4  UNL     1       9.687   1.399   2.600  1.00  0.00     0.209 HD
ENDBRANCH  49  50
ENDBRANCH  46  49
ENDBRANCH   3  37
TORSDOF 14
