REMARK  16 active torsions:
REMARK  status: ('A' for Active; 'I' for Inactive)
REMARK    1  A    between atoms: O1_2  and  C2_3 
REMARK    2  A    between atoms: C5_6  and  C6_7 
REMARK    3  A    between atoms: C7_8  and  C8_9 
REMARK    4  A    between atoms: C8_9  and  O2_10 
REMARK    5  A    between atoms: C8_9  and  C9_12 
REMARK    6  A    between atoms: C10_17  and  N3_18 
REMARK    7  A    between atoms: N3_18  and  C11_20 
REMARK    8  A    between atoms: C11_20  and  O3_21 
REMARK    9  A    between atoms: C11_20  and  C12_23 
REMARK   10  A    between atoms: C12_23  and  O4_24 
REMARK   11  A    between atoms: C12_23  and  C13_26 
REMARK   12  A    between atoms: C13_26  and  C14_27 
REMARK   13  A    between atoms: C13_26  and  C15_29 
REMARK   14  A    between atoms: C15_29  and  O6_30 
REMARK   15  A    between atoms: C16_32  and  O7_33 
REMARK   16  A    between atoms: C17_35  and  O8_36 
ROOT
HETATM    1  C9  UNL     1       0.709  -0.064  -0.204  1.00  0.00     0.094 A 
HETATM    2  N1  UNL     1       0.179   1.091   0.232  1.00  0.00    -0.297 N 
ATOM      3  H1  UNL     1       0.806   1.834   0.540  1.00  0.00     0.187 HD
HETATM    4  N2  UNL     1      -1.106   1.295   0.275  1.00  0.00    -0.283 N 
ATOM      5  H2  UNL     1      -1.440   2.196   0.618  1.00  0.00     0.188 HD
HETATM    6  C10 UNL     1      -2.042   0.357  -0.119  1.00  0.00     0.154 A 
HETATM    7  C16 UNL     1      -1.551  -0.841  -0.574  1.00  0.00     0.146 A 
HETATM    8  C17 UNL     1      -0.166  -1.027  -0.607  1.00  0.00     0.130 A 
ENDROOT
BRANCH   1   9
HETATM    9  C8  UNL     1       2.210  -0.267  -0.207  1.00  0.00     0.195 C 
BRANCH   9  10
HETATM   10  C7  UNL     1       2.624  -1.478   0.430  1.00  0.00     0.013 C 
HETATM   11  C6  UNL     1       3.783  -1.936   0.717  1.00  0.00     0.028 C 
BRANCH  11  12
HETATM   12  C5  UNL     1       5.143  -1.476   0.549  1.00  0.00     0.031 A 
HETATM   13  C4  UNL     1       5.541  -0.265   0.056  1.00  0.00     0.032 A 
HETATM   14  C3  UNL     1       6.884   0.064  -0.087  1.00  0.00     0.040 A 
HETATM   15  C2  UNL     1       7.862  -0.810   0.261  1.00  0.00     0.083 A 
HETATM   16  C18 UNL     1       7.450  -2.028   0.758  1.00  0.00     0.125 A 
HETATM   17  N4  UNL     1       6.168  -2.331   0.889  1.00  0.00    -0.363 N 
ATOM     18  H4  UNL     1       5.926  -3.249   1.263  1.00  0.00     0.165 HD
BRANCH  15  19
HETATM   19  O1  UNL     1       9.212  -0.575   0.157  1.00  0.00    -0.355 OA
HETATM   20  C1  UNL     1       9.811   0.588  -0.319  1.00  0.00     0.210 C 
ENDBRANCH  15  19
ENDBRANCH  11  12
ENDBRANCH   9  10
BRANCH   9  21
HETATM   21  O2  UNL     1       2.613  -0.302  -1.568  1.00  0.00    -0.385 OA
ATOM     22  H2  UNL     1       2.338   0.503  -1.991  1.00  0.00     0.210 HD
ENDBRANCH   9  21
ENDBRANCH   1   9
BRANCH   8  23
HETATM   23  O8  UNL     1       0.308  -2.220  -1.064  1.00  0.00    -0.356 OA
ATOM     24  H8  UNL     1      -0.302  -2.892  -1.345  1.00  0.00     0.218 HD
ENDBRANCH   8  23
BRANCH   7  25
HETATM   25  O7  UNL     1      -2.347  -1.873  -1.000  1.00  0.00    -0.355 OA
ATOM     26  H7  UNL     1      -2.007  -2.702  -1.315  1.00  0.00     0.218 HD
ENDBRANCH   7  25
BRANCH   6  27
HETATM   27  N3  UNL     1      -3.218   0.723  -0.010  1.00  0.00    -0.344 N 
ATOM     28  H3  UNL     1      -3.211   1.673   0.361  1.00  0.00     0.163 HD
BRANCH  27  29
HETATM   29  C11 UNL     1      -4.537   0.356  -0.191  1.00  0.00     0.248 C 
BRANCH  29  30
HETATM   30  O3  UNL     1      -5.010  -0.504   0.833  1.00  0.00    -0.374 OA
ATOM     31  H3  UNL     1      -5.917  -0.756   0.708  1.00  0.00     0.212 HD
ENDBRANCH  29  30
BRANCH  29  32
HETATM   32  C12 UNL     1      -5.436   1.602  -0.050  1.00  0.00     0.179 C 
BRANCH  32  33
HETATM   33  O4  UNL     1      -5.367   2.164   1.201  1.00  0.00    -0.390 OA
ATOM     34  H4  UNL     1      -5.921   2.931   1.288  1.00  0.00     0.210 HD
ENDBRANCH  32  33
BRANCH  32  35
HETATM   35  C13 UNL     1      -6.792   1.460  -0.616  1.00  0.00     0.103 C 
BRANCH  35  36
HETATM   36  C14 UNL     1      -7.611   2.701  -0.437  1.00  0.00     0.240 C 
HETATM   37  O5  UNL     1      -7.472   3.434   0.527  1.00  0.00    -0.306 OA
ENDBRANCH  35  36
BRANCH  35  38
HETATM   38  C15 UNL     1      -7.539   0.282  -0.065  1.00  0.00     0.178 C 
BRANCH  38  39
HETATM   39  O6  UNL     1      -8.837   0.222  -0.634  1.00  0.00    -0.400 OA
ATOM     40  H6  UNL     1      -9.310  -0.524  -0.285  1.00  0.00     0.209 HD
ENDBRANCH  38  39
ENDBRANCH  35  38
ENDBRANCH  32  35
ENDBRANCH  29  32
ENDBRANCH  27  29
ENDBRANCH   6  27
TORSDOF 16
