REMARK  12 active torsions:
REMARK  status: ('A' for Active; 'I' for Inactive)
REMARK    1  A    between atoms: C4_7  and  O4_8 
REMARK    2  A    between atoms: C6_11  and  N1_12 
REMARK    3  A    between atoms: N1_12  and  C7_14 
REMARK    4  A    between atoms: C7_14  and  C8_15 
REMARK    5  A    between atoms: C9_16  and  C10_17 
REMARK    6  A    between atoms: C10_17  and  O5_18 
REMARK    7  A    between atoms: C10_17  and  O6_20 
REMARK    8  A    between atoms: C11_23  and  C12_24 
REMARK    9  A    between atoms: C12_24  and  O8_25 
REMARK   10  A    between atoms: C12_24  and  O9_27 
REMARK   11  A    between atoms: C13_29  and  O10_30 
REMARK   12  A    between atoms: C15_34  and  O12_35 
ROOT
HETATM    1  C8  UNL     1      -1.580   0.177  -0.147  1.00  0.00     0.067 A 
HETATM    2  C9  UNL     1      -2.507  -0.470   0.684  1.00  0.00     0.123 A 
HETATM    3  O7  UNL     1      -3.795  -0.276   0.521  1.00  0.00    -0.305 OA
HETATM    4  C11 UNL     1      -4.358   0.491  -0.371  1.00  0.00     0.144 A 
HETATM    5  C13 UNL     1      -3.538   1.165  -1.228  1.00  0.00     0.152 A 
HETATM    6  C14 UNL     1      -2.124   0.990  -1.095  1.00  0.00     0.221 A 
HETATM    7  O11 UNL     1      -1.416   1.627  -1.902  1.00  0.00    -0.284 OA
ENDROOT
BRANCH   1   8
HETATM    8  C7  UNL     1      -0.176  -0.089   0.057  1.00  0.00     0.106 C 
BRANCH   8   9
HETATM    9  N1  UNL     1       0.809   0.619  -0.713  1.00  0.00    -0.363 N 
ATOM     10  H1  UNL     1       0.563   1.348  -1.383  1.00  0.00     0.165 HD
BRANCH   9  11
HETATM   11  C6  UNL     1       2.179   0.217  -0.464  1.00  0.00     0.071 A 
HETATM   12  C5  UNL     1       2.500  -0.772   0.437  1.00  0.00     0.070 A 
HETATM   13  C4  UNL     1       3.814  -1.155   0.670  1.00  0.00     0.087 A 
HETATM   14  C3  UNL     1       4.834  -0.537  -0.011  1.00  0.00     0.110 A 
HETATM   15  C2  UNL     1       6.169  -0.868   0.171  1.00  0.00     0.308 A 
HETATM   16  C16 UNL     1       4.518   0.453  -0.913  1.00  0.00     0.136 A 
HETATM   17  O2  UNL     1       7.100  -0.244  -0.507  1.00  0.00    -0.216 OA
HETATM   18  O3  UNL     1       6.431  -1.763   0.989  1.00  0.00    -0.258 OA
HETATM   19  C1  UNL     1       6.756   0.692  -1.356  1.00  0.00     0.419 A 
HETATM   20  O1  UNL     1       7.703   1.253  -1.976  1.00  0.00    -0.229 OA
HETATM   21  O13 UNL     1       5.500   1.031  -1.553  1.00  0.00    -0.251 OA
HETATM   22  C15 UNL     1       3.185   0.826  -1.135  1.00  0.00     0.128 A 
BRANCH  13  23
HETATM   23  O4  UNL     1       4.136  -2.149   1.576  1.00  0.00    -0.359 OA
ATOM     24  H4  UNL     1       3.430  -2.576   2.047  1.00  0.00     0.217 HD
ENDBRANCH  13  23
BRANCH  22  25
HETATM   25  O12 UNL     1       3.006   1.821  -2.056  1.00  0.00    -0.356 OA
ATOM     26  H12 UNL     1       3.712   2.248  -2.527  1.00  0.00     0.218 HD
ENDBRANCH  22  25
ENDBRANCH   9  11
ENDBRANCH   8   9
ENDBRANCH   1   8
BRANCH   2  27
HETATM   27  C10 UNL     1      -2.018  -1.374   1.748  1.00  0.00     0.313 C 
BRANCH  27  28
HETATM   28  O5  UNL     1      -1.079  -2.272   1.311  1.00  0.00    -0.365 OA
ATOM     29  H5  UNL     1      -0.765  -2.853   1.994  1.00  0.00     0.213 HD
ENDBRANCH  27  28
BRANCH  27  30
HETATM   30  O6  UNL     1      -3.153  -2.083   2.226  1.00  0.00    -0.365 OA
ATOM     31  H6  UNL     1      -2.839  -2.664   2.909  1.00  0.00     0.213 HD
ENDBRANCH  27  30
ENDBRANCH   2  27
BRANCH   5  32
HETATM   32  O10 UNL     1      -3.943   1.993  -2.210  1.00  0.00    -0.355 OA
ATOM     33  H10 UNL     1      -3.372   2.462  -2.807  1.00  0.00     0.218 HD
ENDBRANCH   5  32
BRANCH   4  34
HETATM   34  C12 UNL     1      -5.858   0.601  -0.411  1.00  0.00     0.315 C 
BRANCH  34  35
HETATM   35  O8  UNL     1      -6.266   0.685   0.965  1.00  0.00    -0.365 OA
ATOM     36  H8  UNL     1      -7.213   0.754   0.940  1.00  0.00     0.213 HD
ENDBRANCH  34  35
BRANCH  34  37
HETATM   37  O9  UNL     1      -6.216   1.796  -0.982  1.00  0.00    -0.365 OA
ATOM     38  H9  UNL     1      -7.163   1.865  -1.007  1.00  0.00     0.213 HD
ENDBRANCH  34  37
ENDBRANCH   4  34
TORSDOF 12
