REMARK  7 active torsions:
REMARK  status: ('A' for Active; 'I' for Inactive)
REMARK    1  A    between atoms: C3_3  and  C4_4 
REMARK    2  A    between atoms: C5_6  and  C6_7 
REMARK    3  A    between atoms: C7_10  and  N2_11 
REMARK    4  A    between atoms: N2_11  and  C8_13 
REMARK    5  A    between atoms: C11_19  and  C12_20 
REMARK    6  A    between atoms: C13_21  and  C14_22 
REMARK    7  A    between atoms: C14_22  and  N4_23 
ROOT
HETATM    1  C1  UNL     1      -1.307   3.696   0.951  1.00  0.00     0.112 C 
HETATM    2  C2  UNL     1      -1.129   2.819  -0.199  1.00  0.00    -0.105 C 
HETATM    3  C3  UNL     1      -0.992   2.066  -1.155  1.00  0.00    -0.060 C 
ENDROOT
BRANCH   3   4
HETATM    4  C4  UNL     1      -0.830   1.222  -2.280  1.00  0.00     0.066 C 
HETATM    5 BR1  UNL     1      -2.049   1.461  -3.751  1.00  0.00    -0.041 Br
HETATM    6  C5  UNL     1       0.101   0.307  -2.350  1.00  0.00     0.060 C 
BRANCH   6   7
HETATM    7  C6  UNL     1       1.076   0.016  -1.327  1.00  0.00     0.075 A 
HETATM    8  N1  UNL     1       2.390   0.305  -1.488  1.00  0.00    -0.190 N 
HETATM    9  C7  UNL     1       3.299   0.007  -0.546  1.00  0.00     0.681 A 
ATOM     10  H1  UNL     1       2.697   0.761  -2.347  1.00  0.00     0.184 HD
HETATM   11  N3  UNL     1       2.948  -0.592   0.603  1.00  0.00    -0.155 N 
HETATM   12  C10 UNL     1       1.648  -0.909   0.823  1.00  0.00     0.280 A 
ATOM     13  H3  UNL     1       3.655  -0.807   1.306  1.00  0.00     0.187 HD
HETATM   14  O1  UNL     1       1.272  -1.470   1.879  1.00  0.00    -0.266 OA
HETATM   15  C11 UNL     1       0.704  -0.596  -0.167  1.00  0.00     0.113 A 
BRANCH   9  16
HETATM   16  N2  UNL     1       4.540   0.287  -0.735  1.00  0.00    -0.226 N 
ATOM     17  H2  UNL     1       4.811   0.735  -1.610  1.00  0.00     0.177 HD
BRANCH  16  18
HETATM   18  C8  UNL     1       5.560  -0.003   0.230  1.00  0.00     0.133 C 
HETATM   19  C9  UNL     1       5.917  -1.488   0.222  1.00  0.00     0.027 C 
ENDBRANCH  16  18
ENDBRANCH   9  16
BRANCH  15  20
HETATM   20  C12 UNL     1      -0.671  -1.003   0.042  1.00  0.00    -0.057 C 
HETATM   21  C13 UNL     1      -1.817  -1.382   0.220  1.00  0.00    -0.071 C 
BRANCH  21  22
HETATM   22  C14 UNL     1      -3.182  -1.865   0.420  1.00  0.00     0.365 C 
BRANCH  22  23
HETATM   23  N4  UNL     1      -4.077  -0.926  -0.196  1.00  0.00     0.090 N 
HETATM   24  C15 UNL     1      -5.439  -1.460  -0.008  1.00  0.00     0.310 C 
HETATM   25  C16 UNL     1      -4.012   0.322   0.584  1.00  0.00     0.310 C 
ENDBRANCH  22  23
ENDBRANCH  21  22
ENDBRANCH  15  20
ENDBRANCH   6   7
ENDBRANCH   3   4
TORSDOF 7
