REMARK  1 active torsions:
REMARK  status: ('A' for Active; 'I' for Inactive)
REMARK    1  A    between atoms: C7_11  and  C8_12 
ROOT
HETATM    1  O1  UNL     1       1.089   1.816  -0.996  1.00  0.00    -0.291 OA
HETATM    2  C1  UNL     1       0.175   1.272  -0.308  1.00  0.00     0.186 C 
HETATM    3  C2  UNL     1      -1.045   2.065  -0.248  1.00  0.00     0.049 C 
HETATM    4  C3  UNL     1      -2.327   1.811   0.041  1.00  0.00    -0.023 C 
HETATM    5  C4  UNL     1      -3.063   0.578   0.431  1.00  0.00     0.029 C 
HETATM    6  C5  UNL     1      -2.599  -0.616  -0.399  1.00  0.00     0.031 C 
HETATM    7  C6  UNL     1      -1.442  -1.328   0.231  1.00  0.00     0.234 C 
HETATM    8  N1  UNL     1      -0.182  -1.060  -0.453  1.00  0.00    -0.058 N 
ATOM      9  H11 UNL     1      -0.316  -0.809  -1.433  1.00  0.00     0.278 HD
ATOM     10  H12 UNL     1       0.370  -1.905  -0.597  1.00  0.00     0.278 HD
HETATM   11  C7  UNL     1       0.543  -0.045   0.283  1.00  0.00     0.315 C 
ENDROOT
BRANCH  11  12
HETATM   12  C8  UNL     1       2.007  -0.264   0.260  1.00  0.00     0.090 A 
HETATM   13  C9  UNL     1       2.756  -0.596  -0.850  1.00  0.00     0.037 A 
HETATM   14  C10 UNL     1       4.062  -0.705  -0.437  1.00  0.00     0.027 A 
HETATM   15  C11 UNL     1       4.057  -0.432   0.928  1.00  0.00     0.142 A 
HETATM   16  O2  UNL     1       2.817  -0.175   1.302  1.00  0.00    -0.324 OA
ENDBRANCH  11  12
TORSDOF 1
