REMARK  7 active torsions:
REMARK  status: ('A' for Active; 'I' for Inactive)
REMARK    1  A    between atoms: C2_2  and  N1_3 
REMARK    2  A    between atoms: C2_2  and  C9_32 
REMARK    3  A    between atoms: N1_3  and  C3_5 
REMARK    4  A    between atoms: C4_8  and  N3_9 
REMARK    5  A    between atoms: C6_15  and  C7_16 
REMARK    6  A    between atoms: C9_32  and  N12_33 
REMARK    7  A    between atoms: C9_32  and  C10_37 
ROOT
HETATM    1  C3  UNL     1      -0.698  -0.622  -0.275  1.00  0.00     0.681 A 
HETATM    2  N2  UNL     1      -0.026  -1.563  -0.965  1.00  0.00    -0.175 N 
ATOM      3  H2  UNL     1      -0.551  -2.271  -1.478  1.00  0.00     0.186 HD
HETATM    4  C4  UNL     1       1.314  -1.595  -0.997  1.00  0.00     0.145 A 
HETATM    5  C5  UNL     1       2.071  -0.643  -0.309  1.00  0.00     0.125 A 
HETATM    6  N4  UNL     1       3.414  -0.636  -0.312  1.00  0.00    -0.332 N 
ATOM      7  H4  UNL     1       3.919  -1.351  -0.835  1.00  0.00     0.168 HD
HETATM    8  C6  UNL     1       4.110   0.310   0.372  1.00  0.00     0.168 A 
HETATM    9  N9  UNL     1       3.413   1.236   1.052  1.00  0.00    -0.281 N 
ATOM     10  H9  UNL     1       3.912   1.956   1.574  1.00  0.00     0.188 HD
HETATM   11  N10 UNL     1       2.095   1.229   1.055  1.00  0.00    -0.281 N 
ATOM     12  H10 UNL     1       1.604   1.950   1.583  1.00  0.00     0.188 HD
HETATM   13  C8  UNL     1       1.371   0.310   0.391  1.00  0.00     0.166 A 
HETATM   14  N11 UNL     1       0.016   0.298   0.391  1.00  0.00    -0.173 N 
ATOM     15  H11 UNL     1      -0.480   1.017   0.918  1.00  0.00     0.186 HD
ENDROOT
BRANCH   1  16
HETATM   16  N1  UNL     1      -1.978  -0.630  -0.272  1.00  0.00    -0.219 N 
ATOM     17  H1  UNL     1      -2.480  -1.350  -0.792  1.00  0.00     0.178 HD
BRANCH  16  18
HETATM   18  C2  UNL     1      -2.710   0.359   0.453  1.00  0.00     0.134 C 
HETATM   19  C1  UNL     1      -2.662   0.015   1.923  1.00  0.00     0.035 C 
BRANCH  18  20
HETATM   20  C9  UNL     1      -4.180   0.368   0.067  1.00  0.00     0.294 C 
BRANCH  20  21
HETATM   21  N12 UNL     1      -4.785  -0.906   0.295  1.00  0.00    -0.065 N 
ATOM     22 3H12 UNL     1      -4.278  -1.652  -0.181  1.00  0.00     0.275 HD
ATOM     23 2H12 UNL     1      -4.653  -1.216   1.258  1.00  0.00     0.275 HD
ATOM     24 1H12 UNL     1      -5.772  -0.900   0.036  1.00  0.00     0.275 HD
ENDBRANCH  20  21
BRANCH  20  25
HETATM   25  C10 UNL     1      -4.399   0.837  -1.313  1.00  0.00     0.263 C 
HETATM   26  N13 UNL     1      -3.878   2.081  -1.749  1.00  0.00    -0.060 NA
HETATM   27  O1  UNL     1      -5.055   0.125  -2.113  1.00  0.00    -0.274 OA
ENDBRANCH  20  25
ENDBRANCH  18  20
ENDBRANCH  16  18
ENDBRANCH   1  16
BRANCH   4  28
HETATM   28  N3  UNL     1       1.942  -2.507  -1.666  1.00  0.00    -0.383 N 
ATOM     29  H32 UNL     1       1.389  -3.202  -2.168  1.00  0.00     0.157 HD
ATOM     30  H31 UNL     1       2.961  -2.531  -1.690  1.00  0.00     0.157 HD
ENDBRANCH   4  28
BRANCH   8  31
HETATM   31  C7  UNL     1       5.569   0.319   0.369  1.00  0.00     0.183 A 
HETATM   32  N5  UNL     1       6.313   1.222   1.022  1.00  0.00    -0.266 N 
HETATM   33  N6  UNL     1       7.608   0.954   0.817  1.00  0.00    -0.226 N 
ATOM     34  H5  UNL     1       5.950   1.991   1.585  1.00  0.00     0.190 HD
HETATM   35  N7  UNL     1       7.689  -0.107   0.043  1.00  0.00    -0.226 N 
ATOM     36  H6  UNL     1       8.395   1.481   1.195  1.00  0.00     0.210 HD
HETATM   37  N8  UNL     1       6.444  -0.498  -0.233  1.00  0.00    -0.266 N 
ATOM     38  H7  UNL     1       8.547  -0.550  -0.286  1.00  0.00     0.210 HD
ATOM     39  H8  UNL     1       6.195  -1.298  -0.815  1.00  0.00     0.190 HD
ENDBRANCH   8  31
TORSDOF 7
