REMARK  7 active torsions:
REMARK  status: ('A' for Active; 'I' for Inactive)
REMARK    1  A    between atoms: O1_2  and  C2_3 
REMARK    2  A    between atoms: C5_6  and  C6_7 
REMARK    3  A    between atoms: C6_7  and  N1_8 
REMARK    4  A    between atoms: C9_22  and  O3_23 
REMARK    5  A    between atoms: C9_22  and  C11_25 
REMARK       I    between atoms: C11_25  and  N6_27 
REMARK    6  A    between atoms: N6_27  and  N7_29 
REMARK    7  A    between atoms: N7_29  and  N8_30 
ROOT
HETATM    1  C2  UNL     1       0.275   0.983  -0.150  1.00  0.00     0.185 C 
HETATM    2  C3  UNL     1      -0.970   0.940  -1.010  1.00  0.00     0.070 C 
HETATM    3  C4  UNL     1      -2.230   0.561  -0.323  1.00  0.00     0.060 C 
HETATM    4  C5  UNL     1      -2.132  -0.735   0.449  1.00  0.00     0.132 C 
HETATM    5  N2  UNL     1      -1.915  -0.269   1.847  1.00  0.00    -0.337 N 
ATOM      6  H2  UNL     1      -2.536  -0.608   2.582  1.00  0.00     0.164 HD
HETATM    7  C7  UNL     1      -0.954   0.561   2.164  1.00  0.00     0.188 C 
HETATM    8  N3  UNL     1      -0.863   0.930   3.534  1.00  0.00    -0.064 NA
HETATM    9  N4  UNL     1       0.005   1.106   1.262  1.00  0.00    -0.330 N 
ATOM     10  H4  UNL     1       0.659   1.736   1.727  1.00  0.00     0.165 HD
HETATM   11  N5  UNL     1      -1.088  -1.613   0.008  1.00  0.00    -0.330 N 
ATOM     12  H5  UNL     1      -1.264  -2.592   0.234  1.00  0.00     0.165 HD
HETATM   13  C8  UNL     1       0.133  -1.410  -0.673  1.00  0.00     0.269 C 
HETATM   14  O2  UNL     1       0.519  -2.247  -1.487  1.00  0.00    -0.269 OA
HETATM   15  C9  UNL     1       1.086  -0.241  -0.532  1.00  0.00     0.273 C 
ENDROOT
BRANCH  15  16
HETATM   16  O3  UNL     1       1.878  -0.102  -1.632  1.00  0.00    -0.363 OA
HETATM   17  C10 UNL     1       1.448   0.207  -2.840  1.00  0.00     0.204 C 
ENDBRANCH  15  16
BRANCH  15  18
HETATM   18  C11 UNL     1       2.028  -0.585   0.546  1.00  0.00     0.284 C 
HETATM   19  O4  UNL     1       1.719  -0.608   1.730  1.00  0.00    -0.268 OA
HETATM   20  N6  UNL     1       3.368  -0.915   0.201  1.00  0.00    -0.251 N 
ATOM     21  H6  UNL     1       3.638  -0.902  -0.782  1.00  0.00     0.187 HD
BRANCH  20  22
HETATM   22  N7  UNL     1       4.331  -1.257   1.159  1.00  0.00    -0.027 NA
BRANCH  22  23
HETATM   23  N8  UNL     1       5.441  -1.762   0.475  1.00  0.00    -0.329 N 
ATOM     24  H82 UNL     1       5.520  -1.858  -0.537  1.00  0.00     0.174 HD
ATOM     25  H81 UNL     1       6.142  -2.011   1.173  1.00  0.00     0.174 HD
ENDBRANCH  22  23
ENDBRANCH  20  22
ENDBRANCH  15  18
BRANCH   1  26
HETATM   26  O1  UNL     1       1.115   2.071  -0.478  1.00  0.00    -0.361 OA
HETATM   27  C1  UNL     1       0.573   3.301  -0.320  1.00  0.00     0.205 C 
ENDBRANCH   1  26
BRANCH   4  28
HETATM   28  C6  UNL     1      -3.454  -1.464   0.449  1.00  0.00     0.283 C 
BRANCH  28  29
HETATM   29  N1  UNL     1      -3.933  -1.815  -0.846  1.00  0.00    -0.075 N 
ATOM     30  H13 UNL     1      -3.982  -0.989  -1.443  1.00  0.00     0.274 HD
ATOM     31  H12 UNL     1      -3.230  -2.354  -1.351  1.00  0.00     0.274 HD
ATOM     32  H11 UNL     1      -4.826  -2.308  -0.846  1.00  0.00     0.274 HD
ENDBRANCH  28  29
ENDBRANCH   4  28
TORSDOF 7
