REMARK  4 active torsions:
REMARK  status: ('A' for Active; 'I' for Inactive)
REMARK    1  A    between atoms: C3_9  and  N4_10 
REMARK    2  A    between atoms: N4_10  and  C4_12 
REMARK    3  A    between atoms: C4_12  and  C5_13 
REMARK    4  A    between atoms: C5_13  and  O1_14 
ROOT
HETATM    1  C1  UNL     1       4.598   0.358   0.761  1.00  0.00     0.165 C 
HETATM    2  N1  UNL     1       3.991  -0.288  -0.384  1.00  0.00    -0.229 N 
ATOM      3  H1  UNL     1       4.555  -0.673  -1.142  1.00  0.00     0.177 HD
HETATM    4  C2  UNL     1       2.678  -0.354  -0.399  1.00  0.00     0.707 A 
HETATM    5  N2  UNL     1       1.920  -0.907  -1.359  1.00  0.00    -0.117 N 
ATOM      6  H2  UNL     1       2.263  -1.353  -2.210  1.00  0.00     0.206 HD
HETATM    7  N3  UNL     1       0.640  -0.773  -1.008  1.00  0.00    -0.117 N 
ATOM      8  H3  UNL     1      -0.149  -1.107  -1.561  1.00  0.00     0.206 HD
HETATM    9  C3  UNL     1       0.530  -0.141   0.169  1.00  0.00     0.711 A 
HETATM   10  N5  UNL     1       1.834   0.109   0.526  1.00  0.00    -0.020 N 
ATOM     11  H5  UNL     1       2.118   0.584   1.382  1.00  0.00     0.203 HD
ENDROOT
BRANCH   9  12
HETATM   12  N4  UNL     1      -0.429   0.212   0.899  1.00  0.00    -0.202 N 
ATOM     13  H4  UNL     1      -0.087   0.681   1.737  1.00  0.00     0.183 HD
BRANCH  12  14
HETATM   14  C4  UNL     1      -1.809   0.154   0.905  1.00  0.00     0.105 C 
BRANCH  14  15
HETATM   15  C5  UNL     1      -2.387  -0.565  -0.272  1.00  0.00     0.212 C 
BRANCH  15  16
HETATM   16  O1  UNL     1      -3.767  -0.588  -0.179  1.00  0.00    -0.391 OA
HETATM   17  C6  UNL     1      -4.285   0.681  -0.168  1.00  0.00     0.201 C 
ENDBRANCH  15  16
ENDBRANCH  14  15
ENDBRANCH  12  14
ENDBRANCH   9  12
TORSDOF 4
