REMARK  10 active torsions:
REMARK  status: ('A' for Active; 'I' for Inactive)
REMARK    1  A    between atoms: C2_2  and  O1_4 
REMARK    2  A    between atoms: C2_2  and  C4_6 
REMARK    3  A    between atoms: C4_6  and  O3_8 
REMARK    4  A    between atoms: O3_8  and  C5_9 
REMARK    5  A    between atoms: C7_11  and  O4_12 
REMARK    6  A    between atoms: O4_12  and  C8_13 
REMARK    7  A    between atoms: C9_15  and  N1_16 
REMARK    8  A    between atoms: C11_21  and  N2_22 
REMARK    9  A    between atoms: C12_26  and  N3_27 
REMARK   10  A    between atoms: C14_32  and  N4_33 
ROOT
HETATM    1  C5  UNL     1      -1.423  -0.748  -0.079  1.00  0.00     0.164 C 
HETATM    2  C6  UNL     1      -0.289   0.166   0.293  1.00  0.00     0.068 C 
HETATM    3  C7  UNL     1       0.996  -0.620   0.154  1.00  0.00     0.157 C 
HETATM    4  C12 UNL     1       1.042  -1.743   1.135  1.00  0.00     0.214 C 
HETATM    5  C13 UNL     1      -0.306  -2.099   1.710  1.00  0.00     0.070 C 
HETATM    6  C14 UNL     1      -1.418  -2.029   0.713  1.00  0.00     0.215 C 
ENDROOT
BRANCH   3   7
HETATM    7  O4  UNL     1       2.088   0.218   0.367  1.00  0.00    -0.352 OA
BRANCH   7   8
HETATM    8  C8  UNL     1       2.854   0.273  -0.768  1.00  0.00     0.293 C 
HETATM    9  O5  UNL     1       3.005   1.582  -1.164  1.00  0.00    -0.327 OA
HETATM   10  C9  UNL     1       4.303   1.972  -1.003  1.00  0.00     0.323 C 
HETATM   11  C10 UNL     1       5.073   0.690  -1.348  1.00  0.00     0.099 C 
HETATM   12  C11 UNL     1       4.254  -0.300  -0.545  1.00  0.00     0.242 C 
BRANCH  10  13
HETATM   13  N1  UNL     1       4.686   3.059  -1.853  1.00  0.00    -0.053 N 
ATOM     14  H13 UNL     1       4.495   2.837  -2.830  1.00  0.00     0.277 HD
ATOM     15  H12 UNL     1       4.054   3.851  -1.732  1.00  0.00     0.277 HD
ATOM     16  H11 UNL     1       5.656   3.350  -1.733  1.00  0.00     0.277 HD
ENDBRANCH  10  13
BRANCH  12  17
HETATM   17  N2  UNL     1       4.644  -0.189   0.847  1.00  0.00    -0.070 N 
ATOM     18  H23 UNL     1       4.573   0.772   1.183  1.00  0.00     0.274 HD
ATOM     19  H22 UNL     1       3.958  -0.621   1.466  1.00  0.00     0.274 HD
ATOM     20  H21 UNL     1       5.578  -0.571   0.996  1.00  0.00     0.274 HD
ENDBRANCH  12  17
ENDBRANCH   7   8
ENDBRANCH   3   7
BRANCH   4  21
HETATM   21  N3  UNL     1       1.676  -2.878   0.493  1.00  0.00    -0.072 N 
ATOM     22  H33 UNL     1       1.223  -3.139  -0.383  1.00  0.00     0.274 HD
ATOM     23  H32 UNL     1       2.594  -2.652   0.111  1.00  0.00     0.274 HD
ATOM     24  H31 UNL     1       1.707  -3.646   1.164  1.00  0.00     0.274 HD
ENDBRANCH   4  21
BRANCH   1  25
HETATM   25  O3  UNL     1      -2.633  -0.005   0.123  1.00  0.00    -0.311 OA
BRANCH  25  26
HETATM   26  C4  UNL     1      -3.480   0.318  -0.897  1.00  0.00     0.293 C 
HETATM   27  O2  UNL     1      -3.233  -0.027  -2.076  1.00  0.00    -0.262 OA
BRANCH  26  28
HETATM   28  C2  UNL     1      -4.716   1.087  -0.625  1.00  0.00     0.138 C 
HETATM   29  C1  UNL     1      -4.260   2.466  -0.132  1.00  0.00     0.056 C 
HETATM   30  C3  UNL     1      -5.536   0.482   0.471  1.00  0.00     0.056 C 
BRANCH  28  31
HETATM   31  O1  UNL     1      -5.443   1.315  -1.792  1.00  0.00    -0.380 OA
ATOM     32  H1  UNL     1      -5.725   0.461  -2.097  1.00  0.00     0.211 HD
ENDBRANCH  28  31
ENDBRANCH  26  28
ENDBRANCH  25  26
ENDBRANCH   1  25
BRANCH   6  33
HETATM   33  N4  UNL     1      -2.674  -2.098   1.440  1.00  0.00    -0.072 N 
ATOM     34  H43 UNL     1      -2.845  -1.274   2.017  1.00  0.00     0.274 HD
ATOM     35  H42 UNL     1      -3.490  -2.008   0.834  1.00  0.00     0.274 HD
ATOM     36  H41 UNL     1      -2.671  -2.966   1.976  1.00  0.00     0.274 HD
ENDBRANCH   6  33
TORSDOF 10
