REMARK  7 active torsions:
REMARK  status: ('A' for Active; 'I' for Inactive)
REMARK    1  A    between atoms: S1_2  and  N1_5 
REMARK    2  A    between atoms: N1_5  and  C2_7 
REMARK    3  A    between atoms: C3_10  and  O3_11 
REMARK    4  A    between atoms: C4_13  and  C5_14 
REMARK    5  A    between atoms: N3_15  and  N4_17 
REMARK       I    between atoms: N4_17  and  C6_19 
REMARK    6  A    between atoms: C6_19  and  C7_21 
REMARK    7  A    between atoms: C8_27  and  N7_28 
ROOT
HETATM    1  C5  UNL     1      -0.352  -0.544   0.177  1.00  0.00     0.130 C 
HETATM    2  N3  UNL     1      -1.347   0.159  -0.171  1.00  0.00    -0.308 N 
ATOM      3  H3  UNL     1      -1.180   1.045  -0.647  1.00  0.00     0.186 HD
ENDROOT
BRANCH   2   4
HETATM    4  N4  UNL     1      -2.682  -0.240   0.076  1.00  0.00    -0.265 N 
HETATM    5  C6  UNL     1      -3.738   0.643  -0.129  1.00  0.00     0.292 C 
HETATM    6  O4  UNL     1      -3.425   1.824  -0.552  1.00  0.00    -0.264 OA
ATOM      7  H4  UNL     1      -2.872  -1.185   0.408  1.00  0.00     0.190 HD
BRANCH   5   8
HETATM    8  C7  UNL     1      -5.140   0.375   0.080  1.00  0.00     0.171 A 
HETATM    9  N5  UNL     1      -6.174   1.234  -0.120  1.00  0.00    -0.232 N 
HETATM   10  O5  UNL     1      -7.269   0.634   0.175  1.00  0.00    -0.155 OA
ATOM     11  H5  UNL     1      -6.093   2.196  -0.450  1.00  0.00     0.197 HD
HETATM   12  N6  UNL     1      -7.046  -0.573   0.561  1.00  0.00    -0.224 N 
HETATM   13  C8  UNL     1      -5.696  -0.794   0.520  1.00  0.00     0.155 A 
ATOM     14  H6  UNL     1      -7.754  -1.249   0.848  1.00  0.00     0.198 HD
BRANCH  13  15
HETATM   15  N7  UNL     1      -5.150  -1.911   0.848  1.00  0.00    -0.382 N 
ATOM     16  H72 UNL     1      -4.144  -2.076   0.817  1.00  0.00     0.157 HD
ATOM     17  H71 UNL     1      -5.565  -2.783   1.176  1.00  0.00     0.157 HD
ENDBRANCH  13  15
ENDBRANCH   5   8
ENDBRANCH   2   4
BRANCH   1  18
HETATM   18  C4  UNL     1       0.999  -0.030  -0.132  1.00  0.00     0.076 A 
HETATM   19  C3  UNL     1       1.363   1.130  -0.760  1.00  0.00     0.161 A 
HETATM   20  N2  UNL     1       2.632   1.365  -0.918  1.00  0.00    -0.316 N 
HETATM   21  C2  UNL     1       3.509   0.469  -0.465  1.00  0.00     0.160 A 
ATOM     22  H2  UNL     1       2.950   2.217  -1.379  1.00  0.00     0.170 HD
HETATM   23  S2  UNL     1       2.514  -0.743   0.207  1.00  0.00    -0.048 SA
BRANCH  19  24
HETATM   24  O3  UNL     1       0.347   2.018  -1.206  1.00  0.00    -0.345 OA
ATOM     25  H3  UNL     1      -0.580   1.846  -1.091  1.00  0.00     0.219 HD
ENDBRANCH  19  24
BRANCH  21  26
HETATM   26  N1  UNL     1       4.823   0.535  -0.534  1.00  0.00    -0.264 N 
ATOM     27  H1  UNL     1       5.274   1.338  -0.973  1.00  0.00     0.180 HD
BRANCH  26  28
HETATM   28  S1  UNL     1       5.774  -0.742   0.121  1.00  0.00     0.228 S 
HETATM   29  C1  UNL     1       6.886  -0.009   1.318  1.00  0.00     0.186 C 
HETATM   30  O1  UNL     1       6.565  -1.338  -1.016  1.00  0.00    -0.206 OA
HETATM   31  O2  UNL     1       4.960  -1.760   0.843  1.00  0.00    -0.206 OA
ENDBRANCH  26  28
ENDBRANCH  21  26
ENDBRANCH   1  18
TORSDOF 7
