REMARK  7 active torsions:
REMARK  status: ('A' for Active; 'I' for Inactive)
REMARK    1  A    between atoms: C1_2  and  C2_3 
REMARK    2  A    between atoms: C1_2  and  C8_19 
REMARK    3  A    between atoms: C5_8  and  N1_9 
REMARK    4  A    between atoms: N1_9  and  N2_11 
REMARK    5  A    between atoms: N2_11  and  C6_13 
REMARK    6  A    between atoms: C8_19  and  O2_20 
REMARK    7  A    between atoms: C8_19  and  N5_22 
ROOT
HETATM    1  C2  UNL     1       0.341  -0.079   1.351  1.00  0.00     0.174 C 
HETATM    2  S1  UNL     1       0.464  -0.880   3.006  1.00  0.00    -0.144 SA
HETATM    3  C3  UNL     1       1.931  -1.858   2.553  1.00  0.00     0.128 C 
HETATM    4  C4  UNL     1       2.521  -0.977   1.525  1.00  0.00     0.046 C 
HETATM    5 CL1  UNL     1       4.267  -1.182   1.171  1.00  0.00    -0.086 Cl
HETATM    6  C5  UNL     1       1.764  -0.124   0.946  1.00  0.00     0.065 C 
ENDROOT
BRANCH   1   7
HETATM    7  C1  UNL     1      -0.412  -1.001   0.469  1.00  0.00     0.205 C 
HETATM    8  O1  UNL     1       0.085  -1.633  -0.431  1.00  0.00    -0.291 OA
BRANCH   7   9
HETATM    9  C8  UNL     1      -1.868  -1.183   0.675  1.00  0.00     0.428 C 
BRANCH   9  10
HETATM   10  O2  UNL     1      -2.273  -0.454   1.760  1.00  0.00    -0.362 OA
ATOM     11  H2  UNL     1      -3.207  -0.571   1.892  1.00  0.00     0.212 HD
ENDBRANCH   9  10
BRANCH   9  12
HETATM   12  N5  UNL     1      -2.629  -0.942  -0.513  1.00  0.00     0.127 N 
HETATM   13  C9  UNL     1      -2.489   0.415  -0.925  1.00  0.00     0.303 C 
HETATM   14  C10 UNL     1      -3.693   1.230  -0.488  1.00  0.00     0.262 C 
HETATM   15  N6  UNL     1      -4.888   0.790  -1.151  1.00  0.00    -0.072 N 
HETATM   16  C11 UNL     1      -4.887  -0.619  -1.403  1.00  0.00     0.262 C 
ATOM     17  H62 UNL     1      -5.720   1.070  -0.632  1.00  0.00     0.277 HD
ATOM     18  H61 UNL     1      -5.046   1.317  -2.010  1.00  0.00     0.277 HD
HETATM   19  C12 UNL     1      -4.010  -1.339  -0.374  1.00  0.00     0.303 C 
ENDBRANCH   9  12
ENDBRANCH   7   9
ENDBRANCH   1   7
BRANCH   6  20
HETATM   20  N1  UNL     1       2.227   0.792  -0.079  1.00  0.00    -0.299 N 
ATOM     21  H1  UNL     1       1.658   0.932  -0.914  1.00  0.00     0.186 HD
BRANCH  20  22
HETATM   22  N2  UNL     1       3.432   1.487   0.047  1.00  0.00    -0.271 N 
ATOM     23  H2  UNL     1       3.574   2.077   0.867  1.00  0.00     0.190 HD
BRANCH  22  24
HETATM   24  C6  UNL     1       4.466   1.404  -0.920  1.00  0.00     0.192 A 
HETATM   25  N3  UNL     1       4.481   1.160  -2.179  1.00  0.00    -0.345 N 
HETATM   26  C7  UNL     1       5.891   1.261  -2.393  1.00  0.00     0.249 A 
ATOM     27  H3  UNL     1       3.721   0.956  -2.828  1.00  0.00     0.164 HD
HETATM   28  N4  UNL     1       5.867   1.542  -0.954  1.00  0.00    -0.345 N 
ATOM     29  H4  UNL     1       6.580   1.753  -0.256  1.00  0.00     0.164 HD
ENDBRANCH  22  24
ENDBRANCH  20  22
ENDBRANCH   6  20
TORSDOF 7
