REMARK  3 active torsions:
REMARK  status: ('A' for Active; 'I' for Inactive)
REMARK    1  A    between atoms: C2_2  and  S1_5 
REMARK    2  A    between atoms: S1_5  and  N1_8 
REMARK    3  A    between atoms: N1_8  and  C3_10 
ROOT
HETATM    1  C3  UNL     1       0.051   0.048   0.172  1.00  0.00     0.041 C 
HETATM    2  C4  UNL     1      -0.565  -1.124   0.955  1.00  0.00     0.036 C 
HETATM    3  C5  UNL     1      -2.020  -1.275   0.723  1.00  0.00    -0.012 C 
HETATM    4  C6  UNL     1      -2.274  -1.559  -0.726  1.00  0.00     0.009 C 
HETATM    5  C7  UNL     1      -1.727  -0.386  -1.521  1.00  0.00    -0.012 C 
HETATM    6  C8  UNL     1      -2.464   0.850  -1.077  1.00  0.00     0.009 C 
HETATM    7  C9  UNL     1      -2.177   1.112   0.390  1.00  0.00    -0.012 C 
HETATM    8  C10 UNL     1      -2.721  -0.031   1.207  1.00  0.00     0.009 C 
HETATM    9  C11 UNL     1      -0.688   1.296   0.595  1.00  0.00     0.036 C 
HETATM   10  C12 UNL     1      -0.241  -0.204  -1.277  1.00  0.00     0.036 C 
ENDROOT
BRANCH   1  11
HETATM   11  N1  UNL     1       1.418   0.039   0.517  1.00  0.00    -0.305 N 
ATOM     12  H1  UNL     1       1.765  -0.674   1.159  1.00  0.00     0.173 HD
BRANCH  11  13
HETATM   13  S1  UNL     1       2.473   1.158  -0.095  1.00  0.00     0.295 S 
HETATM   14  O1  UNL     1       3.311   1.723   1.049  1.00  0.00    -0.200 OA
HETATM   15  O2  UNL     1       1.873   2.301  -0.856  1.00  0.00    -0.200 OA
BRANCH  13  16
HETATM   16  C2  UNL     1       3.636   0.389  -1.198  1.00  0.00     0.357 C 
HETATM   17  C1  UNL     1       4.395  -0.655  -0.422  1.00  0.00     0.110 C 
HETATM   18  F1  UNL     1       2.978  -0.151  -2.250  1.00  0.00    -0.187 F 
HETATM   19  F2  UNL     1       4.513   1.396  -1.620  1.00  0.00    -0.187 F 
ENDBRANCH  13  16
ENDBRANCH  11  13
ENDBRANCH   1  11
TORSDOF 3
