REMARK  4 active torsions:
REMARK  status: ('A' for Active; 'I' for Inactive)
REMARK    1  A    between atoms: O1_1  and  C1_3 
REMARK    2  A    between atoms: C6_12  and  C7_13 
REMARK    3  A    between atoms: C7_13  and  C8_14 
REMARK    4  A    between atoms: C8_14  and  N2_15 
ROOT
HETATM    1  C1  UNL     1       3.556  -2.030  -0.165  1.00  0.00     0.122 A 
HETATM    2  C2  UNL     1       4.585  -1.246  -0.613  1.00  0.00     0.049 A 
HETATM    3 BR1  UNL     1       6.200  -2.033  -1.310  1.00  0.00    -0.048 Br
HETATM    4  C3  UNL     1       4.472   0.109  -0.570  1.00  0.00     0.052 A 
HETATM    5  C4  UNL     1       3.322   0.690  -0.075  1.00  0.00     0.048 A 
HETATM    6  N1  UNL     1       2.956   1.977   0.075  1.00  0.00    -0.349 N 
ATOM      7  H1  UNL     1       3.537   2.776  -0.179  1.00  0.00     0.166 HD
HETATM    8  C5  UNL     1       1.726   2.068   0.603  1.00  0.00     0.088 A 
HETATM    9  S1  UNL     1       0.871   3.566   0.966  1.00  0.00    -0.032 SA
HETATM   10  C6  UNL     1       1.309   0.747   0.790  1.00  0.00    -0.006 A 
HETATM   11  C13 UNL     1       2.284  -0.127   0.377  1.00  0.00     0.041 A 
HETATM   12  C14 UNL     1       2.377  -1.497   0.342  1.00  0.00     0.163 A 
HETATM   13  F1  UNL     1       1.353  -2.256   0.784  1.00  0.00    -0.202 F 
ENDROOT
BRANCH  10  14
HETATM   14  C7  UNL     1      -0.040   0.447   1.354  1.00  0.00     0.072 C 
BRANCH  14  15
HETATM   15  C8  UNL     1      -1.014   0.653   0.226  1.00  0.00     0.277 C 
BRANCH  15  16
HETATM   16  N2  UNL     1      -2.372   0.441   0.497  1.00  0.00     0.092 N 
HETATM   17  C9  UNL     1      -2.846  -0.856   0.774  1.00  0.00     0.298 C 
HETATM   18  C10 UNL     1      -3.471  -1.610  -0.351  1.00  0.00     0.198 C 
HETATM   19  O2  UNL     1      -3.873  -0.862  -1.427  1.00  0.00    -0.388 OA
HETATM   20  C11 UNL     1      -4.373   0.344  -0.951  1.00  0.00     0.198 C 
HETATM   21  C12 UNL     1      -3.206   1.136  -0.447  1.00  0.00     0.298 C 
ENDBRANCH  15  16
ENDBRANCH  14  15
ENDBRANCH  10  14
BRANCH   1  22
HETATM   22  O1  UNL     1       3.679  -3.400  -0.212  1.00  0.00    -0.356 OA
ATOM     23  H1  UNL     1       2.965  -3.944   0.099  1.00  0.00     0.218 HD
ENDBRANCH   1  22
TORSDOF 4
