REMARK  6 active torsions:
REMARK  status: ('A' for Active; 'I' for Inactive)
REMARK    1  A    between atoms: C2_2  and  C4_4 
REMARK    2  A    between atoms: C5_5  and  C6_6 
REMARK    3  A    between atoms: C12_12  and  O1_13 
REMARK    4  A    between atoms: C12_12  and  O2_15 
REMARK    5  A    between atoms: C13_17  and  C14_18 
REMARK    6  A    between atoms: C14_18  and  C15_19 
ROOT
HETATM    1  C4  UNL     1       0.039   0.969  -0.389  1.00  0.00     0.027 C 
HETATM    2  C5  UNL     1      -1.083   1.129   0.622  1.00  0.00    -0.005 C 
HETATM    3  C8  UNL     1      -2.107   0.083   0.403  1.00  0.00     0.019 C 
HETATM    4  C9  UNL     1      -1.641  -1.252   0.023  1.00  0.00     0.009 C 
HETATM    5  C10 UNL     1      -1.727  -2.241   1.188  1.00  0.00     0.020 C 
HETATM    6  C11 UNL     1      -2.600  -1.818  -1.036  1.00  0.00     0.020 C 
HETATM    7  C12 UNL     1      -0.263  -1.356  -0.547  1.00  0.00     0.171 C 
HETATM    8  C13 UNL     1       0.709  -0.356   0.053  1.00  0.00     0.062 C 
ENDROOT
BRANCH   8   9
HETATM    9  C14 UNL     1       2.074  -0.464  -0.482  1.00  0.00     0.062 C 
BRANCH   9  10
HETATM   10  C15 UNL     1       2.848  -1.644  -0.064  1.00  0.00    -0.024 C 
HETATM   11  C16 UNL     1       4.185  -1.966  -0.695  1.00  0.00     0.062 C 
HETATM   12  N1  UNL     1       2.500  -2.436   0.862  1.00  0.00    -0.406 N 
ATOM     13  H12 UNL     1       1.599  -2.219   1.287  1.00  0.00     0.155 HD
ATOM     14  H11 UNL     1       3.036  -3.254   1.152  1.00  0.00     0.155 HD
ENDBRANCH   9  10
ENDBRANCH   8   9
BRANCH   1  15
HETATM   15  C2  UNL     1       0.970   2.113  -0.364  1.00  0.00    -0.088 C 
HETATM   16  C1  UNL     1       1.248   2.789  -1.462  1.00  0.00     0.014 C 
HETATM   17  C3  UNL     1       1.641   2.585   0.902  1.00  0.00     0.043 C 
ENDBRANCH   1  15
BRANCH   7  18
HETATM   18  O1  UNL     1       0.104  -2.661  -0.545  1.00  0.00    -0.364 OA
ATOM     19  H1  UNL     1       0.980  -2.727  -0.907  1.00  0.00     0.213 HD
ENDBRANCH   7  18
BRANCH   7  20
HETATM   20  O2  UNL     1      -0.374  -0.993  -1.916  1.00  0.00    -0.364 OA
ATOM     21  H2  UNL     1       0.502  -1.059  -2.278  1.00  0.00     0.213 HD
ENDBRANCH   7  20
BRANCH   2  22
HETATM   22  C6  UNL     1      -1.705   2.504   0.544  1.00  0.00     0.001 C 
HETATM   23  C7  UNL     1      -2.809   2.562   1.587  1.00  0.00     0.005 C 
ENDBRANCH   2  22
TORSDOF 6
