REMARK  2 active torsions:
REMARK  status: ('A' for Active; 'I' for Inactive)
REMARK    1  A    between atoms: C2_2  and  C3_3 
REMARK    2  A    between atoms: C3_3  and  N1_4 
REMARK       I    between atoms: N1_4  and  C4_6 
REMARK       I    between atoms: C4_6  and  N2_8 
ROOT
HETATM    1  N1  UNL     1      -1.022   0.170   1.217  1.00  0.00    -0.340 N 
ATOM      2  H1  UNL     1      -0.451  -0.288   1.927  1.00  0.00     0.164 HD
HETATM    3  C4  UNL     1      -0.413   0.552  -0.005  1.00  0.00     0.318 C 
HETATM    4  O1  UNL     1      -1.091   1.108  -0.877  1.00  0.00    -0.247 OA
HETATM    5  N2  UNL     1       0.952   0.293  -0.208  1.00  0.00    -0.334 N 
HETATM    6  C5  UNL     1       1.909  -0.348   0.694  1.00  0.00     0.127 C 
HETATM    7  C6  UNL     1       2.927  -0.970  -0.200  1.00  0.00     0.022 C 
HETATM    8  C7  UNL     1       2.674  -0.462  -1.606  1.00  0.00     0.022 C 
HETATM    9  C8  UNL     1       1.657   0.655  -1.441  1.00  0.00     0.127 C 
ENDROOT
BRANCH   1  10
HETATM   10  C3  UNL     1      -2.420   0.404   1.496  1.00  0.00     0.150 C 
BRANCH  10  11
HETATM   11  C2  UNL     1      -3.212  -0.320   0.469  1.00  0.00    -0.018 C 
HETATM   12  C1  UNL     1      -4.029   0.323  -0.324  1.00  0.00     0.008 C 
ENDBRANCH  10  11
ENDBRANCH   1  10
TORSDOF 2
