REMARK  4 active torsions:
REMARK  status: ('A' for Active; 'I' for Inactive)
REMARK    1  A    between atoms: C2_2  and  C3_3 
REMARK    2  A    between atoms: C6_6  and  N1_7 
REMARK    3  A    between atoms: C7_8  and  C8_9 
REMARK    4  A    between atoms: C8_9  and  N2_10 
ROOT
HETATM    1  N1  UNL     1       0.641  -0.961  -0.343  1.00  0.00    -0.304 N 
HETATM    2  C7  UNL     1       1.817  -0.345  -0.043  1.00  0.00     0.126 A 
HETATM    3  N3  UNL     1       2.647  -0.564  -1.082  1.00  0.00    -0.285 N 
ATOM      4  H3  UNL     1       3.607  -0.225  -1.149  1.00  0.00     0.188 HD
HETATM    5  N4  UNL     1       2.030  -1.282  -1.997  1.00  0.00    -0.275 N 
ATOM      6  H4  UNL     1       2.423  -1.592  -2.886  1.00  0.00     0.189 HD
HETATM    7  C9  UNL     1       0.777  -1.534  -1.543  1.00  0.00     0.194 A 
HETATM    8  S1  UNL     1      -0.314  -2.415  -2.394  1.00  0.00    -0.039 SA
ENDROOT
BRANCH   1   9
HETATM    9  C6  UNL     1      -0.463  -0.939   0.534  1.00  0.00     0.101 C 
HETATM   10  C3  UNL     1      -1.240   0.379   0.641  1.00  0.00     0.031 C 
HETATM   11  C4  UNL     1      -2.404  -0.522   1.088  1.00  0.00     0.012 C 
HETATM   12  C5  UNL     1      -1.761  -1.560   0.138  1.00  0.00     0.027 C 
BRANCH  10  13
HETATM   13  C2  UNL     1      -1.567   1.044  -0.619  1.00  0.00    -0.030 C 
HETATM   14  C1  UNL     1      -1.157   2.281  -0.938  1.00  0.00     0.007 C 
ENDBRANCH  10  13
ENDBRANCH   1   9
BRANCH   2  15
HETATM   15  C8  UNL     1       2.206   0.426   1.159  1.00  0.00     0.307 C 
BRANCH  15  16
HETATM   16  N2  UNL     1       2.085   1.827   0.962  1.00  0.00    -0.073 N 
ATOM     17  H23 UNL     1       2.612   2.131   0.143  1.00  0.00     0.274 HD
ATOM     18  H22 UNL     1       1.145   2.076   0.653  1.00  0.00     0.274 HD
ATOM     19  H21 UNL     1       2.353   2.358   1.790  1.00  0.00     0.274 HD
ENDBRANCH  15  16
ENDBRANCH   2  15
TORSDOF 4
