REMARK  4 active torsions:
REMARK  status: ('A' for Active; 'I' for Inactive)
REMARK    1  A    between atoms: C4_4  and  C5_5 
REMARK    2  A    between atoms: N2_7  and  O1_8 
REMARK    3  A    between atoms: C10_20  and  O2_21 
REMARK    4  A    between atoms: C13_25  and  O3_26 
ROOT
HETATM    1  C5  UNL     1      -0.095   0.766  -0.257  1.00  0.00     0.197 C 
HETATM    2  N1  UNL     1       0.501   0.287  -1.491  1.00  0.00    -0.116 NA
HETATM    3  N2  UNL     1       1.829   0.755  -1.454  1.00  0.00    -0.070 NA
HETATM    4  C6  UNL     1       2.498   0.026  -0.384  1.00  0.00     0.182 C 
HETATM    5  C7  UNL     1       2.906  -1.331  -0.819  1.00  0.00     0.083 C 
HETATM    6  C8  UNL     1       4.267  -1.760  -0.345  1.00  0.00     0.127 C 
HETATM    7  N3  UNL     1       5.192  -0.641  -0.435  1.00  0.00    -0.364 N 
ATOM      8  H3  UNL     1       6.104  -0.739  -0.880  1.00  0.00     0.162 HD
HETATM    9  C9  UNL     1       4.770   0.594   0.124  1.00  0.00     0.186 C 
HETATM   10  N4  UNL     1       5.768   1.482   0.658  1.00  0.00    -0.064 NA
HETATM   11  N5  UNL     1       3.530   0.868   0.132  1.00  0.00    -0.331 N 
ATOM     12  H5  UNL     1       3.249   1.760   0.539  1.00  0.00     0.165 HD
HETATM   13  S1  UNL     1       1.128  -0.052   0.857  1.00  0.00    -0.090 SA
ENDROOT
BRANCH   1  14
HETATM   14  C4  UNL     1      -1.459   0.386  -0.015  1.00  0.00     0.007 A 
HETATM   15  C3  UNL     1      -2.336   1.407   0.398  1.00  0.00     0.022 A 
HETATM   16  C2  UNL     1      -3.663   1.199   0.655  1.00  0.00    -0.028 A 
HETATM   17  C1  UNL     1      -4.493   2.365   1.087  1.00  0.00     0.051 C 
HETATM   18  C13 UNL     1      -4.210  -0.051   0.516  1.00  0.00     0.080 A 
HETATM   19  C11 UNL     1      -3.389  -1.070   0.117  1.00  0.00     0.005 A 
HETATM   20  C10 UNL     1      -2.031  -0.845  -0.143  1.00  0.00     0.083 A 
HETATM   21  C12 UNL     1      -3.951  -2.444  -0.044  1.00  0.00     0.054 C 
BRANCH  18  22
HETATM   22  O3  UNL     1      -5.558  -0.225   0.785  1.00  0.00    -0.360 OA
ATOM     23  H3  UNL     1      -5.937  -1.091   0.689  1.00  0.00     0.217 HD
ENDBRANCH  18  22
BRANCH  20  24
HETATM   24  O2  UNL     1      -1.262  -1.917  -0.540  1.00  0.00    -0.359 OA
ATOM     25  H2  UNL     1      -1.661  -2.775  -0.629  1.00  0.00     0.217 HD
ENDBRANCH  20  24
ENDBRANCH   1  14
BRANCH   3  26
HETATM   26  O1  UNL     1       1.793   2.071  -1.242  1.00  0.00    -0.294 OA
ATOM     27  H1  UNL     1       2.689   2.387  -1.217  1.00  0.00     0.238 HD
ENDBRANCH   3  26
TORSDOF 4
