REMARK  5 active torsions:
REMARK  status: ('A' for Active; 'I' for Inactive)
REMARK    1  A    between atoms: C2_2  and  N1_4 
REMARK    2  A    between atoms: N1_4  and  C4_5 
REMARK    3  A    between atoms: N1_4  and  N2_8 
REMARK    4  A    between atoms: C6_9  and  O1_10 
REMARK    5  A    between atoms: C8_14  and  N3_15 
ROOT
HETATM    1  N2  UNL     1       1.108  -0.074   0.527  1.00  0.00    -0.211 N 
HETATM    2  C6  UNL     1       2.048  -0.897   0.075  1.00  0.00     0.170 A 
HETATM    3  C7  UNL     1       3.107  -1.176   0.885  1.00  0.00     0.111 A 
HETATM    4  S1  UNL     1       2.743  -0.258   2.283  1.00  0.00    -0.060 SA
HETATM    5  C8  UNL     1       1.277   0.419   1.753  1.00  0.00     0.166 A 
ENDROOT
BRANCH   1   6
HETATM    6  N1  UNL     1      -0.056   0.287  -0.241  1.00  0.00    -0.294 N 
BRANCH   6   7
HETATM    7  C2  UNL     1      -1.321  -0.344  -0.109  1.00  0.00     0.096 C 
HETATM    8  C1  UNL     1      -1.811  -1.041  -1.359  1.00  0.00     0.033 C 
HETATM    9  C3  UNL     1      -1.463  -1.276   1.047  1.00  0.00     0.033 C 
ENDBRANCH   6   7
BRANCH   6  10
HETATM   10  C4  UNL     1       0.135   1.360  -1.199  1.00  0.00     0.195 C 
HETATM   11  C5  UNL     1      -0.761   2.531  -0.868  1.00  0.00     0.051 C 
HETATM   12 CL1  UNL     1       1.826   1.895  -1.284  1.00  0.00    -0.101 Cl
ENDBRANCH   6  10
ENDBRANCH   1   6
BRANCH   2  13
HETATM   13  O1  UNL     1       2.026  -1.516  -1.217  1.00  0.00    -0.344 OA
ATOM     14  H1  UNL     1       2.698  -2.104  -1.540  1.00  0.00     0.219 HD
ENDBRANCH   2  13
BRANCH   5  15
HETATM   15  N3  UNL     1       0.549   1.224   2.444  1.00  0.00    -0.378 N 
ATOM     16  H32 UNL     1      -0.331   1.630   2.126  1.00  0.00     0.158 HD
ATOM     17  H31 UNL     1       0.678   1.601   3.383  1.00  0.00     0.158 HD
ENDBRANCH   5  15
TORSDOF 5
