REMARK  10 active torsions:
REMARK  status: ('A' for Active; 'I' for Inactive)
REMARK    1  A    between atoms: O1_2  and  C2_3 
REMARK    2  A    between atoms: C2_3  and  C3_4 
REMARK    3  A    between atoms: C7_14  and  C8_15 
REMARK    4  A    between atoms: C9_16  and  C10_17 
REMARK    5  A    between atoms: C12_21  and  N6_22 
REMARK    6  A    between atoms: C13_27  and  N8_28 
REMARK    7  A    between atoms: C14_35  and  C15_36 
REMARK    8  A    between atoms: C15_36  and  C16_37 
REMARK    9  A    between atoms: C16_37  and  N11_38 
REMARK       I    between atoms: N11_38  and  C17_40 
REMARK   10  A    between atoms: C20_44  and  N12_45 
ROOT
HETATM    1  C8  UNL     1      -2.251   0.835  -0.542  1.00  0.00     0.033 A 
HETATM    2  C9  UNL     1      -3.177   1.928  -0.460  1.00  0.00     0.077 A 
HETATM    3  N9  UNL     1      -4.297   1.461  -1.012  1.00  0.00    -0.299 N 
ATOM      4  H9  UNL     1      -5.156   2.002  -1.110  1.00  0.00     0.187 HD
HETATM    5  N10 UNL     1      -4.161   0.236  -1.409  1.00  0.00    -0.303 N 
ATOM      6  H10 UNL     1      -4.888  -0.320  -1.859  1.00  0.00     0.186 HD
HETATM    7  C14 UNL     1      -2.880  -0.205  -1.130  1.00  0.00     0.041 A 
ENDROOT
BRANCH   1   8
HETATM    8  C7  UNL     1      -0.875   1.047  -0.126  1.00  0.00     0.106 C 
HETATM    9  N4  UNL     1       0.138   0.135  -0.107  1.00  0.00    -0.365 N 
HETATM   10  C6  UNL     1       0.288  -0.880   0.834  1.00  0.00     0.085 C 
HETATM   11  C19 UNL     1       1.079   0.143  -1.190  1.00  0.00     0.168 C 
HETATM   12  C5  UNL     1       1.465  -0.708   1.799  1.00  0.00     0.195 C 
HETATM   13  N2  UNL     1       2.719  -0.875   1.087  1.00  0.00    -0.272 N 
HETATM   14  C4  UNL     1       3.141  -0.250  -0.016  1.00  0.00     0.132 A 
HETATM   15  N3  UNL     1       3.659  -1.711   1.457  1.00  0.00    -0.283 N 
HETATM   16  N1  UNL     1       4.358  -0.723  -0.312  1.00  0.00    -0.330 N 
HETATM   17  C20 UNL     1       2.363   0.784  -0.758  1.00  0.00     0.270 C 
HETATM   18  C3  UNL     1       4.683  -1.639   0.611  1.00  0.00     0.121 A 
ATOM     19  H1  UNL     1       4.937  -0.436  -1.102  1.00  0.00     0.168 HD
ATOM     20  H3  UNL     1       3.612  -2.324   2.271  1.00  0.00     0.188 HD
BRANCH  18  21
HETATM   21  C2  UNL     1       5.931  -2.459   0.734  1.00  0.00     0.245 C 
BRANCH  21  22
HETATM   22  O1  UNL     1       6.828  -1.866   1.607  1.00  0.00    -0.389 OA
HETATM   23  C1  UNL     1       7.172  -0.617   1.155  1.00  0.00     0.202 C 
ENDBRANCH  21  22
ENDBRANCH  18  21
BRANCH  17  24
HETATM   24  N12 UNL     1       3.148   1.269  -1.875  1.00  0.00    -0.067 N 
ATOM     25 3H12 UNL     1       4.064   1.611  -1.583  1.00  0.00     0.275 HD
ATOM     26 2H12 UNL     1       3.462   0.513  -2.483  1.00  0.00     0.275 HD
ATOM     27 1H12 UNL     1       2.616   1.976  -2.382  1.00  0.00     0.275 HD
ENDBRANCH  17  24
ENDBRANCH   1   8
BRANCH   2  28
HETATM   28  C10 UNL     1      -2.924   3.259   0.080  1.00  0.00     0.053 A 
HETATM   29  C11 UNL     1      -2.611   3.496   1.398  1.00  0.00     0.123 A 
HETATM   30  N5  UNL     1      -2.428   4.755   1.812  1.00  0.00    -0.201 N 
HETATM   31  C12 UNL     1      -2.541   5.796   0.981  1.00  0.00     0.677 A 
ATOM     32  H5  UNL     1      -2.195   4.926   2.790  1.00  0.00     0.183 HD
HETATM   33  N7  UNL     1      -2.842   5.621  -0.305  1.00  0.00    -0.176 N 
HETATM   34  C13 UNL     1      -3.034   4.348  -0.757  1.00  0.00     0.128 A 
ATOM     35  H7  UNL     1      -2.927   6.418  -0.936  1.00  0.00     0.186 HD
BRANCH  31  36
HETATM   36  N6  UNL     1      -2.355   7.008   1.423  1.00  0.00    -0.234 N 
ATOM     37  H62 UNL     1      -2.125   7.142   2.408  1.00  0.00     0.174 HD
ATOM     38  H61 UNL     1      -2.441   7.802   0.789  1.00  0.00     0.174 HD
ENDBRANCH  31  36
BRANCH  34  39
HETATM   39  N8  UNL     1      -3.314   4.267  -2.010  1.00  0.00    -0.384 N 
ATOM     40  H82 UNL     1      -3.458   3.315  -2.348  1.00  0.00     0.157 HD
ATOM     41  H81 UNL     1      -3.395   5.073  -2.630  1.00  0.00     0.157 HD
ENDBRANCH  34  39
ENDBRANCH   2  28
BRANCH   7  42
HETATM   42  C15 UNL     1      -2.473  -1.603  -1.413  1.00  0.00     0.079 C 
BRANCH  42  43
HETATM   43  C16 UNL     1      -2.865  -2.505  -0.260  1.00  0.00     0.128 C 
BRANCH  43  44
HETATM   44  N11 UNL     1      -2.446  -3.870  -0.506  1.00  0.00    -0.361 N 
HETATM   45  C17 UNL     1      -2.731  -4.846   0.475  1.00  0.00     0.213 C 
HETATM   46  C18 UNL     1      -2.302  -6.249   0.226  1.00  0.00     0.117 C 
HETATM   47  O2  UNL     1      -3.333  -4.569   1.545  1.00  0.00    -0.274 OA
ATOM     48  H11 UNL     1      -1.958  -4.120  -1.366  1.00  0.00     0.162 HD
ENDBRANCH  43  44
ENDBRANCH  42  43
ENDBRANCH   7  42
TORSDOF 10
