REMARK  8 active torsions:
REMARK  status: ('A' for Active; 'I' for Inactive)
REMARK    1  A    between atoms: C5_7  and  N2_8 
REMARK    2  A    between atoms: N3_11  and  C6_12 
REMARK    3  A    between atoms: C6_12  and  C7_13 
REMARK    4  A    between atoms: C7_13  and  C8_14 
REMARK    5  A    between atoms: C8_14  and  C9_15 
REMARK    6  A    between atoms: C9_15  and  N4_16 
REMARK    7  A    between atoms: C14_21  and  C15_22 
REMARK    8  A    between atoms: N5_23  and  O1_25 
ROOT
HETATM    1  C7  UNL     1      -0.733   0.315   0.968  1.00  0.00     0.022 C 
ENDROOT
BRANCH   1   2
HETATM    2  C6  UNL     1      -1.635   0.743  -0.151  1.00  0.00     0.132 C 
BRANCH   2   3
HETATM    3  N3  UNL     1      -3.000   0.318   0.083  1.00  0.00    -0.323 N 
HETATM    4  C2  UNL     1      -3.480  -0.857  -0.357  1.00  0.00     0.080 A 
HETATM    5  C1  UNL     1      -2.612  -1.788  -1.136  1.00  0.00     0.089 C 
HETATM    6  N1  UNL     1      -4.767  -1.251  -0.125  1.00  0.00    -0.356 N 
HETATM    7  C3  UNL     1      -5.590  -0.448   0.564  1.00  0.00     0.093 A 
ATOM      8  H1  UNL     1      -5.100  -2.150  -0.474  1.00  0.00     0.166 HD
HETATM    9  C4  UNL     1      -5.109   0.764   1.021  1.00  0.00     0.065 A 
HETATM   10  C5  UNL     1      -3.802   1.145   0.776  1.00  0.00     0.103 A 
BRANCH  10  11
HETATM   11  N2  UNL     1      -3.322   2.267   1.188  1.00  0.00    -0.385 N 
ATOM     12  H22 UNL     1      -3.930   2.894   1.714  1.00  0.00     0.157 HD
ATOM     13  H21 UNL     1      -2.358   2.548   1.007  1.00  0.00     0.157 HD
ENDBRANCH  10  11
ENDBRANCH   2   3
ENDBRANCH   1   2
BRANCH   1  14
HETATM   14  C8  UNL     1       0.692   0.721   0.805  1.00  0.00     0.022 C 
BRANCH  14  15
HETATM   15  C9  UNL     1       1.286   0.132  -0.449  1.00  0.00     0.128 C 
BRANCH  15  16
HETATM   16  N4  UNL     1       2.664   0.509  -0.614  1.00  0.00    -0.356 N 
HETATM   17  C10 UNL     1       3.038   1.607  -1.310  1.00  0.00     0.091 A 
HETATM   18  C11 UNL     1       4.338   1.990  -1.496  1.00  0.00     0.017 A 
HETATM   19  C12 UNL     1       5.323   1.214  -0.944  1.00  0.00     0.004 A 
HETATM   20  C13 UNL     1       4.974   0.105  -0.240  1.00  0.00     0.031 A 
HETATM   21  C14 UNL     1       3.627  -0.238  -0.082  1.00  0.00     0.051 A 
BRANCH  21  22
HETATM   22  C15 UNL     1       3.365  -1.432   0.697  1.00  0.00     0.143 C 
HETATM   23  N5  UNL     1       4.313  -2.143   1.193  1.00  0.00    -0.278 N 
ATOM     24  H5  UNL     1       5.286  -1.876   1.047  1.00  0.00     0.193 HD
BRANCH  23  25
HETATM   25  O1  UNL     1       4.008  -3.258   1.917  1.00  0.00    -0.290 OA
ATOM     26  H1  UNL     1       4.709  -3.784   2.284  1.00  0.00     0.244 HD
ENDBRANCH  23  25
ENDBRANCH  21  22
ENDBRANCH  15  16
ENDBRANCH  14  15
ENDBRANCH   1  14
TORSDOF 8
