REMARK  4 active torsions:
REMARK  status: ('A' for Active; 'I' for Inactive)
REMARK    1  A    between atoms: O1_2  and  C2_3 
REMARK    2  A    between atoms: C3_5  and  C4_6 
REMARK    3  A    between atoms: C4_6  and  O3_7 
REMARK    4  A    between atoms: C5_9  and  O4_10 
ROOT
HETATM    1  C2  UNL     1       2.996  -0.865   0.650  1.00  0.00     0.266 C 
HETATM    2  O2  UNL     1       3.443  -0.690  -0.614  1.00  0.00    -0.349 OA
HETATM    3  C3  UNL     1       4.519   0.138  -0.829  1.00  0.00     0.203 C 
HETATM    4  C5  UNL     1       4.560   1.360   0.008  1.00  0.00     0.288 C 
HETATM    5  O5  UNL     1       3.611   1.525   0.959  1.00  0.00    -0.353 OA
HETATM    6  C6  UNL     1       2.301   1.429   0.607  1.00  0.00     0.134 C 
HETATM    7  C7  UNL     1       1.937   1.877  -0.768  1.00  0.00     0.033 C 
HETATM    8  C8  UNL     1       0.424   2.011  -0.718  1.00  0.00     0.012 C 
HETATM    9  C9  UNL     1      -0.226   0.628  -0.579  1.00  0.00    -0.035 C 
HETATM   10  C10 UNL     1      -0.467   0.243  -2.058  1.00  0.00     0.016 C 
HETATM   11  C11 UNL     1      -1.603   0.877  -0.040  1.00  0.00    -0.001 C 
HETATM   12  C12 UNL     1      -1.719   1.107   1.420  1.00  0.00     0.011 C 
HETATM   13  C13 UNL     1      -2.625  -0.102  -0.571  1.00  0.00     0.024 C 
HETATM   14  C14 UNL     1      -2.361  -1.480  -0.178  1.00  0.00    -0.076 C 
HETATM   15  C15 UNL     1      -1.324  -1.985   0.450  1.00  0.00    -0.023 C 
HETATM   16  C16 UNL     1      -0.114  -1.371   0.959  1.00  0.00     0.033 C 
HETATM   17  C17 UNL     1       0.597  -0.389   0.065  1.00  0.00     0.009 C 
HETATM   18  C18 UNL     1       1.789   0.068   0.867  1.00  0.00     0.075 C 
HETATM   19  C19 UNL     1      -3.413  -2.515  -0.515  1.00  0.00     0.072 C 
HETATM   20  C20 UNL     1      -4.759  -1.961  -0.026  1.00  0.00     0.178 C 
HETATM   21  F1  UNL     1      -4.683  -1.763   1.335  1.00  0.00    -0.249 F 
HETATM   22  C21 UNL     1      -4.976  -0.657  -0.712  1.00  0.00     0.032 C 
HETATM   23  C22 UNL     1      -6.279   0.006  -0.416  1.00  0.00     0.086 C 
HETATM   24  C23 UNL     1      -5.956   1.457  -0.656  1.00  0.00     0.127 C 
HETATM   25  O6  UNL     1      -6.711   2.398  -0.770  1.00  0.00    -0.298 OA
HETATM   26  C24 UNL     1      -4.457   1.619  -0.748  1.00  0.00     0.084 C 
HETATM   27  C25 UNL     1      -3.989   0.350  -0.098  1.00  0.00     0.008 C 
ENDROOT
BRANCH   3  28
HETATM   28  C4  UNL     1       5.833  -0.628  -0.861  1.00  0.00     0.201 C 
BRANCH  28  29
HETATM   29  O3  UNL     1       6.838   0.303  -1.107  1.00  0.00    -0.398 OA
ATOM     30  H3  UNL     1       7.659  -0.175  -1.127  1.00  0.00     0.209 HD
ENDBRANCH  28  29
ENDBRANCH   3  28
BRANCH   4  31
HETATM   31  O4  UNL     1       5.806   1.385   0.684  1.00  0.00    -0.369 OA
ATOM     32  H4  UNL     1       5.832   2.168   1.221  1.00  0.00     0.212 HD
ENDBRANCH   4  31
BRANCH   1  33
HETATM   33  O1  UNL     1       3.924  -0.726   1.647  1.00  0.00    -0.366 OA
HETATM   34  C1  UNL     1       4.079  -1.909   2.404  1.00  0.00     0.204 C 
ENDBRANCH   1  33
TORSDOF 4
