REMARK  3 active torsions:
REMARK  status: ('A' for Active; 'I' for Inactive)
REMARK    1  A    between atoms: C2_2  and  C3_3 
REMARK    2  A    between atoms: C3_3  and  O1_4 
REMARK    3  A    between atoms: O1_4  and  C4_5 
ROOT
HETATM    1  C4  UNL     1      -1.258  -0.434  -0.024  1.00  0.00     0.158 A 
HETATM    2  C5  UNL     1      -1.718   0.874   0.072  1.00  0.00     0.076 A 
HETATM    3  C6  UNL     1      -3.063   0.792   0.367  1.00  0.00     0.111 A 
HETATM    4  N1  UNL     1      -3.375  -0.522   0.441  1.00  0.00    -0.310 N 
ATOM      5  H1  UNL     1      -4.303  -0.892   0.646  1.00  0.00     0.186 HD
HETATM    6  N2  UNL     1      -2.310  -1.250   0.211  1.00  0.00    -0.280 N 
ATOM      7  H2  UNL     1      -2.280  -2.270   0.210  1.00  0.00     0.189 HD
ENDROOT
BRANCH   1   8
HETATM    8  O1  UNL     1       0.054  -0.793  -0.310  1.00  0.00    -0.331 OA
BRANCH   8   9
HETATM    9  C3  UNL     1       1.038   0.191  -0.530  1.00  0.00     0.204 C 
BRANCH   9  10
HETATM   10  C2  UNL     1       2.359  -0.409  -0.817  1.00  0.00    -0.011 C 
HETATM   11  C1  UNL     1       3.386  -0.155  -0.037  1.00  0.00     0.009 C 
ENDBRANCH   9  10
ENDBRANCH   8   9
ENDBRANCH   1   8
TORSDOF 3
