REMARK  16 active torsions:
REMARK  status: ('A' for Active; 'I' for Inactive)
REMARK    1  A    between atoms: C2_3  and  C3_4 
REMARK    2  A    between atoms: C3_4  and  C4_5 
REMARK       I    between atoms: C4_5  and  N2_7 
REMARK    3  A    between atoms: N2_7  and  C5_9 
REMARK    4  A    between atoms: C6_14  and  C7_15 
REMARK    5  A    between atoms: C7_15  and  C8_16 
REMARK    6  A    between atoms: C8_16  and  S1_17 
REMARK    7  A    between atoms: S1_17  and  C9_18 
REMARK    8  A    between atoms: C9_18  and  C10_19 
REMARK    9  A    between atoms: C10_19  and  C11_20 
REMARK   10  A    between atoms: C14_23  and  N5_24 
REMARK   11  A    between atoms: N5_24  and  C15_25 
REMARK   12  A    between atoms: C15_25  and  O2_26 
REMARK   13  A    between atoms: C15_25  and  C16_28 
REMARK   14  A    between atoms: C16_28  and  C17_29 
REMARK   15  A    between atoms: C17_29  and  N6_30 
REMARK   16  A    between atoms: C23_41  and  C24_42 
ROOT
HETATM    1  C5  UNL     1       4.552   1.141  -0.112  1.00  0.00     0.167 A 
HETATM    2  N3  UNL     1       3.287   1.566   0.190  1.00  0.00    -0.279 N 
ATOM      3  H3  UNL     1       3.130   2.448   0.678  1.00  0.00     0.189 HD
HETATM    4  N4  UNL     1       2.322   0.833  -0.154  1.00  0.00    -0.296 N 
ATOM      5  H4  UNL     1       1.373   1.136   0.065  1.00  0.00     0.187 HD
HETATM    6  C6  UNL     1       2.491  -0.301  -0.781  1.00  0.00     0.070 A 
HETATM    7  S2  UNL     1       4.218  -0.337  -0.901  1.00  0.00    -0.038 SA
ENDROOT
BRANCH   6   8
HETATM    8  C7  UNL     1       1.484  -1.296  -1.236  1.00  0.00     0.076 C 
BRANCH   8   9
HETATM    9  C8  UNL     1       1.258  -2.420  -0.301  1.00  0.00     0.080 C 
BRANCH   9  10
HETATM   10  S1  UNL     1       0.635  -2.132   1.315  1.00  0.00    -0.168 SA
BRANCH  10  11
HETATM   11  C9  UNL     1      -1.065  -1.680   1.449  1.00  0.00     0.080 C 
BRANCH  11  12
HETATM   12  C10 UNL     1      -1.343  -0.260   1.018  1.00  0.00     0.068 C 
BRANCH  12  13
HETATM   13  C11 UNL     1      -2.832  -0.016   1.148  1.00  0.00     0.026 A 
HETATM   14  C12 UNL     1      -3.662  -0.177   0.069  1.00  0.00     0.031 A 
HETATM   15  C13 UNL     1      -5.020  -0.050   0.237  1.00  0.00     0.067 A 
HETATM   16  C14 UNL     1      -5.597   0.244   1.501  1.00  0.00     0.196 A 
HETATM   17  N7  UNL     1      -4.688   0.389   2.509  1.00  0.00    -0.274 N 
HETATM   18  N8  UNL     1      -3.387   0.265   2.327  1.00  0.00    -0.302 N 
ATOM     19  H7  UNL     1      -5.030   0.603   3.446  1.00  0.00     0.189 HD
ATOM     20  H8  UNL     1      -2.773   0.391   3.132  1.00  0.00     0.186 HD
BRANCH  16  21
HETATM   21  N5  UNL     1      -6.792   0.286   1.587  1.00  0.00    -0.366 NA
BRANCH  21  22
HETATM   22  C15 UNL     1      -8.084   0.341   1.717  1.00  0.00     0.194 C 
BRANCH  22  23
HETATM   23  O2  UNL     1      -8.721  -0.024   2.803  1.00  0.00    -0.339 OA
ATOM     24  H2  UNL     1      -9.665   0.016   2.898  1.00  0.00     0.220 HD
ENDBRANCH  22  23
BRANCH  22  25
HETATM   25  C16 UNL     1      -9.082   0.822   0.674  1.00  0.00     0.128 C 
BRANCH  25  26
HETATM   26  C17 UNL     1     -10.227  -0.178   0.685  1.00  0.00     0.245 C 
BRANCH  26  27
HETATM   27  N6  UNL     1     -11.241   0.149  -0.263  1.00  0.00    -0.078 N 
HETATM   28  C18 UNL     1     -10.990  -0.567  -1.520  1.00  0.00     0.271 C 
HETATM   29  C19 UNL     1     -11.323   1.555  -0.522  1.00  0.00     0.271 C 
HETATM   30  C20 UNL     1     -12.522  -0.323   0.274  1.00  0.00     0.271 C 
ENDBRANCH  26  27
ENDBRANCH  25  26
ENDBRANCH  22  25
ENDBRANCH  21  22
ENDBRANCH  16  21
ENDBRANCH  12  13
ENDBRANCH  11  12
ENDBRANCH  10  11
ENDBRANCH   9  10
ENDBRANCH   8   9
ENDBRANCH   6   8
BRANCH   1  31
HETATM   31  N2  UNL     1       5.636   1.764   0.163  1.00  0.00    -0.306 N 
HETATM   32  C4  UNL     1       6.933   1.430  -0.087  1.00  0.00     0.229 C 
HETATM   33  O1  UNL     1       7.811   2.363  -0.182  1.00  0.00    -0.273 OA
ATOM     34  H2  UNL     1       5.508   2.653   0.647  1.00  0.00     0.171 HD
BRANCH  32  35
HETATM   35  C3  UNL     1       7.426   0.041  -0.252  1.00  0.00     0.160 C 
BRANCH  35  36
HETATM   36  C2  UNL     1       8.875  -0.017   0.008  1.00  0.00     0.020 A 
HETATM   37  N1  UNL     1       9.901   0.097  -0.828  1.00  0.00    -0.352 N 
HETATM   38  C1  UNL     1       9.820   0.262  -2.275  1.00  0.00     0.156 C 
HETATM   39  C23 UNL     1      11.037   0.021  -0.124  1.00  0.00     0.068 A 
HETATM   40  C22 UNL     1      10.757  -0.148   1.217  1.00  0.00     0.034 A 
HETATM   41  C21 UNL     1       9.386  -0.173   1.300  1.00  0.00     0.028 A 
BRANCH  39  42
HETATM   42  C24 UNL     1      12.400   0.145  -0.625  1.00  0.00     0.101 A 
HETATM   43  N9  UNL     1      13.520   0.221   0.091  1.00  0.00    -0.358 N 
HETATM   44  C25 UNL     1      14.658   0.371  -0.497  1.00  0.00     0.096 A 
ATOM     45  H9  UNL     1      13.478   0.160   1.108  1.00  0.00     0.166 HD
HETATM   46  C26 UNL     1      14.674   0.447  -1.865  1.00  0.00     0.069 A 
HETATM   47  S3  UNL     1      13.014   0.295  -2.233  1.00  0.00    -0.081 SA
ENDBRANCH  39  42
ENDBRANCH  35  36
ENDBRANCH  32  35
ENDBRANCH   1  31
TORSDOF 16
