REMARK  13 active torsions:
REMARK  status: ('A' for Active; 'I' for Inactive)
REMARK    1  A    between atoms: C2_2  and  C3_3 
REMARK    2  A    between atoms: C3_3  and  C4_4 
REMARK    3  A    between atoms: C4_4  and  C5_5 
REMARK    4  A    between atoms: C5_5  and  C6_6 
REMARK    5  A    between atoms: C6_6  and  C7_7 
REMARK    6  A    between atoms: C7_7  and  N1_8 
REMARK    7  A    between atoms: N1_8  and  C8_9 
REMARK       I    between atoms: N1_8  and  C16_22 
REMARK    8  A    between atoms: C8_9  and  C9_10 
REMARK    9  A    between atoms: C9_10  and  C10_11 
REMARK   10  A    between atoms: C10_11  and  N2_12 
REMARK       I    between atoms: C16_22  and  N4_24 
REMARK   11  A    between atoms: N4_24  and  C17_26 
REMARK   12  A    between atoms: C18_29  and  N6_30 
REMARK   13  A    between atoms: C21_37  and  N8_38 
ROOT
HETATM    1  N1  UNL     1      -1.532  -1.218  -1.250  1.00  0.00    -0.334 N 
HETATM    2  C16 UNL     1      -0.257  -1.846  -1.543  1.00  0.00     0.336 C 
HETATM    3  O2  UNL     1      -0.224  -2.604  -2.544  1.00  0.00    -0.246 OA
HETATM    4  N4  UNL     1       0.879  -1.610  -0.735  1.00  0.00    -0.141 N 
ATOM      5  H4  UNL     1       0.892  -1.940   0.230  1.00  0.00     0.189 HD
ENDROOT
BRANCH   4   6
HETATM    6  C17 UNL     1       1.898  -0.980  -1.210  1.00  0.00     0.688 A 
HETATM    7  N5  UNL     1       1.972  -0.504  -2.475  1.00  0.00    -0.174 N 
HETATM    8  C18 UNL     1       3.045   0.150  -2.952  1.00  0.00     0.144 A 
ATOM      9  H5  UNL     1       1.176  -0.648  -3.096  1.00  0.00     0.186 HD
HETATM   10  C19 UNL     1       4.146   0.362  -2.127  1.00  0.00     0.104 A 
HETATM   11  N7  UNL     1       5.234   0.997  -2.531  1.00  0.00    -0.359 N 
HETATM   12  C27 UNL     1       4.092  -0.113  -0.836  1.00  0.00     0.082 A 
HETATM   13  C20 UNL     1       6.266   1.165  -1.672  1.00  0.00     0.117 A 
ATOM     14  H7  UNL     1       5.295   1.357  -3.483  1.00  0.00     0.165 HD
HETATM   15  C21 UNL     1       6.277   0.718  -0.376  1.00  0.00     0.048 A 
HETATM   16  C26 UNL     1       5.141   0.050   0.061  1.00  0.00     0.063 A 
HETATM   17  N9  UNL     1       2.985  -0.754  -0.440  1.00  0.00    -0.189 N 
ATOM     18  H9  UNL     1       2.960  -1.099   0.519  1.00  0.00     0.184 HD
BRANCH   8  19
HETATM   19  N6  UNL     1       3.078   0.583  -4.152  1.00  0.00    -0.383 N 
ATOM     20  H62 UNL     1       2.271   0.428  -4.757  1.00  0.00     0.157 HD
ATOM     21  H61 UNL     1       3.892   1.079  -4.514  1.00  0.00     0.157 HD
ENDBRANCH   8  19
BRANCH  15  22
HETATM   22  N8  UNL     1       7.378   0.912   0.520  1.00  0.00    -0.376 N 
HETATM   23  C22 UNL     1       7.403   0.243   1.821  1.00  0.00     0.149 C 
HETATM   24  C23 UNL     1       8.883  -0.011   2.129  1.00  0.00     0.187 C 
HETATM   25  O3  UNL     1       9.610  -0.241   0.979  1.00  0.00    -0.388 OA
HETATM   26  C24 UNL     1       9.778   0.907   0.210  1.00  0.00     0.187 C 
HETATM   27  C25 UNL     1       8.503   1.757   0.229  1.00  0.00     0.149 C 
ENDBRANCH  15  22
ENDBRANCH   4   6
BRANCH   1  28
HETATM   28  C7  UNL     1      -1.626  -0.342  -0.139  1.00  0.00     0.127 C 
BRANCH  28  29
HETATM   29  C6  UNL     1      -1.318   1.093  -0.610  1.00  0.00     0.020 C 
BRANCH  29  30
HETATM   30  C5  UNL     1      -1.441   1.972   0.645  1.00  0.00     0.002 C 
BRANCH  30  31
HETATM   31  C4  UNL     1      -1.168   3.402   0.320  1.00  0.00     0.000 C 
BRANCH  31  32
HETATM   32  C3  UNL     1      -1.304   4.266   1.540  1.00  0.00    -0.000 C 
BRANCH  32  33
HETATM   33  C2  UNL     1      -0.327   3.841   2.591  1.00  0.00    -0.005 C 
HETATM   34  C1  UNL     1      -0.459   4.739   3.837  1.00  0.00     0.005 C 
ENDBRANCH  32  33
ENDBRANCH  31  32
ENDBRANCH  30  31
ENDBRANCH  29  30
ENDBRANCH  28  29
ENDBRANCH   1  28
BRANCH   1  35
HETATM   35  C8  UNL     1      -2.612  -1.488  -2.149  1.00  0.00     0.129 C 
BRANCH  35  36
HETATM   36  C9  UNL     1      -3.325  -2.737  -1.799  1.00  0.00     0.050 C 
BRANCH  36  37
HETATM   37  C10 UNL     1      -3.997  -2.734  -0.488  1.00  0.00     0.276 C 
BRANCH  37  38
HETATM   38  N2  UNL     1      -5.051  -1.749  -0.351  1.00  0.00     0.116 N 
HETATM   39  C11 UNL     1      -5.657  -1.817   0.936  1.00  0.00     0.300 C 
HETATM   40  C12 UNL     1      -6.474  -3.038   1.204  1.00  0.00     0.198 C 
HETATM   41  O1  UNL     1      -7.856  -2.783   1.034  1.00  0.00    -0.388 OA
HETATM   42  C13 UNL     1      -8.230  -3.520  -0.112  1.00  0.00     0.195 C 
HETATM   43  C14 UNL     1      -8.165  -2.540  -1.265  1.00  0.00     0.260 C 
HETATM   44  N3  UNL     1      -7.286  -1.425  -0.962  1.00  0.00    -0.047 N 
HETATM   45  C15 UNL     1      -5.933  -1.684  -1.466  1.00  0.00     0.502 C 
ATOM     46  H32 UNL     1      -7.659  -0.543  -1.313  1.00  0.00     0.279 HD
ATOM     47  H31 UNL     1      -7.284  -1.204   0.034  1.00  0.00     0.279 HD
ENDBRANCH  37  38
ENDBRANCH  36  37
ENDBRANCH  35  36
ENDBRANCH   1  35
TORSDOF 13
