REMARK  6 active torsions:
REMARK  status: ('A' for Active; 'I' for Inactive)
REMARK    1  A    between atoms: C3_4  and  C4_5 
REMARK    2  A    between atoms: C4_5  and  N2_6 
REMARK    3  A    between atoms: N3_11  and  C9_12 
REMARK    4  A    between atoms: C9_12  and  C10_13 
REMARK    5  A    between atoms: C14_17  and  N4_18 
REMARK    6  A    between atoms: C21_33  and  N8_34 
ROOT
HETATM    1  N1  UNL     1       3.716  -3.481   1.446  1.00  0.00    -0.191 NA
HETATM    2  C1  UNL     1       4.124  -2.485   1.010  1.00  0.00     0.105 C 
HETATM    3  C2  UNL     1       4.641  -1.237   0.488  1.00  0.00     0.117 A 
HETATM    4  C3  UNL     1       3.716  -0.331  -0.077  1.00  0.00     0.088 A 
HETATM    5  N5  UNL     1       4.143   0.832  -0.574  1.00  0.00    -0.189 N 
ATOM      6  H5  UNL     1       3.496   1.503  -0.989  1.00  0.00     0.184 HD
HETATM    7  C20 UNL     1       5.485   1.085  -0.503  1.00  0.00     0.678 A 
HETATM    8  N6  UNL     1       5.888   2.228  -0.993  1.00  0.00    -0.234 N 
ATOM      9  H61 UNL     1       6.889   2.417  -0.940  1.00  0.00     0.174 HD
ATOM     10  H62 UNL     1       5.220   2.882  -1.401  1.00  0.00     0.174 HD
HETATM   11  N7  UNL     1       6.363   0.226   0.033  1.00  0.00    -0.176 N 
ATOM     12  H7  UNL     1       7.352   0.476   0.054  1.00  0.00     0.186 HD
HETATM   13  C21 UNL     1       5.978  -0.956   0.544  1.00  0.00     0.138 A 
ENDROOT
BRANCH   4  14
HETATM   14  C4  UNL     1       2.294  -0.693  -0.134  1.00  0.00     0.117 C 
BRANCH  14  15
HETATM   15  N2  UNL     1       1.415   0.252  -0.662  1.00  0.00    -0.385 N 
HETATM   16  C5  UNL     1       1.207   1.469   0.051  1.00  0.00     0.123 C 
HETATM   17  C6  UNL     1      -0.117   1.624   0.706  1.00  0.00     0.029 C 
HETATM   18  C7  UNL     1      -0.781   0.286   0.855  1.00  0.00     0.058 C 
HETATM   19  C8  UNL     1      -2.243   0.597   1.223  1.00  0.00     0.279 C 
HETATM   20  C14 UNL     1      -0.967  -0.328  -0.490  1.00  0.00     0.207 C 
HETATM   21  N3  UNL     1      -2.620   1.326   0.027  1.00  0.00     0.091 N 
HETATM   22  C13 UNL     1      -2.075   0.574  -1.061  1.00  0.00     0.316 C 
HETATM   23  C19 UNL     1       0.268  -0.244  -1.358  1.00  0.00     0.166 C 
BRANCH  21  24
HETATM   24  C9  UNL     1      -3.999   1.660  -0.064  1.00  0.00     0.277 C 
BRANCH  24  25
HETATM   25  C10 UNL     1      -4.278   2.699   1.031  1.00  0.00     0.014 A 
HETATM   26  C11 UNL     1      -3.443   3.980   0.883  1.00  0.00     0.007 A 
HETATM   27  C12 UNL     1      -4.910   3.987   0.651  1.00  0.00     0.007 A 
ENDBRANCH  24  25
ENDBRANCH  21  24
BRANCH  20  28
HETATM   28  N4  UNL     1      -1.530  -1.646  -0.421  1.00  0.00     0.106 N 
HETATM   29  C15 UNL     1      -0.729  -2.623   0.279  1.00  0.00     0.299 C 
HETATM   30  C16 UNL     1      -1.620  -3.868   0.416  1.00  0.00     0.198 C 
HETATM   31  O1  UNL     1      -2.842  -3.701  -0.213  1.00  0.00    -0.388 OA
HETATM   32  C17 UNL     1      -2.767  -3.332  -1.536  1.00  0.00     0.198 C 
HETATM   33  C18 UNL     1      -1.774  -2.209  -1.734  1.00  0.00     0.299 C 
ENDBRANCH  20  28
ENDBRANCH  14  15
ENDBRANCH   4  14
BRANCH  13  34
HETATM   34  N8  UNL     1       6.821  -1.803   1.070  1.00  0.00    -0.384 N 
ATOM     35  H82 UNL     1       6.529  -2.700   1.458  1.00  0.00     0.157 HD
ATOM     36  H81 UNL     1       7.818  -1.593   1.112  1.00  0.00     0.157 HD
ENDBRANCH  13  34
TORSDOF 6
