REMARK  6 active torsions:
REMARK  status: ('A' for Active; 'I' for Inactive)
REMARK    1  A    between atoms: C1_2  and  C2_3 
REMARK    2  A    between atoms: C2_3  and  C3_4 
REMARK    3  A    between atoms: C4_6  and  C5_7 
REMARK    4  A    between atoms: C5_7  and  O3_8 
REMARK    5  A    between atoms: C9_14  and  C10_15 
REMARK    6  A    between atoms: C12_22  and  O5_23 
ROOT
HETATM    1  C3  UNL     1      -2.833   1.311  -0.081  1.00  0.00     0.366 C 
HETATM    2  O2  UNL     1      -3.768   0.517  -0.647  1.00  0.00    -0.348 OA
HETATM    3  C4  UNL     1      -3.439  -0.724  -1.052  1.00  0.00     0.163 C 
HETATM    4  C6  UNL     1      -2.191  -1.303  -0.453  1.00  0.00     0.112 C 
HETATM    5  S1  UNL     1      -0.804  -0.682  -1.482  1.00  0.00    -0.147 SA
HETATM    6  C7  UNL     1       0.306   0.086  -0.240  1.00  0.00     0.039 C 
HETATM    7  C8  UNL     1       1.495   0.735  -0.906  1.00  0.00     0.029 C 
HETATM    8  C9  UNL     1       2.584   0.533   0.093  1.00  0.00     0.014 C 
HETATM    9  C13 UNL     1       2.291  -0.858   0.627  1.00  0.00     0.013 C 
HETATM   10  C14 UNL     1       0.808  -1.019   0.620  1.00  0.00     0.006 C 
HETATM   11  C15 UNL     1       0.183  -1.009   1.986  1.00  0.00     0.008 C 
HETATM   12  C16 UNL     1      -1.235  -1.420   1.867  1.00  0.00     0.037 C 
HETATM   13  C17 UNL     1      -2.094  -0.680   0.949  1.00  0.00     0.242 C 
HETATM   14  N3  UNL     1      -1.861   0.699   0.763  1.00  0.00     0.125 N 
HETATM   15  C18 UNL     1      -0.530   1.104   0.477  1.00  0.00     0.297 C 
ENDROOT
BRANCH   8  16
HETATM   16  C10 UNL     1       3.965   0.615  -0.512  1.00  0.00     0.139 C 
HETATM   17  N1  UNL     1       4.196  -0.358  -1.529  1.00  0.00    -0.334 N 
HETATM   18  C11 UNL     1       5.568  -0.725  -1.469  1.00  0.00     0.318 C 
ATOM     19  H1  UNL     1       3.502  -0.724  -2.181  1.00  0.00     0.164 HD
HETATM   20  O4  UNL     1       6.228  -1.388  -2.328  1.00  0.00    -0.247 OA
HETATM   21  N2  UNL     1       6.126  -0.226  -0.261  1.00  0.00    -0.315 N 
HETATM   22  C12 UNL     1       5.043   0.340   0.499  1.00  0.00     0.244 C 
ATOM     23  H2  UNL     1       7.107  -0.262   0.015  1.00  0.00     0.166 HD
BRANCH  22  24
HETATM   24  O5  UNL     1       5.419   1.477   1.213  1.00  0.00    -0.375 OA
ATOM     25  H5  UNL     1       6.100   1.303   1.852  1.00  0.00     0.212 HD
ENDBRANCH  22  24
ENDBRANCH   8  16
BRANCH   3  26
HETATM   26  C5  UNL     1      -4.589  -1.662  -0.693  1.00  0.00     0.197 C 
BRANCH  26  27
HETATM   27  O3  UNL     1      -4.290  -2.973  -1.098  1.00  0.00    -0.398 OA
ATOM     28  H3  UNL     1      -5.006  -3.557  -0.875  1.00  0.00     0.209 HD
ENDBRANCH  26  27
ENDBRANCH   3  26
BRANCH   1  29
HETATM   29  C2  UNL     1      -3.545   2.383   0.720  1.00  0.00     0.133 C 
BRANCH  29  30
HETATM   30  C1  UNL     1      -4.430   3.212  -0.144  1.00  0.00     0.235 C 
HETATM   31  O1  UNL     1      -4.477   2.944  -1.338  1.00  0.00    -0.307 OA
ENDBRANCH  29  30
ENDBRANCH   1  29
TORSDOF 6
