REMARK  8 active torsions:
REMARK  status: ('A' for Active; 'I' for Inactive)
REMARK    1  A    between atoms: N1_2  and  C2_4 
REMARK    2  A    between atoms: N1_2  and  C3_6 
REMARK    3  A    between atoms: C3_6  and  C4_7 
REMARK    4  A    between atoms: C4_7  and  N2_8 
REMARK    5  A    between atoms: N2_8  and  C5_10 
REMARK    6  A    between atoms: C5_10  and  N3_12 
REMARK    7  A    between atoms: N3_12  and  C6_14 
REMARK    8  A    between atoms: C9_22  and  N6_23 
ROOT
HETATM    1  N3  UNL     1       1.772  -1.667   0.271  1.00  0.00    -0.316 N 
ATOM      2  H3  UNL     1       1.688  -2.374  -0.460  1.00  0.00     0.170 HD
ENDROOT
BRANCH   1   3
HETATM    3  C5  UNL     1       0.989  -1.771   1.439  1.00  0.00     0.173 C 
HETATM    4  S1  UNL     1       1.687  -2.400   2.770  1.00  0.00    -0.041 SA
BRANCH   3   5
HETATM    5  N2  UNL     1      -0.361  -1.349   1.480  1.00  0.00    -0.365 N 
ATOM      6  H2  UNL     1      -0.884  -1.446   2.351  1.00  0.00     0.161 HD
BRANCH   5   7
HETATM    7  C4  UNL     1      -1.022  -0.784   0.322  1.00  0.00     0.158 C 
BRANCH   7   8
HETATM    8  C3  UNL     1      -2.451  -0.420   0.636  1.00  0.00     0.332 C 
BRANCH   8   9
HETATM    9  N1  UNL     1      -3.152   0.142  -0.470  1.00  0.00     0.020 N 
HETATM   10  C1  UNL     1      -2.316   0.780  -1.442  1.00  0.00     0.357 C 
HETATM   11  O1  UNL     1      -3.819  -0.865  -1.122  1.00  0.00    -0.064 OA
BRANCH   9  12
HETATM   12  C2  UNL     1      -4.182   1.096  -0.077  1.00  0.00     0.395 C 
HETATM   13 BR1  UNL     1      -3.448   2.654   0.765  1.00  0.00    -0.058 Br
ENDBRANCH   9  12
ENDBRANCH   8   9
ENDBRANCH   7   8
ENDBRANCH   5   7
ENDBRANCH   3   5
ENDBRANCH   1   3
BRANCH   1  14
HETATM   14  C6  UNL     1       2.588  -0.691   0.121  1.00  0.00     0.152 A 
HETATM   15  N4  UNL     1       2.689   0.235   1.090  1.00  0.00    -0.346 N 
HETATM   16  C7  UNL     1       3.532   1.291   0.993  1.00  0.00     0.127 A 
ATOM     17  H4  UNL     1       2.112   0.139   1.926  1.00  0.00     0.167 HD
HETATM   18  C8  UNL     1       4.315   1.435  -0.124  1.00  0.00     0.096 A 
HETATM   19 BR2  UNL     1       5.522   2.925  -0.291  1.00  0.00    -0.030 Br
HETATM   20  N5  UNL     1       4.215   0.511  -1.093  1.00  0.00    -0.333 N 
HETATM   21  C9  UNL     1       3.380  -0.539  -1.002  1.00  0.00     0.145 A 
ATOM     22  H5  UNL     1       4.793   0.609  -1.928  1.00  0.00     0.168 HD
BRANCH  21  23
HETATM   23  N6  UNL     1       3.289  -1.420  -1.932  1.00  0.00    -0.382 N 
ATOM     24  H62 UNL     1       2.656  -2.217  -1.863  1.00  0.00     0.157 HD
ATOM     25  H61 UNL     1       3.873  -1.308  -2.761  1.00  0.00     0.157 HD
ENDBRANCH  21  23
ENDBRANCH   1  14
TORSDOF 8
