REMARK  6 active torsions:
REMARK  status: ('A' for Active; 'I' for Inactive)
REMARK    1  A    between atoms: O1_1  and  C1_3 
REMARK    2  A    between atoms: C2_8  and  C3_9 
REMARK    3  A    between atoms: N3_10  and  C4_12 
REMARK    4  A    between atoms: C4_12  and  C5_13 
REMARK    5  A    between atoms: C7_17  and  C8_18 
REMARK    6  A    between atoms: C8_18  and  C9_19 
ROOT
HETATM    1  C5  UNL     1      -1.168  -0.312  -0.943  1.00  0.00     0.123 A 
HETATM    2  N4  UNL     1      -0.618   0.067   0.223  1.00  0.00    -0.328 N 
ATOM      3  H4  UNL     1      -1.006   0.362   1.119  1.00  0.00     0.169 HD
HETATM    4  C6  UNL     1       0.635  -0.089  -0.234  1.00  0.00     0.104 A 
HETATM    5  C7  UNL     1       1.877   0.045   0.195  1.00  0.00     0.028 C 
HETATM    6  N6  UNL     1       0.091  -0.474  -1.420  1.00  0.00    -0.328 N 
ATOM      7  H6  UNL     1       0.478  -0.769  -2.316  1.00  0.00     0.169 HD
ENDROOT
BRANCH   1   8
HETATM    8  C4  UNL     1      -2.364  -0.475  -1.463  1.00  0.00     0.136 C 
BRANCH   8   9
HETATM    9  N3  UNL     1      -3.498  -0.205  -0.653  1.00  0.00    -0.369 N 
HETATM   10  C3  UNL     1      -4.530  -1.003  -0.697  1.00  0.00     0.123 C 
ATOM     11  H3  UNL     1      -3.506   0.609  -0.039  1.00  0.00     0.164 HD
BRANCH  10  12
HETATM   12  C2  UNL     1      -5.689  -0.718   0.137  1.00  0.00     0.115 A 
HETATM   13  C1  UNL     1      -6.052   0.244   1.050  1.00  0.00     0.185 A 
HETATM   14  N1  UNL     1      -7.230  -0.378   1.216  1.00  0.00    -0.278 N 
HETATM   15  N2  UNL     1      -6.878  -1.320   0.324  1.00  0.00    -0.293 N 
ATOM     16  H1  UNL     1      -8.057  -0.206   1.787  1.00  0.00     0.189 HD
ATOM     17  H2  UNL     1      -7.329  -2.152  -0.056  1.00  0.00     0.187 HD
BRANCH  13  18
HETATM   18  O1  UNL     1      -5.460   1.361   1.568  1.00  0.00    -0.343 OA
ATOM     19  H1  UNL     1      -4.626   1.801   1.451  1.00  0.00     0.219 HD
ENDBRANCH  13  18
ENDBRANCH  10  12
ENDBRANCH   8   9
ENDBRANCH   1   8
BRANCH   5  20
HETATM   20  C8  UNL     1       3.046  -0.243  -0.669  1.00  0.00     0.088 C 
BRANCH  20  21
HETATM   21  C9  UNL     1       4.283   0.286  -0.062  1.00  0.00     0.015 A 
HETATM   22  C10 UNL     1       4.825   1.544  -0.249  1.00  0.00     0.047 A 
HETATM   23  C11 UNL     1       5.971   1.605   0.503  1.00  0.00     0.046 A 
HETATM   24 BR1  UNL     1       7.179   3.069   0.678  1.00  0.00    -0.048 Br
HETATM   25  C12 UNL     1       6.108   0.391   1.131  1.00  0.00     0.097 A 
HETATM   26 BR2  UNL     1       7.484  -0.178   2.317  1.00  0.00    -0.030 Br
HETATM   27  N5  UNL     1       5.069  -0.417   0.782  1.00  0.00    -0.352 N 
ATOM     28  H5  UNL     1       4.913  -1.374   1.099  1.00  0.00     0.166 HD
ENDBRANCH  20  21
ENDBRANCH   5  20
TORSDOF 6
