REMARK  6 active torsions:
REMARK  status: ('A' for Active; 'I' for Inactive)
REMARK    1  A    between atoms: N3_11  and  N4_12 
REMARK    2  A    between atoms: N4_12  and  C9_13 
REMARK    3  A    between atoms: C9_13  and  C10_14 
REMARK    4  A    between atoms: C9_13  and  C16_20 
REMARK    5  A    between atoms: C19_23  and  N5_24 
REMARK    6  A    between atoms: C21_28  and  N6_29 
ROOT
HETATM    1  N1  UNL     1      -5.844  -1.664  -1.528  1.00  0.00    -0.195 NA
HETATM    2  C1  UNL     1      -4.798  -1.591  -1.038  1.00  0.00     0.087 C 
HETATM    3  C2  UNL     1      -3.454  -1.519  -0.422  1.00  0.00     0.165 C 
HETATM    4  C3  UNL     1      -2.839  -2.807  -0.554  1.00  0.00     0.087 C 
HETATM    5  N2  UNL     1      -2.355  -3.839  -0.662  1.00  0.00    -0.195 NA
HETATM    6  C4  UNL     1      -3.607  -1.054   1.015  1.00  0.00     0.074 C 
HETATM    7  C5  UNL     1      -3.019   0.318   0.967  1.00  0.00     0.141 C 
HETATM    8  C6  UNL     1      -3.838   1.169   0.090  1.00  0.00    -0.001 C 
HETATM    9  C7  UNL     1      -3.658   0.746  -1.174  1.00  0.00     0.002 C 
HETATM   10  C8  UNL     1      -2.714  -0.387  -1.092  1.00  0.00     0.175 C 
HETATM   11  N3  UNL     1      -1.875   0.070   0.048  1.00  0.00    -0.244 N 
ENDROOT
BRANCH  11  12
HETATM   12  N4  UNL     1      -0.614   0.165   0.095  1.00  0.00    -0.325 NA
BRANCH  12  13
HETATM   13  C9  UNL     1       0.578   0.452   0.126  1.00  0.00     0.154 C 
BRANCH  13  14
HETATM   14  C10 UNL     1       0.965   1.851   0.049  1.00  0.00     0.008 A 
HETATM   15  C11 UNL     1       2.153   2.296  -0.482  1.00  0.00     0.015 A 
HETATM   16  C12 UNL     1       2.454   3.636  -0.471  1.00  0.00     0.001 A 
HETATM   17  C13 UNL     1       1.587   4.595   0.067  1.00  0.00     0.000 A 
HETATM   18  C14 UNL     1       0.404   4.152   0.594  1.00  0.00     0.001 A 
HETATM   19  C15 UNL     1       0.099   2.825   0.587  1.00  0.00     0.015 A 
ENDBRANCH  13  14
BRANCH  13  20
HETATM   20  C16 UNL     1       1.526  -0.657   0.130  1.00  0.00     0.041 A 
HETATM   21  C17 UNL     1       1.106  -1.768  -0.670  1.00  0.00     0.020 A 
HETATM   22  C18 UNL     1       1.958  -2.776  -0.987  1.00  0.00     0.037 A 
HETATM   23  C19 UNL     1       3.278  -2.794  -0.560  1.00  0.00     0.105 A 
HETATM   24  C20 UNL     1       3.658  -1.731   0.205  1.00  0.00     0.073 A 
HETATM   25  C21 UNL     1       2.798  -0.685   0.548  1.00  0.00     0.118 A 
BRANCH  23  26
HETATM   26  N5  UNL     1       4.147  -3.859  -0.911  1.00  0.00    -0.116 N 
HETATM   27  O1  UNL     1       3.785  -4.826  -1.605  1.00  0.00    -0.532 OA
HETATM   28  O2  UNL     1       5.448  -3.843  -0.477  1.00  0.00    -0.532 OA
ENDBRANCH  23  26
BRANCH  25  29
HETATM   29  N6  UNL     1       3.279   0.253   1.540  1.00  0.00    -0.115 N 
HETATM   30  O3  UNL     1       2.555   0.720   2.422  1.00  0.00    -0.532 OA
HETATM   31  O4  UNL     1       4.605   0.547   1.529  1.00  0.00    -0.532 OA
ENDBRANCH  25  29
ENDBRANCH  13  20
ENDBRANCH  12  13
ENDBRANCH  11  12
TORSDOF 6
