REMARK  8 active torsions:
REMARK  status: ('A' for Active; 'I' for Inactive)
REMARK    1  A    between atoms: C3_3  and  C5_5 
REMARK    2  A    between atoms: C5_5  and  O2_7 
REMARK    3  A    between atoms: O2_7  and  C6_8 
REMARK    4  A    between atoms: C6_8  and  O3_9 
REMARK    5  A    between atoms: C6_8  and  N1_15 
REMARK    6  A    between atoms: O3_9  and  C7_10 
REMARK    7  A    between atoms: C7_10  and  O5_12 
REMARK    8  A    between atoms: O5_12  and  C8_13 
ROOT
HETATM    1  N1  UNL     1      -0.287   0.114   1.327  1.00  0.00    -0.355 N 
HETATM    2  C10 UNL     1      -0.649  -0.657   2.460  1.00  0.00     0.148 C 
HETATM    3  C11 UNL     1       0.290  -1.848   2.528  1.00  0.00     0.187 C 
HETATM    4  O6  UNL     1       0.714  -2.290   1.308  1.00  0.00    -0.382 OA
HETATM    5  C12 UNL     1       1.450  -1.348   0.585  1.00  0.00     0.146 C 
HETATM    6  C13 UNL     1       2.876  -1.720   0.672  1.00  0.00     0.050 C 
HETATM    7  C14 UNL     1       3.842  -0.605   0.924  1.00  0.00     0.017 C 
HETATM    8  C15 UNL     1       4.195   0.067  -0.393  1.00  0.00     0.023 C 
HETATM    9  C16 UNL     1       5.129  -1.222   1.444  1.00  0.00     0.023 C 
HETATM   10  C17 UNL     1       3.340   0.324   1.926  1.00  0.00     0.154 C 
HETATM   11  O7  UNL     1       4.080   0.765   2.782  1.00  0.00    -0.296 OA
HETATM   12  C18 UNL     1       1.942   0.742   1.920  1.00  0.00     0.188 C 
HETATM   13  C19 UNL     1       1.923   2.206   1.668  1.00  0.00     0.073 C 
HETATM   14  N2  UNL     1       1.919   3.346   1.468  1.00  0.00    -0.196 NA
HETATM   15  C20 UNL     1       1.076   0.052   0.921  1.00  0.00     0.137 C 
ENDROOT
BRANCH   1  16
HETATM   16  C6  UNL     1      -1.281   0.485   0.439  1.00  0.00     0.389 C 
BRANCH  16  17
HETATM   17  O2  UNL     1      -1.934  -0.652  -0.107  1.00  0.00    -0.267 OA
BRANCH  17  18
HETATM   18  C5  UNL     1      -3.272  -0.902   0.041  1.00  0.00     0.292 C 
HETATM   19  O1  UNL     1      -3.905  -0.013   0.727  1.00  0.00    -0.259 OA
BRANCH  18  20
HETATM   20  C3  UNL     1      -4.000  -2.035  -0.488  1.00  0.00     0.009 C 
HETATM   21  C2  UNL     1      -3.405  -2.964  -1.192  1.00  0.00    -0.018 C 
HETATM   22  C1  UNL     1      -1.975  -2.912  -1.486  1.00  0.00     0.036 C 
HETATM   23  C4  UNL     1      -5.472  -2.182  -0.241  1.00  0.00     0.054 C 
ENDBRANCH  18  20
ENDBRANCH  17  18
ENDBRANCH  16  17
BRANCH  16  24
HETATM   24  O3  UNL     1      -0.868   1.244  -0.682  1.00  0.00    -0.247 OA
BRANCH  24  25
HETATM   25  C7  UNL     1      -1.415   2.476  -0.957  1.00  0.00     0.410 C 
HETATM   26  O4  UNL     1      -2.311   2.902  -0.155  1.00  0.00    -0.229 OA
BRANCH  25  27
HETATM   27  O5  UNL     1      -1.061   3.273  -2.033  1.00  0.00    -0.298 OA
BRANCH  27  28
HETATM   28  C8  UNL     1      -1.692   4.548  -2.236  1.00  0.00     0.176 C 
HETATM   29  C9  UNL     1      -1.166   5.238  -3.446  1.00  0.00     0.034 C 
ENDBRANCH  27  28
ENDBRANCH  25  27
ENDBRANCH  24  25
ENDBRANCH  16  24
ENDBRANCH   1  16
TORSDOF 8
