REMARK  0 active torsions:
REMARK  status: ('A' for Active; 'I' for Inactive)
ROOT
HETATM    1  O1  UNL     1       1.854   1.462  -0.909  1.00  0.00    -0.258 OA
HETATM    2  S1  UNL     1       1.101   1.084   0.567  1.00  0.00     0.014 S 
HETATM    3  C1  UNL     1       1.059  -0.707   0.659  1.00  0.00     0.108 C 
HETATM    4  C2  UNL     1      -0.148  -1.098  -0.099  1.00  0.00     0.013 C 
HETATM    5  C3  UNL     1      -0.867   0.059  -0.631  1.00  0.00     0.013 C 
HETATM    6  C4  UNL     1      -0.661   1.259   0.226  1.00  0.00     0.108 C 
ENDROOT
TORSDOF 0
