REMARK  16 active torsions:
REMARK  status: ('A' for Active; 'I' for Inactive)
REMARK    1  A    between atoms: N3_4  and  C2_6 
REMARK    2  A    between atoms: C2_6  and  C3_7 
REMARK    3  A    between atoms: C3_7  and  C4_8 
REMARK    4  A    between atoms: C4_8  and  C5_9 
REMARK    5  A    between atoms: C5_9  and  C6_10 
REMARK    6  A    between atoms: C5_9  and  N5_25 
REMARK    7  A    between atoms: C6_10  and  C7_11 
REMARK    8  A    between atoms: C7_11  and  C8_12 
REMARK    9  A    between atoms: C8_12  and  O2_14 
REMARK   10  A    between atoms: O2_14  and  C9_15 
REMARK   11  A    between atoms: C9_15  and  C10_16 
REMARK   12  A    between atoms: C10_16  and  C11_17 
REMARK   13  A    between atoms: C11_17  and  C12_18 
REMARK   14  A    between atoms: C12_18  and  N4_19 
REMARK       I    between atoms: N5_25  and  C17_27 
REMARK   15  A    between atoms: C17_27  and  C18_29 
REMARK   16  A    between atoms: C26_38  and  O6_39 
ROOT
HETATM    1  C5  UNL     1      -0.151  -0.430  -0.205  1.00  0.00     0.085 C 
ENDROOT
BRANCH   1   2
HETATM    2  C4  UNL     1       0.225   0.980  -0.324  1.00  0.00     0.027 C 
BRANCH   2   3
HETATM    3  C3  UNL     1      -0.606   1.896   0.593  1.00  0.00     0.022 C 
BRANCH   3   4
HETATM    4  C2  UNL     1      -0.403   1.611   2.039  1.00  0.00     0.122 C 
BRANCH   4   5
HETATM    5  N3  UNL     1      -1.162   2.395   2.941  1.00  0.00    -0.367 N 
HETATM    6  C1  UNL     1      -1.063   3.647   3.057  1.00  0.00     0.196 C 
HETATM    7  N1  UNL     1      -0.208   4.507   2.343  1.00  0.00    -0.067 NA
HETATM    8  N2  UNL     1      -1.921   4.265   4.029  1.00  0.00    -0.067 NA
ATOM      9  H3  UNL     1      -1.835   1.914   3.538  1.00  0.00     0.161 HD
ENDBRANCH   4   5
ENDBRANCH   3   4
ENDBRANCH   2   3
ENDBRANCH   1   2
BRANCH   1  10
HETATM   10  C6  UNL     1       0.586  -1.369  -1.074  1.00  0.00     0.035 C 
BRANCH  10  11
HETATM   11  C7  UNL     1       2.045  -1.458  -0.924  1.00  0.00     0.113 C 
BRANCH  11  12
HETATM   12  C8  UNL     1       2.916  -0.370  -1.330  1.00  0.00     0.258 C 
HETATM   13  O1  UNL     1       2.578   0.456  -2.227  1.00  0.00    -0.265 OA
BRANCH  12  14
HETATM   14  O2  UNL     1       4.156  -0.236  -0.711  1.00  0.00    -0.321 OA
BRANCH  14  15
HETATM   15  C9  UNL     1       5.022   0.815  -1.084  1.00  0.00     0.178 C 
BRANCH  15  16
HETATM   16  C10 UNL     1       6.322   0.760  -0.290  1.00  0.00     0.028 C 
BRANCH  16  17
HETATM   17  C11 UNL     1       6.998  -0.581  -0.582  1.00  0.00     0.032 C 
BRANCH  17  18
HETATM   18  C12 UNL     1       8.282  -0.655   0.172  1.00  0.00     0.272 C 
BRANCH  18  19
HETATM   19  N4  UNL     1       9.226   0.372  -0.148  1.00  0.00     0.092 N 
HETATM   20  C13 UNL     1       9.768   0.303  -1.469  1.00  0.00     0.298 C 
HETATM   21  C14 UNL     1      10.765  -0.823  -1.604  1.00  0.00     0.198 C 
HETATM   22  O3  UNL     1      11.902  -0.493  -0.868  1.00  0.00    -0.388 OA
HETATM   23  C15 UNL     1      11.678   0.450   0.114  1.00  0.00     0.198 C 
HETATM   24  C16 UNL     1      10.339   0.307   0.786  1.00  0.00     0.298 C 
ENDBRANCH  18  19
ENDBRANCH  17  18
ENDBRANCH  16  17
ENDBRANCH  15  16
ENDBRANCH  14  15
ENDBRANCH  12  14
ENDBRANCH  11  12
ENDBRANCH  10  11
ENDBRANCH   1  10
BRANCH   1  25
HETATM   25  N5  UNL     1      -1.609  -0.615  -0.364  1.00  0.00    -0.350 N 
HETATM   26  C17 UNL     1      -2.408  -1.361   0.517  1.00  0.00     0.279 C 
HETATM   27  O4  UNL     1      -1.830  -1.921   1.502  1.00  0.00    -0.265 OA
ATOM     28  H5  UNL     1      -2.063  -0.173  -1.164  1.00  0.00     0.163 HD
BRANCH  26  29
HETATM   29  C18 UNL     1      -3.879  -1.563   0.407  1.00  0.00     0.184 C 
HETATM   30  O5  UNL     1      -4.390  -0.871  -0.587  1.00  0.00    -0.343 OA
HETATM   31  C19 UNL     1      -4.814   0.390  -0.590  1.00  0.00     0.179 C 
HETATM   32  C20 UNL     1      -6.055   0.709  -1.425  1.00  0.00     0.053 C 
HETATM   33  C21 UNL     1      -6.533  -0.379  -2.293  1.00  0.00    -0.029 C 
HETATM   34  C22 UNL     1      -7.841  -0.995  -2.194  1.00  0.00    -0.031 C 
HETATM   35  C23 UNL     1      -8.949  -0.483  -1.347  1.00  0.00     0.027 C 
HETATM   36  C24 UNL     1      -9.770  -1.524  -0.626  1.00  0.00     0.012 C 
HETATM   37  C25 UNL     1      -9.382  -1.851   0.781  1.00  0.00     0.084 C 
HETATM   38  C26 UNL     1      -8.016  -1.388   1.147  1.00  0.00     0.111 C 
HETATM   39  N6  UNL     1      -6.781  -1.939   1.200  1.00  0.00    -0.367 N 
HETATM   40  C27 UNL     1      -5.746  -2.365   2.104  1.00  0.00     0.207 C 
ATOM     41  H6  UNL     1      -6.468  -2.119   0.246  1.00  0.00     0.161 HD
HETATM   42  C28 UNL     1      -4.448  -1.683   1.740  1.00  0.00     0.205 C 
HETATM   43  O7  UNL     1      -3.835  -1.197   2.654  1.00  0.00    -0.288 OA
BRANCH  38  44
HETATM   44  O6  UNL     1      -8.146  -0.131   1.478  1.00  0.00    -0.350 OA
ATOM     45  H6  UNL     1      -7.274   0.165   1.712  1.00  0.00     0.219 HD
ENDBRANCH  38  44
ENDBRANCH  26  29
ENDBRANCH   1  25
TORSDOF 16
