REMARK  5 active torsions:
REMARK  status: ('A' for Active; 'I' for Inactive)
REMARK    1  A    between atoms: C2_2  and  C4_4 
REMARK    2  A    between atoms: C5_7  and  C6_8 
REMARK       I    between atoms: C6_8  and  N1_10 
REMARK    3  A    between atoms: N1_10  and  C7_12 
REMARK    4  A    between atoms: C7_12  and  N2_13 
REMARK    5  A    between atoms: C7_12  and  O2_17 
ROOT
HETATM    1  C6  UNL     1       0.659  -1.634   0.510  1.00  0.00     0.263 C 
HETATM    2  O1  UNL     1       1.170  -2.782   0.699  1.00  0.00    -0.267 OA
HETATM    3  N1  UNL     1       1.217  -0.859  -0.508  1.00  0.00    -0.308 N 
ATOM      4  H1  UNL     1       0.843   0.072  -0.695  1.00  0.00     0.167 HD
ENDROOT
BRANCH   1   5
HETATM    5  C5  UNL     1      -0.448  -1.185   1.334  1.00  0.00     0.093 A 
HETATM    6  C4  UNL     1      -1.242  -0.055   1.418  1.00  0.00     0.016 A 
HETATM    7  S1  UNL     1      -2.289  -0.457   2.731  1.00  0.00    -0.055 SA
HETATM    8  S2  UNL     1      -1.163  -2.090   2.629  1.00  0.00    -0.046 SA
BRANCH   6   9
HETATM    9  C2  UNL     1      -1.309   1.211   0.639  1.00  0.00     0.019 C 
HETATM   10  C1  UNL     1      -2.179   2.229   1.386  1.00  0.00     0.015 C 
HETATM   11  C3  UNL     1      -2.046   0.964  -0.695  1.00  0.00     0.015 C 
ENDBRANCH   6   9
ENDBRANCH   1   5
BRANCH   3  12
HETATM   12  C7  UNL     1       2.323  -1.361  -1.305  1.00  0.00     0.426 C 
BRANCH  12  13
HETATM   13  N2  UNL     1       3.517  -0.588  -1.014  1.00  0.00    -0.035 N 
ATOM     14  H23 UNL     1       3.370   0.413  -1.145  1.00  0.00     0.279 HD
ATOM     15  H22 UNL     1       3.734  -0.574  -0.018  1.00  0.00     0.279 HD
ATOM     16  H21 UNL     1       4.294  -0.940  -1.574  1.00  0.00     0.279 HD
ENDBRANCH  12  13
BRANCH  12  17
HETATM   17  O2  UNL     1       2.054  -1.405  -2.656  1.00  0.00    -0.355 OA
ATOM     18  H2  UNL     1       2.777  -1.733  -3.177  1.00  0.00     0.213 HD
ENDBRANCH  12  17
ENDBRANCH   3  12
TORSDOF 5
