REMARK  1 active torsions:
REMARK  status: ('A' for Active; 'I' for Inactive)
REMARK    1  A    between atoms: C3_3  and  N1_4 
ROOT
HETATM    1  N1  UNL     1      -0.971   0.322  -0.652  1.00  0.00     0.098 N 
HETATM    2  C4  UNL     1      -0.331  -0.505  -1.599  1.00  0.00     0.278 C 
HETATM    3  C5  UNL     1       1.085  -0.932  -1.193  1.00  0.00     0.019 C 
HETATM    4  C6  UNL     1       2.100   0.118  -1.434  1.00  0.00     0.011 C 
HETATM    5  C7  UNL     1       2.174   1.214  -0.447  1.00  0.00    -0.012 C 
HETATM    6  C8  UNL     1       2.792   0.831   0.869  1.00  0.00     0.010 C 
HETATM    7  C9  UNL     1       1.943  -0.166   1.568  1.00  0.00    -0.007 C 
HETATM    8  C10 UNL     1       2.270  -1.535   0.955  1.00  0.00     0.010 C 
HETATM    9  C11 UNL     1       0.991  -1.443   0.206  1.00  0.00    -0.002 C 
HETATM   10  C12 UNL     1       0.560  -0.316   1.105  1.00  0.00     0.027 C 
HETATM   11  C13 UNL     1      -0.068   0.818   0.400  1.00  0.00     0.228 C 
HETATM   12  C14 UNL     1       0.852   1.858  -0.127  1.00  0.00     0.041 C 
ENDROOT
BRANCH   1  13
HETATM   13  C3  UNL     1      -2.122  -0.216  -0.009  1.00  0.00     0.223 C 
HETATM   14  C2  UNL     1      -3.321  -0.561  -0.809  1.00  0.00     0.036 C 
HETATM   15  C1  UNL     1      -4.152  -0.160   0.426  1.00  0.00     0.004 C 
HETATM   16  C15 UNL     1      -3.000   0.825   0.694  1.00  0.00     0.036 C 
ENDBRANCH   1  13
TORSDOF 1
