REMARK  2 active torsions:
REMARK  status: ('A' for Active; 'I' for Inactive)
REMARK    1  A    between atoms: C1_2  and  N1_3 
REMARK    2  A    between atoms: N1_3  and  C2_5 
ROOT
HETATM    1  C2  UNL     1       0.217   0.473  -0.101  1.00  0.00     0.703 A 
HETATM    2  N2  UNL     1      -0.919   1.089  -0.463  1.00  0.00    -0.128 N 
ATOM      3  H2  UNL     1      -0.994   2.059  -0.770  1.00  0.00     0.205 HD
HETATM    4  N3  UNL     1      -1.921   0.243  -0.359  1.00  0.00    -0.237 N 
ATOM      5  H3  UNL     1      -2.895   0.456  -0.573  1.00  0.00     0.192 HD
HETATM    6  C3  UNL     1      -1.467  -0.939   0.070  1.00  0.00     0.353 A 
HETATM    7  O2  UNL     1      -2.150  -1.960   0.276  1.00  0.00    -0.245 OA
HETATM    8  N4  UNL     1      -0.147  -0.791   0.228  1.00  0.00    -0.139 N 
ATOM      9  H4  UNL     1       0.490  -1.520   0.548  1.00  0.00     0.189 HD
ENDROOT
BRANCH   1  10
HETATM   10  N1  UNL     1       1.419   1.001  -0.077  1.00  0.00    -0.166 N 
ATOM     11  H1  UNL     1       1.589   1.970  -0.346  1.00  0.00     0.186 HD
BRANCH  10  12
HETATM   12  C1  UNL     1       2.456   0.151   0.342  1.00  0.00     0.368 C 
HETATM   13  O1  UNL     1       3.474   0.031  -0.359  1.00  0.00    -0.283 OA
ENDBRANCH  10  12
ENDBRANCH   1  10
TORSDOF 2
