REMARK  2 active torsions:
REMARK  status: ('A' for Active; 'I' for Inactive)
REMARK    1  A    between atoms: C1_2  and  C2_4 
REMARK       I    between atoms: C2_4  and  N2_6 
REMARK    2  A    between atoms: N2_6  and  N3_8 
ROOT
HETATM    1  C2  UNL     1       1.181  -0.319   0.136  1.00  0.00     0.325 C 
HETATM    2  O2  UNL     1       0.892  -1.538   0.078  1.00  0.00    -0.261 OA
HETATM    3  N2  UNL     1       0.290   0.623   0.694  1.00  0.00    -0.260 N 
ATOM      4  H2  UNL     1       0.562   1.606   0.724  1.00  0.00     0.190 HD
ENDROOT
BRANCH   3   5
HETATM    5  N3  UNL     1      -0.965   0.244   1.211  1.00  0.00    -0.273 N 
HETATM    6  C3  UNL     1      -1.939   0.185   0.368  1.00  0.00     0.215 C 
HETATM    7  N4  UNL     1      -1.794   0.479  -1.019  1.00  0.00    -0.065 NA
HETATM    8  N5  UNL     1      -3.258  -0.189   0.782  1.00  0.00    -0.065 NA
ATOM      9  H3  UNL     1      -1.096   0.028   2.199  1.00  0.00     0.189 HD
ENDBRANCH   3   5
BRANCH   1  10
HETATM   10  C1  UNL     1       2.453   0.126  -0.378  1.00  0.00     0.324 C 
HETATM   11  N1  UNL     1       3.358  -0.805  -0.940  1.00  0.00    -0.053 NA
HETATM   12  O1  UNL     1       2.751   1.346  -0.324  1.00  0.00    -0.266 OA
ENDBRANCH   1  10
TORSDOF 2
