REMARK  1 active torsions:
REMARK  status: ('A' for Active; 'I' for Inactive)
REMARK    1  A    between atoms: N1_1  and  C1_4 
ROOT
HETATM    1  C1  UNL     1      -2.027  -0.266  -0.521  1.00  0.00     0.680 A 
HETATM    2  N2  UNL     1      -1.828   1.066  -0.441  1.00  0.00    -0.154 N 
ATOM      3  H2  UNL     1      -2.620   1.695  -0.571  1.00  0.00     0.187 HD
HETATM    4  C2  UNL     1      -0.610   1.588  -0.194  1.00  0.00     0.290 A 
HETATM    5  O1  UNL     1      -0.452   2.834  -0.125  1.00  0.00    -0.265 OA
HETATM    6  C3  UNL     1       0.465   0.759  -0.017  1.00  0.00     0.151 A 
HETATM    7  N3  UNL     1       1.711   1.237   0.233  1.00  0.00    -0.300 N 
ATOM      8  H3  UNL     1       1.874   2.242   0.295  1.00  0.00     0.171 HD
HETATM    9  C4  UNL     1       2.714   0.386   0.396  1.00  0.00     0.339 A 
HETATM   10  O2  UNL     1       3.863   0.822   0.627  1.00  0.00    -0.245 OA
HETATM   11  N4  UNL     1       2.514  -0.939   0.316  1.00  0.00    -0.250 N 
ATOM     12  H4  UNL     1       3.309  -1.565   0.446  1.00  0.00     0.192 HD
HETATM   13  N5  UNL     1       1.318  -1.464   0.073  1.00  0.00    -0.279 N 
ATOM     14  H5  UNL     1       1.183  -2.473   0.016  1.00  0.00     0.189 HD
HETATM   15  C5  UNL     1       0.287  -0.607  -0.095  1.00  0.00     0.168 A 
HETATM   16  N6  UNL     1      -0.967  -1.065  -0.346  1.00  0.00    -0.173 N 
ATOM     17  H6  UNL     1      -1.109  -2.073  -0.404  1.00  0.00     0.186 HD
ENDROOT
BRANCH   1  18
HETATM   18  N1  UNL     1      -3.216  -0.705  -0.760  1.00  0.00    -0.234 N 
ATOM     19  H12 UNL     1      -4.024  -0.096  -0.893  1.00  0.00     0.174 HD
ATOM     20  H11 UNL     1      -3.366  -1.712  -0.820  1.00  0.00     0.174 HD
ENDBRANCH   1  18
TORSDOF 1
