REMARK  11 active torsions:
REMARK  status: ('A' for Active; 'I' for Inactive)
REMARK    1  A    between atoms: C4_12  and  N5_13 
REMARK       I    between atoms: N5_13  and  C5_15 
REMARK    2  A    between atoms: C5_15  and  C6_17 
REMARK    3  A    between atoms: C6_17  and  O2_18 
REMARK    4  A    between atoms: C6_17  and  C7_20 
REMARK    5  A    between atoms: C7_20  and  O3_21 
REMARK    6  A    between atoms: C7_20  and  C8_23 
REMARK    7  A    between atoms: C8_23  and  N6_24 
REMARK    8  A    between atoms: C8_23  and  N7_28 
REMARK    9  A    between atoms: C9_32  and  O4_33 
REMARK   10  A    between atoms: N8_36  and  C11_37 
REMARK   11  A    between atoms: C14_40  and  N9_41 
ROOT
HETATM    1  N1  UNL     1       3.940   2.799   0.196  1.00  0.00    -0.062 NA
HETATM    2  C1  UNL     1       3.173   1.795   0.851  1.00  0.00     0.211 C 
HETATM    3  N2  UNL     1       2.605   2.023   2.010  1.00  0.00    -0.277 N 
ATOM      4  H2  UNL     1       2.704   2.931   2.465  1.00  0.00     0.189 HD
HETATM    5  N3  UNL     1       1.865   1.009   2.611  1.00  0.00    -0.326 N 
ATOM      6  H3  UNL     1       1.181   1.222   3.337  1.00  0.00     0.180 HD
HETATM    7  C2  UNL     1       2.088  -0.341   2.185  1.00  0.00     0.151 C 
HETATM    8  C3  UNL     1       1.132  -1.337   2.751  1.00  0.00     0.263 C 
HETATM    9  N4  UNL     1       0.088  -1.655   1.820  1.00  0.00    -0.050 N 
ATOM     10  H41 UNL     1      -0.679  -2.159   2.265  1.00  0.00     0.279 HD
ATOM     11  H42 UNL     1       0.375  -2.375   1.156  1.00  0.00     0.279 HD
HETATM   12  C4  UNL     1      -0.375  -0.435   1.142  1.00  0.00     0.317 C 
HETATM   13  C9  UNL     1       0.688  -0.115   0.106  1.00  0.00     0.193 C 
HETATM   14  C10 UNL     1       2.044  -0.387   0.666  1.00  0.00     0.153 C 
HETATM   15  N8  UNL     1       3.051   0.541   0.198  1.00  0.00    -0.291 N 
ENDROOT
BRANCH  12  16
HETATM   16  N5  UNL     1      -1.633  -0.785   0.517  1.00  0.00    -0.329 N 
HETATM   17  C5  UNL     1      -2.813  -0.089   0.855  1.00  0.00     0.250 C 
HETATM   18  O1  UNL     1      -2.728   0.845   1.721  1.00  0.00    -0.271 OA
ATOM     19  H5  UNL     1      -1.667  -1.538  -0.170  1.00  0.00     0.164 HD
BRANCH  17  20
HETATM   20  C6  UNL     1      -4.140  -0.385   0.260  1.00  0.00     0.242 C 
BRANCH  20  21
HETATM   21  O2  UNL     1      -5.079   0.450   0.887  1.00  0.00    -0.383 OA
ATOM     22  H2  UNL     1      -5.928   0.261   0.506  1.00  0.00     0.210 HD
ENDBRANCH  20  21
BRANCH  20  23
HETATM   23  C7  UNL     1      -4.111  -0.043  -1.217  1.00  0.00     0.213 C 
BRANCH  23  24
HETATM   24  O3  UNL     1      -3.207  -0.841  -1.879  1.00  0.00    -0.389 OA
ATOM     25  H3  UNL     1      -3.189  -0.627  -2.804  1.00  0.00     0.210 HD
ENDBRANCH  23  24
BRANCH  23  26
HETATM   26  C8  UNL     1      -5.474  -0.088  -1.853  1.00  0.00     0.409 C 
BRANCH  26  27
HETATM   27  N6  UNL     1      -6.436   0.730  -1.195  1.00  0.00    -0.048 N 
ATOM     28  H63 UNL     1      -6.492   0.495  -0.204  1.00  0.00     0.276 HD
ATOM     29  H62 UNL     1      -6.103   1.691  -1.123  1.00  0.00     0.276 HD
ATOM     30  H61 UNL     1      -7.360   0.699  -1.626  1.00  0.00     0.276 HD
ENDBRANCH  26  27
BRANCH  26  31
HETATM   31  N7  UNL     1      -5.982  -1.440  -1.968  1.00  0.00    -0.048 N 
ATOM     32  H73 UNL     1      -5.324  -2.040  -2.465  1.00  0.00     0.276 HD
ATOM     33  H72 UNL     1      -5.982  -1.912  -1.064  1.00  0.00     0.276 HD
ATOM     34  H71 UNL     1      -6.906  -1.471  -2.399  1.00  0.00     0.276 HD
ENDBRANCH  26  31
ENDBRANCH  23  26
ENDBRANCH  20  23
ENDBRANCH  17  20
ENDBRANCH  12  16
BRANCH  13  35
HETATM   35  O4  UNL     1       0.534   1.181  -0.375  1.00  0.00    -0.390 OA
ATOM     36  H4  UNL     1       1.199   1.381  -1.023  1.00  0.00     0.210 HD
ENDBRANCH  13  35
BRANCH  15  37
HETATM   37  C11 UNL     1       3.910   0.219  -0.895  1.00  0.00     0.155 A 
HETATM   38  C12 UNL     1       3.898  -0.957  -1.615  1.00  0.00     0.061 A 
HETATM   39  C13 UNL     1       4.875  -0.878  -2.580  1.00  0.00     0.067 A 
HETATM   40  C14 UNL     1       5.462   0.370  -2.413  1.00  0.00     0.216 A 
HETATM   41  O7  UNL     1       4.857   0.938  -1.432  1.00  0.00    -0.271 OA
BRANCH  40  42
HETATM   42  N9  UNL     1       6.527   0.934  -3.168  1.00  0.00    -0.090 N 
HETATM   43  O5  UNL     1       7.062   0.305  -4.116  1.00  0.00    -0.530 OA
HETATM   44  O6  UNL     1       6.967   2.190  -2.843  1.00  0.00    -0.530 OA
ENDBRANCH  40  42
ENDBRANCH  15  37
TORSDOF 11
