REMARK  7 active torsions:
REMARK  status: ('A' for Active; 'I' for Inactive)
REMARK    1  A    between atoms: C2_2  and  C4_4 
REMARK    2  A    between atoms: C4_4  and  C5_5 
REMARK    3  A    between atoms: C5_5  and  O1_6 
REMARK    4  A    between atoms: C5_5  and  C6_8 
REMARK    5  A    between atoms: C6_8  and  O2_9 
REMARK    6  A    between atoms: C6_8  and  C7_11 
REMARK    7  A    between atoms: C7_11  and  C9_13 
ROOT
HETATM    1  C9  UNL     1       1.652  -1.188   0.298  1.00  0.00     0.135 C 
HETATM    2  O3  UNL     1       1.307   0.166   0.509  1.00  0.00    -0.384 OA
HETATM    3  C10 UNL     1       0.134   0.254   1.267  1.00  0.00     0.178 C 
HETATM    4  C11 UNL     1      -1.025  -0.470   0.565  1.00  0.00    -0.014 C 
HETATM    5  C12 UNL     1      -1.483  -1.562   1.437  1.00  0.00     0.018 C 
HETATM    6  C13 UNL     1      -2.152   0.544   0.304  1.00  0.00     0.002 C 
HETATM    7  C14 UNL     1      -2.545   1.181   1.599  1.00  0.00     0.008 C 
HETATM    8  C15 UNL     1      -3.987   0.957   1.960  1.00  0.00     0.032 C 
HETATM    9  C16 UNL     1      -4.852   1.366   0.776  1.00  0.00     0.045 C 
HETATM   10  C17 UNL     1      -6.294   1.141   1.229  1.00  0.00     0.039 C 
HETATM   11  N1  UNL     1      -4.687   2.795   0.655  1.00  0.00    -0.357 N 
ATOM     12  H1  UNL     1      -5.100   3.372   1.388  1.00  0.00     0.162 HD
HETATM   13  C18 UNL     1      -4.014   3.462  -0.373  1.00  0.00     0.174 C 
HETATM   14  S1  UNL     1      -3.407   4.961  -0.179  1.00  0.00    -0.041 SA
HETATM   15  N2  UNL     1      -3.898   2.726  -1.611  1.00  0.00    -0.303 N 
ATOM     16  H2  UNL     1      -3.423   3.132  -2.417  1.00  0.00     0.171 HD
HETATM   17  C19 UNL     1      -4.466   1.412  -1.680  1.00  0.00     0.235 C 
HETATM   18  O4  UNL     1      -4.877   1.048  -2.813  1.00  0.00    -0.272 OA
HETATM   19  C20 UNL     1      -4.535   0.592  -0.470  1.00  0.00     0.066 C 
HETATM   20  C21 UNL     1      -5.689  -0.395  -0.667  1.00  0.00     0.028 C 
HETATM   21  C22 UNL     1      -3.306  -0.277  -0.227  1.00  0.00     0.010 C 
HETATM   22  C23 UNL     1      -2.976  -1.216  -1.314  1.00  0.00     0.007 C 
HETATM   23  C24 UNL     1      -1.558  -1.287  -1.756  1.00  0.00     0.007 C 
HETATM   24  C25 UNL     1      -0.533  -0.830  -0.797  1.00  0.00     0.006 C 
HETATM   25  C26 UNL     1       0.739  -1.695  -0.777  1.00  0.00    -0.017 C 
HETATM   26  C27 UNL     1       1.300  -1.534  -2.175  1.00  0.00     0.018 C 
HETATM   27  C28 UNL     1       0.443  -3.133  -0.538  1.00  0.00     0.018 C 
ENDROOT
BRANCH   1  28
HETATM   28  C7  UNL     1       3.119  -1.178  -0.069  1.00  0.00     0.043 C 
HETATM   29  C8  UNL     1       3.726  -2.543  -0.162  1.00  0.00     0.015 C 
BRANCH  28  30
HETATM   30  C6  UNL     1       3.812  -0.534   1.155  1.00  0.00     0.153 C 
BRANCH  30  31
HETATM   31  C5  UNL     1       5.292  -0.454   0.972  1.00  0.00     0.147 C 
BRANCH  31  32
HETATM   32  C4  UNL     1       5.804   0.310  -0.187  1.00  0.00     0.038 C 
BRANCH  32  33
HETATM   33  C2  UNL     1       5.730   1.793  -0.095  1.00  0.00    -0.020 C 
HETATM   34  C1  UNL     1       4.373   2.365   0.065  1.00  0.00     0.009 C 
HETATM   35  C3  UNL     1       6.302   2.341  -1.404  1.00  0.00     0.009 C 
ENDBRANCH  32  33
ENDBRANCH  31  32
BRANCH  31  36
HETATM   36  O1  UNL     1       5.946  -0.133   2.168  1.00  0.00    -0.393 OA
ATOM     37  H1  UNL     1       5.617  -0.624   2.912  1.00  0.00     0.210 HD
ENDBRANCH  31  36
ENDBRANCH  30  31
BRANCH  30  38
HETATM   38  O2  UNL     1       3.615  -1.529   2.163  1.00  0.00    -0.393 OA
ATOM     39  H2  UNL     1       2.674  -1.580   2.279  1.00  0.00     0.210 HD
ENDBRANCH  30  38
ENDBRANCH  28  30
ENDBRANCH   1  28
TORSDOF 7
