REMARK  13 active torsions:
REMARK  status: ('A' for Active; 'I' for Inactive)
REMARK    1  A    between atoms: O1_2  and  C2_3 
REMARK    2  A    between atoms: C4_5  and  C5_6 
REMARK    3  A    between atoms: C14_16  and  C15_17 
REMARK    4  A    between atoms: C15_17  and  C16_18 
REMARK    5  A    between atoms: C17_19  and  N1_20 
REMARK    6  A    between atoms: C18_25  and  N3_26 
REMARK    7  A    between atoms: N3_26  and  C19_28 
REMARK    8  A    between atoms: C19_28  and  C20_29 
REMARK    9  A    between atoms: C20_29  and  O2_30 
REMARK   10  A    between atoms: C21_34  and  C22_35 
REMARK   11  A    between atoms: C22_35  and  C23_36 
REMARK   12  A    between atoms: C23_36  and  C24_37 
REMARK   13  A    between atoms: C24_37  and  N5_38 
ROOT
HETATM    1  C16 UNL     1      -0.848  -0.300   0.287  1.00  0.00     0.036 A 
HETATM    2  C17 UNL     1      -0.584  -1.648   0.212  1.00  0.00     0.127 A 
HETATM    3  N2  UNL     1      -1.575  -2.566   0.344  1.00  0.00    -0.176 N 
ATOM      4  H2  UNL     1      -1.350  -3.559   0.284  1.00  0.00     0.186 HD
HETATM    5  C18 UNL     1      -2.838  -2.191   0.551  1.00  0.00     0.680 A 
HETATM    6  N4  UNL     1      -3.139  -0.890   0.631  1.00  0.00    -0.191 N 
ATOM      7  H4  UNL     1      -4.105  -0.605   0.790  1.00  0.00     0.184 HD
HETATM    8  C21 UNL     1      -2.181   0.046   0.504  1.00  0.00     0.059 A 
ENDROOT
BRANCH   1   9
HETATM    9  C15 UNL     1       0.052   0.612   0.168  1.00  0.00     0.032 C 
BRANCH   9  10
HETATM   10  C14 UNL     1       1.500   0.426  -0.064  1.00  0.00     0.004 A 
HETATM   11  C2  UNL     1       2.364   0.284   1.028  1.00  0.00     0.079 A 
HETATM   12  C3  UNL     1       3.725   0.125   0.843  1.00  0.00     0.050 A 
HETATM   13  C4  UNL     1       4.272   0.101  -0.402  1.00  0.00    -0.023 A 
HETATM   14  C11 UNL     1       3.423   0.241  -1.472  1.00  0.00     0.020 A 
HETATM   15  C12 UNL     1       2.057   0.402  -1.325  1.00  0.00    -0.048 A 
HETATM   16  C13 UNL     1       1.190   0.566  -2.549  1.00  0.00     0.049 C 
BRANCH  11  17
HETATM   17  O1  UNL     1       1.809   0.309   2.297  1.00  0.00    -0.355 OA
HETATM   18  C1  UNL     1       2.675   0.166   3.404  1.00  0.00     0.210 C 
ENDBRANCH  11  17
BRANCH  13  19
HETATM   19  C5  UNL     1       5.709  -0.069  -0.569  1.00  0.00    -0.023 A 
HETATM   20  C6  UNL     1       6.614   0.411   0.353  1.00  0.00     0.012 A 
HETATM   21  C7  UNL     1       7.982   0.250   0.195  1.00  0.00     0.004 A 
HETATM   22  C8  UNL     1       8.455  -0.407  -0.912  1.00  0.00     0.042 A 
HETATM   23  C9  UNL     1       7.582  -0.902  -1.859  1.00  0.00     0.117 A 
HETATM   24  F1  UNL     1       8.037  -1.562  -2.974  1.00  0.00    -0.206 F 
HETATM   25  C10 UNL     1       6.217  -0.722  -1.667  1.00  0.00     0.054 A 
ENDBRANCH  13  19
ENDBRANCH   9  10
ENDBRANCH   1   9
BRANCH   2  26
HETATM   26  N1  UNL     1       0.587  -2.082   0.018  1.00  0.00    -0.384 N 
ATOM     27  H12 UNL     1       1.332  -1.392  -0.081  1.00  0.00     0.157 HD
ATOM     28  H11 UNL     1       0.783  -3.081  -0.038  1.00  0.00     0.157 HD
ENDBRANCH   2  26
BRANCH   8  29
HETATM   29  C22 UNL     1      -2.589   1.298   0.598  1.00  0.00     0.006 C 
BRANCH  29  30
HETATM   30  C23 UNL     1      -4.034   1.601   0.832  1.00  0.00     0.059 C 
BRANCH  30  31
HETATM   31  C24 UNL     1      -4.187   3.122   0.876  1.00  0.00     0.275 C 
BRANCH  31  32
HETATM   32  N5  UNL     1      -3.739   3.663  -0.406  1.00  0.00     0.080 N 
HETATM   33  C25 UNL     1      -3.860   5.105  -0.428  1.00  0.00     0.309 C 
HETATM   34  C26 UNL     1      -4.575   3.151  -1.478  1.00  0.00     0.309 C 
ENDBRANCH  31  32
ENDBRANCH  30  31
ENDBRANCH  29  30
ENDBRANCH   8  29
BRANCH   5  35
HETATM   35  N3  UNL     1      -3.814  -3.038   0.683  1.00  0.00    -0.224 N 
ATOM     36  H3  UNL     1      -4.758  -2.684   0.840  1.00  0.00     0.177 HD
BRANCH  35  37
HETATM   37  C19 UNL     1      -3.604  -4.460   0.614  1.00  0.00     0.164 C 
BRANCH  37  38
HETATM   38  C20 UNL     1      -4.977  -5.105   0.482  1.00  0.00     0.184 C 
BRANCH  38  39
HETATM   39  O2  UNL     1      -5.598  -4.642  -0.675  1.00  0.00    -0.399 OA
ATOM     40  H2  UNL     1      -6.455  -5.044  -0.757  1.00  0.00     0.209 HD
ENDBRANCH  38  39
ENDBRANCH  37  38
ENDBRANCH  35  37
ENDBRANCH   5  35
TORSDOF 13
