REMARK  5 active torsions:
REMARK  status: ('A' for Active; 'I' for Inactive)
REMARK    1  A    between atoms: O1_2  and  C2_3 
REMARK       I    between atoms: C2_3  and  N1_5 
REMARK    2  A    between atoms: N1_5  and  N2_7 
REMARK       I    between atoms: N2_7  and  C3_9 
REMARK    3  A    between atoms: C3_9  and  C4_11 
REMARK    4  A    between atoms: C9_16  and  N3_17 
REMARK    5  A    between atoms: N4_19  and  C10_21 
ROOT
HETATM    1  C4  UNL     1       1.670   0.089  -0.684  1.00  0.00     0.035 A 
HETATM    2  C5  UNL     1       1.779   1.313  -1.298  1.00  0.00     0.018 A 
HETATM    3  C6  UNL     1       0.682   2.068  -1.712  1.00  0.00     0.010 A 
HETATM    4  C7  UNL     1      -0.588   1.580  -1.505  1.00  0.00    -0.034 A 
HETATM    5  C8  UNL     1      -1.792   2.345  -1.926  1.00  0.00     0.050 C 
HETATM    6  C9  UNL     1      -0.718   0.343  -0.885  1.00  0.00     0.055 A 
HETATM    7  C17 UNL     1       0.370  -0.395  -0.479  1.00  0.00     0.048 A 
ENDROOT
BRANCH   6   8
HETATM    8  N3  UNL     1      -2.055  -0.116  -0.704  1.00  0.00    -0.300 N 
HETATM    9  N4  UNL     1      -2.830   0.322   0.195  1.00  0.00    -0.300 N 
ATOM     10  H4  UNL     1      -2.509   1.043   0.841  1.00  0.00     0.187 HD
ATOM     11  H3  UNL     1      -2.406  -0.837  -1.334  1.00  0.00     0.187 HD
BRANCH   9  12
HETATM   12  C10 UNL     1      -4.157  -0.198   0.302  1.00  0.00     0.054 A 
HETATM   13  C11 UNL     1      -4.882  -0.496  -0.836  1.00  0.00     0.031 A 
HETATM   14  C12 UNL     1      -6.162  -0.999  -0.740  1.00  0.00     0.002 A 
HETATM   15  C13 UNL     1      -6.702  -1.197   0.510  1.00  0.00     0.001 A 
HETATM   16  C14 UNL     1      -6.009  -0.911   1.679  1.00  0.00     0.009 A 
HETATM   17  C15 UNL     1      -4.725  -0.407   1.538  1.00  0.00    -0.034 A 
HETATM   18  C16 UNL     1      -3.956  -0.090   2.755  1.00  0.00     0.050 C 
ENDBRANCH   9  12
ENDBRANCH   6   8
BRANCH   1  19
HETATM   19  C3  UNL     1       2.812  -0.708  -0.257  1.00  0.00     0.270 C 
HETATM   20  N2  UNL     1       4.106  -0.414  -0.701  1.00  0.00    -0.261 N 
ATOM     21  H2  UNL     1       4.222   0.378  -1.334  1.00  0.00     0.190 HD
HETATM   22  O3  UNL     1       2.607  -1.686   0.536  1.00  0.00    -0.266 OA
BRANCH  20  23
HETATM   23  N1  UNL     1       5.243  -1.124  -0.341  1.00  0.00    -0.242 N 
HETATM   24  C2  UNL     1       6.297  -0.465   0.313  1.00  0.00     0.379 C 
HETATM   25  O2  UNL     1       6.234   0.770   0.583  1.00  0.00    -0.237 OA
ATOM     26  H1  UNL     1       5.313  -2.120  -0.550  1.00  0.00     0.192 HD
BRANCH  24  27
HETATM   27  O1  UNL     1       7.422  -1.169   0.670  1.00  0.00    -0.308 OA
HETATM   28  C1  UNL     1       8.518  -0.555   1.332  1.00  0.00     0.215 C 
ENDBRANCH  24  27
ENDBRANCH  20  23
ENDBRANCH   1  19
TORSDOF 5
