REMARK  4 active torsions:
REMARK  status: ('A' for Active; 'I' for Inactive)
REMARK    1  A    between atoms: N1_2  and  C2_4 
REMARK    2  A    between atoms: C2_4  and  N2_6 
REMARK    3  A    between atoms: C5_9  and  N3_10 
REMARK    4  A    between atoms: C5_9  and  N4_14 
REMARK       I    between atoms: N4_14  and  C6_16 
ROOT
HETATM    1  N2  UNL     1      -1.308  -0.618   0.678  1.00  0.00    -0.358 N 
HETATM    2  C3  UNL     1      -0.874   0.735   0.747  1.00  0.00     0.129 C 
HETATM    3  C4  UNL     1       0.197   1.025  -0.285  1.00  0.00     0.081 C 
HETATM    4  C5  UNL     1       1.101  -0.157  -0.471  1.00  0.00     0.201 C 
HETATM    5  C7  UNL     1       1.031  -1.157   0.629  1.00  0.00     0.081 C 
HETATM    6  C8  UNL     1      -0.280  -1.573   1.141  1.00  0.00     0.129 C 
ENDROOT
BRANCH   4   7
HETATM    7  N3  UNL     1       0.628  -0.860  -1.677  1.00  0.00    -0.052 N 
ATOM      8  H33 UNL     1      -0.360  -1.110  -1.637  1.00  0.00     0.277 HD
ATOM      9  H32 UNL     1       0.574  -0.259  -2.500  1.00  0.00     0.277 HD
ATOM     10  H31 UNL     1       1.243  -1.664  -1.804  1.00  0.00     0.277 HD
ENDBRANCH   4   7
BRANCH   4  11
HETATM   11  N4  UNL     1       2.455   0.226  -0.714  1.00  0.00    -0.312 N 
HETATM   12  C6  UNL     1       3.171   0.970   0.246  1.00  0.00     0.330 C 
HETATM   13  N5  UNL     1       4.536   1.336  -0.045  1.00  0.00    -0.040 NA
HETATM   14  O1  UNL     1       2.736   1.358   1.359  1.00  0.00    -0.251 OA
ATOM     15  H4  UNL     1       2.907  -0.041  -1.588  1.00  0.00     0.166 HD
ENDBRANCH   4  11
BRANCH   1  16
HETATM   16  C2  UNL     1      -2.535  -1.105   0.210  1.00  0.00     0.169 C 
HETATM   17  S1  UNL     1      -2.697  -2.792   0.312  1.00  0.00    -0.041 SA
BRANCH  16  18
HETATM   18  N1  UNL     1      -3.650  -0.478  -0.318  1.00  0.00    -0.371 N 
HETATM   19  C1  UNL     1      -3.811   0.915  -0.529  1.00  0.00     0.148 C 
ATOM     20  H1  UNL     1      -4.433  -1.077  -0.581  1.00  0.00     0.161 HD
ENDBRANCH  16  18
ENDBRANCH   1  16
TORSDOF 4
