REMARK  4 active torsions:
REMARK  status: ('A' for Active; 'I' for Inactive)
REMARK       I    between atoms: C3_3  and  N1_5 
REMARK    1  A    between atoms: N1_5  and  N2_7 
REMARK    2  A    between atoms: N2_7  and  C4_9 
REMARK    3  A    between atoms: C4_9  and  N3_11 
REMARK    4  A    between atoms: N3_11  and  C5_13 
ROOT
HETATM    1  C1  UNL     1       5.405   0.091   1.235  1.00  0.00     0.023 C 
HETATM    2  C2  UNL     1       4.522   0.302   0.479  1.00  0.00    -0.015 C 
HETATM    3  C3  UNL     1       3.402   0.599  -0.466  1.00  0.00     0.314 C 
HETATM    4  O1  UNL     1       2.974   1.708  -0.580  1.00  0.00    -0.256 OA
HETATM    5  N1  UNL     1       2.966  -0.576  -1.149  1.00  0.00    -0.257 N 
ATOM      6  H1  UNL     1       3.404  -1.481  -0.976  1.00  0.00     0.191 HD
ENDROOT
BRANCH   5   7
HETATM    7  N2  UNL     1       1.913  -0.442  -2.066  1.00  0.00    -0.273 N 
ATOM      8  H2  UNL     1       2.083  -0.470  -3.071  1.00  0.00     0.189 HD
BRANCH   7   9
HETATM    9  C4  UNL     1       0.606  -0.267  -1.551  1.00  0.00     0.186 C 
HETATM   10  S1  UNL     1      -0.603  -0.141  -2.639  1.00  0.00    -0.040 SA
BRANCH   9  11
HETATM   11  N3  UNL     1       0.352  -0.226  -0.161  1.00  0.00    -0.361 N 
ATOM     12  H3  UNL     1       1.156  -0.345   0.456  1.00  0.00     0.162 HD
BRANCH  11  13
HETATM   13  C5  UNL     1      -0.910  -0.036   0.463  1.00  0.00     0.088 C 
HETATM   14  C6  UNL     1      -1.563   1.305   0.164  1.00  0.00     0.051 C 
HETATM   15  C7  UNL     1      -3.082   1.193   0.368  1.00  0.00     0.169 C 
HETATM   16  O2  UNL     1      -3.308   0.369   1.441  1.00  0.00    -0.391 OA
HETATM   17  C8  UNL     1      -3.016  -0.961   1.252  1.00  0.00     0.169 C 
HETATM   18  C9  UNL     1      -1.923  -1.150   0.190  1.00  0.00     0.051 C 
ENDBRANCH  11  13
ENDBRANCH   9  11
ENDBRANCH   7   9
ENDBRANCH   5   7
TORSDOF 4
