REMARK  3 active torsions:
REMARK  status: ('A' for Active; 'I' for Inactive)
REMARK       I    between atoms: C2_2  and  N1_4 
REMARK    1  A    between atoms: N1_4  and  C3_6 
REMARK    2  A    between atoms: C3_6  and  C4_7 
REMARK    3  A    between atoms: C4_7  and  C7_10 
ROOT
HETATM    1  C7  UNL     1      -0.985  -0.216  -0.075  1.00  0.00     0.058 C 
HETATM    2  C8  UNL     1      -1.064  -0.898  -1.388  1.00  0.00     0.070 C 
HETATM    3  N2  UNL     1      -1.107  -1.426  -2.418  1.00  0.00    -0.196 NA
HETATM    4  C9  UNL     1      -1.417   1.209  -0.284  1.00  0.00     0.031 C 
HETATM    5  C10 UNL     1      -2.791   1.505   0.227  1.00  0.00     0.081 C 
HETATM    6  C11 UNL     1      -3.808   0.466  -0.031  1.00  0.00     0.243 C 
HETATM    7  F1  UNL     1      -4.416   0.643  -1.269  1.00  0.00    -0.206 F 
HETATM    8  F2  UNL     1      -4.837   0.637   0.908  1.00  0.00    -0.206 F 
HETATM    9  C12 UNL     1      -3.303  -0.947   0.076  1.00  0.00     0.081 C 
HETATM   10  C13 UNL     1      -1.974  -0.885   0.822  1.00  0.00     0.031 C 
ENDROOT
BRANCH   1  11
HETATM   11  C4  UNL     1       0.415  -0.325   0.485  1.00  0.00    -0.011 C 
HETATM   12  C5  UNL     1       0.732  -1.821   0.550  1.00  0.00     0.018 C 
HETATM   13  C6  UNL     1       0.450   0.200   1.880  1.00  0.00     0.018 C 
BRANCH  11  14
HETATM   14  C3  UNL     1       1.437   0.303  -0.421  1.00  0.00     0.133 C 
BRANCH  14  15
HETATM   15  N1  UNL     1       2.790   0.129   0.049  1.00  0.00    -0.361 N 
HETATM   16  C2  UNL     1       3.840   0.680  -0.724  1.00  0.00     0.213 C 
HETATM   17  C1  UNL     1       5.261   0.524  -0.274  1.00  0.00     0.117 C 
HETATM   18  O1  UNL     1       3.595   1.301  -1.789  1.00  0.00    -0.274 OA
ATOM     19  H1  UNL     1       2.984  -0.376   0.913  1.00  0.00     0.162 HD
ENDBRANCH  14  15
ENDBRANCH  11  14
ENDBRANCH   1  11
TORSDOF 3
