REMARK  6 active torsions:
REMARK  status: ('A' for Active; 'I' for Inactive)
REMARK    1  A    between atoms: N1_2  and  C3_4 
REMARK       I    between atoms: N2_7  and  C6_8 
REMARK    2  A    between atoms: C6_8  and  C7_10 
REMARK    3  A    between atoms: C12_15  and  C13_16 
REMARK    4  A    between atoms: C13_16  and  O2_17 
REMARK    5  A    between atoms: C13_16  and  N3_19 
REMARK    6  A    between atoms: N3_19  and  C14_21 
ROOT
HETATM    1  C7  UNL     1      -0.512  -2.472  -0.948  1.00  0.00     0.042 A 
HETATM    2  C8  UNL     1      -1.105  -3.728  -0.728  1.00  0.00     0.018 A 
HETATM    3  C9  UNL     1      -0.415  -4.788  -0.210  1.00  0.00     0.001 A 
HETATM    4  C10 UNL     1       0.914  -4.612   0.107  1.00  0.00     0.001 A 
HETATM    5  C11 UNL     1       1.515  -3.395  -0.098  1.00  0.00     0.012 A 
HETATM    6  C12 UNL     1       0.808  -2.332  -0.622  1.00  0.00     0.005 A 
ENDROOT
BRANCH   1   7
HETATM    7  C6  UNL     1      -1.271  -1.379  -1.504  1.00  0.00     0.254 C 
HETATM    8  N2  UNL     1      -1.934  -0.481  -0.641  1.00  0.00    -0.348 N 
HETATM    9  C5  UNL     1      -1.901  -0.593   0.802  1.00  0.00     0.128 C 
HETATM   10  C20 UNL     1      -2.710   0.643  -1.186  1.00  0.00     0.128 C 
HETATM   11  C4  UNL     1      -2.008   0.776   1.434  1.00  0.00     0.055 C 
HETATM   12  C3  UNL     1      -3.340   1.406   1.110  1.00  0.00     0.225 C 
HETATM   13  C21 UNL     1      -3.850   0.961  -0.245  1.00  0.00     0.055 C 
HETATM   14  O1  UNL     1      -1.365  -1.197  -2.728  1.00  0.00    -0.267 OA
BRANCH  12  15
HETATM   15  N1  UNL     1      -4.348   1.043   2.087  1.00  0.00     0.084 N 
HETATM   16  C1  UNL     1      -5.630   1.550   1.598  1.00  0.00     0.309 C 
HETATM   17  C2  UNL     1      -4.072   1.639   3.384  1.00  0.00     0.309 C 
ENDBRANCH  12  15
ENDBRANCH   1   7
BRANCH   6  18
HETATM   18  C13 UNL     1       1.511  -1.048  -0.804  1.00  0.00     0.249 C 
BRANCH  18  19
HETATM   19  O2  UNL     1       1.276  -0.408  -1.996  1.00  0.00    -0.373 OA
ATOM     20  H2  UNL     1       1.729   0.419  -2.113  1.00  0.00     0.212 HD
ENDBRANCH  18  19
BRANCH  18  21
HETATM   21  N3  UNL     1       2.909  -1.223  -0.514  1.00  0.00    -0.389 N 
ATOM     22  H3  UNL     1       3.292  -2.137  -0.273  1.00  0.00     0.156 HD
BRANCH  21  23
HETATM   23  C14 UNL     1       3.730  -0.071  -0.577  1.00  0.00     0.079 C 
HETATM   24  C15 UNL     1       3.846   0.589  -1.927  1.00  0.00     0.025 C 
HETATM   25  C16 UNL     1       5.143   1.420  -1.838  1.00  0.00     0.002 C 
HETATM   26  C17 UNL     1       4.788   2.566  -0.883  1.00  0.00     0.000 C 
HETATM   27  C18 UNL     1       4.493   2.033   0.477  1.00  0.00     0.002 C 
HETATM   28  C19 UNL     1       3.457   0.939   0.517  1.00  0.00     0.025 C 
ENDBRANCH  21  23
ENDBRANCH  18  21
ENDBRANCH   6  18
TORSDOF 6
