REMARK  6 active torsions:
REMARK  status: ('A' for Active; 'I' for Inactive)
REMARK    1  A    between atoms: C5_5  and  C6_6 
REMARK    2  A    between atoms: C6_6  and  N1_7 
REMARK    3  A    between atoms: C9_10  and  N2_11 
REMARK       I    between atoms: N2_11  and  C10_13 
REMARK    4  A    between atoms: C10_13  and  C11_15 
REMARK    5  A    between atoms: N4_27  and  C21_28 
REMARK    6  A    between atoms: C21_28  and  C22_29 
ROOT
HETATM    1  C11 UNL     1      -2.765   0.508  -0.678  1.00  0.00     0.186 C 
HETATM    2  C12 UNL     1      -3.261   1.250   0.579  1.00  0.00     0.061 C 
HETATM    3  C13 UNL     1      -3.381   0.233   1.657  1.00  0.00     0.012 C 
HETATM    4  C14 UNL     1      -4.488   0.448   2.636  1.00  0.00     0.036 C 
HETATM    5  C15 UNL     1      -5.044   1.835   2.430  1.00  0.00     0.224 C 
HETATM    6  C16 UNL     1      -6.311   2.058   3.245  1.00  0.00     0.037 C 
HETATM    7  C17 UNL     1      -7.046   3.066   2.385  1.00  0.00     0.032 C 
HETATM    8  C18 UNL     1      -6.288   3.126   1.073  1.00  0.00     0.274 C 
HETATM    9  N3  UNL     1      -5.583   1.871   1.085  1.00  0.00     0.107 N 
HETATM   10  C19 UNL     1      -4.580   1.765   0.067  1.00  0.00     0.321 C 
HETATM   11  C20 UNL     1      -5.003   0.653  -0.835  1.00  0.00     0.255 C 
HETATM   12  O2  UNL     1      -6.137   0.546  -1.389  1.00  0.00    -0.271 OA
HETATM   13  N4  UNL     1      -3.905  -0.289  -0.980  1.00  0.00    -0.332 N 
ENDROOT
BRANCH   1  14
HETATM   14  C10 UNL     1      -1.494  -0.145  -0.475  1.00  0.00     0.241 C 
HETATM   15  N2  UNL     1      -0.367   0.617  -0.078  1.00  0.00    -0.355 N 
ATOM     16  H2  UNL     1      -0.469   1.622   0.061  1.00  0.00     0.162 HD
HETATM   17  O1  UNL     1      -1.346  -1.367  -0.637  1.00  0.00    -0.271 OA
BRANCH  15  18
HETATM   18  C9  UNL     1       0.919   0.003   0.133  1.00  0.00     0.087 C 
HETATM   19  C8  UNL     1       1.271   0.019   1.610  1.00  0.00     0.055 C 
HETATM   20  C7  UNL     1       2.554  -0.745   1.860  1.00  0.00     0.274 C 
HETATM   21  N1  UNL     1       3.573  -0.412   0.881  1.00  0.00     0.088 N 
HETATM   22  C29 UNL     1       3.279   0.858   0.301  1.00  0.00     0.274 C 
HETATM   23  C28 UNL     1       2.041   0.672  -0.592  1.00  0.00     0.055 C 
BRANCH  21  24
HETATM   24  C6  UNL     1       4.877  -0.566   1.437  1.00  0.00     0.277 C 
BRANCH  24  25
HETATM   25  C5  UNL     1       5.995  -0.240   0.508  1.00  0.00     0.025 C 
HETATM   26  C4  UNL     1       7.307  -0.446   1.203  1.00  0.00     0.008 C 
HETATM   27  C3  UNL     1       8.249  -1.381   0.459  1.00  0.00     0.017 C 
HETATM   28  C2  UNL     1       8.749  -0.637  -0.753  1.00  0.00     0.075 C 
HETATM   29  C1  UNL     1       9.754  -1.403  -1.566  1.00  0.00     0.024 C 
HETATM   30  S1  UNL     1       7.314  -0.364  -1.804  1.00  0.00     0.019 S 
HETATM   31  C30 UNL     1       5.924  -0.950  -0.821  1.00  0.00     0.115 C 
HETATM   32  O3  UNL     1       7.131   1.280  -2.104  1.00  0.00    -0.258 OA
ENDBRANCH  24  25
ENDBRANCH  21  24
ENDBRANCH  15  18
ENDBRANCH   1  14
BRANCH  13  33
HETATM   33  C21 UNL     1      -4.154  -1.643  -1.344  1.00  0.00     0.165 C 
BRANCH  33  34
HETATM   34  C22 UNL     1      -4.145  -1.791  -2.843  1.00  0.00    -0.034 A 
HETATM   35  C23 UNL     1      -4.324  -3.081  -3.336  1.00  0.00     0.051 A 
HETATM   36  C24 UNL     1      -4.336  -3.321  -4.707  1.00  0.00     0.119 A 
HETATM   37  F1  UNL     1      -4.508  -4.580  -5.174  1.00  0.00    -0.206 F 
HETATM   38  C25 UNL     1      -4.168  -2.273  -5.605  1.00  0.00     0.084 A 
HETATM   39  C26 UNL     1      -3.994  -1.018  -5.079  1.00  0.00     0.119 A 
HETATM   40  F2  UNL     1      -3.830   0.009  -5.964  1.00  0.00    -0.206 F 
HETATM   41  C27 UNL     1      -3.980  -0.761  -3.714  1.00  0.00     0.051 A 
ENDBRANCH  33  34
ENDBRANCH  13  33
TORSDOF 6
