REMARK  9 active torsions:
REMARK  status: ('A' for Active; 'I' for Inactive)
REMARK    1  A    between atoms: O1_2  and  C2_3 
REMARK    2  A    between atoms: C4_5  and  O2_6 
REMARK    3  A    between atoms: C5_10  and  O3_11 
REMARK    4  A    between atoms: O3_11  and  C6_12 
REMARK    5  A    between atoms: C6_12  and  C7_13 
REMARK    6  A    between atoms: C7_13  and  O4_14 
REMARK    7  A    between atoms: C7_13  and  C8_16 
REMARK    8  A    between atoms: C8_16  and  N2_17 
REMARK    9  A    between atoms: N2_17  and  C9_19 
ROOT
HETATM    1  C2  UNL     1      -4.528   0.586  -0.150  1.00  0.00     0.174 A 
HETATM    2  C3  UNL     1      -3.435  -0.298  -0.258  1.00  0.00     0.087 A 
HETATM    3  C4  UNL     1      -3.288  -1.670  -0.292  1.00  0.00     0.158 A 
HETATM    4  N1  UNL     1      -1.972  -1.978  -0.414  1.00  0.00    -0.316 N 
ATOM      5  H1  UNL     1      -1.603  -2.928  -0.461  1.00  0.00     0.170 HD
HETATM    6  C5  UNL     1      -1.215  -0.858  -0.465  1.00  0.00     0.161 A 
HETATM    7  C13 UNL     1      -2.088   0.221  -0.371  1.00  0.00     0.103 A 
HETATM    8  C14 UNL     1      -1.946   1.585  -0.366  1.00  0.00     0.275 A 
HETATM    9  O7  UNL     1      -0.779   2.045  -0.464  1.00  0.00    -0.266 OA
HETATM   10  N4  UNL     1      -3.036   2.353  -0.260  1.00  0.00    -0.262 N 
ATOM     11  H4  UNL     1      -2.897   3.364  -0.260  1.00  0.00     0.190 HD
HETATM   12  N5  UNL     1      -4.285   1.910  -0.155  1.00  0.00    -0.272 N 
HETATM   13  C15 UNL     1      -5.383   2.891  -0.050  1.00  0.00     0.180 C 
ENDROOT
BRANCH   6  14
HETATM   14  O3  UNL     1       0.176  -0.778  -0.589  1.00  0.00    -0.332 OA
BRANCH  14  15
HETATM   15  C6  UNL     1       0.904  -1.987  -0.674  1.00  0.00     0.210 C 
BRANCH  15  16
HETATM   16  C7  UNL     1       2.373  -1.811  -0.801  1.00  0.00     0.159 C 
BRANCH  16  17
HETATM   17  O4  UNL     1       2.687  -1.082  -1.933  1.00  0.00    -0.392 OA
ATOM     18  H4  UNL     1       3.627  -0.969  -2.014  1.00  0.00     0.210 HD
ENDBRANCH  16  17
BRANCH  16  19
HETATM   19  C8  UNL     1       3.028  -1.152   0.401  1.00  0.00     0.148 C 
BRANCH  19  20
HETATM   20  N2  UNL     1       4.445  -1.179   0.135  1.00  0.00    -0.406 N 
ATOM     21  H2  UNL     1       4.831  -1.570  -0.724  1.00  0.00     0.154 HD
BRANCH  20  22
HETATM   22  C9  UNL     1       5.269  -0.622   1.156  1.00  0.00     0.178 C 
HETATM   23  C10 UNL     1       5.052   0.843   1.423  1.00  0.00     0.137 C 
HETATM   24  C11 UNL     1       6.207   1.539   0.793  1.00  0.00     0.226 C 
HETATM   25  O5  UNL     1       6.242   2.768   0.554  1.00  0.00    -0.273 OA
HETATM   26  N3  UNL     1       7.213   0.577   0.531  1.00  0.00    -0.296 N 
HETATM   27  C12 UNL     1       6.690  -0.737   0.701  1.00  0.00     0.247 C 
ATOM     28  H3  UNL     1       8.172   0.794   0.260  1.00  0.00     0.171 HD
HETATM   29  O6  UNL     1       7.343  -1.788   0.493  1.00  0.00    -0.271 OA
ENDBRANCH  20  22
ENDBRANCH  19  20
ENDBRANCH  16  19
ENDBRANCH  15  16
ENDBRANCH  14  15
ENDBRANCH   6  14
BRANCH   3  30
HETATM   30  O2  UNL     1      -4.371  -2.544  -0.208  1.00  0.00    -0.345 OA
ATOM     31  H2  UNL     1      -4.270  -3.488  -0.231  1.00  0.00     0.219 HD
ENDBRANCH   3  30
BRANCH   1  32
HETATM   32  O1  UNL     1      -5.757   0.033  -0.048  1.00  0.00    -0.339 OA
HETATM   33  C1  UNL     1      -7.038   0.462   0.071  1.00  0.00     0.211 C 
ENDBRANCH   1  32
TORSDOF 9
