REMARK  5 active torsions:
REMARK  status: ('A' for Active; 'I' for Inactive)
REMARK    1  A    between atoms: C1_2  and  N2_4 
REMARK    2  A    between atoms: N2_4  and  N3_6 
REMARK    3  A    between atoms: N4_11  and  C5_12 
REMARK    4  A    between atoms: C5_12  and  N5_14 
REMARK    5  A    between atoms: N5_14  and  C6_16 
ROOT
HETATM    1  N3  UNL     1       1.860  -0.526  -0.294  1.00  0.00    -0.305 N 
ATOM      2  H3  UNL     1       2.085  -1.345  -0.859  1.00  0.00     0.186 HD
HETATM    3  C2  UNL     1       0.736  -0.514   0.272  1.00  0.00     0.023 C 
HETATM    4  C3  UNL     1       0.172   0.527   1.127  1.00  0.00     0.075 C 
HETATM    5  C4  UNL     1      -1.260   0.614   0.576  1.00  0.00     0.131 C 
HETATM    6  N4  UNL     1      -1.516  -0.643  -0.024  1.00  0.00    -0.352 N 
HETATM    7  C7  UNL     1      -0.317  -1.533   0.233  1.00  0.00     0.179 C 
ENDROOT
BRANCH   1   8
HETATM    8  N2  UNL     1       2.824   0.474  -0.221  1.00  0.00    -0.279 N 
ATOM      9  H2  UNL     1       2.551   1.436  -0.423  1.00  0.00     0.189 HD
BRANCH   8  10
HETATM   10  C1  UNL     1       4.165   0.207   0.122  1.00  0.00     0.199 C 
HETATM   11  N1  UNL     1       5.115   1.252   0.186  1.00  0.00    -0.068 NA
HETATM   12  S1  UNL     1       4.637  -1.321   0.452  1.00  0.00    -0.043 SA
ENDBRANCH   8  10
ENDBRANCH   1   8
BRANCH   6  13
HETATM   13  C5  UNL     1      -2.580  -1.173  -0.743  1.00  0.00     0.176 C 
HETATM   14  S2  UNL     1      -2.326  -2.791  -1.244  1.00  0.00    -0.041 SA
BRANCH  13  15
HETATM   15  N5  UNL     1      -3.787  -0.658  -1.134  1.00  0.00    -0.311 N 
ATOM     16  H5  UNL     1      -4.367  -1.305  -1.668  1.00  0.00     0.170 HD
BRANCH  15  17
HETATM   17  C6  UNL     1      -4.361   0.590  -0.932  1.00  0.00     0.355 C 
HETATM   18  O1  UNL     1      -3.933   1.565  -0.345  1.00  0.00    -0.283 OA
ENDBRANCH  15  17
ENDBRANCH  13  15
ENDBRANCH   6  13
TORSDOF 5
