REMARK  5 active torsions:
REMARK  status: ('A' for Active; 'I' for Inactive)
REMARK    1  A    between atoms: C2_2  and  C3_3 
REMARK    2  A    between atoms: C3_3  and  N1_4 
REMARK       I    between atoms: N1_4  and  C4_6 
REMARK       I    between atoms: C4_6  and  N2_8 
REMARK    3  A    between atoms: N2_8  and  N3_10 
REMARK    4  A    between atoms: N3_10  and  C5_12 
REMARK    5  A    between atoms: C5_12  and  N4_14 
ROOT
HETATM    1  N3  UNL     1      -0.393   0.613  -0.840  1.00  0.00    -0.272 N 
ATOM      2  H3  UNL     1      -0.820   1.526  -0.684  1.00  0.00     0.189 HD
ENDROOT
BRANCH   1   3
HETATM    3  N2  UNL     1       0.821   0.547  -1.508  1.00  0.00    -0.249 N 
HETATM    4  C4  UNL     1       1.972   0.088  -0.827  1.00  0.00     0.335 C 
HETATM    5  N1  UNL     1       3.194   0.019  -1.511  1.00  0.00    -0.338 N 
HETATM    6  O1  UNL     1       1.882  -0.251   0.384  1.00  0.00    -0.246 OA
ATOM      7  H1  UNL     1       3.233   0.302  -2.490  1.00  0.00     0.164 HD
ATOM      8  H2  UNL     1       0.883   0.828  -2.486  1.00  0.00     0.192 HD
BRANCH   5   9
HETATM    9  C3  UNL     1       4.393  -0.440  -0.866  1.00  0.00     0.151 C 
BRANCH   9  10
HETATM   10  C2  UNL     1       4.738   0.411   0.294  1.00  0.00    -0.018 C 
HETATM   11  C1  UNL     1       5.880   1.073   0.318  1.00  0.00     0.008 C 
ENDBRANCH   9  10
ENDBRANCH   5   9
ENDBRANCH   1   3
BRANCH   1  12
HETATM   12  C5  UNL     1      -1.059  -0.538  -0.368  1.00  0.00     0.189 C 
HETATM   13  S1  UNL     1      -0.460  -2.059  -0.582  1.00  0.00    -0.039 SA
BRANCH  12  14
HETATM   14  N4  UNL     1      -2.298  -0.384   0.305  1.00  0.00    -0.353 N 
HETATM   15  C6  UNL     1      -3.025  -1.547   0.821  1.00  0.00     0.151 C 
HETATM   16  C7  UNL     1      -4.510  -1.258   0.692  1.00  0.00     0.187 C 
HETATM   17  O2  UNL     1      -4.822  -0.253   1.580  1.00  0.00    -0.388 OA
HETATM   18  C8  UNL     1      -3.986   0.840   1.581  1.00  0.00     0.187 C 
HETATM   19  C9  UNL     1      -2.944   0.890   0.521  1.00  0.00     0.151 C 
ENDBRANCH  12  14
ENDBRANCH   1  12
TORSDOF 5
