REMARK  4 active torsions:
REMARK  status: ('A' for Active; 'I' for Inactive)
REMARK       I    between atoms: C1_2  and  N2_4 
REMARK       I    between atoms: N2_4  and  C2_6 
REMARK       I    between atoms: C2_6  and  N3_8 
REMARK    1  A    between atoms: N4_11  and  C5_12 
REMARK    2  A    between atoms: C5_12  and  C6_13 
REMARK    3  A    between atoms: C6_13  and  C7_14 
REMARK       I    between atoms: C7_14  and  N5_16 
REMARK    4  A    between atoms: N5_16  and  C8_18 
ROOT
HETATM    1  C5  UNL     1       1.074  -1.755  -0.461  1.00  0.00     0.168 C 
HETATM    2  C18 UNL     1       0.630  -2.958   0.335  1.00  0.00     0.042 C 
HETATM    3  C19 UNL     1       0.429  -3.725  -0.963  1.00  0.00     0.005 C 
HETATM    4  C20 UNL     1       0.694  -2.459  -1.707  1.00  0.00     0.042 C 
ENDROOT
BRANCH   1   5
HETATM    5  N4  UNL     1       2.512  -1.601  -0.316  1.00  0.00     0.101 N 
HETATM    6  C4  UNL     1       2.916  -1.364   1.041  1.00  0.00     0.293 C 
HETATM    7  C3  UNL     1       3.588  -0.017   1.242  1.00  0.00     0.158 C 
HETATM    8  N3  UNL     1       4.680   0.120   0.324  1.00  0.00    -0.331 N 
HETATM    9  C2  UNL     1       5.819   0.938   0.637  1.00  0.00     0.326 C 
HETATM   10  C22 UNL     1       4.581  -0.606  -0.939  1.00  0.00     0.158 C 
HETATM   11  N2  UNL     1       6.900   1.077  -0.260  1.00  0.00    -0.263 N 
HETATM   12  O2  UNL     1       5.831   1.531   1.733  1.00  0.00    -0.247 OA
HETATM   13  C1  UNL     1       7.994   1.903   0.113  1.00  0.00     0.336 C 
ATOM     14  H2  UNL     1       6.896   0.594  -1.158  1.00  0.00     0.174 HD
HETATM   15  N1  UNL     1       9.115   2.067  -0.776  1.00  0.00    -0.040 NA
HETATM   16  O1  UNL     1       8.028   2.513   1.211  1.00  0.00    -0.251 OA
HETATM   17  C21 UNL     1       3.079  -0.667  -1.235  1.00  0.00     0.293 C 
ENDBRANCH   1   5
BRANCH   1  18
HETATM   18  C6  UNL     1       0.380  -0.516  -0.070  1.00  0.00     0.144 C 
BRANCH  18  19
HETATM   19  C7  UNL     1      -1.080  -0.505  -0.160  1.00  0.00     0.220 C 
HETATM   20  O3  UNL     1      -1.695  -1.500  -0.563  1.00  0.00    -0.274 OA
HETATM   21  N5  UNL     1      -1.807   0.652   0.215  1.00  0.00    -0.352 N 
ATOM     22  H5  UNL     1      -1.269   1.456   0.539  1.00  0.00     0.163 HD
BRANCH  21  23
HETATM   23  C8  UNL     1      -3.237   0.792   0.179  1.00  0.00     0.034 C 
HETATM   24  C9  UNL     1      -3.606   2.221   0.617  1.00  0.00     0.035 C 
HETATM   25  C10 UNL     1      -5.090   2.410   0.728  1.00  0.00    -0.012 C 
HETATM   26  C11 UNL     1      -5.707   2.143  -0.623  1.00  0.00     0.009 C 
HETATM   27  C15 UNL     1      -5.571   1.415   1.770  1.00  0.00     0.009 C 
HETATM   28  C12 UNL     1      -5.346   0.742  -1.044  1.00  0.00    -0.012 C 
HETATM   29  C13 UNL     1      -5.950  -0.228  -0.065  1.00  0.00     0.009 C 
HETATM   30  C17 UNL     1      -3.839   0.566  -1.162  1.00  0.00     0.035 C 
HETATM   31  C14 UNL     1      -5.331   0.024   1.290  1.00  0.00    -0.012 C 
HETATM   32  C16 UNL     1      -3.837  -0.200   1.161  1.00  0.00     0.035 C 
ENDBRANCH  21  23
ENDBRANCH  18  19
ENDBRANCH   1  18
TORSDOF 4
