REMARK  12 active torsions:
REMARK  status: ('A' for Active; 'I' for Inactive)
REMARK    1  A    between atoms: C7_7  and  C8_8 
REMARK    2  A    between atoms: C8_8  and  C9_9 
REMARK    3  A    between atoms: C14_15  and  C15_16 
REMARK    4  A    between atoms: C17_18  and  O2_19 
REMARK    5  A    between atoms: O2_19  and  C18_20 
REMARK    6  A    between atoms: C18_20  and  C19_21 
REMARK    7  A    between atoms: C19_21  and  O3_22 
REMARK    8  A    between atoms: C19_21  and  C20_24 
REMARK    9  A    between atoms: C20_24  and  O4_25 
REMARK   10  A    between atoms: O4_25  and  C21_26 
REMARK   11  A    between atoms: C24_29  and  C25_30 
REMARK   12  A    between atoms: C25_30  and  O5_31 
ROOT
HETATM    1  C19 UNL     1      -0.631  -0.432  -1.723  1.00  0.00     0.165 C 
ENDROOT
BRANCH   1   2
HETATM    2  C18 UNL     1       0.591  -0.964  -2.358  1.00  0.00     0.202 C 
BRANCH   2   3
HETATM    3  O2  UNL     1       1.521  -1.618  -1.636  1.00  0.00    -0.378 OA
BRANCH   3   4
HETATM    4  C17 UNL     1       2.176  -0.989  -0.646  1.00  0.00     0.159 C 
HETATM    5  C2  UNL     1       1.958  -1.580   0.705  1.00  0.00    -0.060 C 
HETATM    6  C1  UNL     1       1.388  -2.731   0.964  1.00  0.00     0.017 C 
HETATM    7  C3  UNL     1       2.451  -0.730   1.810  1.00  0.00     0.037 C 
HETATM    8  C4  UNL     1       3.678   0.007   1.523  1.00  0.00     0.016 C 
HETATM    9  C5  UNL     1       4.180   0.106   0.121  1.00  0.00     0.054 C 
HETATM   10  C6  UNL     1       5.654   0.097   0.243  1.00  0.00     0.047 C 
HETATM   11  C14 UNL     1       3.715  -0.959  -0.833  1.00  0.00     0.001 C 
HETATM   12  C7  UNL     1       6.413   1.123   0.126  1.00  0.00     0.006 C 
HETATM   13  O1  UNL     1       6.183  -1.191   0.518  1.00  0.00    -0.355 OA
HETATM   14  C12 UNL     1       5.400  -2.325   0.447  1.00  0.00     0.176 C 
HETATM   15  C13 UNL     1       4.315  -2.293  -0.576  1.00  0.00     0.040 C 
BRANCH  12  16
HETATM   16  C8  UNL     1       6.006   2.492  -0.145  1.00  0.00     0.033 C 
BRANCH  16  17
HETATM   17  C9  UNL     1       6.507   3.470   0.917  1.00  0.00    -0.019 C 
HETATM   18  C10 UNL     1       8.018   3.384   0.912  1.00  0.00     0.010 C 
HETATM   19  C11 UNL     1       5.914   3.075   2.232  1.00  0.00     0.010 C 
ENDBRANCH  16  17
ENDBRANCH  12  16
BRANCH  11  20
HETATM   20  C15 UNL     1       3.884  -0.526  -2.275  1.00  0.00     0.009 C 
HETATM   21  C16 UNL     1       5.248  -0.232  -2.753  1.00  0.00     0.006 C 
ENDBRANCH  11  20
ENDBRANCH   3   4
ENDBRANCH   2   3
ENDBRANCH   1   2
BRANCH   1  22
HETATM   22  O3  UNL     1      -0.489   0.488  -0.721  1.00  0.00    -0.391 OA
ATOM     23  H3  UNL     1      -1.275   0.830  -0.312  1.00  0.00     0.210 HD
ENDBRANCH   1  22
BRANCH   1  24
HETATM   24  C20 UNL     1      -1.667  -1.517  -1.365  1.00  0.00     0.202 C 
BRANCH  24  25
HETATM   25  O4  UNL     1      -2.833  -0.884  -1.174  1.00  0.00    -0.382 OA
BRANCH  25  26
HETATM   26  C21 UNL     1      -3.957  -1.517  -0.834  1.00  0.00     0.133 C 
HETATM   27  C22 UNL     1      -4.360  -1.084   0.562  1.00  0.00     0.018 C 
HETATM   28  C23 UNL     1      -3.204  -1.323   1.465  1.00  0.00     0.013 C 
HETATM   29  C24 UNL     1      -4.805   0.347   0.453  1.00  0.00     0.026 C 
HETATM   30  C30 UNL     1      -6.144   0.304  -0.201  1.00  0.00     0.009 C 
HETATM   31  C31 UNL     1      -5.985  -0.230  -1.630  1.00  0.00     0.012 C 
HETATM   32  C32 UNL     1      -5.146  -1.450  -1.719  1.00  0.00    -0.021 C 
HETATM   33  C33 UNL     1      -6.031  -2.635  -1.361  1.00  0.00     0.017 C 
HETATM   34  C34 UNL     1      -4.776  -1.641  -3.186  1.00  0.00     0.017 C 
BRANCH  29  35
HETATM   35  C25 UNL     1      -4.833   1.082   1.750  1.00  0.00     0.062 C 
HETATM   36  C26 UNL     1      -5.809   0.592   2.757  1.00  0.00     0.038 C 
HETATM   37  C27 UNL     1      -6.261   1.832   3.515  1.00  0.00     0.003 C 
HETATM   38  C28 UNL     1      -5.515   2.990   2.933  1.00  0.00     0.003 C 
HETATM   39  C29 UNL     1      -5.161   2.548   1.506  1.00  0.00     0.038 C 
BRANCH  35  40
HETATM   40  O5  UNL     1      -3.572   1.115   2.363  1.00  0.00    -0.389 OA
ATOM     41  H5  UNL     1      -3.590   1.583   3.189  1.00  0.00     0.210 HD
ENDBRANCH  35  40
ENDBRANCH  29  35
ENDBRANCH  25  26
ENDBRANCH  24  25
ENDBRANCH   1  24
TORSDOF 12
