REMARK  11 active torsions:
REMARK  status: ('A' for Active; 'I' for Inactive)
REMARK    1  A    between atoms: C2_2  and  C3_3 
REMARK    2  A    between atoms: C2_2  and  O4_19 
REMARK    3  A    between atoms: C4_4  and  C5_5 
REMARK    4  A    between atoms: C5_5  and  O1_6 
REMARK    5  A    between atoms: C5_5  and  C6_8 
REMARK    6  A    between atoms: C9_12  and  O3_13 
REMARK    7  A    between atoms: O4_19  and  C14_20 
REMARK    8  A    between atoms: C14_20  and  C15_21 
REMARK    9  A    between atoms: C14_20  and  C23_35 
REMARK   10  A    between atoms: C15_21  and  C16_22 
REMARK   11  A    between atoms: C23_35  and  C24_37 
ROOT
HETATM    1  C14 UNL     1      -1.995   0.155   0.343  1.00  0.00     0.199 C 
ENDROOT
BRANCH   1   2
HETATM    2  O4  UNL     1      -0.735   0.457  -0.289  1.00  0.00    -0.369 OA
BRANCH   2   3
HETATM    3  C2  UNL     1       0.060  -0.683  -0.278  1.00  0.00     0.141 C 
HETATM    4  C1  UNL     1       0.476  -0.972  -1.708  1.00  0.00     0.044 C 
BRANCH   3   5
HETATM    5  C3  UNL     1       1.272  -0.482   0.529  1.00  0.00     0.003 C 
HETATM    6  C4  UNL     1       2.404  -1.103   0.190  1.00  0.00     0.004 C 
BRANCH   6   7
HETATM    7  C5  UNL     1       3.679  -0.963   0.943  1.00  0.00     0.152 C 
BRANCH   7   8
HETATM    8  O1  UNL     1       3.984  -2.252   1.440  1.00  0.00    -0.391 OA
ATOM      9  H1  UNL     1       4.798  -2.163   1.921  1.00  0.00     0.210 HD
ENDBRANCH   7   8
BRANCH   7  10
HETATM   10  C6  UNL     1       4.788  -0.508   0.057  1.00  0.00     0.095 C 
HETATM   11  C7  UNL     1       4.501   0.809  -0.556  1.00  0.00     0.137 C 
HETATM   12  O2  UNL     1       3.537   1.469  -0.237  1.00  0.00    -0.297 OA
HETATM   13  C8  UNL     1       5.418   1.342  -1.594  1.00  0.00     0.110 C 
HETATM   14  C9  UNL     1       6.757   0.636  -1.413  1.00  0.00     0.126 C 
HETATM   15  C10 UNL     1       6.985   0.547   0.088  1.00  0.00     0.041 C 
HETATM   16  C11 UNL     1       6.138  -0.549   0.720  1.00  0.00    -0.032 C 
HETATM   17  C12 UNL     1       6.862  -1.854   0.449  1.00  0.00     0.016 C 
HETATM   18  C13 UNL     1       6.083  -0.306   2.199  1.00  0.00     0.016 C 
BRANCH  14  19
HETATM   19  O3  UNL     1       7.776   1.402  -1.962  1.00  0.00    -0.395 OA
ATOM     20  H3  UNL     1       8.610   0.962  -1.849  1.00  0.00     0.210 HD
ENDBRANCH  14  19
ENDBRANCH   7  10
ENDBRANCH   6   7
ENDBRANCH   3   5
ENDBRANCH   2   3
ENDBRANCH   1   2
BRANCH   1  21
HETATM   21  C15 UNL     1      -2.905   0.059  -0.866  1.00  0.00     0.141 C 
BRANCH  21  22
HETATM   22  C16 UNL     1      -4.288  -0.255  -0.798  1.00  0.00     0.349 C 
HETATM   23  N1  UNL     1      -5.232   0.547  -0.075  1.00  0.00     0.004 N 
HETATM   24  C17 UNL     1      -6.442  -0.113  -0.660  1.00  0.00     0.244 C 
ATOM     25  H12 UNL     1      -5.151   0.578   0.941  1.00  0.00     0.285 HD
ATOM     26  H11 UNL     1      -5.156   1.561  -0.156  1.00  0.00     0.285 HD
HETATM   27  C18 UNL     1      -7.697   0.346  -0.110  1.00  0.00     0.061 C 
HETATM   28  C19 UNL     1      -6.151   0.198  -2.072  1.00  0.00     0.302 C 
HETATM   29  C20 UNL     1      -6.050  -1.543  -0.425  1.00  0.00     0.102 C 
HETATM   30  O5  UNL     1      -6.934   0.629  -2.952  1.00  0.00    -0.262 OA
HETATM   31  O6  UNL     1      -4.802  -0.108  -2.163  1.00  0.00    -0.256 OA
HETATM   32  C21 UNL     1      -6.444  -2.449  -1.562  1.00  0.00     0.049 C 
HETATM   33  C22 UNL     1      -6.657  -2.113   0.835  1.00  0.00     0.049 C 
HETATM   34  O7  UNL     1      -4.649  -1.529  -0.357  1.00  0.00    -0.319 OA
ENDBRANCH  21  22
ENDBRANCH   1  21
BRANCH   1  35
HETATM   35  C23 UNL     1      -2.307   1.271   1.214  1.00  0.00     0.159 C 
HETATM   36  O8  UNL     1      -3.106   1.092   2.166  1.00  0.00    -0.295 OA
BRANCH  35  37
HETATM   37  C24 UNL     1      -1.762   2.639   1.076  1.00  0.00     0.050 C 
HETATM   38  C25 UNL     1      -0.306   2.804   1.258  1.00  0.00     0.017 C 
HETATM   39  C26 UNL     1      -2.479   3.533   2.104  1.00  0.00     0.017 C 
ENDBRANCH  35  37
ENDBRANCH   1  35
TORSDOF 11
