REMARK  16 active torsions:
REMARK  status: ('A' for Active; 'I' for Inactive)
REMARK    1  A    between atoms: C1_2  and  C2_4 
REMARK    2  A    between atoms: N4_9  and  C3_10 
REMARK    3  A    between atoms: C4_11  and  O2_12 
REMARK    4  A    between atoms: C6_15  and  C7_16 
REMARK    5  A    between atoms: C7_16  and  O3_17 
REMARK    6  A    between atoms: C7_16  and  N5_19 
REMARK    7  A    between atoms: N5_19  and  C8_22 
REMARK    8  A    between atoms: C8_22  and  C9_23 
REMARK    9  A    between atoms: C8_22  and  C14_41 
REMARK   10  A    between atoms: C9_23  and  C10_24 
REMARK   11  A    between atoms: C10_24  and  N6_25 
REMARK   12  A    between atoms: N6_25  and  O4_26 
REMARK       I    between atoms: N6_25  and  C11_28 
REMARK       I    between atoms: C11_28  and  N7_30 
REMARK   13  A    between atoms: C12_31  and  N8_32 
REMARK   14  A    between atoms: C13_36  and  N9_37 
REMARK   15  A    between atoms: C17_48  and  O8_49 
REMARK   16  A    between atoms: C18_51  and  O9_52 
ROOT
HETATM    1  C7  UNL     1       0.571   1.556  -0.148  1.00  0.00     0.358 C 
ENDROOT
BRANCH   1   2
HETATM    2  C6  UNL     1       1.709   0.642  -0.078  1.00  0.00     0.052 C 
HETATM    3  C5  UNL     1       2.908   1.186  -0.491  1.00  0.00     0.054 C 
HETATM    4  C4  UNL     1       4.214   0.846  -0.124  1.00  0.00     0.098 C 
HETATM    5  C3  UNL     1       4.582  -0.399   0.356  1.00  0.00     0.128 C 
HETATM    6  C17 UNL     1       3.812  -1.457   0.838  1.00  0.00     0.126 C 
HETATM    7  C16 UNL     1       2.447  -1.478   0.954  1.00  0.00     0.132 C 
HETATM    8  C15 UNL     1       1.503  -0.640   0.381  1.00  0.00     0.209 C 
HETATM    9  N11 UNL     1       1.899  -2.508   1.782  1.00  0.00    -0.095 NA
HETATM   10  O7  UNL     1       0.314  -1.095   0.261  1.00  0.00    -0.286 OA
BRANCH   4  11
HETATM   11  O2  UNL     1       5.200   1.813  -0.246  1.00  0.00    -0.358 OA
ATOM     12  H2  UNL     1       4.947   2.668  -0.575  1.00  0.00     0.217 HD
ENDBRANCH   4  11
BRANCH   5  13
HETATM   13  N4  UNL     1       5.984  -0.660   0.365  1.00  0.00    -0.212 N 
HETATM   14  N3  UNL     1       6.725  -1.090   1.366  1.00  0.00    -0.233 N 
HETATM   15  N2  UNL     1       7.990  -1.218   1.012  1.00  0.00    -0.277 N 
ATOM     16  H3  UNL     1       6.366  -1.298   2.298  1.00  0.00     0.209 HD
HETATM   17  C2  UNL     1       8.087  -0.856  -0.280  1.00  0.00     0.167 A 
ATOM     18  H2  UNL     1       8.754  -1.534   1.609  1.00  0.00     0.189 HD
HETATM   19  C18 UNL     1       6.803  -0.501  -0.684  1.00  0.00     0.197 A 
BRANCH  17  20
HETATM   20  C1  UNL     1       9.300  -0.840  -1.095  1.00  0.00     0.287 C 
HETATM   21  N1  UNL     1       9.321  -0.446  -2.450  1.00  0.00    -0.056 NA
HETATM   22  O1  UNL     1      10.374  -1.195  -0.556  1.00  0.00    -0.269 OA
ENDBRANCH  17  20
BRANCH  19  23
HETATM   23  O9  UNL     1       6.533  -0.071  -1.976  1.00  0.00    -0.343 OA
ATOM     24  H9  UNL     1       5.657   0.171  -2.252  1.00  0.00     0.219 HD
ENDBRANCH  19  23
ENDBRANCH   5  13
BRANCH   6  25
HETATM   25  O8  UNL     1       4.502  -2.592   1.237  1.00  0.00    -0.356 OA
ATOM     26  H8  UNL     1       3.977  -3.313   1.565  1.00  0.00     0.218 HD
ENDBRANCH   6  25
ENDBRANCH   1   2
BRANCH   1  27
HETATM   27  O3  UNL     1       0.482   2.271  -1.341  1.00  0.00    -0.366 OA
ATOM     28  H3  UNL     1      -0.258   2.865  -1.387  1.00  0.00     0.212 HD
ENDBRANCH   1  27
BRANCH   1  29
HETATM   29  N5  UNL     1      -0.697   1.003   0.241  1.00  0.00    -0.032 N 
ATOM     30  H52 UNL     1      -0.927   0.141  -0.254  1.00  0.00     0.281 HD
ATOM     31  H51 UNL     1      -0.692   0.615   1.184  1.00  0.00     0.281 HD
BRANCH  29  32
HETATM   32  C8  UNL     1      -1.702   2.059   0.057  1.00  0.00     0.279 C 
BRANCH  32  33
HETATM   33  C9  UNL     1      -3.079   1.486  -0.200  1.00  0.00     0.065 C 
BRANCH  33  34
HETATM   34  C10 UNL     1      -3.545   0.625   0.955  1.00  0.00     0.163 C 
BRANCH  34  35
HETATM   35  N6  UNL     1      -4.863   0.094   0.693  1.00  0.00    -0.210 N 
HETATM   36  C11 UNL     1      -5.098  -1.135   0.043  1.00  0.00     0.347 C 
HETATM   37  O5  UNL     1      -4.121  -1.822  -0.340  1.00  0.00    -0.245 OA
HETATM   38  N7  UNL     1      -6.402  -1.639  -0.201  1.00  0.00    -0.268 N 
HETATM   39  C12 UNL     1      -7.874  -1.421  -0.058  1.00  0.00     0.340 A 
HETATM   40  C13 UNL     1      -7.320  -2.663  -0.728  1.00  0.00     0.340 A 
BRANCH  35  41
HETATM   41  O4  UNL     1      -5.933   0.835   1.102  1.00  0.00    -0.283 OA
ATOM     42  H4  UNL     1      -6.800   0.486   0.930  1.00  0.00     0.245 HD
ENDBRANCH  35  41
BRANCH  39  43
HETATM   43  N8  UNL     1      -8.411  -1.576   1.288  1.00  0.00    -0.054 N 
ATOM     44  H83 UNL     1      -8.158  -2.492   1.659  1.00  0.00     0.276 HD
ATOM     45  H82 UNL     1      -7.906  -0.971   1.935  1.00  0.00     0.276 HD
ATOM     46  H81 UNL     1      -9.415  -1.427   1.386  1.00  0.00     0.276 HD
ENDBRANCH  39  43
BRANCH  40  47
HETATM   47  N9  UNL     1      -7.540  -2.695  -2.166  1.00  0.00    -0.054 N 
ATOM     48  H93 UNL     1      -7.846  -1.774  -2.480  1.00  0.00     0.276 HD
ATOM     49  H92 UNL     1      -6.641  -2.771  -2.643  1.00  0.00     0.276 HD
ATOM     50  H91 UNL     1      -8.176  -3.404  -2.531  1.00  0.00     0.276 HD
ENDBRANCH  40  47
ENDBRANCH  34  35
ENDBRANCH  33  34
ENDBRANCH  32  33
BRANCH  32  51
HETATM   51  C14 UNL     1      -1.736   2.951   1.267  1.00  0.00     0.262 C 
HETATM   52  N10 UNL     1      -2.630   4.049   1.307  1.00  0.00    -0.060 NA
HETATM   53  O6  UNL     1      -0.996   2.769   2.265  1.00  0.00    -0.275 OA
ENDBRANCH  32  51
ENDBRANCH  29  32
ENDBRANCH   1  29
TORSDOF 16
