REMARK  10 active torsions:
REMARK  status: ('A' for Active; 'I' for Inactive)
REMARK    1  A    between atoms: S1_2  and  C2_3 
REMARK    2  A    between atoms: C3_8  and  C4_9 
REMARK    3  A    between atoms: C5_10  and  C6_11 
REMARK    4  A    between atoms: N3_12  and  N4_14 
REMARK       I    between atoms: C7_16  and  N6_18 
REMARK    5  A    between atoms: N6_18  and  C8_20 
REMARK    6  A    between atoms: C9_25  and  C10_26 
REMARK       I    between atoms: C10_26  and  N9_28 
REMARK    7  A    between atoms: N9_28  and  N10_30 
REMARK    8  A    between atoms: C11_33  and  N11_34 
REMARK    9  A    between atoms: N11_34  and  O2_36 
REMARK   10  A    between atoms: C12_43  and  N14_44 
ROOT
HETATM    1  N4  UNL     1       0.407   0.953   1.904  1.00  0.00    -0.273 N 
ATOM      2  H4  UNL     1       0.838   1.861   2.079  1.00  0.00     0.189 HD
HETATM    3  C7  UNL     1      -0.764   0.723   2.379  1.00  0.00     0.221 C 
HETATM    4  N5  UNL     1      -1.403   1.746   3.125  1.00  0.00    -0.061 NA
HETATM    5  N6  UNL     1      -1.440  -0.502   2.189  1.00  0.00    -0.161 N 
ATOM      6  H6  UNL     1      -1.101  -1.325   2.687  1.00  0.00     0.187 HD
ENDROOT
BRANCH   1   7
HETATM    7  N3  UNL     1       1.113   0.007   1.157  1.00  0.00    -0.307 N 
HETATM    8  C6  UNL     1       2.298   0.307   0.745  1.00  0.00     0.147 C 
ATOM      9  H3  UNL     1       0.701  -0.901   0.942  1.00  0.00     0.186 HD
BRANCH   8  10
HETATM   10  C5  UNL     1       2.895   1.600   1.044  1.00  0.00     0.134 A 
HETATM   11  C4  UNL     1       4.136   2.056   0.674  1.00  0.00     0.099 A 
HETATM   12  C12 UNL     1       4.221   3.327   1.201  1.00  0.00     0.137 A 
HETATM   13  N13 UNL     1       3.068   3.593   1.851  1.00  0.00    -0.244 N 
HETATM   14  O3  UNL     1       2.306   2.556   1.741  1.00  0.00    -0.234 OA
ATOM     15  H13 UNL     1       2.840   4.458   2.341  1.00  0.00     0.196 HD
BRANCH  11  16
HETATM   16  C3  UNL     1       5.116   1.326  -0.103  1.00  0.00     0.182 A 
HETATM   17  N2  UNL     1       6.316   1.831  -0.431  1.00  0.00    -0.276 N 
HETATM   18  N1  UNL     1       6.946   0.928  -1.124  1.00  0.00    -0.272 N 
ATOM     19  H2  UNL     1       6.670   2.755  -0.182  1.00  0.00     0.189 HD
HETATM   20  C2  UNL     1       6.155  -0.153  -1.241  1.00  0.00     0.203 A 
ATOM     21  H1  UNL     1       7.884   1.024  -1.514  1.00  0.00     0.189 HD
HETATM   22  O4  UNL     1       5.059   0.124  -0.612  1.00  0.00    -0.267 OA
BRANCH  20  23
HETATM   23  S1  UNL     1       6.653  -1.622  -2.124  1.00  0.00    -0.089 SA
HETATM   24  C1  UNL     1       5.378  -2.891  -2.102  1.00  0.00     0.099 C 
ENDBRANCH  20  23
ENDBRANCH  11  16
BRANCH  12  25
HETATM   25  N14 UNL     1       5.256   4.083   1.060  1.00  0.00    -0.383 N 
ATOM     26 2H14 UNL     1       6.127   3.882   0.569  1.00  0.00     0.157 HD
ATOM     27 1H14 UNL     1       5.319   5.023   1.450  1.00  0.00     0.157 HD
ENDBRANCH  12  25
ENDBRANCH   8  10
ENDBRANCH   1   7
BRANCH   5  28
HETATM   28  C8  UNL     1      -2.469  -0.632   1.414  1.00  0.00     0.701 A 
HETATM   29  N7  UNL     1      -2.992   0.387   0.717  1.00  0.00    -0.131 N 
HETATM   30  N8  UNL     1      -4.045   0.208  -0.063  1.00  0.00    -0.278 N 
ATOM     31  H7  UNL     1      -2.572   1.314   0.789  1.00  0.00     0.205 HD
HETATM   32  C9  UNL     1      -4.598  -1.010  -0.157  1.00  0.00     0.164 A 
ATOM     33  H8  UNL     1      -4.434   0.991  -0.589  1.00  0.00     0.188 HD
HETATM   34  C11 UNL     1      -4.062  -2.058   0.558  1.00  0.00     0.174 A 
HETATM   35  N12 UNL     1      -3.001  -1.885   1.346  1.00  0.00    -0.171 N 
ATOM     36  H12 UNL     1      -2.603  -2.660   1.877  1.00  0.00     0.186 HD
BRANCH  32  37
HETATM   37  C10 UNL     1      -5.755  -1.237  -1.006  1.00  0.00     0.291 C 
HETATM   38  O1  UNL     1      -6.268  -2.390  -1.088  1.00  0.00    -0.264 OA
HETATM   39  N9  UNL     1      -6.289  -0.141  -1.733  1.00  0.00    -0.271 N 
ATOM     40  H9  UNL     1      -5.848   0.774  -1.642  1.00  0.00     0.189 HD
BRANCH  39  41
HETATM   41  N10 UNL     1      -7.397  -0.278  -2.567  1.00  0.00    -0.342 N 
ATOM     42 2H10 UNL     1      -7.825  -1.200  -2.646  1.00  0.00     0.176 HD
ATOM     43 1H10 UNL     1      -7.781   0.510  -3.089  1.00  0.00     0.176 HD
ENDBRANCH  39  41
ENDBRANCH  32  37
BRANCH  34  44
HETATM   44  N11 UNL     1      -4.613  -3.214   0.447  1.00  0.00    -0.250 N 
ATOM     45  H11 UNL     1      -5.424  -3.320  -0.163  1.00  0.00     0.196 HD
BRANCH  44  46
HETATM   46  O2  UNL     1      -4.138  -4.317   1.130  1.00  0.00    -0.288 OA
ATOM     47  H2  UNL     1      -4.545  -5.171   1.048  1.00  0.00     0.244 HD
ENDBRANCH  44  46
ENDBRANCH  34  44
ENDBRANCH   5  28
TORSDOF 10
