REMARK  13 active torsions:
REMARK  status: ('A' for Active; 'I' for Inactive)
REMARK    1  A    between atoms: C2_2  and  C4_4 
REMARK    2  A    between atoms: C4_4  and  C5_5 
REMARK    3  A    between atoms: C4_4  and  C6_10 
REMARK    4  A    between atoms: C5_5  and  N1_6 
REMARK       I    between atoms: C6_10  and  N2_12 
REMARK    5  A    between atoms: C13_19  and  C14_20 
REMARK       I    between atoms: C14_20  and  N3_22 
REMARK    6  A    between atoms: N3_22  and  C15_24 
REMARK    7  A    between atoms: C15_24  and  C16_25 
REMARK    8  A    between atoms: C16_25  and  N4_26 
REMARK       I    between atoms: N4_26  and  C17_27 
REMARK    9  A    between atoms: N6_34  and  C22_35 
REMARK   10  A    between atoms: C22_35  and  O4_36 
REMARK   11  A    between atoms: C22_35  and  N7_38 
REMARK   12  A    between atoms: N7_38  and  C23_40 
REMARK   13  A    between atoms: C23_40  and  C24_41 
ROOT
HETATM    1  C6  UNL     1      -3.531  -0.035   0.351  1.00  0.00     0.244 C 
HETATM    2  O1  UNL     1      -3.787  -1.251   0.615  1.00  0.00    -0.271 OA
HETATM    3  N2  UNL     1      -2.275   0.400   0.013  1.00  0.00    -0.251 N 
HETATM    4  C7  UNL     1      -2.082   1.884   0.128  1.00  0.00     0.153 C 
HETATM    5  C8  UNL     1      -1.153   1.938   1.371  1.00  0.00     0.027 C 
HETATM    6  C9  UNL     1       0.279   1.890   1.063  1.00  0.00    -0.002 C 
HETATM    7  C10 UNL     1       1.051   2.448   2.240  1.00  0.00     0.005 C 
HETATM    8  C11 UNL     1       2.478   2.514   1.853  1.00  0.00     0.002 C 
HETATM    9  C12 UNL     1       2.744   2.084   0.422  1.00  0.00     0.020 C 
HETATM   10  C13 UNL     1       2.224   0.718   0.182  1.00  0.00     0.050 C 
HETATM   11  C18 UNL     1       2.159   0.398  -1.336  1.00  0.00     0.026 C 
HETATM   12  C19 UNL     1       1.084  -0.755  -1.245  1.00  0.00     0.056 C 
HETATM   13  C20 UNL     1       0.116   0.039  -0.476  1.00  0.00     0.022 C 
HETATM   14  C21 UNL     1       0.843   0.490   0.728  1.00  0.00     0.055 C 
HETATM   15  N6  UNL     1      -1.247  -0.437  -0.403  1.00  0.00    -0.223 N 
ENDROOT
BRANCH   1  16
HETATM   16  C4  UNL     1      -4.712   0.855   0.433  1.00  0.00     0.108 C 
BRANCH  16  17
HETATM   17  C2  UNL     1      -5.912   0.179   1.066  1.00  0.00    -0.008 C 
HETATM   18  C1  UNL     1      -5.552  -0.312   2.461  1.00  0.00     0.010 C 
HETATM   19  C3  UNL     1      -6.555  -0.902   0.295  1.00  0.00     0.010 C 
ENDBRANCH  16  17
BRANCH  16  20
HETATM   20  C5  UNL     1      -5.075   1.361  -0.955  1.00  0.00     0.244 C 
BRANCH  20  21
HETATM   21  N1  UNL     1      -6.152   2.344  -0.861  1.00  0.00    -0.079 N 
ATOM     22  H13 UNL     1      -6.963   1.977  -0.363  1.00  0.00     0.274 HD
ATOM     23  H12 UNL     1      -5.920   3.106  -0.224  1.00  0.00     0.274 HD
ATOM     24  H11 UNL     1      -6.395   2.683  -1.792  1.00  0.00     0.274 HD
ENDBRANCH  20  21
ENDBRANCH  16  20
ENDBRANCH   1  16
BRANCH  15  25
HETATM   25  C22 UNL     1      -1.556  -1.675  -0.945  1.00  0.00     0.239 C 
BRANCH  25  26
HETATM   26  O4  UNL     1      -0.562  -2.532  -0.777  1.00  0.00    -0.331 OA
ATOM     27  H4  UNL     1      -0.774  -3.380  -1.148  1.00  0.00     0.221 HD
ENDBRANCH  25  26
BRANCH  25  28
HETATM   28  N7  UNL     1      -2.635  -2.226  -1.629  1.00  0.00    -0.354 N 
ATOM     29  H7  UNL     1      -3.407  -1.595  -1.842  1.00  0.00     0.163 HD
BRANCH  28  30
HETATM   30  C23 UNL     1      -2.780  -3.573  -2.064  1.00  0.00     0.138 C 
BRANCH  30  31
HETATM   31  C24 UNL     1      -2.997  -4.653  -1.076  1.00  0.00     0.134 C 
HETATM   32 CL1  UNL     1      -1.851  -4.878   0.215  1.00  0.00    -0.129 Cl
ENDBRANCH  30  31
ENDBRANCH  28  30
ENDBRANCH  25  28
ENDBRANCH  15  25
BRANCH  10  33
HETATM   33  C14 UNL     1       3.276  -0.274   0.632  1.00  0.00     0.227 C 
HETATM   34  O2  UNL     1       2.969  -1.114   1.468  1.00  0.00    -0.273 OA
HETATM   35  N3  UNL     1       4.527  -0.132   0.027  1.00  0.00    -0.355 N 
ATOM     36  H3  UNL     1       4.567   0.648  -0.629  1.00  0.00     0.162 HD
BRANCH  35  37
HETATM   37  C15 UNL     1       5.763  -0.842   0.127  1.00  0.00     0.182 C 
BRANCH  37  38
HETATM   38  C16 UNL     1       6.723  -0.105  -0.820  1.00  0.00     0.180 C 
BRANCH  38  39
HETATM   39  N4  UNL     1       7.978  -0.554  -1.062  1.00  0.00    -0.370 NA
HETATM   40  C17 UNL     1       9.210  -0.996  -1.300  1.00  0.00     0.405 C 
HETATM   41  N5  UNL     1      10.407  -0.197  -1.002  1.00  0.00    -0.025 NA
HETATM   42  O3  UNL     1       9.585  -2.130  -1.803  1.00  0.00    -0.234 OA
ENDBRANCH  38  39
ENDBRANCH  37  38
ENDBRANCH  35  37
ENDBRANCH  10  33
TORSDOF 13
