REMARK  5 active torsions:
REMARK  status: ('A' for Active; 'I' for Inactive)
REMARK    1  A    between atoms: C3_3  and  C4_4 
REMARK    2  A    between atoms: C4_4  and  C5_5 
REMARK    3  A    between atoms: C5_5  and  C6_7 
REMARK    4  A    between atoms: C14_16  and  C15_17 
REMARK    5  A    between atoms: C15_17  and  O4_19 
ROOT
HETATM    1  C6  UNL     1       3.169  -0.457   0.305  1.00  0.00     0.133 C 
HETATM    2  C7  UNL     1       2.723   0.514   1.365  1.00  0.00     0.139 C 
HETATM    3  O2  UNL     1       2.956   0.514   2.534  1.00  0.00    -0.297 OA
HETATM    4  C8  UNL     1       1.910   1.462   0.515  1.00  0.00     0.084 C 
HETATM    5  C9  UNL     1       1.140   0.476  -0.338  1.00  0.00     0.006 C 
HETATM    6  C10 UNL     1      -0.299   0.364   0.126  1.00  0.00    -0.004 C 
HETATM    7  C11 UNL     1      -1.030   1.661  -0.044  1.00  0.00     0.006 C 
HETATM    8  C12 UNL     1      -2.489   1.428   0.362  1.00  0.00     0.007 C 
HETATM    9  C13 UNL     1      -3.077   0.518  -0.650  1.00  0.00     0.008 C 
HETATM   10  C14 UNL     1      -4.525   0.211  -0.444  1.00  0.00     0.090 C 
HETATM   11  C17 UNL     1      -4.569  -1.186   0.196  1.00  0.00     0.016 C 
HETATM   12  C18 UNL     1      -3.104  -1.555   0.445  1.00  0.00     0.011 C 
HETATM   13  C19 UNL     1      -2.383  -0.819  -0.644  1.00  0.00    -0.036 C 
HETATM   14  C20 UNL     1      -2.782  -1.516  -1.954  1.00  0.00     0.016 C 
HETATM   15  C21 UNL     1      -0.913  -0.794  -0.555  1.00  0.00    -0.002 C 
HETATM   16  C22 UNL     1      -0.332  -2.034   0.100  1.00  0.00     0.006 C 
HETATM   17  C23 UNL     1       1.057  -1.801   0.667  1.00  0.00     0.011 C 
HETATM   18  C24 UNL     1       1.830  -0.883  -0.212  1.00  0.00    -0.022 C 
HETATM   19  C25 UNL     1       2.038  -1.548  -1.554  1.00  0.00     0.016 C 
ENDROOT
BRANCH   1  20
HETATM   20  C5  UNL     1       4.153  -1.414   0.671  1.00  0.00     0.142 C 
HETATM   21  O1  UNL     1       3.941  -2.618   0.697  1.00  0.00    -0.297 OA
BRANCH  20  22
HETATM   22  C4  UNL     1       5.523  -0.991   1.050  1.00  0.00     0.106 C 
BRANCH  22  23
HETATM   23  C3  UNL     1       5.814   0.417   0.688  1.00  0.00    -0.024 C 
HETATM   24  C2  UNL     1       6.816   0.733  -0.156  1.00  0.00    -0.035 C 
HETATM   25  C1  UNL     1       7.080   2.135  -0.497  1.00  0.00     0.036 C 
ENDBRANCH  22  23
ENDBRANCH  20  22
ENDBRANCH   1  20
BRANCH  10  26
HETATM   26  C15 UNL     1      -5.285   1.118   0.411  1.00  0.00     0.263 C 
HETATM   27  O3  UNL     1      -4.828   1.660   1.432  1.00  0.00    -0.265 OA
BRANCH  26  28
HETATM   28  O4  UNL     1      -6.621   1.431   0.108  1.00  0.00    -0.326 OA
HETATM   29  C16 UNL     1      -7.344   2.326   0.961  1.00  0.00     0.213 C 
ENDBRANCH  26  28
ENDBRANCH  10  26
TORSDOF 5
