REMARK  10 active torsions:
REMARK  status: ('A' for Active; 'I' for Inactive)
REMARK    1  A    between atoms: C2_2  and  N1_3 
REMARK    2  A    between atoms: N1_3  and  C3_5 
REMARK    3  A    between atoms: C3_5  and  S2_7 
REMARK    4  A    between atoms: S2_7  and  C4_8 
REMARK    5  A    between atoms: C4_8  and  O1_10 
REMARK    6  A    between atoms: C4_8  and  C6_12 
REMARK    7  A    between atoms: C7_13  and  C8_14 
REMARK    8  A    between atoms: C8_14  and  N2_15 
REMARK    9  A    between atoms: N2_15  and  C9_17 
REMARK   10  A    between atoms: C9_17  and  N3_19 
ROOT
HETATM    1  C6  UNL     1       1.160  -1.940   0.783  1.00  0.00    -0.055 C 
HETATM    2  C7  UNL     1       0.153  -1.866   1.445  1.00  0.00    -0.083 C 
ENDROOT
BRANCH   1   3
HETATM    3  C4  UNL     1       2.392  -2.006  -0.042  1.00  0.00     0.173 C 
HETATM    4  C5  UNL     1       1.981  -2.476  -1.443  1.00  0.00     0.073 C 
BRANCH   3   5
HETATM    5  S2  UNL     1       3.102  -0.377  -0.058  1.00  0.00    -0.050 SA
BRANCH   5   6
HETATM    6  C3  UNL     1       4.641  -0.242  -0.902  1.00  0.00     0.138 C 
HETATM    7  S1  UNL     1       5.293  -1.561  -1.579  1.00  0.00    -0.053 SA
BRANCH   6   8
HETATM    8  N1  UNL     1       5.294   1.005  -0.984  1.00  0.00    -0.376 N 
ATOM      9  H1  UNL     1       6.186   1.060  -1.476  1.00  0.00     0.160 HD
BRANCH   8  10
HETATM   10  C2  UNL     1       4.748   2.211  -0.397  1.00  0.00     0.116 C 
HETATM   11  C1  UNL     1       4.769   2.122   1.122  1.00  0.00     0.026 C 
ENDBRANCH   8  10
ENDBRANCH   6   8
ENDBRANCH   5   6
ENDBRANCH   3   5
BRANCH   3  12
HETATM   12  O1  UNL     1       3.189  -2.992   0.502  1.00  0.00    -0.368 OA
ATOM     13  H1  UNL     1       2.809  -3.863   0.511  1.00  0.00     0.212 HD
ENDBRANCH   3  12
ENDBRANCH   1   3
BRANCH   2  14
HETATM   14  C8  UNL     1      -1.058  -1.752   2.256  1.00  0.00     0.216 C 
BRANCH  14  15
HETATM   15  N2  UNL     1      -2.192  -1.259   1.497  1.00  0.00    -0.357 N 
ATOM     16  H2  UNL     1      -2.979  -1.879   1.305  1.00  0.00     0.162 HD
BRANCH  15  17
HETATM   17  C9  UNL     1      -2.218   0.074   1.020  1.00  0.00     0.170 C 
HETATM   18  S3  UNL     1      -0.948   1.063   1.334  1.00  0.00    -0.041 SA
BRANCH  17  19
HETATM   19  N3  UNL     1      -3.347   0.512   0.284  1.00  0.00    -0.354 N 
HETATM   20  C10 UNL     1      -3.328   1.892  -0.188  1.00  0.00     0.151 C 
HETATM   21  C11 UNL     1      -4.613   2.306  -0.829  1.00  0.00     0.187 C 
HETATM   22  O2  UNL     1      -5.659   1.667  -0.188  1.00  0.00    -0.388 OA
HETATM   23  C12 UNL     1      -5.678   0.300  -0.452  1.00  0.00     0.187 C 
HETATM   24  C13 UNL     1      -4.431  -0.391   0.044  1.00  0.00     0.151 C 
ENDBRANCH  17  19
ENDBRANCH  15  17
ENDBRANCH  14  15
ENDBRANCH   2  14
TORSDOF 10
