REMARK  4 active torsions:
REMARK  status: ('A' for Active; 'I' for Inactive)
REMARK    1  A    between atoms: C3_11  and  C4_12 
REMARK    2  A    between atoms: C4_12  and  N4_13 
REMARK    3  A    between atoms: N5_16  and  C7_17 
REMARK    4  A    between atoms: C7_17  and  C8_18 
ROOT
HETATM    1  N1  UNL     1      -5.203   2.137   0.442  1.00  0.00    -0.371 N 
ATOM      2  H11 UNL     1      -5.181   3.129   0.205  1.00  0.00     0.159 HD
ATOM      3  H12 UNL     1      -6.050   1.962   0.982  1.00  0.00     0.159 HD
HETATM    4  C1  UNL     1      -4.308   1.248   0.110  1.00  0.00     0.175 A 
HETATM    5  N2  UNL     1      -4.339  -0.133   0.440  1.00  0.00    -0.316 N 
ATOM      6  H2  UNL     1      -5.073  -0.594   0.977  1.00  0.00     0.170 HD
HETATM    7  C2  UNL     1      -3.181  -0.777  -0.098  1.00  0.00     0.105 A 
HETATM    8  N3  UNL     1      -3.017  -2.043  -0.001  1.00  0.00    -0.387 N 
ATOM      9  H31 UNL     1      -2.191  -2.502  -0.385  1.00  0.00     0.157 HD
ATOM     10  H32 UNL     1      -3.594  -2.774   0.416  1.00  0.00     0.157 HD
HETATM   11  C3  UNL     1      -2.342   0.286  -0.704  1.00  0.00     0.190 A 
HETATM   12  N6  UNL     1      -3.130   1.492  -0.641  1.00  0.00    -0.346 N 
ATOM     13  H6  UNL     1      -2.879   2.383  -1.070  1.00  0.00     0.163 HD
ENDROOT
BRANCH  11  14
HETATM   14  C4  UNL     1      -1.026   0.468   0.047  1.00  0.00     0.091 C 
BRANCH  14  15
HETATM   15  N4  UNL     1      -0.214  -0.671   0.074  1.00  0.00    -0.388 N 
HETATM   16  C5  UNL     1       0.371  -1.079  -1.162  1.00  0.00     0.152 C 
HETATM   17  C6  UNL     1       1.784  -0.680  -1.352  1.00  0.00     0.292 C 
HETATM   18  N5  UNL     1       2.595  -0.591  -0.192  1.00  0.00     0.092 N 
HETATM   19  C9  UNL     1       1.955  -0.419   1.061  1.00  0.00     0.292 C 
HETATM   20  C10 UNL     1       0.573  -0.905   1.225  1.00  0.00     0.152 C 
BRANCH  18  21
HETATM   21  C7  UNL     1       3.614   0.436  -0.355  1.00  0.00     0.283 C 
BRANCH  21  22
HETATM   22  C8  UNL     1       4.524   0.546   0.829  1.00  0.00     0.115 C 
HETATM   23 BR1  UNL     1       5.810   1.963   0.444  1.00  0.00    -0.095 Br
ENDBRANCH  21  22
ENDBRANCH  18  21
ENDBRANCH  14  15
ENDBRANCH  11  14
TORSDOF 4
