REMARK  4 active torsions:
REMARK  status: ('A' for Active; 'I' for Inactive)
REMARK    1  A    between atoms: C2_2  and  C3_3 
REMARK    2  A    between atoms: C10_14  and  O1_15 
REMARK    3  A    between atoms: O1_15  and  S1_16 
REMARK    4  A    between atoms: S1_16  and  C11_19 
ROOT
HETATM    1  C3  UNL     1       0.266   2.174   0.643  1.00  0.00     0.060 C 
HETATM    2  C4  UNL     1      -0.633   3.354   0.759  1.00  0.00     0.071 C 
HETATM    3  N1  UNL     1      -1.683   3.368  -0.179  1.00  0.00    -0.357 N 
ATOM      4  H1  UNL     1      -2.037   4.278  -0.475  1.00  0.00     0.166 HD
HETATM    5  C5  UNL     1      -2.224   2.338  -0.685  1.00  0.00     0.128 C 
HETATM    6  N2  UNL     1      -3.297   2.404  -1.623  1.00  0.00    -0.082 NA
HETATM    7  C6  UNL     1      -1.631   1.029  -0.386  1.00  0.00     0.037 A 
HETATM    8  C7  UNL     1      -2.272  -0.136  -0.734  1.00  0.00     0.056 A 
HETATM    9 CL1  UNL     1      -3.707  -0.048  -1.745  1.00  0.00    -0.083 Cl
HETATM   10  C8  UNL     1      -1.828  -1.380  -0.315  1.00  0.00    -0.016 A 
HETATM   11  C9  UNL     1      -0.705  -1.442   0.475  1.00  0.00     0.030 A 
HETATM   12  C10 UNL     1      -0.014  -0.310   0.856  1.00  0.00     0.110 A 
HETATM   13  C13 UNL     1      -0.495   0.931   0.408  1.00  0.00     0.002 A 
HETATM   14  C14 UNL     1      -0.515  -2.875   0.776  1.00  0.00     0.017 C 
HETATM   15  N3  UNL     1       0.489  -3.533   1.093  1.00  0.00    -0.402 N 
ATOM     16  H31 UNL     1       0.620  -4.523   1.301  1.00  0.00     0.156 HD
ATOM     17  H32 UNL     1       1.403  -3.092   1.193  1.00  0.00     0.156 HD
HETATM   18  C15 UNL     1      -1.874  -3.530   0.628  1.00  0.00     0.066 C 
HETATM   19  C16 UNL     1      -2.376  -2.758  -0.579  1.00  0.00     0.023 C 
HETATM   20  C17 UNL     1      -3.883  -2.765  -0.525  1.00  0.00     0.015 C 
ENDROOT
BRANCH  12  21
HETATM   21  O1  UNL     1       1.077  -0.429   1.631  1.00  0.00    -0.231 OA
BRANCH  21  22
HETATM   22  S1  UNL     1       2.689  -0.613   1.362  1.00  0.00     0.270 S 
HETATM   23  O2  UNL     1       3.416   0.684   1.651  1.00  0.00    -0.198 OA
HETATM   24  O3  UNL     1       3.344  -1.601   2.336  1.00  0.00    -0.198 OA
BRANCH  22  25
HETATM   25  C11 UNL     1       3.148  -1.188  -0.252  1.00  0.00     0.166 C 
HETATM   26  C12 UNL     1       4.681  -1.276  -0.253  1.00  0.00     0.023 C 
ENDBRANCH  22  25
ENDBRANCH  21  22
ENDBRANCH  12  21
BRANCH   1  27
HETATM   27  C2  UNL     1       1.189   2.471  -0.543  1.00  0.00     0.010 C 
HETATM   28  C1  UNL     1       1.944   3.721  -0.234  1.00  0.00     0.006 C 
ENDBRANCH   1  27
TORSDOF 4
