REMARK  6 active torsions:
REMARK  status: ('A' for Active; 'I' for Inactive)
REMARK    1  A    between atoms: C3_3  and  O1_4 
REMARK    2  A    between atoms: O1_4  and  C4_5 
REMARK    3  A    between atoms: C6_7  and  C7_8 
REMARK    4  A    between atoms: C10_12  and  N1_13 
REMARK    5  A    between atoms: C13_17  and  N2_18 
REMARK    6  A    between atoms: C18_26  and  O3_27 
ROOT
HETATM    1  C1  UNL     1       4.671   4.476   0.996  1.00  0.00     0.014 C 
HETATM    2  C2  UNL     1       4.141   3.515   0.465  1.00  0.00    -0.091 C 
HETATM    3  C3  UNL     1       3.526   2.350  -0.177  1.00  0.00     0.261 C 
ENDROOT
BRANCH   3   4
HETATM    4  O1  UNL     1       2.496   1.927   0.650  1.00  0.00    -0.371 OA
BRANCH   4   5
HETATM    5  C4  UNL     1       1.816   0.830   0.180  1.00  0.00     0.158 C 
HETATM    6  C5  UNL     1       1.797  -0.319   1.162  1.00  0.00     0.067 C 
HETATM    7  C6  UNL     1       0.967  -1.441   0.582  1.00  0.00     0.130 C 
HETATM    8  O2  UNL     1       0.111  -1.032  -0.415  1.00  0.00    -0.358 OA
HETATM    9  C10 UNL     1      -0.576   0.094   0.068  1.00  0.00     0.260 C 
HETATM   10  C18 UNL     1       0.372   1.260  -0.055  1.00  0.00     0.196 C 
BRANCH   7  11
HETATM   11  C7  UNL     1       1.895  -2.552   0.146  1.00  0.00     0.006 C 
HETATM   12  C8  UNL     1       2.666  -3.043   1.340  1.00  0.00     0.012 C 
HETATM   13  C9  UNL     1       1.157  -3.696  -0.493  1.00  0.00     0.012 C 
ENDBRANCH   7  11
BRANCH   9  14
HETATM   14  N1  UNL     1      -1.810   0.325  -0.637  1.00  0.00    -0.319 N 
HETATM   15  C11 UNL     1      -1.768   0.659  -1.938  1.00  0.00     0.120 A 
HETATM   16  C12 UNL     1      -3.003   0.861  -2.532  1.00  0.00     0.076 A 
HETATM   17 CL1  UNL     1      -2.946   1.301  -4.248  1.00  0.00    -0.080 Cl
HETATM   18  C13 UNL     1      -4.200   0.739  -1.872  1.00  0.00     0.062 A 
HETATM   19  C14 UNL     1      -4.214   0.389  -0.510  1.00  0.00     0.026 A 
HETATM   20  C15 UNL     1      -5.285   0.224   0.295  1.00  0.00     0.024 A 
HETATM   21  C17 UNL     1      -2.980   0.197   0.042  1.00  0.00     0.090 A 
HETATM   22  C16 UNL     1      -5.041  -0.120   1.592  1.00  0.00     0.053 A 
HETATM   23  S1  UNL     1      -3.340  -0.205   1.659  1.00  0.00    -0.083 SA
BRANCH  18  24
HETATM   24  N2  UNL     1      -5.275   0.951  -2.527  1.00  0.00    -0.397 N 
ATOM     25  H22 UNL     1      -5.265   1.205  -3.515  1.00  0.00     0.156 HD
ATOM     26  H21 UNL     1      -6.165   0.860  -2.036  1.00  0.00     0.156 HD
ENDBRANCH  18  24
ENDBRANCH   9  14
BRANCH  10  27
HETATM   27  O3  UNL     1       0.058   2.216   0.894  1.00  0.00    -0.389 OA
ATOM     28  H3  UNL     1      -0.842   2.484   0.748  1.00  0.00     0.210 HD
ENDBRANCH  10  27
ENDBRANCH   4   5
ENDBRANCH   3   4
TORSDOF 6
