REMARK  3 active torsions:
REMARK  status: ('A' for Active; 'I' for Inactive)
REMARK    1  A    between atoms: O1_2  and  C2_3 
REMARK    2  A    between atoms: N1_11  and  O2_12 
REMARK    3  A    between atoms: N2_20  and  O3_21 
ROOT
HETATM    1  C2  UNL     1      -3.032  -0.787   0.006  1.00  0.00     0.069 A 
HETATM    2  C3  UNL     1      -2.381  -1.998  -0.062  1.00  0.00     0.039 A 
HETATM    3  C4  UNL     1      -1.002  -2.105  -0.040  1.00  0.00     0.036 A 
HETATM    4  C5  UNL     1      -0.238  -0.982   0.052  1.00  0.00     0.076 A 
HETATM    5  C6  UNL     1      -0.868   0.240   0.121  1.00  0.00     0.036 A 
HETATM    6  C7  UNL     1      -2.258   0.343   0.098  1.00  0.00     0.053 A 
HETATM    7  C8  UNL     1      -0.244   1.467   0.216  1.00  0.00     0.142 C 
HETATM    8  S1  UNL     1      -1.243   2.754   0.174  1.00  0.00    -0.057 SA
HETATM    9  N1  UNL     1       1.068   1.748   0.339  1.00  0.00    -0.211 N 
HETATM   10  C9  UNL     1       2.110   0.922   0.129  1.00  0.00     0.093 A 
HETATM   11  C10 UNL     1       3.304   1.615   0.040  1.00  0.00     0.034 A 
HETATM   12  C11 UNL     1       4.491   0.946  -0.174  1.00  0.00     0.002 A 
HETATM   13  C12 UNL     1       4.516  -0.445  -0.306  1.00  0.00     0.002 A 
HETATM   14  C13 UNL     1       3.341  -1.133  -0.219  1.00  0.00     0.034 A 
HETATM   15  C14 UNL     1       2.153  -0.459  -0.004  1.00  0.00     0.092 A 
HETATM   16  N2  UNL     1       1.075  -1.266   0.060  1.00  0.00    -0.222 N 
ENDROOT
BRANCH   1  17
HETATM   17  O1  UNL     1      -4.421  -0.749  -0.021  1.00  0.00    -0.356 OA
HETATM   18  C1  UNL     1      -5.038   0.531   0.052  1.00  0.00     0.210 C 
ENDBRANCH   1  17
BRANCH  16  19
HETATM   19  O3  UNL     1       1.446  -2.606   0.148  1.00  0.00    -0.282 OA
ATOM     20  H3  UNL     1       2.375  -2.807   0.154  1.00  0.00     0.245 HD
ENDBRANCH  16  19
BRANCH   9  21
HETATM   21  O2  UNL     1       1.407   3.024   0.724  1.00  0.00    -0.281 OA
ATOM     22  H2  UNL     1       2.332   3.222   0.811  1.00  0.00     0.245 HD
ENDBRANCH   9  21
TORSDOF 3
