REMARK  2 active torsions:
REMARK  status: ('A' for Active; 'I' for Inactive)
REMARK    1  A    between atoms: C5_7  and  N2_8 
REMARK       I    between atoms: N2_8  and  C6_10 
REMARK       I    between atoms: C6_10  and  N4_14 
REMARK    2  A    between atoms: C10_18  and  C11_19 
ROOT
HETATM    1  N2  UNL     1      -0.833   0.425  -0.287  1.00  0.00    -0.022 N 
ATOM      2  H2  UNL     1      -0.495   1.198   0.287  1.00  0.00     0.203 HD
HETATM    3  C6  UNL     1       0.114  -0.280  -1.062  1.00  0.00     0.697 C 
HETATM    4  N3  UNL     1       0.075  -0.190  -2.342  1.00  0.00    -0.234 N 
ATOM      5  H31 UNL     1       0.759  -0.699  -2.902  1.00  0.00     0.174 HD
ATOM      6  H32 UNL     1      -0.605   0.405  -2.815  1.00  0.00     0.174 HD
HETATM    7  N4  UNL     1       1.061  -1.108  -0.403  1.00  0.00    -0.157 N 
HETATM    8  C7  UNL     1       0.748  -2.440  -0.161  1.00  0.00     0.115 A 
HETATM    9  C8  UNL     1       1.788  -3.054   0.476  1.00  0.00     0.020 A 
HETATM   10  C9  UNL     1       2.734  -2.080   0.619  1.00  0.00     0.033 A 
HETATM   11  C10 UNL     1       2.267  -0.858   0.063  1.00  0.00     0.068 A 
ENDROOT
BRANCH   1  12
HETATM   12  C5  UNL     1      -2.091   0.162  -0.253  1.00  0.00     0.696 A 
HETATM   13  N1  UNL     1      -2.681  -0.812  -0.943  1.00  0.00    -0.201 N 
HETATM   14  C4  UNL     1      -4.001  -1.041  -0.868  1.00  0.00     0.108 A 
ATOM     15  H1  UNL     1      -2.111  -1.403  -1.548  1.00  0.00     0.183 HD
HETATM   16  C3  UNL     1      -4.778  -0.261  -0.066  1.00  0.00     0.042 A 
HETATM   17  C2  UNL     1      -4.182   0.759   0.661  1.00  0.00     0.024 A 
HETATM   18  C1  UNL     1      -5.034   1.607   1.535  1.00  0.00     0.068 C 
HETATM   19  N6  UNL     1      -2.854   0.935   0.541  1.00  0.00    -0.195 N 
ATOM     20  H6  UNL     1      -2.408   1.683   1.072  1.00  0.00     0.184 HD
ENDBRANCH   1  12
BRANCH  11  21
HETATM   21  C11 UNL     1       3.064   0.354   0.068  1.00  0.00     0.007 A 
HETATM   22  C12 UNL     1       4.341   0.346   0.625  1.00  0.00     0.016 A 
HETATM   23  C13 UNL     1       5.134   1.498   0.648  1.00  0.00     0.018 A 
HETATM   24  C14 UNL     1       4.670   2.677   0.119  1.00  0.00     0.087 A 
HETATM   25  N5  UNL     1       3.451   2.674  -0.409  1.00  0.00    -0.374 N 
HETATM   26  C15 UNL     1       2.658   1.538  -0.437  1.00  0.00     0.101 A 
ATOM     27  H5  UNL     1       3.086   3.539  -0.808  1.00  0.00     0.164 HD
ENDBRANCH  11  21
TORSDOF 2
