REMARK  2 active torsions:
REMARK  status: ('A' for Active; 'I' for Inactive)
REMARK    1  A    between atoms: C2_2  and  C4_5 
REMARK       I    between atoms: C4_5  and  N1_7 
REMARK    2  A    between atoms: N1_7  and  C5_9 
ROOT
HETATM    1  C5  UNL     1       1.463  -0.017   0.286  1.00  0.00     0.138 A 
HETATM    2  N2  UNL     1       2.056  -1.197   0.086  1.00  0.00    -0.293 N 
ATOM      3  H2  UNL     1       1.458  -2.007  -0.078  1.00  0.00     0.172 HD
HETATM    4  C6  UNL     1       3.400  -1.392   0.086  1.00  0.00     0.328 A 
HETATM    5  O2  UNL     1       3.880  -2.540  -0.112  1.00  0.00    -0.247 OA
HETATM    6  N3  UNL     1       4.237  -0.367   0.296  1.00  0.00    -0.274 N 
ATOM      7  H3  UNL     1       5.249  -0.497   0.299  1.00  0.00     0.173 HD
HETATM    8  C7  UNL     1       3.689   0.830   0.501  1.00  0.00     0.274 A 
HETATM    9  O3  UNL     1       4.479   1.803   0.700  1.00  0.00    -0.266 OA
HETATM   10  C8  UNL     1       2.333   1.061   0.507  1.00  0.00     0.156 A 
HETATM   11  C9  UNL     1       1.819   2.398   0.738  1.00  0.00     0.109 C 
HETATM   12  N4  UNL     1       1.405   3.469   0.906  1.00  0.00    -0.191 NA
ENDROOT
BRANCH   1  13
HETATM   13  N1  UNL     1       0.078   0.211   0.291  1.00  0.00    -0.310 N 
HETATM   14  C4  UNL     1      -0.955  -0.708   0.095  1.00  0.00     0.242 C 
HETATM   15  O1  UNL     1      -0.811  -1.921  -0.123  1.00  0.00    -0.271 OA
ATOM     16  H1  UNL     1      -0.212   1.174   0.460  1.00  0.00     0.170 HD
BRANCH  14  17
HETATM   17  C2  UNL     1      -2.371  -0.228   0.146  1.00  0.00     0.092 C 
HETATM   18  C1  UNL     1      -3.366  -1.325  -0.082  1.00  0.00     0.038 C 
HETATM   19  C3  UNL     1      -2.584   0.803  -0.963  1.00  0.00     0.038 C 
HETATM   20  S1  UNL     1      -2.728   0.548   1.741  1.00  0.00    -0.077 SA
ENDBRANCH  14  17
ENDBRANCH   1  13
TORSDOF 2
