REMARK  2 active torsions:
REMARK  status: ('A' for Active; 'I' for Inactive)
REMARK    1  A    between atoms: C2_2  and  O1_3 
REMARK    2  A    between atoms: N1_13  and  O3_15 
ROOT
HETATM    1  C1  UNL     1       3.398  -0.318  -0.612  1.00  0.00     0.081 C 
HETATM    2  C2  UNL     1       2.465   0.608   0.134  1.00  0.00     0.179 C 
HETATM    3  C3  UNL     1       1.573  -0.225   1.027  1.00  0.00     0.237 C 
HETATM    4  O2  UNL     1       0.714  -0.985   0.248  1.00  0.00    -0.367 OA
HETATM    5  C4  UNL     1      -0.164  -0.146  -0.465  1.00  0.00     0.122 C 
HETATM    6  C5  UNL     1      -0.999  -1.026  -1.346  1.00  0.00     0.047 C 
HETATM    7  C6  UNL     1      -2.202  -1.618  -0.698  1.00  0.00     0.004 C 
HETATM    8  C7  UNL     1      -2.907  -0.755   0.282  1.00  0.00     0.006 C 
HETATM    9  C8  UNL     1      -2.015  -0.016   1.235  1.00  0.00     0.058 C 
HETATM   10  C9  UNL     1      -0.971   0.666   0.456  1.00  0.00     0.046 C 
HETATM   11  N1  UNL     1      -0.765   1.914   0.568  1.00  0.00    -0.274 N 
ATOM     12  H1  UNL     1      -0.023   2.317  -0.005  1.00  0.00     0.193 HD
HETATM   13  C10 UNL     1       0.710   0.705  -1.365  1.00  0.00     0.215 C 
HETATM   14  O4  UNL     1       1.690   1.385  -0.684  1.00  0.00    -0.350 OA
ENDROOT
BRANCH  11  15
HETATM   15  O3  UNL     1      -1.448   2.761   1.386  1.00  0.00    -0.290 OA
ATOM     16  H3  UNL     1      -1.294   3.695   1.470  1.00  0.00     0.244 HD
ENDBRANCH  11  15
BRANCH   2  17
HETATM   17  O1  UNL     1       3.239   1.454   0.936  1.00  0.00    -0.364 OA
ATOM     18  H1  UNL     1       2.653   2.036   1.405  1.00  0.00     0.213 HD
ENDBRANCH   2  17
TORSDOF 2
