REMARK  3 active torsions:
REMARK  status: ('A' for Active; 'I' for Inactive)
REMARK    1  A    between atoms: C3_3  and  N1_4 
REMARK    2  A    between atoms: N1_4  and  C5_6 
REMARK    3  A    between atoms: C5_6  and  C6_7 
ROOT
HETATM    1  C1  UNL     1       4.258  -0.441   2.104  1.00  0.00     0.013 C 
HETATM    2  C2  UNL     1       3.402  -0.621   1.271  1.00  0.00    -0.087 C 
HETATM    3  C3  UNL     1       2.352  -0.814   0.254  1.00  0.00     0.364 C 
ENDROOT
BRANCH   3   4
HETATM    4  N1  UNL     1       1.519   0.374   0.230  1.00  0.00     0.095 N 
HETATM    5  C4  UNL     1       2.389   1.432  -0.309  1.00  0.00     0.310 C 
BRANCH   4   6
HETATM    6  C5  UNL     1       0.424   0.278  -0.680  1.00  0.00     0.282 C 
BRANCH   6   7
HETATM    7  C6  UNL     1      -0.637  -0.733  -0.280  1.00  0.00     0.053 C 
HETATM    8  C7  UNL     1      -1.692  -0.677  -1.363  1.00  0.00     0.016 C 
HETATM    9  C8  UNL     1      -2.557   0.522  -1.085  1.00  0.00     0.045 C 
HETATM   10  C9  UNL     1      -3.242   0.282   0.230  1.00  0.00     0.060 C 
HETATM   11  N2  UNL     1      -2.428  -0.084   1.303  1.00  0.00    -0.382 N 
HETATM   12  C10 UNL     1      -1.136  -0.581   1.089  1.00  0.00     0.066 C 
ATOM     13  H2  UNL     1      -2.779   0.012   2.256  1.00  0.00     0.164 HD
ENDBRANCH   6   7
ENDBRANCH   4   6
ENDBRANCH   3   4
TORSDOF 3
