REMARK  8 active torsions:
REMARK  status: ('A' for Active; 'I' for Inactive)
REMARK    1  A    between atoms: C2_2  and  C3_3 
REMARK    2  A    between atoms: C2_2  and  C12_22 
REMARK    3  A    between atoms: C3_3  and  C4_4 
REMARK    4  A    between atoms: C4_4  and  N1_5 
REMARK    5  A    between atoms: N1_5  and  O1_6 
REMARK    6  A    between atoms: N1_5  and  C5_8 
REMARK    7  A    between atoms: N2_11  and  C8_12 
REMARK    8  A    between atoms: C12_22  and  C13_23 
ROOT
HETATM    1  C5  UNL     1       1.453  -0.935   0.101  1.00  0.00     0.116 C 
HETATM    2  C6  UNL     1       2.242   0.014   0.929  1.00  0.00     0.047 C 
HETATM    3  C7  UNL     1       3.642  -0.575   1.228  1.00  0.00     0.126 C 
HETATM    4  N2  UNL     1       4.313  -0.576  -0.039  1.00  0.00    -0.365 N 
HETATM    5  C10 UNL     1       3.633  -1.254  -1.124  1.00  0.00     0.126 C 
HETATM    6  C11 UNL     1       2.338  -1.864  -0.681  1.00  0.00     0.047 C 
ENDROOT
BRANCH   1   7
HETATM    7  N1  UNL     1       0.539  -0.279  -0.763  1.00  0.00    -0.271 N 
BRANCH   7   8
HETATM    8  C4  UNL     1      -0.778  -0.765  -0.711  1.00  0.00     0.090 C 
BRANCH   8   9
HETATM    9  C3  UNL     1      -1.625  -0.470   0.452  1.00  0.00     0.051 C 
BRANCH   9  10
HETATM   10  C2  UNL     1      -2.185   0.877   0.651  1.00  0.00    -0.013 C 
HETATM   11  C1  UNL     1      -1.170   1.989   0.747  1.00  0.00     0.010 C 
BRANCH  10  12
HETATM   12  C12 UNL     1      -3.338   1.299  -0.192  1.00  0.00     0.013 C 
BRANCH  12  13
HETATM   13  C13 UNL     1      -4.453   0.386  -0.432  1.00  0.00    -0.051 C 
HETATM   14  C14 UNL     1      -5.146  -0.100   0.822  1.00  0.00     0.014 C 
HETATM   15  C15 UNL     1      -4.276  -0.748  -1.383  1.00  0.00     0.014 C 
HETATM   16  C16 UNL     1      -5.611   1.231  -1.115  1.00  0.00     0.014 C 
ENDBRANCH  12  13
ENDBRANCH  10  12
ENDBRANCH   9  10
ENDBRANCH   8   9
ENDBRANCH   7   8
BRANCH   7  17
HETATM   17  O1  UNL     1       0.864   0.817  -1.363  1.00  0.00    -0.288 OA
ATOM     18  H1  UNL     1       1.755   1.146  -1.398  1.00  0.00     0.244 HD
ENDBRANCH   7  17
ENDBRANCH   1   7
BRANCH   4  19
HETATM   19  C8  UNL     1       5.561   0.028  -0.317  1.00  0.00     0.136 A 
HETATM   20  C9  UNL     1       6.801  -0.559  -0.345  1.00  0.00     0.158 A 
HETATM   21  N3  UNL     1       7.672   0.406  -0.667  1.00  0.00    -0.294 N 
HETATM   22  N4  UNL     1       7.005   1.530  -0.829  1.00  0.00    -0.241 N 
ATOM     23  H3  UNL     1       8.680   0.290  -0.769  1.00  0.00     0.187 HD
HETATM   24  N5  UNL     1       5.740   1.313  -0.624  1.00  0.00    -0.270 N 
ATOM     25  H4  UNL     1       7.417   2.430  -1.077  1.00  0.00     0.208 HD
ATOM     26  H5  UNL     1       5.002   2.014  -0.688  1.00  0.00     0.190 HD
ENDBRANCH   4  19
TORSDOF 8
