REMARK  10 active torsions:
REMARK  status: ('A' for Active; 'I' for Inactive)
REMARK    1  A    between atoms: C3_3  and  C4_4 
REMARK       I    between atoms: C4_4  and  N1_6 
REMARK    2  A    between atoms: C17_19  and  C18_20 
REMARK    3  A    between atoms: C18_20  and  C19_22 
REMARK    4  A    between atoms: C19_22  and  O3_23 
REMARK    5  A    between atoms: C19_22  and  C20_25 
REMARK    6  A    between atoms: C21_26  and  C22_27 
REMARK    7  A    between atoms: C22_27  and  O4_28 
REMARK    8  A    between atoms: C22_27  and  C23_30 
REMARK    9  A    between atoms: C23_30  and  C25_32 
REMARK   10  A    between atoms: C29_36  and  O5_37 
ROOT
HETATM    1  C1  UNL     1      -5.538   0.292  -1.856  1.00  0.00     0.015 C 
HETATM    2  C2  UNL     1      -5.499   0.363  -0.532  1.00  0.00    -0.072 C 
HETATM    3  C3  UNL     1      -6.744   0.669   0.217  1.00  0.00     0.106 C 
HETATM    4  C7  UNL     1      -6.224   1.458   1.451  1.00  0.00     0.019 C 
HETATM    5  C8  UNL     1      -5.488   0.490   2.300  1.00  0.00     0.006 C 
HETATM    6  C9  UNL     1      -4.382  -0.222   1.612  1.00  0.00    -0.006 C 
HETATM    7  C10 UNL     1      -3.119  -0.104   2.379  1.00  0.00     0.006 C 
HETATM    8  C11 UNL     1      -1.869   0.030   1.593  1.00  0.00     0.015 C 
HETATM    9  C12 UNL     1      -1.507  -1.076   0.689  1.00  0.00    -0.007 C 
HETATM   10  C13 UNL     1      -1.800  -2.451   1.210  1.00  0.00     0.021 C 
HETATM   11  C14 UNL     1      -0.068  -1.063   0.312  1.00  0.00    -0.033 C 
HETATM   12  C15 UNL     1       1.087  -0.824   0.888  1.00  0.00    -0.019 C 
HETATM   13  C16 UNL     1       2.330  -0.939   0.074  1.00  0.00     0.040 C 
HETATM   14  C17 UNL     1       2.331  -2.219  -0.686  1.00  0.00     0.065 C 
HETATM   15  C28 UNL     1       0.991  -2.596  -1.289  1.00  0.00     0.063 C 
HETATM   16  C29 UNL     1       0.024  -1.452  -1.150  1.00  0.00     0.143 C 
HETATM   17  C30 UNL     1      -1.386  -1.823  -1.488  1.00  0.00     0.170 C 
HETATM   18  O6  UNL     1      -1.746  -2.698  -2.222  1.00  0.00    -0.294 OA
HETATM   19  C31 UNL     1      -2.163  -0.825  -0.676  1.00  0.00     0.072 C 
HETATM   20  C32 UNL     1      -3.604  -1.137  -0.525  1.00  0.00     0.023 C 
HETATM   21  C33 UNL     1      -4.221   0.104   0.143  1.00  0.00     0.019 C 
ENDROOT
BRANCH  14  22
HETATM   22  C18 UNL     1       3.392  -2.186  -1.724  1.00  0.00     0.163 C 
HETATM   23  O2  UNL     1       3.032  -2.273  -2.885  1.00  0.00    -0.294 OA
BRANCH  22  24
HETATM   24  C19 UNL     1       4.817  -2.058  -1.379  1.00  0.00     0.210 C 
BRANCH  24  25
HETATM   25  O3  UNL     1       5.550  -2.168  -2.591  1.00  0.00    -0.384 OA
ATOM     26  H3  UNL     1       6.470  -2.085  -2.368  1.00  0.00     0.211 HD
ENDBRANCH  24  25
BRANCH  24  27
HETATM   27  C20 UNL     1       5.205  -0.740  -0.812  1.00  0.00     0.011 C 
HETATM   28  C21 UNL     1       6.192  -0.636   0.096  1.00  0.00     0.004 C 
BRANCH  28  29
HETATM   29  C22 UNL     1       6.578   0.687   0.662  1.00  0.00     0.144 C 
BRANCH  29  30
HETATM   30  O4  UNL     1       5.748   1.645   0.131  1.00  0.00    -0.391 OA
ATOM     31  H4  UNL     1       5.994   2.489   0.492  1.00  0.00     0.210 HD
ENDBRANCH  29  30
BRANCH  29  32
HETATM   32  C23 UNL     1       8.037   0.929   0.355  1.00  0.00     0.017 C 
HETATM   33  C24 UNL     1       8.813  -0.203   1.008  1.00  0.00     0.013 C 
BRANCH  32  34
HETATM   34  C25 UNL     1       8.539   2.212   0.976  1.00  0.00    -0.016 C 
HETATM   35  C26 UNL     1       7.777   3.419   0.474  1.00  0.00     0.010 C 
HETATM   36  C27 UNL     1       9.989   2.372   0.572  1.00  0.00     0.010 C 
ENDBRANCH  32  34
ENDBRANCH  29  32
ENDBRANCH  28  29
ENDBRANCH  24  27
ENDBRANCH  22  24
ENDBRANCH  14  22
BRANCH  16  37
HETATM   37  O5  UNL     1       0.359  -0.354  -1.936  1.00  0.00    -0.377 OA
ATOM     38  H5  UNL     1       0.417  -0.598  -2.852  1.00  0.00     0.211 HD
ENDBRANCH  16  37
BRANCH   3  39
HETATM   39  C4  UNL     1      -7.697   1.547  -0.509  1.00  0.00     0.227 C 
HETATM   40  O1  UNL     1      -7.286   2.283  -1.416  1.00  0.00    -0.273 OA
HETATM   41  N1  UNL     1      -9.076   1.519  -0.129  1.00  0.00    -0.360 N 
HETATM   42  C5  UNL     1      -9.565   0.664   0.925  1.00  0.00     0.152 C 
HETATM   43  C6  UNL     1     -10.019   2.382  -0.834  1.00  0.00     0.152 C 
ENDBRANCH   3  39
TORSDOF 10
