REMARK  6 active torsions:
REMARK  status: ('A' for Active; 'I' for Inactive)
REMARK    1  A    between atoms: C2_3  and  C3_4 
REMARK    2  A    between atoms: C2_3  and  C7_17 
REMARK    3  A    between atoms: C3_4  and  C4_5 
REMARK    4  A    between atoms: C4_5  and  C5_10 
REMARK    5  A    between atoms: N2_6  and  O1_8 
REMARK       I    between atoms: C7_17  and  N5_19 
REMARK    6  A    between atoms: N5_19  and  C8_21 
ROOT
HETATM    1  N1  UNL     1      -0.429  -3.639  -3.563  1.00  0.00    -0.196 NA
HETATM    2  C1  UNL     1      -0.611  -2.956  -2.663  1.00  0.00     0.073 C 
HETATM    3  C2  UNL     1      -0.840  -2.079  -1.470  1.00  0.00     0.190 C 
ENDROOT
BRANCH   3   4
HETATM    4  C3  UNL     1      -2.242  -1.618  -1.446  1.00  0.00     0.090 C 
BRANCH   4   5
HETATM    5  C4  UNL     1      -2.697  -0.728  -0.402  1.00  0.00     0.062 C 
HETATM    6  N2  UNL     1      -3.330  -1.258   0.601  1.00  0.00    -0.271 N 
ATOM      7  H2  UNL     1      -3.661  -0.650   1.350  1.00  0.00     0.194 HD
BRANCH   6   8
HETATM    8  O1  UNL     1      -3.565  -2.583   0.687  1.00  0.00    -0.290 OA
ATOM      9  H1  UNL     1      -4.028  -2.971   1.420  1.00  0.00     0.244 HD
ENDBRANCH   6   8
BRANCH   5  10
HETATM   10  C5  UNL     1      -2.433   0.734  -0.373  1.00  0.00     0.081 A 
HETATM   11  C6  UNL     1      -2.715   1.503   0.738  1.00  0.00     0.102 A 
HETATM   12  S1  UNL     1      -2.308   3.064   0.186  1.00  0.00    -0.008 SA
HETATM   13  N3  UNL     1      -1.822   2.656  -1.371  1.00  0.00    -0.269 N 
HETATM   14  N4  UNL     1      -1.983   1.375  -1.412  1.00  0.00    -0.292 N 
ATOM     15  H3  UNL     1      -1.481   3.273  -2.108  1.00  0.00     0.195 HD
ATOM     16  H4  UNL     1      -1.756   0.863  -2.264  1.00  0.00     0.187 HD
ENDBRANCH   5  10
ENDBRANCH   4   5
ENDBRANCH   3   4
BRANCH   3  17
HETATM   17  C7  UNL     1       0.193  -1.059  -1.424  1.00  0.00     0.236 C 
HETATM   18  O2  UNL     1       0.674  -0.620  -2.525  1.00  0.00    -0.272 OA
HETATM   19  N5  UNL     1       0.709  -0.514  -0.188  1.00  0.00    -0.355 N 
ATOM     20  H5  UNL     1       0.343  -0.847   0.704  1.00  0.00     0.162 HD
BRANCH  19  21
HETATM   21  C8  UNL     1       1.732   0.491  -0.207  1.00  0.00     0.084 C 
HETATM   22  C9  UNL     1       3.033  -0.017   0.402  1.00  0.00     0.025 C 
HETATM   23  C10 UNL     1       3.683   1.304   0.821  1.00  0.00     0.002 C 
HETATM   24  C11 UNL     1       2.525   1.995   1.504  1.00  0.00     0.002 C 
HETATM   25  C12 UNL     1       1.394   1.748   0.523  1.00  0.00     0.025 C 
ENDBRANCH  19  21
ENDBRANCH   3  17
TORSDOF 6
