REMARK  14 active torsions:
REMARK  status: ('A' for Active; 'I' for Inactive)
REMARK    1  A    between atoms: C2_2  and  N1_5 
REMARK    2  A    between atoms: C5_6  and  C6_7 
REMARK    3  A    between atoms: C6_7  and  S1_8 
REMARK    4  A    between atoms: S1_8  and  N2_11 
REMARK    5  A    between atoms: N2_11  and  C7_13 
REMARK    6  A    between atoms: C10_16  and  N3_17 
REMARK    7  A    between atoms: N3_17  and  C11_19 
REMARK    8  A    between atoms: C11_19  and  C12_20 
REMARK    9  A    between atoms: C12_20  and  O3_21 
REMARK   10  A    between atoms: C12_20  and  C13_23 
REMARK   11  A    between atoms: C13_23  and  O4_24 
REMARK   12  A    between atoms: C17_29  and  O5_30 
REMARK   13  A    between atoms: C18_32  and  C19_33 
REMARK   14  A    between atoms: C19_33  and  O6_34 
ROOT
HETATM    1  S1  UNL     1      -0.453  -1.727   1.563  1.00  0.00     0.228 S 
HETATM    2  O1  UNL     1       0.018  -3.185   1.566  1.00  0.00    -0.206 OA
HETATM    3  O2  UNL     1      -0.696  -1.474   3.069  1.00  0.00    -0.206 OA
ENDROOT
BRANCH   1   4
HETATM    4  C6  UNL     1      -1.981  -1.604   0.708  1.00  0.00     0.188 C 
BRANCH   4   5
HETATM    5  C5  UNL     1      -2.707  -0.355   1.004  1.00  0.00     0.098 C 
HETATM    6  N1  UNL     1      -3.954  -0.094   0.431  1.00  0.00    -0.391 N 
HETATM    7  C18 UNL     1      -4.195   1.288   0.374  1.00  0.00     0.132 C 
HETATM    8  C17 UNL     1      -2.910   1.962   0.872  1.00  0.00     0.144 C 
HETATM    9  C16 UNL     1      -1.867   0.841   0.641  1.00  0.00     0.059 C 
BRANCH   6  10
HETATM   10  C2  UNL     1      -5.022  -0.983   0.448  1.00  0.00     0.018 C 
HETATM   11  C1  UNL     1      -4.773  -2.194  -0.420  1.00  0.00     0.037 C 
HETATM   12  C3  UNL     1      -5.303  -1.568   1.843  1.00  0.00     0.037 C 
HETATM   13  C4  UNL     1      -6.355  -0.404   0.019  1.00  0.00     0.037 C 
ENDBRANCH   6  10
BRANCH   7  14
HETATM   14  C19 UNL     1      -4.423   1.851  -1.011  1.00  0.00     0.191 C 
BRANCH  14  15
HETATM   15  O6  UNL     1      -4.655   3.224  -0.981  1.00  0.00    -0.399 OA
ATOM     16  H6  UNL     1      -4.798   3.578  -1.851  1.00  0.00     0.209 HD
ENDBRANCH  14  15
ENDBRANCH   7  14
BRANCH   8  17
HETATM   17  O5  UNL     1      -2.948   2.227   2.223  1.00  0.00    -0.393 OA
ATOM     18  H5  UNL     1      -3.588   2.915   2.365  1.00  0.00     0.210 HD
ENDBRANCH   8  17
ENDBRANCH   4   5
ENDBRANCH   1   4
BRANCH   1  19
HETATM   19  N2  UNL     1       0.738  -0.667   1.089  1.00  0.00    -0.315 N 
ATOM     20  H2  UNL     1       1.104   0.031   1.737  1.00  0.00     0.172 HD
BRANCH  19  21
HETATM   21  C7  UNL     1       1.240  -0.757  -0.256  1.00  0.00     0.093 C 
HETATM   22  C8  UNL     1       2.567  -1.585  -0.203  1.00  0.00     0.028 C 
HETATM   23  C9  UNL     1       3.155  -1.500  -1.591  1.00  0.00     0.027 C 
HETATM   24  C10 UNL     1       3.787  -0.105  -1.679  1.00  0.00     0.076 C 
HETATM   25  C14 UNL     1       2.959   0.880  -0.925  1.00  0.00     0.027 C 
HETATM   26  C15 UNL     1       1.479   0.486  -0.987  1.00  0.00     0.028 C 
BRANCH  24  27
HETATM   27  N3  UNL     1       5.106  -0.201  -1.189  1.00  0.00    -0.415 N 
ATOM     28  H3  UNL     1       5.648  -1.058  -1.300  1.00  0.00     0.153 HD
BRANCH  27  29
HETATM   29  C11 UNL     1       5.656   0.938  -0.534  1.00  0.00     0.147 C 
BRANCH  29  30
HETATM   30  C12 UNL     1       7.117   0.574  -0.178  1.00  0.00     0.159 C 
BRANCH  30  31
HETATM   31  O3  UNL     1       7.085  -0.532   0.656  1.00  0.00    -0.392 OA
ATOM     32  H3  UNL     1       7.982  -0.756   0.875  1.00  0.00     0.210 HD
ENDBRANCH  30  31
BRANCH  30  33
HETATM   33  C13 UNL     1       7.709   1.774   0.553  1.00  0.00     0.197 C 
BRANCH  33  34
HETATM   34  O4  UNL     1       7.749   2.886  -0.264  1.00  0.00    -0.398 OA
ATOM     35  H4  UNL     1       8.118   3.634   0.191  1.00  0.00     0.209 HD
ENDBRANCH  33  34
ENDBRANCH  30  33
ENDBRANCH  29  30
ENDBRANCH  27  29
ENDBRANCH  24  27
ENDBRANCH  19  21
ENDBRANCH   1  19
TORSDOF 14
