REMARK  15 active torsions:
REMARK  status: ('A' for Active; 'I' for Inactive)
REMARK    1  A    between atoms: C2_2  and  C3_3 
REMARK    2  A    between atoms: C2_2  and  C10_10 
REMARK    3  A    between atoms: C4_4  and  C5_5 
REMARK    4  A    between atoms: C10_10  and  N1_11 
REMARK    5  A    between atoms: C11_12  and  O1_13 
REMARK    6  A    between atoms: C13_17  and  N2_18 
REMARK    7  A    between atoms: N2_18  and  C14_20 
REMARK    8  A    between atoms: C14_20  and  C15_21 
REMARK    9  A    between atoms: C15_21  and  O2_22 
REMARK   10  A    between atoms: O2_22  and  C16_23 
REMARK   11  A    between atoms: C17_25  and  C18_26 
REMARK   12  A    between atoms: C18_26  and  O4_27 
REMARK   13  A    between atoms: C19_29  and  O5_30 
REMARK   14  A    between atoms: C20_32  and  O6_33 
REMARK   15  A    between atoms: C21_35  and  O7_36 
ROOT
HETATM    1  N2  UNL     1       0.455   1.088   2.646  1.00  0.00    -0.368 N 
ATOM      2  H2  UNL     1       0.698   1.172   3.633  1.00  0.00     0.161 HD
ENDROOT
BRANCH   1   3
HETATM    3  C13 UNL     1      -0.708   1.558   2.540  1.00  0.00     0.148 A 
HETATM    4  N1  UNL     1      -1.588   1.736   1.552  1.00  0.00    -0.307 N 
HETATM    5  C11 UNL     1      -2.708   2.388   1.805  1.00  0.00     0.150 A 
HETATM    6  C12 UNL     1      -2.928   2.849   3.065  1.00  0.00     0.109 A 
HETATM    7  S1  UNL     1      -1.542   2.355   3.878  1.00  0.00    -0.062 SA
BRANCH   4   8
HETATM    8  C10 UNL     1      -1.323   1.199   0.189  1.00  0.00     0.141 C 
BRANCH   8   9
HETATM    9  C2  UNL     1      -1.878  -0.125  -0.105  1.00  0.00     0.022 C 
HETATM   10  C1  UNL     1      -1.437  -1.279   0.768  1.00  0.00     0.016 C 
BRANCH   9  11
HETATM   11  C3  UNL     1      -3.361  -0.235  -0.166  1.00  0.00    -0.020 C 
HETATM   12  C4  UNL     1      -3.958  -0.606  -1.302  1.00  0.00     0.003 C 
BRANCH  12  13
HETATM   13  C5  UNL     1      -5.403  -0.713  -1.363  1.00  0.00    -0.062 C 
HETATM   14  C6  UNL     1      -6.113  -1.068  -2.422  1.00  0.00    -0.020 C 
HETATM   15  C7  UNL     1      -7.564  -1.069  -2.115  1.00  0.00     0.028 C 
HETATM   16  C8  UNL     1      -7.649  -0.136  -0.928  1.00  0.00     0.008 C 
HETATM   17  C9  UNL     1      -6.318  -0.436  -0.230  1.00  0.00     0.038 C 
ENDBRANCH  12  13
ENDBRANCH   9  11
ENDBRANCH   8   9
ENDBRANCH   4   8
BRANCH   5  18
HETATM   18  O1  UNL     1      -3.720   2.652   0.815  1.00  0.00    -0.346 OA
ATOM     19  H1  UNL     1      -4.526   3.121   0.997  1.00  0.00     0.219 HD
ENDBRANCH   5  18
ENDBRANCH   1   3
BRANCH   1  20
HETATM   20  C14 UNL     1       1.537   0.519   2.048  1.00  0.00     0.148 C 
BRANCH  20  21
HETATM   21  C15 UNL     1       2.676   1.544   1.783  1.00  0.00     0.190 C 
BRANCH  21  22
HETATM   22  O2  UNL     1       3.763   1.023   1.194  1.00  0.00    -0.357 OA
BRANCH  22  23
HETATM   23  C16 UNL     1       3.649   0.475  -0.070  1.00  0.00     0.291 C 
HETATM   24  O3  UNL     1       3.771  -0.844  -0.034  1.00  0.00    -0.348 OA
HETATM   25  C17 UNL     1       4.949  -1.442  -0.281  1.00  0.00     0.179 C 
HETATM   26  C19 UNL     1       5.845  -0.738  -1.291  1.00  0.00     0.180 C 
HETATM   27  C20 UNL     1       4.960   0.212  -2.117  1.00  0.00     0.183 C 
HETATM   28  C21 UNL     1       4.368   1.189  -1.133  1.00  0.00     0.204 C 
BRANCH  25  29
HETATM   29  C18 UNL     1       5.743  -1.652   0.976  1.00  0.00     0.198 C 
BRANCH  29  30
HETATM   30  O4  UNL     1       6.075  -0.495   1.641  1.00  0.00    -0.398 OA
ATOM     31  H4  UNL     1       6.577  -0.628   2.436  1.00  0.00     0.209 HD
ENDBRANCH  29  30
ENDBRANCH  25  29
BRANCH  26  32
HETATM   32  O5  UNL     1       6.345  -1.696  -2.160  1.00  0.00    -0.390 OA
ATOM     33  H5  UNL     1       6.904  -1.257  -2.790  1.00  0.00     0.210 HD
ENDBRANCH  26  32
BRANCH  27  34
HETATM   34  O6  UNL     1       3.969  -0.595  -2.680  1.00  0.00    -0.390 OA
ATOM     35  H6  UNL     1       3.423  -0.009  -3.190  1.00  0.00     0.210 HD
ENDBRANCH  27  34
BRANCH  28  36
HETATM   36  O7  UNL     1       5.475   1.932  -0.646  1.00  0.00    -0.388 OA
ATOM     37  H7  UNL     1       5.940   2.394  -1.334  1.00  0.00     0.210 HD
ENDBRANCH  28  36
ENDBRANCH  22  23
ENDBRANCH  21  22
ENDBRANCH  20  21
ENDBRANCH   1  20
TORSDOF 15
