REMARK  5 active torsions:
REMARK  status: ('A' for Active; 'I' for Inactive)
REMARK    1  A    between atoms: C3_4  and  C4_5 
REMARK    2  A    between atoms: C4_5  and  N1_6 
REMARK    3  A    between atoms: N1_6  and  C5_9 
REMARK    4  A    between atoms: C5_9  and  C6_10 
REMARK    5  A    between atoms: C6_10  and  N2_11 
ROOT
HETATM    1  O1  UNL     1      -1.181  -5.021  -1.273  1.00  0.00    -0.260 OA
HETATM    2  C1  UNL     1      -1.594  -3.903  -0.914  1.00  0.00     0.290 A 
HETATM    3  C2  UNL     1      -0.723  -2.894  -0.612  1.00  0.00     0.092 A 
HETATM    4  C3  UNL     1      -1.149  -1.628  -0.209  1.00  0.00    -0.011 A 
HETATM    5  C11 UNL     1      -2.524  -1.408  -0.119  1.00  0.00     0.041 A 
HETATM    6  C12 UNL     1      -3.355  -0.362   0.228  1.00  0.00     0.007 A 
HETATM    7  C13 UNL     1      -4.657  -0.881   0.091  1.00  0.00     0.065 A 
HETATM    8  O3  UNL     1      -4.536  -2.119  -0.303  1.00  0.00    -0.291 OA
HETATM    9  C14 UNL     1      -3.343  -2.495  -0.445  1.00  0.00     0.205 A 
HETATM   10  O4  UNL     1      -2.867  -3.669  -0.821  1.00  0.00    -0.250 OA
HETATM   11  C15 UNL     1      -6.000  -0.382   0.279  1.00  0.00     0.077 C 
HETATM   12  C16 UNL     1      -6.253   1.117  -0.035  1.00  0.00     0.086 C 
HETATM   13  C17 UNL     1      -4.962   1.655   0.124  1.00  0.00    -0.181 C 
HETATM   14  C18 UNL     1      -3.701   2.175   0.294  1.00  0.00     0.105 C 
HETATM   15  C19 UNL     1      -2.825   0.909   0.628  1.00  0.00     0.129 C 
HETATM   16 CL1  UNL     1      -2.879   0.894   2.450  1.00  0.00    -0.119 Cl
ENDROOT
BRANCH   4  17
HETATM   17  C4  UNL     1      -0.218  -0.565   0.109  1.00  0.00     0.272 C 
BRANCH  17  18
HETATM   18  N1  UNL     1       1.152  -1.119  -0.042  1.00  0.00    -0.070 N 
ATOM     19  H12 UNL     1       1.293  -1.989   0.471  1.00  0.00     0.277 HD
ATOM     20  H11 UNL     1       1.336  -1.489  -0.975  1.00  0.00     0.277 HD
BRANCH  18  21
HETATM   21  C5  UNL     1       2.079  -0.063   0.351  1.00  0.00     0.262 C 
BRANCH  21  22
HETATM   22  C6  UNL     1       3.495  -0.502   0.311  1.00  0.00     0.300 C 
BRANCH  22  23
HETATM   23  N2  UNL     1       4.318   0.610   0.723  1.00  0.00     0.094 N 
HETATM   24  C7  UNL     1       4.360   1.704  -0.187  1.00  0.00     0.298 C 
HETATM   25  C8  UNL     1       5.793   2.215  -0.323  1.00  0.00     0.198 C 
HETATM   26  O2  UNL     1       6.539   1.160  -0.819  1.00  0.00    -0.388 OA
HETATM   27  C9  UNL     1       6.645   0.168   0.120  1.00  0.00     0.198 C 
HETATM   28  C10 UNL     1       5.612   0.205   1.210  1.00  0.00     0.298 C 
ENDBRANCH  22  23
ENDBRANCH  21  22
ENDBRANCH  18  21
ENDBRANCH  17  18
ENDBRANCH   4  17
TORSDOF 5
