REMARK  6 active torsions:
REMARK  status: ('A' for Active; 'I' for Inactive)
REMARK    1  A    between atoms: O1_1  and  C1_3 
REMARK    2  A    between atoms: C1_3  and  C2_4 
REMARK    3  A    between atoms: N1_12  and  C8_13 
REMARK    4  A    between atoms: C8_13  and  C9_14 
REMARK    5  A    between atoms: C9_14  and  C10_15 
REMARK    6  A    between atoms: C10_15  and  N2_16 
ROOT
HETATM    1  C1  UNL     1      -2.490  -1.212  -0.570  1.00  0.00     0.094 C 
HETATM    2  C6  UNL     1      -1.504  -0.561  -1.568  1.00  0.00     0.073 C 
HETATM    3  C7  UNL     1      -1.031   0.640  -0.809  1.00  0.00     0.276 C 
HETATM    4  N1  UNL     1      -0.066   0.222   0.161  1.00  0.00     0.088 N 
HETATM    5  C13 UNL     1      -0.352  -1.019   0.782  1.00  0.00     0.276 C 
HETATM    6  C14 UNL     1      -1.754  -1.557   0.668  1.00  0.00     0.073 C 
ENDROOT
BRANCH   4   7
HETATM    7  C8  UNL     1       1.224   0.268  -0.499  1.00  0.00     0.274 C 
BRANCH   7   8
HETATM    8  C9  UNL     1       2.391   0.262   0.439  1.00  0.00     0.050 C 
BRANCH   8   9
HETATM    9  C10 UNL     1       3.693   0.312  -0.388  1.00  0.00     0.132 C 
BRANCH   9  10
HETATM   10  N2  UNL     1       4.807   0.423   0.496  1.00  0.00    -0.337 N 
HETATM   11  C11 UNL     1       5.540  -0.495   1.075  1.00  0.00     0.200 A 
HETATM   12  N3  UNL     1       6.511   0.060   1.824  1.00  0.00    -0.295 N 
HETATM   13  N4  UNL     1       6.330   1.389   1.672  1.00  0.00    -0.295 N 
ATOM     14  H3  UNL     1       7.222  -0.415   2.380  1.00  0.00     0.187 HD
HETATM   15  C12 UNL     1       5.300   1.650   0.868  1.00  0.00     0.200 A 
ATOM     16  H4  UNL     1       6.908   2.103   2.116  1.00  0.00     0.187 HD
ENDBRANCH   9  10
ENDBRANCH   8   9
ENDBRANCH   7   8
ENDBRANCH   4   7
BRANCH   1  17
HETATM   17  O1  UNL     1      -3.068  -2.270  -1.230  1.00  0.00    -0.384 OA
ATOM     18  H1  UNL     1      -2.384  -2.920  -1.344  1.00  0.00     0.211 HD
ENDBRANCH   1  17
BRANCH   1  19
HETATM   19  C2  UNL     1      -3.570  -0.186  -0.390  1.00  0.00     0.018 A 
HETATM   20  C3  UNL     1      -4.256   0.232   0.690  1.00  0.00     0.019 A 
HETATM   21  C4  UNL     1      -5.166   1.216   0.519  1.00  0.00     0.028 A 
HETATM   22  C5  UNL     1      -5.317   1.707  -0.744  1.00  0.00     0.052 A 
HETATM   23 BR1  UNL     1      -6.523   3.075  -1.370  1.00  0.00    -0.043 Br
HETATM   24  S1  UNL     1      -4.196   0.788  -1.636  1.00  0.00    -0.084 SA
ENDBRANCH   1  19
TORSDOF 6
