REMARK  8 active torsions:
REMARK  status: ('A' for Active; 'I' for Inactive)
REMARK    1  A    between atoms: C6_8  and  O2_9 
REMARK    2  A    between atoms: O2_9  and  C7_10 
REMARK    3  A    between atoms: C7_10  and  C8_11 
REMARK    4  A    between atoms: C8_11  and  C9_12 
REMARK    5  A    between atoms: C9_12  and  N2_13 
REMARK    6  A    between atoms: N2_13  and  C10_15 
REMARK    7  A    between atoms: C13_18  and  N3_19 
REMARK       I    between atoms: C14_21  and  N5_23 
REMARK    8  A    between atoms: C19_30  and  O3_31 
ROOT
HETATM    1  C1  UNL     1      -7.871  -2.238   1.147  1.00  0.00     0.210 C 
HETATM    2  O1  UNL     1      -6.887  -1.495   0.858  1.00  0.00    -0.353 OA
HETATM    3  C2  UNL     1      -5.832  -0.814   0.601  1.00  0.00     0.103 A 
HETATM    4  C3  UNL     1      -4.539  -1.378   0.930  1.00  0.00     0.065 A 
HETATM    5  C4  UNL     1      -3.404  -0.684   0.671  1.00  0.00     0.080 A 
HETATM    6  C5  UNL     1      -2.109  -1.267   1.036  1.00  0.00     0.102 C 
HETATM    7  N1  UNL     1      -1.106  -1.752   1.327  1.00  0.00    -0.191 NA
HETATM    8  C6  UNL     1      -3.470   0.580   0.073  1.00  0.00     0.092 A 
HETATM    9  C18 UNL     1      -4.742   1.082  -0.231  1.00  0.00     0.077 A 
HETATM   10  C19 UNL     1      -5.907   0.436   0.015  1.00  0.00     0.104 A 
ENDROOT
BRANCH  10  11
HETATM   11  O3  UNL     1      -7.130   1.002  -0.284  1.00  0.00    -0.353 OA
HETATM   12  C20 UNL     1      -7.357   2.253  -0.807  1.00  0.00     0.210 C 
ENDBRANCH  10  11
BRANCH   8  13
HETATM   13  O2  UNL     1      -2.382   1.258  -0.183  1.00  0.00    -0.349 OA
BRANCH  13  14
HETATM   14  C7  UNL     1      -1.558   2.116  -0.563  1.00  0.00     0.177 C 
BRANCH  14  15
HETATM   15  C8  UNL     1      -0.090   2.204  -0.379  1.00  0.00     0.046 C 
BRANCH  15  16
HETATM   16  C9  UNL     1       0.773   1.066  -0.824  1.00  0.00     0.122 C 
BRANCH  16  17
HETATM   17  N2  UNL     1       2.155   1.391  -0.789  1.00  0.00    -0.390 N 
ATOM     18  H2  UNL     1       2.408   2.369  -0.933  1.00  0.00     0.159 HD
BRANCH  17  19
HETATM   19  C10 UNL     1       3.203   0.482  -0.573  1.00  0.00     0.028 A 
HETATM   20  C11 UNL     1       3.180  -0.475   0.437  1.00  0.00     0.031 A 
HETATM   21  C12 UNL     1       4.260  -1.303   0.669  1.00  0.00     0.032 A 
HETATM   22  C13 UNL     1       5.408  -1.226  -0.087  1.00  0.00     0.034 A 
HETATM   23  C16 UNL     1       5.409  -0.273  -1.091  1.00  0.00     0.032 A 
HETATM   24  C17 UNL     1       4.366   0.560  -1.347  1.00  0.00     0.031 A 
BRANCH  22  25
HETATM   25  N3  UNL     1       6.550  -1.987   0.195  1.00  0.00    -0.330 N 
HETATM   26  C14 UNL     1       7.612  -1.761   0.771  1.00  0.00     0.201 C 
HETATM   27  N4  UNL     1       8.541  -2.931   0.799  1.00  0.00    -0.062 NA
HETATM   28  N5  UNL     1       8.073  -0.614   1.397  1.00  0.00    -0.267 N 
HETATM   29  C15 UNL     1       8.954  -0.571   2.471  1.00  0.00     0.184 C 
ATOM     30  H5  UNL     1       7.736   0.279   1.037  1.00  0.00     0.180 HD
HETATM   31  N6  UNL     1       9.671  -0.520   3.382  1.00  0.00    -0.172 NA
ATOM     32  H3  UNL     1       6.486  -2.942  -0.156  1.00  0.00     0.168 HD
ENDBRANCH  22  25
ENDBRANCH  17  19
ENDBRANCH  16  17
ENDBRANCH  15  16
ENDBRANCH  14  15
ENDBRANCH  13  14
ENDBRANCH   8  13
TORSDOF 8
