REMARK  4 active torsions:
REMARK  status: ('A' for Active; 'I' for Inactive)
REMARK    1  A    between atoms: N2_7  and  C5_8 
REMARK    2  A    between atoms: C8_11  and  N3_12 
REMARK       I    between atoms: N3_12  and  C9_14 
REMARK    3  A    between atoms: C9_14  and  C10_16 
REMARK    4  A    between atoms: C10_16  and  C11_17 
ROOT
HETATM    1  C5  UNL     1      -4.145   0.162  -0.950  1.00  0.00     0.114 C 
HETATM    2  C6  UNL     1      -3.501   1.418  -1.495  1.00  0.00     0.032 C 
HETATM    3  C7  UNL     1      -2.276   1.748  -0.683  1.00  0.00     0.056 C 
HETATM    4  C8  UNL     1      -1.402   0.547  -0.611  1.00  0.00     0.223 C 
HETATM    5  O2  UNL     1      -1.939  -0.452  -1.419  1.00  0.00    -0.365 OA
HETATM    6  C18 UNL     1      -3.156  -0.921  -0.926  1.00  0.00     0.196 C 
ENDROOT
BRANCH   4   7
HETATM    7  N3  UNL     1      -0.027   0.812  -0.899  1.00  0.00    -0.335 N 
HETATM    8  C9  UNL     1       1.037   0.568   0.009  1.00  0.00     0.220 C 
HETATM    9  O1  UNL     1       0.750   0.089   1.137  1.00  0.00    -0.274 OA
ATOM     10  H3  UNL     1       0.204   1.200  -1.813  1.00  0.00     0.165 HD
BRANCH   8  11
HETATM   11  C10 UNL     1       2.445   0.848  -0.309  1.00  0.00     0.109 C 
BRANCH  11  12
HETATM   12  C11 UNL     1       3.374   0.505   0.828  1.00  0.00     0.013 C 
HETATM   13  C12 UNL     1       3.288  -0.943   1.180  1.00  0.00     0.007 C 
HETATM   14  C13 UNL     1       4.599  -1.684   1.015  1.00  0.00     0.005 C 
HETATM   15  C14 UNL     1       5.739  -1.033   1.743  1.00  0.00    -0.017 C 
HETATM   16  C15 UNL     1       7.014  -1.387   0.968  1.00  0.00     0.010 C 
HETATM   17  C16 UNL     1       5.642   0.480   1.710  1.00  0.00     0.024 C 
HETATM   18  C17 UNL     1       4.797   0.886   0.510  1.00  0.00     0.087 C 
HETATM   19 CL1  UNL     1       4.974   2.637   0.267  1.00  0.00    -0.125 Cl
ENDBRANCH  11  12
ENDBRANCH   8  11
ENDBRANCH   4   7
BRANCH   1  20
HETATM   20  N2  UNL     1      -5.341  -0.077  -1.702  1.00  0.00    -0.339 N 
HETATM   21  C2  UNL     1      -6.585  -0.389  -1.303  1.00  0.00     0.079 A 
HETATM   22  C1  UNL     1      -6.944  -0.552   0.123  1.00  0.00     0.089 C 
HETATM   23  N1  UNL     1      -7.365  -0.512  -2.389  1.00  0.00    -0.355 N 
HETATM   24  C3  UNL     1      -6.627  -0.279  -3.484  1.00  0.00     0.106 A 
ATOM     25  H1  UNL     1      -8.358  -0.745  -2.382  1.00  0.00     0.166 HD
HETATM   26  C4  UNL     1      -5.354  -0.006  -3.047  1.00  0.00     0.110 A 
ENDBRANCH   1  20
TORSDOF 4
