REMARK  7 active torsions:
REMARK  status: ('A' for Active; 'I' for Inactive)
REMARK    1  A    between atoms: S1_2  and  C2_3 
REMARK    2  A    between atoms: C2_3  and  C3_4 
REMARK    3  A    between atoms: C2_3  and  C13_17 
REMARK    4  A    between atoms: C3_4  and  C4_5 
REMARK    5  A    between atoms: C4_5  and  C5_6 
REMARK    6  A    between atoms: C5_6  and  O1_7 
REMARK    7  A    between atoms: N1_12  and  C9_13 
ROOT
HETATM    1  C3  UNL     1      -0.223   0.084  -0.437  1.00  0.00     0.049 C 
ENDROOT
BRANCH   1   2
HETATM    2  C2  UNL     1       1.167   0.112  -0.897  1.00  0.00     0.062 C 
BRANCH   2   3
HETATM    3  S1  UNL     1       1.657   1.492  -1.920  1.00  0.00    -0.168 SA
HETATM    4  C1  UNL     1       1.531   3.104  -1.196  1.00  0.00     0.090 C 
ENDBRANCH   2   3
BRANCH   2   5
HETATM    5  C13 UNL     1       2.200  -0.088   0.187  1.00  0.00     0.033 C 
HETATM    6  C14 UNL     1       2.441   1.002   1.144  1.00  0.00     0.017 C 
HETATM    7  C15 UNL     1       3.744   0.646   1.899  1.00  0.00     0.031 C 
HETATM    8  C16 UNL     1       3.765  -0.756   2.399  1.00  0.00     0.276 C 
HETATM    9  N2  UNL     1       3.276  -1.721   1.431  1.00  0.00     0.122 N 
HETATM   10  C17 UNL     1       4.077  -1.641   0.236  1.00  0.00     0.277 C 
HETATM   11  C19 UNL     1       1.929  -1.351   0.985  1.00  0.00     0.414 C 
HETATM   12  C18 UNL     1       3.528  -0.483  -0.511  1.00  0.00     0.045 C 
HETATM   13  F1  UNL     1       1.176  -1.103   2.128  1.00  0.00    -0.215 F 
ENDBRANCH   2   5
ENDBRANCH   1   2
BRANCH   1  14
HETATM   14  C4  UNL     1      -1.402  -0.003  -1.272  1.00  0.00     0.051 C 
HETATM   15  C6  UNL     1      -1.263  -1.315  -2.093  1.00  0.00     0.034 C 
HETATM   16  C7  UNL     1      -1.677  -2.394  -1.112  1.00  0.00     0.022 C 
HETATM   17  C8  UNL     1      -2.852  -1.687  -0.491  1.00  0.00     0.118 C 
HETATM   18  N1  UNL     1      -2.615  -0.283  -0.546  1.00  0.00    -0.394 N 
BRANCH  14  19
HETATM   19  C5  UNL     1      -1.779   0.982  -2.300  1.00  0.00     0.195 C 
BRANCH  19  20
HETATM   20  O1  UNL     1      -0.925   1.441  -3.222  1.00  0.00    -0.398 OA
ATOM     21  H1  UNL     1      -1.168   2.076  -3.885  1.00  0.00     0.209 HD
ENDBRANCH  19  20
ENDBRANCH  14  19
BRANCH  18  22
HETATM   22  C9  UNL     1      -3.009   0.320   0.615  1.00  0.00     0.018 C 
HETATM   23  C10 UNL     1      -3.215   1.819   0.614  1.00  0.00     0.037 C 
HETATM   24  C11 UNL     1      -4.482  -0.198   0.808  1.00  0.00     0.037 C 
HETATM   25  C12 UNL     1      -2.356  -0.059   1.919  1.00  0.00     0.037 C 
ENDBRANCH  18  22
ENDBRANCH   1  14
TORSDOF 7
