REMARK  4 active torsions:
REMARK  status: ('A' for Active; 'I' for Inactive)
REMARK    1  A    between atoms: C2_2  and  O1_3 
REMARK    2  A    between atoms: C7_9  and  C8_10 
REMARK    3  A    between atoms: C8_10  and  C9_11 
REMARK    4  A    between atoms: C10_12  and  C11_13 
ROOT
HETATM    1  C1  UNL     1      -3.670  -1.443  -1.331  1.00  0.00     0.045 C 
HETATM    2  C2  UNL     1      -3.569  -0.406  -0.259  1.00  0.00     0.055 C 
HETATM    3  C3  UNL     1      -3.156   0.952  -0.860  1.00  0.00     0.042 C 
HETATM    4  C4  UNL     1      -1.694   0.912  -0.605  1.00  0.00    -0.007 C 
HETATM    5  C5  UNL     1      -0.899   2.136  -0.675  1.00  0.00     0.006 C 
HETATM    6  C6  UNL     1       0.571   1.711  -0.460  1.00  0.00     0.013 C 
HETATM    7  C7  UNL     1       0.734   0.709   0.597  1.00  0.00    -0.010 C 
HETATM    8  C13 UNL     1       1.685   1.107   1.741  1.00  0.00     0.177 C 
HETATM    9  O3  UNL     1       1.317   0.207   2.746  1.00  0.00    -0.390 OA
HETATM   10  C14 UNL     1      -0.003  -0.140   2.604  1.00  0.00     0.173 C 
HETATM   11  C15 UNL     1      -0.511   0.716   1.491  1.00  0.00     0.025 C 
HETATM   12  C16 UNL     1      -1.768   0.505   0.885  1.00  0.00    -0.001 C 
HETATM   13  C17 UNL     1      -2.433  -0.789   0.713  1.00  0.00     0.043 C 
ENDROOT
BRANCH   7  14
HETATM   14  C8  UNL     1       1.173  -0.657   0.199  1.00  0.00     0.039 C 
BRANCH  14  15
HETATM   15  C9  UNL     1       2.506  -0.570  -0.469  1.00  0.00    -0.027 C 
HETATM   16  C10 UNL     1       3.581  -1.192  -0.002  1.00  0.00     0.003 C 
BRANCH  16  17
HETATM   17  C11 UNL     1       4.886  -1.104  -0.661  1.00  0.00     0.167 A 
HETATM   18  C12 UNL     1       5.201  -2.020  -1.770  1.00  0.00     0.204 A 
HETATM   19  O2  UNL     1       4.850  -0.613  -2.020  1.00  0.00    -0.377 OA
ENDBRANCH  16  17
ENDBRANCH  14  15
ENDBRANCH   7  14
BRANCH   2  20
HETATM   20  O1  UNL     1      -4.717  -0.248   0.482  1.00  0.00    -0.390 OA
ATOM     21  H1  UNL     1      -4.653   0.411   1.163  1.00  0.00     0.210 HD
ENDBRANCH   2  20
TORSDOF 4
