REMARK  3 active torsions:
REMARK  status: ('A' for Active; 'I' for Inactive)
REMARK    1  A    between atoms: S1_2  and  C2_3 
REMARK    2  A    between atoms: C6_7  and  C7_8 
REMARK    3  A    between atoms: C8_9  and  C10_12 
ROOT
HETATM    1  C7  UNL     1      -2.187   0.998   0.243  1.00  0.00     0.037 C 
HETATM    2  C8  UNL     1      -3.439   0.935   0.089  1.00  0.00     0.121 C 
HETATM    3  C9  UNL     1      -4.317  -0.122  -0.225  1.00  0.00     0.106 C 
HETATM    4  N1  UNL     1      -5.087  -0.981  -0.493  1.00  0.00    -0.191 NA
ENDROOT
BRANCH   2   5
HETATM    5  C10 UNL     1      -4.210   2.241   0.265  1.00  0.00     0.220 C 
HETATM    6  O1  UNL     1      -5.452   2.263   0.129  1.00  0.00    -0.643 OA
HETATM    7  O2  UNL     1      -3.453   3.345   0.574  1.00  0.00    -0.643 OA
ENDBRANCH   2   5
BRANCH   1   8
HETATM    8  C6  UNL     1      -0.975   0.261   0.234  1.00  0.00    -0.048 C 
HETATM    9  C5  UNL     1       0.191   0.975   0.479  1.00  0.00     0.016 C 
HETATM   10  C4  UNL     1       1.512   0.345   0.495  1.00  0.00    -0.045 C 
HETATM   11  C2  UNL     1       2.548   1.017   0.036  1.00  0.00    -0.020 C 
HETATM   12  C15 UNL     1       1.607  -1.010   1.029  1.00  0.00     0.041 C 
HETATM   13  C3  UNL     1       2.232   2.438  -0.485  1.00  0.00     0.056 C 
HETATM   14  C14 UNL     1       0.216  -1.573   1.221  1.00  0.00     0.018 C 
HETATM   15  C11 UNL     1      -0.695  -1.138   0.029  1.00  0.00    -0.020 C 
HETATM   16  C12 UNL     1      -1.775  -2.175   0.069  1.00  0.00     0.020 C 
HETATM   17  C13 UNL     1       0.098  -1.386  -1.257  1.00  0.00     0.020 C 
BRANCH  11  18
HETATM   18  S1  UNL     1       4.228   0.579  -0.089  1.00  0.00    -0.139 SA
HETATM   19  C1  UNL     1       4.664  -1.013   0.514  1.00  0.00     0.095 C 
ENDBRANCH  11  18
ENDBRANCH   1   8
TORSDOF 3
