REMARK  10 active torsions:
REMARK  status: ('A' for Active; 'I' for Inactive)
REMARK    1  A    between atoms: N1_1  and  C1_4 
REMARK    2  A    between atoms: C2_7  and  N3_8 
REMARK    3  A    between atoms: N3_8  and  C3_10 
REMARK    4  A    between atoms: C3_10  and  N4_11 
REMARK    5  A    between atoms: N4_11  and  N5_12 
REMARK    6  A    between atoms: N4_11  and  O1_15 
REMARK    7  A    between atoms: C4_19  and  N7_20 
REMARK    8  A    between atoms: N7_20  and  C5_22 
REMARK    9  A    between atoms: C5_22  and  C6_23 
REMARK   10  A    between atoms: C6_23  and  O2_24 
ROOT
HETATM    1  C1  UNL     1      -0.668  -1.334  -1.484  1.00  0.00     0.705 A 
HETATM    2  N2  UNL     1       0.627  -0.977  -1.483  1.00  0.00    -0.022 N 
ATOM      3  H2  UNL     1       1.235  -1.277  -2.245  1.00  0.00     0.203 HD
HETATM    4  C2  UNL     1       1.135  -0.219  -0.474  1.00  0.00     0.708 A 
HETATM    5  N6  UNL     1       0.294   0.156   0.515  1.00  0.00    -0.021 N 
ATOM      6  H6  UNL     1       0.661   0.725   1.278  1.00  0.00     0.203 HD
HETATM    7  C4  UNL     1      -1.007  -0.188   0.538  1.00  0.00     0.707 A 
HETATM    8  N8  UNL     1      -1.471  -0.939  -0.478  1.00  0.00    -0.022 N 
ATOM      9  H8  UNL     1      -2.453  -1.215  -0.486  1.00  0.00     0.203 HD
ENDROOT
BRANCH   4  10
HETATM   10  N3  UNL     1       2.500   0.146  -0.491  1.00  0.00    -0.209 N 
ATOM     11  H3  UNL     1       3.098  -0.160  -1.259  1.00  0.00     0.179 HD
BRANCH  10  12
HETATM   12  C3  UNL     1       3.050   0.946   0.567  1.00  0.00     0.284 C 
BRANCH  12  13
HETATM   13  N4  UNL     1       4.448   1.215   0.379  1.00  0.00    -0.095 NA
BRANCH  13  14
HETATM   14  N5  UNL     1       5.221   0.064   0.327  1.00  0.00    -0.339 NA
ATOM     15  H52 UNL     1       5.042  -0.496   1.160  1.00  0.00     0.173 HD
ATOM     16  H51 UNL     1       6.214   0.255   0.193  1.00  0.00     0.173 HD
ENDBRANCH  13  14
BRANCH  13  17
HETATM   17  O1  UNL     1       4.684   1.952  -0.718  1.00  0.00    -0.293 OA
ATOM     18  H1  UNL     1       5.609   2.130  -0.842  1.00  0.00     0.239 HD
ENDBRANCH  13  17
ENDBRANCH  12  13
ENDBRANCH  10  12
ENDBRANCH   4  10
BRANCH   1  19
HETATM   19  N1  UNL     1      -1.165  -2.054  -2.436  1.00  0.00    -0.234 N 
ATOM     20  H12 UNL     1      -0.557  -2.353  -3.198  1.00  0.00     0.174 HD
ATOM     21  H11 UNL     1      -2.148  -2.325  -2.437  1.00  0.00     0.174 HD
ENDBRANCH   1  19
BRANCH   7  22
HETATM   22  N7  UNL     1      -1.754   0.210   1.523  1.00  0.00    -0.223 N 
ATOM     23  H7  UNL     1      -1.332   0.777   2.259  1.00  0.00     0.177 HD
BRANCH  22  24
HETATM   24  C5  UNL     1      -3.141  -0.113   1.618  1.00  0.00     0.164 C 
BRANCH  24  25
HETATM   25  C6  UNL     1      -4.019   0.822   0.816  1.00  0.00     0.184 C 
BRANCH  25  26
HETATM   26  O2  UNL     1      -5.355   0.461   0.945  1.00  0.00    -0.399 OA
ATOM     27  H2  UNL     1      -5.906   1.048   0.441  1.00  0.00     0.209 HD
ENDBRANCH  25  26
ENDBRANCH  24  25
ENDBRANCH  22  24
ENDBRANCH   7  22
TORSDOF 10
