REMARK  9 active torsions:
REMARK  status: ('A' for Active; 'I' for Inactive)
REMARK    1  A    between atoms: N1_1  and  N2_4 
REMARK    2  A    between atoms: N2_4  and  C1_5 
REMARK    3  A    between atoms: C1_5  and  N3_6 
REMARK    4  A    between atoms: C1_5  and  O1_10 
REMARK    5  A    between atoms: O1_10  and  C2_11 
REMARK    6  A    between atoms: C2_11  and  C3_12 
REMARK    7  A    between atoms: C3_12  and  N4_13 
REMARK    8  A    between atoms: N4_13  and  N5_15 
REMARK       I    between atoms: C4_17  and  N7_19 
REMARK    9  A    between atoms: N7_19  and  C5_21 
ROOT
HETATM    1  N4  UNL     1       0.412  -1.298   1.415  1.00  0.00    -0.265 N 
ATOM      2  H4  UNL     1       0.842  -1.897   2.120  1.00  0.00     0.196 HD
ENDROOT
BRANCH   1   3
HETATM    3  C3  UNL     1      -0.791  -0.865   1.532  1.00  0.00    -0.028 C 
BRANCH   3   4
HETATM    4  C2  UNL     1      -1.997  -0.347   1.394  1.00  0.00     0.277 C 
BRANCH   4   5
HETATM    5  O1  UNL     1      -2.943  -1.101   0.777  1.00  0.00    -0.333 OA
BRANCH   5   6
HETATM    6  C1  UNL     1      -3.374  -1.016  -0.541  1.00  0.00     0.435 C 
BRANCH   6   7
HETATM    7  N2  UNL     1      -3.940   0.292  -0.871  1.00  0.00    -0.087 NA
BRANCH   7   8
HETATM    8  N1  UNL     1      -5.027   0.613  -0.082  1.00  0.00    -0.344 N 
ATOM      9  H12 UNL     1      -5.384  -0.005   0.647  1.00  0.00     0.172 HD
ATOM     10  H11 UNL     1      -5.422   1.525  -0.312  1.00  0.00     0.172 HD
ENDBRANCH   7   8
ENDBRANCH   6   7
BRANCH   6  11
HETATM   11  N3  UNL     1      -4.404  -2.029  -0.740  1.00  0.00    -0.037 N 
ATOM     12  H33 UNL     1      -5.257  -1.828  -0.218  1.00  0.00     0.279 HD
ATOM     13  H32 UNL     1      -4.805  -2.001  -1.678  1.00  0.00     0.279 HD
ATOM     14  H31 UNL     1      -4.009  -2.941  -0.510  1.00  0.00     0.279 HD
ENDBRANCH   6  11
ENDBRANCH   5   6
ENDBRANCH   4   5
ENDBRANCH   3   4
ENDBRANCH   1   3
BRANCH   1  15
HETATM   15  N5  UNL     1       1.097  -0.900   0.265  1.00  0.00    -0.267 N 
HETATM   16  C4  UNL     1       1.737   0.216   0.325  1.00  0.00     0.209 C 
HETATM   17  N6  UNL     1       1.749   1.012   1.508  1.00  0.00    -0.062 NA
HETATM   18  N7  UNL     1       2.475   0.721  -0.797  1.00  0.00    -0.314 N 
ATOM     19  H7  UNL     1       1.980   1.211  -1.542  1.00  0.00     0.170 HD
ATOM     20  H5  UNL     1       1.091  -1.467  -0.583  1.00  0.00     0.190 HD
BRANCH  18  21
HETATM   21  C5  UNL     1       3.747   0.567  -0.880  1.00  0.00     0.137 A 
HETATM   22  C6  UNL     1       4.510  -0.076   0.067  1.00  0.00     0.154 A 
HETATM   23  N8  UNL     1       5.794  -0.037  -0.369  1.00  0.00    -0.292 N 
HETATM   24  N9  UNL     1       5.828   0.597  -1.527  1.00  0.00    -0.021 NA
ATOM     25  H8  UNL     1       6.599  -0.432   0.117  1.00  0.00     0.183 HD
HETATM   26  N10 UNL     1       4.594   0.967  -1.844  1.00  0.00    -0.268 N 
ATOM     27  H10 UNL     1       4.329   1.476  -2.688  1.00  0.00     0.186 HD
ENDBRANCH  18  21
ENDBRANCH   1  15
TORSDOF 9
