REMARK  5 active torsions:
REMARK  status: ('A' for Active; 'I' for Inactive)
REMARK    1  A    between atoms: C2_2  and  C3_3 
REMARK    2  A    between atoms: C2_2  and  N3_10 
REMARK       I    between atoms: C3_3  and  N1_5 
REMARK    3  A    between atoms: N1_5  and  N2_7 
REMARK    4  A    between atoms: C4_15  and  N6_16 
REMARK       I    between atoms: N6_16  and  C5_18 
REMARK       I    between atoms: C5_18  and  N7_20 
REMARK    5  A    between atoms: N7_20  and  N8_22 
ROOT
HETATM    1  N3  UNL     1      -0.923  -0.987  -0.632  1.00  0.00    -0.247 N 
HETATM    2  N4  UNL     1      -0.328  -1.088  -1.825  1.00  0.00    -0.237 N 
ATOM      3  H4  UNL     1      -0.787  -1.404  -2.679  1.00  0.00     0.208 HD
HETATM    4  N5  UNL     1       0.934  -0.722  -1.743  1.00  0.00    -0.268 N 
ATOM      5  H5  UNL     1       1.596  -0.713  -2.519  1.00  0.00     0.190 HD
HETATM    6  C4  UNL     1       1.214  -0.364  -0.485  1.00  0.00     0.168 A 
HETATM    7  C6  UNL     1       0.030  -0.537   0.202  1.00  0.00     0.180 A 
HETATM    8  N9  UNL     1      -0.128  -0.276   1.573  1.00  0.00    -0.077 NA
ENDROOT
BRANCH   1   9
HETATM    9  C2  UNL     1      -2.313  -1.304  -0.330  1.00  0.00     0.200 C 
HETATM   10  C1  UNL     1      -2.525  -1.712   1.109  1.00  0.00     0.044 C 
BRANCH   9  11
HETATM   11  C3  UNL     1      -3.239  -0.208  -0.732  1.00  0.00     0.260 C 
HETATM   12  O1  UNL     1      -4.051  -0.356  -1.687  1.00  0.00    -0.269 OA
HETATM   13  N1  UNL     1      -3.253   1.046  -0.065  1.00  0.00    -0.275 N 
ATOM     14  H1  UNL     1      -2.613   1.206   0.713  1.00  0.00     0.189 HD
BRANCH  13  15
HETATM   15  N2  UNL     1      -4.116   2.052  -0.449  1.00  0.00    -0.343 N 
ATOM     16  H22 UNL     1      -4.750   1.875  -1.229  1.00  0.00     0.176 HD
ATOM     17  H21 UNL     1      -4.126   2.952   0.030  1.00  0.00     0.176 HD
ENDBRANCH  13  15
ENDBRANCH   9  11
ENDBRANCH   1   9
BRANCH   6  18
HETATM   18  N6  UNL     1       2.429   0.103   0.103  1.00  0.00    -0.289 N 
HETATM   19  C5  UNL     1       3.616   0.266  -0.637  1.00  0.00     0.340 C 
HETATM   20  O2  UNL     1       3.626  -0.002  -1.852  1.00  0.00    -0.245 OA
HETATM   21  N7  UNL     1       4.783   0.728  -0.010  1.00  0.00    -0.258 N 
ATOM     22  H7  UNL     1       4.768   0.946   0.986  1.00  0.00     0.191 HD
ATOM     23  H6  UNL     1       2.437   0.327   1.098  1.00  0.00     0.172 HD
BRANCH  21  24
HETATM   24  N8  UNL     1       5.967   0.893  -0.736  1.00  0.00    -0.341 N 
ATOM     25  H82 UNL     1       5.965   0.671  -1.731  1.00  0.00     0.177 HD
ATOM     26  H81 UNL     1       6.815   1.229  -0.280  1.00  0.00     0.177 HD
ENDBRANCH  21  24
ENDBRANCH   6  18
TORSDOF 5
