REMARK  0 active torsions:
REMARK  status: ('A' for Active; 'I' for Inactive)
ROOT
HETATM    1  C1  UNL     1       3.075   1.260   0.120  1.00  0.00     0.013 A 
HETATM    2  C2  UNL     1       3.353  -0.025  -0.044  1.00  0.00     0.013 A 
HETATM    3  C3  UNL     1       1.922  -0.356  -0.068  1.00  0.00    -0.024 A 
HETATM    4  C4  UNL     1       0.901  -1.279  -0.171  1.00  0.00     0.042 A 
HETATM    5  C5  UNL     1      -0.438  -0.915  -0.109  1.00  0.00     0.043 A 
HETATM    6  N1  UNL     1      -1.432  -1.831  -0.211  1.00  0.00    -0.365 N 
ATOM      7  H1  UNL     1      -1.191  -2.814  -0.336  1.00  0.00     0.165 HD
HETATM    8  C6  UNL     1      -2.729  -1.477  -0.151  1.00  0.00     0.088 A 
HETATM    9  C7  UNL     1      -3.071  -0.164   0.017  1.00  0.00     0.018 A 
HETATM   10  C8  UNL     1      -2.051   0.777   0.122  1.00  0.00     0.015 A 
HETATM   11  C9  UNL     1      -0.720   0.417   0.061  1.00  0.00    -0.009 A 
HETATM   12  C10 UNL     1       0.304   1.344   0.164  1.00  0.00     0.026 A 
HETATM   13  C11 UNL     1       1.635   0.982   0.103  1.00  0.00    -0.025 A 
ENDROOT
TORSDOF 0
