REMARK  3 active torsions:
REMARK  status: ('A' for Active; 'I' for Inactive)
REMARK    1  A    between atoms: N1_4  and  N2_6 
REMARK       I    between atoms: N2_6  and  C4_8 
REMARK       I    between atoms: C4_8  and  N4_12 
REMARK       I    between atoms: N4_12  and  C5_14 
REMARK    2  A    between atoms: C5_14  and  C6_16 
REMARK    3  A    between atoms: C8_21  and  N6_22 
ROOT
HETATM    1  N2  UNL     1      -2.182   0.379   0.412  1.00  0.00    -0.133 N 
ATOM      2  H2  UNL     1      -2.371   0.014   1.345  1.00  0.00     0.205 HD
HETATM    3  C4  UNL     1      -1.347   1.510   0.215  1.00  0.00     0.693 C 
HETATM    4  N3  UNL     1      -1.937   2.653   0.022  1.00  0.00    -0.233 N 
ATOM      5  H31 UNL     1      -1.337   3.466  -0.120  1.00  0.00     0.174 HD
ATOM      6  H32 UNL     1      -2.954   2.734   0.013  1.00  0.00     0.174 HD
HETATM    7  N4  UNL     1       0.066   1.398   0.227  1.00  0.00    -0.152 N 
ATOM      8  H4  UNL     1       0.640   2.229   0.082  1.00  0.00     0.188 HD
HETATM    9  C5  UNL     1       0.688   0.146   0.438  1.00  0.00     0.305 C 
HETATM   10  O1  UNL     1      -0.039  -0.860   0.614  1.00  0.00    -0.263 OA
ENDROOT
BRANCH   9  11
HETATM   11  C6  UNL     1       2.139   0.013   0.454  1.00  0.00     0.195 A 
HETATM   12  N5  UNL     1       3.059   0.977   0.285  1.00  0.00    -0.299 N 
HETATM   13  C7  UNL     1       4.295   0.439   0.372  1.00  0.00     0.270 A 
ATOM     14  H5  UNL     1       2.856   1.962   0.117  1.00  0.00     0.171 HD
HETATM   15  O2  UNL     1       5.571   0.709   0.319  1.00  0.00    -0.243 OA
HETATM   16  N8  UNL     1       4.137  -0.872   0.596  1.00  0.00    -0.150 N 
HETATM   17  C8  UNL     1       6.257  -0.391   0.504  1.00  0.00     0.241 A 
HETATM   18  N7  UNL     1       5.359  -1.372   0.676  1.00  0.00    -0.240 N 
ATOM     19  H7  UNL     1       5.584  -2.353   0.843  1.00  0.00     0.193 HD
HETATM   20  N9  UNL     1       2.842  -1.117   0.644  1.00  0.00    -0.256 N 
ATOM     21  H9  UNL     1       2.431  -2.037   0.803  1.00  0.00     0.191 HD
BRANCH  17  22
HETATM   22  N6  UNL     1       7.565  -0.496   0.516  1.00  0.00    -0.364 N 
ATOM     23  H62 UNL     1       8.248   0.250   0.385  1.00  0.00     0.159 HD
ATOM     24  H61 UNL     1       8.099  -1.353   0.660  1.00  0.00     0.159 HD
ENDBRANCH  17  22
ENDBRANCH   9  11
BRANCH   1  25
HETATM   25  N1  UNL     1      -2.733  -0.212  -0.727  1.00  0.00    -0.295 N 
HETATM   26  C2  UNL     1      -4.010  -0.355  -0.839  1.00  0.00    -0.004 C 
HETATM   27  C1  UNL     1      -4.895   0.113   0.254  1.00  0.00     0.064 C 
HETATM   28  C3  UNL     1      -4.517  -0.990  -2.077  1.00  0.00     0.064 C 
ATOM     29  H1  UNL     1      -2.120  -0.533  -1.477  1.00  0.00     0.186 HD
ENDBRANCH   1  25
TORSDOF 3
