REMARK  10 active torsions:
REMARK  status: ('A' for Active; 'I' for Inactive)
REMARK    1  A    between atoms: C2_2  and  O1_3 
REMARK    2  A    between atoms: C5_7  and  O2_8 
REMARK    3  A    between atoms: O2_8  and  C6_9 
REMARK    4  A    between atoms: C8_11  and  O3_12 
REMARK    5  A    between atoms: C9_14  and  C10_15 
REMARK    6  A    between atoms: C11_18  and  O6_19 
REMARK    7  A    between atoms: O6_19  and  C12_20 
REMARK    8  A    between atoms: C14_22  and  O7_23 
REMARK    9  A    between atoms: C16_26  and  O8_27 
REMARK   10  A    between atoms: C17_29  and  O9_30 
ROOT
HETATM    1  C6  UNL     1       0.948  -0.455  -0.428  1.00  0.00     0.155 C 
HETATM    2  C7  UNL     1       0.662  -1.755  -1.138  1.00  0.00     0.067 C 
HETATM    3  C8  UNL     1      -0.297  -2.535  -0.260  1.00  0.00     0.137 C 
HETATM    4  C9  UNL     1      -1.431  -1.719   0.254  1.00  0.00     0.147 C 
HETATM    5  C11 UNL     1      -1.548  -0.392  -0.431  1.00  0.00     0.170 C 
HETATM    6  C17 UNL     1      -0.287   0.407  -0.472  1.00  0.00     0.177 C 
ENDROOT
BRANCH   5   7
HETATM    7  O6  UNL     1      -2.551   0.378   0.141  1.00  0.00    -0.374 OA
BRANCH   7   8
HETATM    8  C12 UNL     1      -3.598   0.646  -0.734  1.00  0.00     0.153 C 
HETATM    9  C13 UNL     1      -3.850   2.112  -0.913  1.00  0.00     0.066 C 
HETATM   10  C14 UNL     1      -5.202   2.387  -0.242  1.00  0.00     0.123 C 
HETATM   11  C15 UNL     1      -5.927   1.075  -0.443  1.00  0.00     0.066 C 
HETATM   12  C16 UNL     1      -4.849   0.069  -0.138  1.00  0.00     0.149 C 
BRANCH  10  13
HETATM   13  O7  UNL     1      -4.983   2.548   1.131  1.00  0.00    -0.395 OA
ATOM     14  H7  UNL     1      -5.820   2.718   1.546  1.00  0.00     0.210 HD
ENDBRANCH  10  13
BRANCH  12  15
HETATM   15  O8  UNL     1      -5.104  -1.164  -0.735  1.00  0.00    -0.393 OA
ATOM     16  H8  UNL     1      -5.896  -1.529  -0.358  1.00  0.00     0.210 HD
ENDBRANCH  12  15
ENDBRANCH   7   8
ENDBRANCH   5   7
BRANCH   4  17
HETATM   17  C10 UNL     1      -1.377  -1.643   1.718  1.00  0.00     0.182 C 
HETATM   18  O4  UNL     1      -1.276  -0.623   2.409  1.00  0.00    -0.648 OA
HETATM   19  O5  UNL     1      -1.449  -2.866   2.409  1.00  0.00    -0.648 OA
ENDBRANCH   4  17
BRANCH   6  20
HETATM   20  O9  UNL     1      -0.258   1.346   0.560  1.00  0.00    -0.390 OA
ATOM     21  H9  UNL     1      -1.037   1.889   0.532  1.00  0.00     0.210 HD
ENDBRANCH   6  20
BRANCH   3  22
HETATM   22  O3  UNL     1      -0.735  -3.624  -1.043  1.00  0.00    -0.394 OA
ATOM     23  H3  UNL     1      -1.336  -4.113  -0.493  1.00  0.00     0.210 HD
ENDBRANCH   3  22
BRANCH   1  24
HETATM   24  O2  UNL     1       2.096   0.158  -0.792  1.00  0.00    -0.378 OA
BRANCH  24  25
HETATM   25  C5  UNL     1       3.078   0.299   0.126  1.00  0.00     0.125 C 
HETATM   26  C4  UNL     1       3.619   1.701   0.270  1.00  0.00     0.035 C 
HETATM   27  C3  UNL     1       5.021   1.534   0.822  1.00  0.00     0.040 C 
HETATM   28  C2  UNL     1       5.497   0.283   0.172  1.00  0.00     0.057 C 
HETATM   29  C1  UNL     1       6.213  -0.618   1.183  1.00  0.00     0.045 C 
HETATM   30  C18 UNL     1       4.315  -0.424  -0.428  1.00  0.00     0.069 C 
BRANCH  28  31
HETATM   31  O1  UNL     1       6.459   0.628  -0.790  1.00  0.00    -0.390 OA
ATOM     32  H1  UNL     1       6.015   1.187  -1.417  1.00  0.00     0.210 HD
ENDBRANCH  28  31
ENDBRANCH  24  25
ENDBRANCH   1  24
TORSDOF 10
