REMARK  13 active torsions:
REMARK  status: ('A' for Active; 'I' for Inactive)
REMARK    1  A    between atoms: N1_1  and  O1_4 
REMARK    2  A    between atoms: O1_4  and  C1_5 
REMARK       I    between atoms: C1_5  and  N2_7 
REMARK    3  A    between atoms: N2_7  and  C2_9 
REMARK    4  A    between atoms: C7_15  and  O4_16 
REMARK    5  A    between atoms: O4_16  and  C8_17 
REMARK    6  A    between atoms: C8_17  and  O5_18 
REMARK    7  A    between atoms: C8_17  and  N3_20 
REMARK    8  A    between atoms: N3_20  and  O6_22 
REMARK    9  A    between atoms: C11_27  and  C12_28 
REMARK   10  A    between atoms: C12_28  and  N4_29 
REMARK   11  A    between atoms: N4_29  and  N5_31 
REMARK   12  A    between atoms: C14_36  and  O11_37 
REMARK   13  A    between atoms: C14_36  and  O12_39 
ROOT
HETATM    1  C2  UNL     1       2.272  -0.331  -0.259  1.00  0.00     0.100 A 
HETATM    2  C3  UNL     1       0.885  -0.257  -0.145  1.00  0.00     0.025 A 
HETATM    3  C4  UNL     1      -0.365  -0.861  -0.321  1.00  0.00     0.036 A 
HETATM    4  C5  UNL     1      -1.493  -0.157   0.044  1.00  0.00     0.021 A 
HETATM    5  C6  UNL     1      -1.367   1.106   0.564  1.00  0.00     0.214 A 
HETATM    6  O3  UNL     1      -2.429   1.730   0.891  1.00  0.00    -0.285 OA
HETATM    7  C7  UNL     1      -0.136   1.747   0.756  1.00  0.00     0.139 A 
HETATM    8  C9  UNL     1       1.004   1.074   0.405  1.00  0.00     0.067 A 
HETATM    9  C10 UNL     1       2.350   0.934   0.266  1.00  0.00     0.213 A 
HETATM   10  O7  UNL     1       3.322   1.733   0.542  1.00  0.00    -0.285 OA
HETATM   11  C11 UNL     1      -2.707  -0.990  -0.229  1.00  0.00     0.119 C 
HETATM   12  C13 UNL     1      -2.177  -2.028  -1.134  1.00  0.00     0.203 C 
HETATM   13  O10 UNL     1      -2.839  -2.636  -1.957  1.00  0.00    -0.291 OA
HETATM   14  C14 UNL     1      -0.730  -2.173  -0.848  1.00  0.00     0.255 C 
ENDROOT
BRANCH   1  15
HETATM   15  N2  UNL     1       3.135  -1.355  -0.739  1.00  0.00    -0.297 N 
HETATM   16  C1  UNL     1       4.524  -1.260  -0.783  1.00  0.00     0.386 C 
HETATM   17  O2  UNL     1       5.111  -0.230  -0.387  1.00  0.00    -0.236 OA
ATOM     18  H2  UNL     1       2.707  -2.218  -1.074  1.00  0.00     0.171 HD
BRANCH  16  19
HETATM   19  O1  UNL     1       5.315  -2.299  -1.264  1.00  0.00    -0.188 OA
BRANCH  19  20
HETATM   20  N1  UNL     1       6.670  -2.166  -1.290  1.00  0.00    -0.301 N 
ATOM     21  H12 UNL     1       7.089  -1.299  -0.954  1.00  0.00     0.184 HD
ATOM     22  H11 UNL     1       7.250  -2.928  -1.643  1.00  0.00     0.184 HD
ENDBRANCH  19  20
ENDBRANCH  16  19
ENDBRANCH   1  15
BRANCH  14  23
HETATM   23  O11 UNL     1      -0.500  -3.218   0.045  1.00  0.00    -0.356 OA
ATOM     24  H11 UNL     1      -0.737  -4.072  -0.298  1.00  0.00     0.214 HD
ENDBRANCH  14  23
BRANCH  14  25
HETATM   25  O12 UNL     1      -0.056  -2.495  -2.031  1.00  0.00    -0.356 OA
ATOM     26  H12 UNL     1      -0.293  -3.349  -2.374  1.00  0.00     0.214 HD
ENDBRANCH  14  25
BRANCH   7  27
HETATM   27  O4  UNL     1      -0.155   3.023   1.292  1.00  0.00    -0.296 OA
BRANCH  27  28
HETATM   28  C8  UNL     1      -0.250   4.215   0.561  1.00  0.00     0.394 C 
BRANCH  28  29
HETATM   29  O5  UNL     1      -1.497   4.843   0.772  1.00  0.00    -0.353 OA
ATOM     30  H5  UNL     1      -1.561   5.651   0.277  1.00  0.00     0.214 HD
ENDBRANCH  28  29
BRANCH  28  31
HETATM   31  N3  UNL     1       0.738   5.168   0.985  1.00  0.00    -0.252 N 
ATOM     32  H3  UNL     1       0.479   6.075   1.372  1.00  0.00     0.192 HD
BRANCH  31  33
HETATM   33  O6  UNL     1       2.004   4.803   0.845  1.00  0.00    -0.290 OA
ATOM     34  H6  UNL     1       2.657   5.433   1.125  1.00  0.00     0.244 HD
ENDBRANCH  31  33
ENDBRANCH  28  31
ENDBRANCH  27  28
ENDBRANCH   7  27
BRANCH  11  35
HETATM   35  C12 UNL     1      -3.219  -1.631   1.046  1.00  0.00     0.163 C 
BRANCH  35  36
HETATM   36  N4  UNL     1      -4.376  -2.407   0.699  1.00  0.00    -0.276 N 
ATOM     37  H4  UNL     1      -4.386  -3.413   0.870  1.00  0.00     0.186 HD
BRANCH  36  38
HETATM   38  N5  UNL     1      -5.479  -1.790   0.132  1.00  0.00    -0.043 N 
HETATM   39  O8  UNL     1      -6.048  -2.222  -0.914  1.00  0.00    -0.517 OA
HETATM   40  O9  UNL     1      -5.951  -0.646   0.772  1.00  0.00    -0.517 OA
ENDBRANCH  36  38
ENDBRANCH  35  36
ENDBRANCH  11  35
TORSDOF 13
