REMARK  4 active torsions:
REMARK  status: ('A' for Active; 'I' for Inactive)
REMARK    1  A    between atoms: C4_9  and  N4_10 
REMARK    2  A    between atoms: N4_10  and  C5_12 
REMARK    3  A    between atoms: C5_12  and  S1_13 
REMARK    4  A    between atoms: S1_13  and  C6_14 
ROOT
HETATM    1  N4  UNL     1       1.251   0.973  -1.178  1.00  0.00    -0.215 N 
ATOM      2  H4  UNL     1       1.157   0.413  -2.025  1.00  0.00     0.178 HD
ENDROOT
BRANCH   1   3
HETATM    3  C4  UNL     1       2.223   0.746  -0.363  1.00  0.00     0.708 A 
HETATM    4  N3  UNL     1       2.503   1.376   0.791  1.00  0.00    -0.019 N 
HETATM    5  C3  UNL     1       3.619   0.812   1.326  1.00  0.00     0.720 A 
ATOM      6  H3  UNL     1       1.970   2.145   1.196  1.00  0.00     0.203 HD
HETATM    7  N2  UNL     1       4.505   0.798   2.324  1.00  0.00    -0.196 N 
HETATM    8  N8  UNL     1       3.975  -0.150   0.464  1.00  0.00    -0.056 N 
HETATM    9  C2  UNL     1       5.418  -0.163   2.102  1.00  0.00     0.153 A 
ATOM     10  H2  UNL     1       4.491   1.421   3.131  1.00  0.00     0.183 HD
HETATM   11  C1  UNL     1       5.096  -0.783   0.914  1.00  0.00     0.172 A 
HETATM   12  N1  UNL     1       5.784  -1.848   0.296  1.00  0.00    -0.079 NA
HETATM   13  N7  UNL     1       3.150  -0.210  -0.562  1.00  0.00    -0.109 N 
ATOM     14  H7  UNL     1       3.203  -0.854  -1.351  1.00  0.00     0.207 HD
ENDBRANCH   1   3
BRANCH   1  15
HETATM   15  C5  UNL     1       0.289   2.023  -0.894  1.00  0.00     0.219 C 
BRANCH  15  16
HETATM   16  S1  UNL     1      -0.595   1.567   0.623  1.00  0.00    -0.090 SA
BRANCH  16  17
HETATM   17  C6  UNL     1      -1.557   0.094   0.256  1.00  0.00     0.093 A 
HETATM   18  N5  UNL     1      -1.059  -1.137   0.420  1.00  0.00    -0.291 N 
HETATM   19  N6  UNL     1      -1.764  -2.217   0.151  1.00  0.00    -0.265 N 
ATOM     20  H5  UNL     1      -0.104  -1.243   0.764  1.00  0.00     0.187 HD
HETATM   21  C7  UNL     1      -3.020  -2.106  -0.302  1.00  0.00     0.266 A 
ATOM     22  H6  UNL     1      -1.352  -3.140   0.288  1.00  0.00     0.190 HD
HETATM   23  O1  UNL     1      -3.738  -3.105  -0.575  1.00  0.00    -0.266 OA
HETATM   24  C8  UNL     1      -3.580  -0.877  -0.488  1.00  0.00     0.020 A 
HETATM   25  C9  UNL     1      -2.840   0.246  -0.205  1.00  0.00    -0.011 A 
HETATM   26  C12 UNL     1      -4.930  -0.402  -0.971  1.00  0.00     0.045 C 
HETATM   27  C10 UNL     1      -3.650   1.486  -0.481  1.00  0.00     0.042 C 
HETATM   28  C11 UNL     1      -5.051   0.913  -0.227  1.00  0.00     0.009 C 
ENDBRANCH  16  17
ENDBRANCH  15  16
ENDBRANCH   1  15
TORSDOF 4
