REMARK  1 active torsions:
REMARK  status: ('A' for Active; 'I' for Inactive)
REMARK    1  A    between atoms: O1_1  and  C1_3 
ROOT
HETATM    1  C1  UNL     1      -1.061   0.532  -0.012  1.00  0.00     0.064 A 
HETATM    2  C2  UNL     1      -1.784  -0.320   1.040  1.00  0.00     0.039 A 
HETATM    3  C3  UNL     1      -1.330  -1.595   0.322  1.00  0.00     0.011 A 
HETATM    4  C4  UNL     1      -0.606  -0.728  -0.639  1.00  0.00     0.026 A 
HETATM    5  C5  UNL     1       0.889  -0.857  -0.698  1.00  0.00     0.019 C 
HETATM    6  C6  UNL     1       1.543  -0.843   0.647  1.00  0.00     0.173 C 
HETATM    7  O2  UNL     1       2.077   0.421   0.854  1.00  0.00    -0.385 OA
HETATM    8  C7  UNL     1       1.338   1.294   0.018  1.00  0.00     0.124 C 
HETATM    9  C8  UNL     1       1.373   0.481  -1.282  1.00  0.00     0.039 C 
HETATM   10  C9  UNL     1      -0.027   1.397   0.583  1.00  0.00     0.070 C 
ENDROOT
BRANCH   1  11
HETATM   11  O1  UNL     1      -1.976   1.248  -0.815  1.00  0.00    -0.389 OA
ATOM     12  H1  UNL     1      -1.528   1.775  -1.466  1.00  0.00     0.210 HD
ENDBRANCH   1  11
TORSDOF 1
