REMARK  1 active torsions:
REMARK  status: ('A' for Active; 'I' for Inactive)
REMARK    1  A    between atoms: O1_1  and  N1_3 
ROOT
HETATM    1  N1  UNL     1       1.108  -0.208   0.292  1.00  0.00    -0.190 NA
HETATM    2  C1  UNL     1       0.115  -0.879  -0.486  1.00  0.00     0.122 C 
HETATM    3  C2  UNL     1      -1.159  -0.885   0.370  1.00  0.00     0.027 C 
HETATM    4  C3  UNL     1      -1.742   0.509   0.319  1.00  0.00     0.076 C 
HETATM    5  S1  UNL     1      -0.502   1.776   0.720  1.00  0.00    -0.152 SA
HETATM    6  C4  UNL     1       1.078   1.190  -0.015  1.00  0.00     0.194 C 
ENDROOT
BRANCH   1   7
HETATM    7  O1  UNL     1       2.286  -0.772   0.357  1.00  0.00    -0.312 OA
ATOM      8  H1  UNL     1       2.946  -0.326   0.874  1.00  0.00     0.237 HD
ENDBRANCH   1   7
TORSDOF 1
