REMARK  3 active torsions:
REMARK  status: ('A' for Active; 'I' for Inactive)
REMARK    1  A    between atoms: C4_6  and  N2_7 
REMARK    2  A    between atoms: C7_10  and  C8_11 
REMARK    3  A    between atoms: N4_18  and  C13_19 
ROOT
HETATM    1  N2  UNL     1       2.751  -0.058   0.357  1.00  0.00    -0.216 N 
HETATM    2  C5  UNL     1       2.066  -0.264   1.592  1.00  0.00     0.142 C 
HETATM    3  C6  UNL     1       0.610  -0.034   1.579  1.00  0.00     0.033 C 
HETATM    4  C7  UNL     1      -0.103  -0.390   0.312  1.00  0.00     0.057 C 
HETATM    5  C18 UNL     1       0.794  -0.507  -0.888  1.00  0.00     0.033 C 
HETATM    6  C19 UNL     1       2.020   0.369  -0.804  1.00  0.00     0.142 C 
ENDROOT
BRANCH   4   7
HETATM    7  C8  UNL     1      -1.108   0.664   0.014  1.00  0.00     0.088 A 
HETATM    8  N3  UNL     1      -0.747   1.943  -0.171  1.00  0.00    -0.347 N 
HETATM    9  C9  UNL     1      -1.840   2.649  -0.419  1.00  0.00     0.029 A 
ATOM     10  H3  UNL     1       0.204   2.308  -0.128  1.00  0.00     0.167 HD
HETATM   11  C10 UNL     1      -1.856   4.111  -0.678  1.00  0.00     0.070 C 
HETATM   12  C11 UNL     1      -2.918   1.765  -0.385  1.00  0.00     0.032 A 
HETATM   13  C12 UNL     1      -4.306   2.153  -0.612  1.00  0.00     0.070 C 
HETATM   14  N4  UNL     1      -2.456   0.542  -0.117  1.00  0.00    -0.334 N 
BRANCH  14  15
HETATM   15  C13 UNL     1      -3.153  -0.667   0.019  1.00  0.00     0.091 C 
HETATM   16  C14 UNL     1      -4.577  -0.612   0.485  1.00  0.00     0.026 C 
HETATM   17  C15 UNL     1      -4.845  -2.129   0.574  1.00  0.00     0.002 C 
HETATM   18  C16 UNL     1      -4.224  -2.622  -0.711  1.00  0.00     0.002 C 
HETATM   19  C17 UNL     1      -3.313  -1.503  -1.228  1.00  0.00     0.026 C 
ENDBRANCH  14  15
ENDBRANCH   4   7
BRANCH   1  20
HETATM   20  C4  UNL     1       4.155  -0.283   0.306  1.00  0.00     0.694 A 
HETATM   21  N1  UNL     1       4.842  -0.680   1.384  1.00  0.00    -0.199 N 
HETATM   22  C3  UNL     1       6.164  -0.880   1.293  1.00  0.00     0.132 A 
ATOM     23  H1  UNL     1       4.361  -0.830   2.271  1.00  0.00     0.183 HD
HETATM   24  C2  UNL     1       6.854  -0.692   0.118  1.00  0.00     0.038 A 
HETATM   25  C1  UNL     1       8.318  -0.912   0.008  1.00  0.00     0.071 C 
HETATM   26  N6  UNL     1       6.103  -0.290  -0.938  1.00  0.00    -0.290 N 
HETATM   27  N5  UNL     1       4.808  -0.094  -0.846  1.00  0.00    -0.132 N 
ATOM     28  H6  UNL     1       6.561  -0.134  -1.836  1.00  0.00     0.187 HD
ATOM     29  H5  UNL     1       4.289   0.209  -1.670  1.00  0.00     0.205 HD
ENDBRANCH   1  20
TORSDOF 3
