REMARK  11 active torsions:
REMARK  status: ('A' for Active; 'I' for Inactive)
REMARK    1  A    between atoms: C2_2  and  C3_3 
REMARK    2  A    between atoms: C3_3  and  C4_4 
REMARK    3  A    between atoms: C4_4  and  C5_5 
REMARK    4  A    between atoms: C5_5  and  C6_6 
REMARK    5  A    between atoms: C6_6  and  O2_8 
REMARK    6  A    between atoms: O2_8  and  C7_9 
REMARK    7  A    between atoms: C18_20  and  C19_21 
REMARK    8  A    between atoms: C19_21  and  C20_22 
REMARK    9  A    between atoms: C20_22  and  C21_23 
REMARK   10  A    between atoms: C23_26  and  O4_27 
REMARK   11  A    between atoms: N1_36  and  O5_38 
ROOT
HETATM    1  C7  UNL     1      -2.462  -0.296  -0.030  1.00  0.00     0.132 C 
HETATM    2  C8  UNL     1      -2.753  -1.485   0.887  1.00  0.00     0.034 C 
HETATM    3  C9  UNL     1      -2.232  -2.749   0.305  1.00  0.00     0.016 C 
HETATM    4  C10 UNL     1      -0.720  -2.702   0.159  1.00  0.00    -0.022 C 
HETATM    5  C11 UNL     1      -0.415  -3.401  -1.139  1.00  0.00     0.020 C 
HETATM    6  C12 UNL     1      -0.040  -3.369   1.283  1.00  0.00    -0.021 C 
HETATM    7  C13 UNL     1       0.942  -2.832   1.988  1.00  0.00    -0.025 C 
HETATM    8  C14 UNL     1       1.471  -1.456   1.700  1.00  0.00     0.017 C 
HETATM    9  C15 UNL     1       2.797  -1.252   2.188  1.00  0.00     0.042 C 
HETATM   10  C16 UNL     1       3.877  -1.055   1.146  1.00  0.00    -0.084 C 
HETATM   11  C17 UNL     1       5.001  -1.553   1.410  1.00  0.00     0.015 C 
HETATM   12  C18 UNL     1       3.522  -0.346  -0.067  1.00  0.00     0.022 C 
HETATM   13  C25 UNL     1       2.042  -0.190  -0.366  1.00  0.00    -0.036 C 
HETATM   14  C26 UNL     1       1.605   1.152   0.162  1.00  0.00     0.016 C 
HETATM   15  C27 UNL     1       1.972  -0.227  -1.897  1.00  0.00     0.016 C 
HETATM   16  C28 UNL     1       1.188  -1.246   0.197  1.00  0.00     0.007 C 
HETATM   17  C29 UNL     1      -0.255  -1.226   0.150  1.00  0.00     0.005 C 
HETATM   18  C30 UNL     1      -1.130  -0.516  -0.768  1.00  0.00     0.038 C 
ENDROOT
BRANCH   1  19
HETATM   19  O2  UNL     1      -3.566  -0.190  -0.883  1.00  0.00    -0.316 OA
BRANCH  19  20
HETATM   20  C6  UNL     1      -4.560   0.745  -0.725  1.00  0.00     0.259 C 
HETATM   21  O1  UNL     1      -4.443   1.527   0.274  1.00  0.00    -0.265 OA
BRANCH  20  22
HETATM   22  C5  UNL     1      -5.682   0.813  -1.667  1.00  0.00     0.117 C 
BRANCH  22  23
HETATM   23  C4  UNL     1      -6.835   1.567  -1.085  1.00  0.00     0.069 C 
BRANCH  23  24
HETATM   24  C3  UNL     1      -7.477   0.915   0.061  1.00  0.00     0.031 C 
HETATM   25  N1  UNL     1      -7.298  -0.255   0.432  1.00  0.00    -0.274 N 
ATOM     26  H1  UNL     1      -7.900  -0.468   1.227  1.00  0.00     0.193 HD
BRANCH  24  27
HETATM   27  C2  UNL     1      -8.480   1.714   0.809  1.00  0.00     0.017 C 
HETATM   28  C1  UNL     1      -8.743   2.951   0.522  1.00  0.00     0.013 C 
ENDBRANCH  24  27
BRANCH  25  29
HETATM   29  O5  UNL     1      -6.584  -1.288   0.122  1.00  0.00    -0.290 OA
ATOM     30  H5  UNL     1      -6.447  -2.184   0.406  1.00  0.00     0.244 HD
ENDBRANCH  25  29
ENDBRANCH  23  24
ENDBRANCH  22  23
ENDBRANCH  20  22
ENDBRANCH  19  20
ENDBRANCH   1  19
BRANCH  12  31
HETATM   31  C19 UNL     1       4.239   0.939  -0.263  1.00  0.00     0.014 C 
BRANCH  31  32
HETATM   32  C20 UNL     1       5.719   0.907  -0.385  1.00  0.00     0.041 C 
BRANCH  32  33
HETATM   33  C21 UNL     1       6.183   2.337  -0.633  1.00  0.00    -0.031 A 
HETATM   34  C22 UNL     1       6.355   2.926  -1.862  1.00  0.00     0.152 A 
HETATM   35  O3  UNL     1       6.769   4.184  -1.664  1.00  0.00    -0.300 OA
HETATM   36  C23 UNL     1       6.878   4.453  -0.403  1.00  0.00     0.183 A 
HETATM   37  C24 UNL     1       6.515   3.303   0.285  1.00  0.00     0.073 A 
BRANCH  36  38
HETATM   38  O4  UNL     1       7.279   5.654   0.160  1.00  0.00    -0.341 OA
ATOM     39  H4  UNL     1       7.359   5.851   1.086  1.00  0.00     0.220 HD
ENDBRANCH  36  38
ENDBRANCH  32  33
ENDBRANCH  31  32
ENDBRANCH  12  31
TORSDOF 11
