REMARK  10 active torsions:
REMARK  status: ('A' for Active; 'I' for Inactive)
REMARK    1  A    between atoms: C2_2  and  C3_3 
REMARK    2  A    between atoms: C2_2  and  C9_9 
REMARK    3  A    between atoms: C3_3  and  C4_4 
REMARK    4  A    between atoms: C9_9  and  C10_10 
REMARK    5  A    between atoms: C10_10  and  N1_12 
REMARK    6  A    between atoms: N1_12  and  C12_14 
REMARK    7  A    between atoms: C12_14  and  C14_16 
REMARK    8  A    between atoms: C14_16  and  O1_17 
REMARK    9  A    between atoms: C14_16  and  C15_19 
REMARK   10  A    between atoms: C15_19  and  N2_20 
ROOT
HETATM    1  N1  UNL     1       2.050  -0.606   0.699  1.00  0.00    -0.411 N 
ATOM      2  H1  UNL     1       2.247  -1.607   0.697  1.00  0.00     0.154 HD
ENDROOT
BRANCH   1   3
HETATM    3  C10 UNL     1       0.719  -0.169   0.848  1.00  0.00     0.073 C 
HETATM    4  C11 UNL     1       0.368   0.502   2.117  1.00  0.00     0.032 C 
BRANCH   3   5
HETATM    5  C9  UNL     1       0.353   0.573  -0.403  1.00  0.00     0.028 C 
BRANCH   5   6
HETATM    6  C2  UNL     1      -1.082   0.870  -0.590  1.00  0.00    -0.016 C 
HETATM    7  C1  UNL     1      -1.220   1.623  -1.916  1.00  0.00     0.010 C 
BRANCH   6   8
HETATM    8  C3  UNL     1      -1.930  -0.357  -0.699  1.00  0.00     0.009 C 
BRANCH   8   9
HETATM    9  C4  UNL     1      -3.374  -0.084  -0.941  1.00  0.00    -0.014 C 
HETATM   10  C5  UNL     1      -4.132  -1.391  -1.032  1.00  0.00     0.005 C 
HETATM   11  C6  UNL     1      -5.112  -1.333   0.125  1.00  0.00     0.000 C 
HETATM   12  C7  UNL     1      -5.468   0.151   0.109  1.00  0.00     0.000 C 
HETATM   13  C8  UNL     1      -4.054   0.756   0.069  1.00  0.00     0.005 C 
ENDBRANCH   8   9
ENDBRANCH   6   8
ENDBRANCH   5   6
ENDBRANCH   3   5
ENDBRANCH   1   3
BRANCH   1  14
HETATM   14  C12 UNL     1       3.107   0.295   0.554  1.00  0.00     0.103 C 
HETATM   15  C13 UNL     1       3.368   1.230   1.711  1.00  0.00     0.034 C 
BRANCH  14  16
HETATM   16  C14 UNL     1       4.391  -0.531   0.394  1.00  0.00     0.165 C 
BRANCH  16  17
HETATM   17  O1  UNL     1       4.586  -1.318   1.502  1.00  0.00    -0.392 OA
ATOM     18  H1  UNL     1       5.381  -1.829   1.403  1.00  0.00     0.210 HD
ENDBRANCH  16  17
BRANCH  16  19
HETATM   19  C15 UNL     1       4.381  -1.280  -0.908  1.00  0.00     0.263 C 
BRANCH  19  20
HETATM   20  N2  UNL     1       5.629  -1.953  -1.106  1.00  0.00    -0.077 N 
ATOM     21  H23 UNL     1       6.420  -1.313  -1.042  1.00  0.00     0.274 HD
ATOM     22  H22 UNL     1       5.862  -2.560  -0.320  1.00  0.00     0.274 HD
ATOM     23  H21 UNL     1       5.622  -2.462  -1.990  1.00  0.00     0.274 HD
ENDBRANCH  19  20
ENDBRANCH  16  19
ENDBRANCH  14  16
ENDBRANCH   1  14
TORSDOF 10
