REMARK  7 active torsions:
REMARK  status: ('A' for Active; 'I' for Inactive)
REMARK    1  A    between atoms: N1_2  and  C2_5 
REMARK    2  A    between atoms: C2_5  and  C3_6 
REMARK    3  A    between atoms: C3_6  and  N2_7 
REMARK    4  A    between atoms: N2_7  and  C4_9 
REMARK    5  A    between atoms: C5_12  and  N4_13 
REMARK    6  A    between atoms: N4_13  and  C6_15 
REMARK    7  A    between atoms: N7_26  and  C13_27 
ROOT
HETATM    1  C4  UNL     1      -1.385  -1.207   0.743  1.00  0.00     0.132 A 
HETATM    2  N3  UNL     1      -1.971   0.012   0.653  1.00  0.00    -0.176 N 
ATOM      3  H3  UNL     1      -2.968   0.098   0.853  1.00  0.00     0.186 HD
HETATM    4  C5  UNL     1      -1.277   1.112   0.308  1.00  0.00     0.681 A 
HETATM    5  N5  UNL     1       0.036   1.000   0.045  1.00  0.00    -0.174 N 
ATOM      6  H5  UNL     1       0.567   1.830  -0.217  1.00  0.00     0.186 HD
HETATM    7  C10 UNL     1       0.670  -0.205   0.123  1.00  0.00     0.153 A 
HETATM    8  C11 UNL     1      -0.033  -1.323   0.473  1.00  0.00     0.071 A 
HETATM    9  C12 UNL     1       0.849  -2.381   0.470  1.00  0.00     0.126 A 
HETATM   10  N6  UNL     1       2.069  -1.894   0.121  1.00  0.00    -0.307 N 
ATOM     11  H6  UNL     1       2.930  -2.434   0.031  1.00  0.00     0.186 HD
HETATM   12  N7  UNL     1       1.939  -0.595  -0.081  1.00  0.00    -0.271 N 
ENDROOT
BRANCH   1  13
HETATM   13  N2  UNL     1      -1.993  -2.289   1.070  1.00  0.00    -0.373 N 
ATOM     14  H2  UNL     1      -1.431  -3.140   1.101  1.00  0.00     0.161 HD
BRANCH  13  15
HETATM   15  C3  UNL     1      -3.380  -2.421   1.395  1.00  0.00     0.148 C 
BRANCH  15  16
HETATM   16  C2  UNL     1      -3.872  -3.773   0.871  1.00  0.00     0.251 C 
BRANCH  16  17
HETATM   17  N1  UNL     1      -3.687  -3.828  -0.568  1.00  0.00    -0.077 N 
HETATM   18  C1  UNL     1      -4.602  -2.881  -1.159  1.00  0.00     0.267 C 
ATOM     19  H12 UNL     1      -3.789  -4.770  -0.947  1.00  0.00     0.276 HD
ATOM     20  H11 UNL     1      -2.719  -3.675  -0.851  1.00  0.00     0.276 HD
ENDBRANCH  16  17
ENDBRANCH  15  16
ENDBRANCH  13  15
ENDBRANCH   1  13
BRANCH   4  21
HETATM   21  N4  UNL     1      -1.900   2.239   0.244  1.00  0.00    -0.221 N 
ATOM     22  H4  UNL     1      -2.896   2.219   0.463  1.00  0.00     0.178 HD
BRANCH  21  23
HETATM   23  C6  UNL     1      -1.356   3.505  -0.097  1.00  0.00     0.099 C 
HETATM   24  C7  UNL     1      -1.705   4.110  -1.415  1.00  0.00     0.026 C 
HETATM   25  C8  UNL     1      -2.808   4.961  -0.786  1.00  0.00     0.004 C 
HETATM   26  C9  UNL     1      -2.183   4.621   0.556  1.00  0.00     0.026 C 
ENDBRANCH  21  23
ENDBRANCH   4  21
BRANCH  12  27
HETATM   27  C13 UNL     1       3.063   0.257  -0.474  1.00  0.00     0.110 C 
HETATM   28  C14 UNL     1       3.844   0.653   0.756  1.00  0.00     0.027 C 
HETATM   29  C15 UNL     1       4.689  -0.479   1.286  1.00  0.00     0.002 C 
HETATM   30  C16 UNL     1       5.507  -1.142   0.218  1.00  0.00     0.000 C 
HETATM   31  C17 UNL     1       5.393  -0.353  -1.068  1.00  0.00     0.002 C 
HETATM   32  C18 UNL     1       3.935  -0.420  -1.498  1.00  0.00     0.027 C 
ENDBRANCH  12  27
TORSDOF 7
