REMARK  7 active torsions:
REMARK  status: ('A' for Active; 'I' for Inactive)
REMARK    1  A    between atoms: C2_2  and  C4_4 
REMARK    2  A    between atoms: C4_4  and  C5_5 
REMARK    3  A    between atoms: C5_5  and  C7_7 
REMARK    4  A    between atoms: C5_5  and  C19_26 
REMARK    5  A    between atoms: C7_7  and  C8_8 
REMARK    6  A    between atoms: C8_8  and  C9_9 
REMARK    7  A    between atoms: C11_13  and  O3_14 
ROOT
HETATM    1  C9  UNL     1      -0.771  -0.430  -0.834  1.00  0.00     0.099 C 
HETATM    2  C10 UNL     1      -0.060  -1.246  -1.891  1.00  0.00     0.050 C 
HETATM    3  O1  UNL     1      -1.190   0.785  -1.393  1.00  0.00    -0.226 OA
HETATM    4  O2  UNL     1      -1.814   1.519  -0.505  1.00  0.00    -0.197 OA
HETATM    5  C11 UNL     1      -2.999   1.007  -0.042  1.00  0.00     0.229 C 
HETATM    6  C12 UNL     1      -4.051   0.871  -1.105  1.00  0.00     0.074 C 
HETATM    7  C13 UNL     1      -4.054  -0.427  -1.823  1.00  0.00     0.006 C 
HETATM    8  C14 UNL     1      -2.856  -1.273  -1.715  1.00  0.00     0.010 C 
HETATM    9  C15 UNL     1      -2.027  -1.147  -0.456  1.00  0.00     0.065 C 
HETATM   10  C16 UNL     1      -2.826  -0.372   0.561  1.00  0.00     0.191 A 
HETATM   11  C17 UNL     1      -4.132  -1.037   0.921  1.00  0.00     0.073 A 
HETATM   12  C18 UNL     1      -3.703  -1.055   2.380  1.00  0.00     0.236 A 
HETATM   13  N1  UNL     1      -2.460  -0.461   1.927  1.00  0.00    -0.060 N 
ATOM     14  H11 UNL     1      -2.153   0.395   2.388  1.00  0.00     0.278 HD
ATOM     15  H12 UNL     1      -1.595  -0.953   2.151  1.00  0.00     0.278 HD
ENDROOT
BRANCH   1  16
HETATM   16  C8  UNL     1       0.200  -0.214   0.297  1.00  0.00     0.042 C 
BRANCH  16  17
HETATM   17  C7  UNL     1       1.421   0.537  -0.225  1.00  0.00     0.023 C 
BRANCH  17  18
HETATM   18  C5  UNL     1       2.404   0.743   0.944  1.00  0.00     0.045 C 
HETATM   19  C6  UNL     1       1.626   1.758   1.829  1.00  0.00     0.027 C 
BRANCH  18  20
HETATM   20  C4  UNL     1       3.614   1.460   0.557  1.00  0.00     0.024 C 
BRANCH  20  21
HETATM   21  C2  UNL     1       4.671   0.916  -0.287  1.00  0.00    -0.021 C 
HETATM   22  C1  UNL     1       5.408  -0.297   0.164  1.00  0.00     0.009 C 
HETATM   23  C3  UNL     1       4.322   0.786  -1.759  1.00  0.00     0.009 C 
ENDBRANCH  20  21
ENDBRANCH  18  20
BRANCH  18  24
HETATM   24  C19 UNL     1       2.517  -0.470   1.752  1.00  0.00     0.181 C 
HETATM   25  O4  UNL     1       2.225  -0.448   3.001  1.00  0.00    -0.647 OA
HETATM   26  O5  UNL     1       2.925  -1.721   1.318  1.00  0.00    -0.647 OA
ENDBRANCH  18  24
ENDBRANCH  17  18
ENDBRANCH  16  17
ENDBRANCH   1  16
BRANCH   5  27
HETATM   27  O3  UNL     1      -3.483   1.886   0.927  1.00  0.00    -0.361 OA
ATOM     28  H3  UNL     1      -4.304   1.531   1.248  1.00  0.00     0.213 HD
ENDBRANCH   5  27
TORSDOF 7
