REMARK  3 active torsions:
REMARK  status: ('A' for Active; 'I' for Inactive)
REMARK    1  A    between atoms: N2_3  and  C2_5 
REMARK    2  A    between atoms: C2_5  and  C3_6 
REMARK    3  A    between atoms: C5_9  and  N3_10 
ROOT
HETATM    1  C3  UNL     1       0.666  -0.381  -0.911  1.00  0.00     0.171 C 
HETATM    2  O1  UNL     1       1.237   0.697  -1.608  1.00  0.00    -0.380 OA
HETATM    3  C4  UNL     1       1.964   1.015  -0.466  1.00  0.00     0.203 C 
HETATM    4  C5  UNL     1       1.850  -0.405  -0.008  1.00  0.00     0.237 C 
ENDROOT
BRANCH   1   5
HETATM    5  C2  UNL     1      -0.641   0.030  -0.314  1.00  0.00     0.154 C 
BRANCH   5   6
HETATM    6  N2  UNL     1      -1.296  -1.008   0.417  1.00  0.00    -0.386 N 
HETATM    7  C1  UNL     1      -2.438  -0.795   0.947  1.00  0.00     0.185 C 
HETATM    8  N1  UNL     1      -3.076   0.457   0.827  1.00  0.00    -0.097 NA
ATOM      9  H2  UNL     1      -0.851  -1.920   0.516  1.00  0.00     0.159 HD
ENDBRANCH   5   6
ENDBRANCH   1   5
BRANCH   4  10
HETATM   10  N3  UNL     1       1.516  -0.592   1.383  1.00  0.00    -0.070 N 
ATOM     11  H33 UNL     1       0.844   0.112   1.689  1.00  0.00     0.274 HD
ATOM     12  H32 UNL     1       0.952  -1.432   1.508  1.00  0.00     0.274 HD
ATOM     13  H31 UNL     1       2.327  -0.608   2.001  1.00  0.00     0.274 HD
ENDBRANCH   4  10
TORSDOF 3
