REMARK  5 active torsions:
REMARK  status: ('A' for Active; 'I' for Inactive)
REMARK    1  A    between atoms: C2_2  and  C3_3 
REMARK    2  A    between atoms: C2_2  and  C5_5 
REMARK    3  A    between atoms: C12_12  and  C13_13 
REMARK    4  A    between atoms: C13_13  and  C15_15 
REMARK    5  A    between atoms: C15_15  and  N1_18 
ROOT
HETATM    1  C5  UNL     1      -2.766   0.570   0.095  1.00  0.00     0.022 C 
HETATM    2  C6  UNL     1      -3.281  -0.873  -0.081  1.00  0.00     0.010 C 
HETATM    3  C7  UNL     1      -2.126  -1.793   0.256  1.00  0.00     0.007 C 
HETATM    4  C8  UNL     1      -0.975  -0.892  -0.006  1.00  0.00     0.002 C 
HETATM    5  C9  UNL     1       0.377  -1.391   0.355  1.00  0.00    -0.039 C 
HETATM    6  C10 UNL     1       0.482  -2.775  -0.329  1.00  0.00     0.015 C 
HETATM    7  C11 UNL     1       0.584  -1.720   1.796  1.00  0.00     0.015 C 
HETATM    8  C12 UNL     1       1.363  -0.406  -0.229  1.00  0.00    -0.000 C 
HETATM    9  C18 UNL     1       0.752   0.888  -0.616  1.00  0.00     0.006 C 
HETATM   10  C19 UNL     1      -0.335   1.378   0.350  1.00  0.00     0.010 C 
HETATM   11  C20 UNL     1      -1.419   0.419   0.572  1.00  0.00    -0.032 C 
HETATM   12  C21 UNL     1      -1.564   0.334   2.118  1.00  0.00     0.016 C 
ENDROOT
BRANCH   8  13
HETATM   13  C13 UNL     1       2.733  -0.450   0.294  1.00  0.00     0.021 C 
HETATM   14  C14 UNL     1       3.453  -1.758   0.041  1.00  0.00     0.013 C 
BRANCH  13  15
HETATM   15  C15 UNL     1       3.693   0.637   0.050  1.00  0.00     0.120 C 
HETATM   16  C16 UNL     1       5.012   0.238   0.742  1.00  0.00     0.046 C 
HETATM   17  C17 UNL     1       4.044   0.849  -1.407  1.00  0.00     0.046 C 
BRANCH  15  18
HETATM   18  N1  UNL     1       3.372   1.889   0.727  1.00  0.00    -0.071 N 
ATOM     19  H13 UNL     1       2.427   2.190   0.489  1.00  0.00     0.275 HD
ATOM     20  H12 UNL     1       3.259   1.733   1.729  1.00  0.00     0.275 HD
ATOM     21  H11 UNL     1       4.038   2.643   0.558  1.00  0.00     0.275 HD
ENDBRANCH  15  18
ENDBRANCH  13  15
ENDBRANCH   8  13
BRANCH   1  22
HETATM   22  C2  UNL     1      -3.238   1.308  -1.038  1.00  0.00    -0.085 C 
HETATM   23  C1  UNL     1      -2.673   2.046  -1.953  1.00  0.00     0.014 C 
BRANCH  22  24
HETATM   24  C3  UNL     1      -4.737   1.223  -1.242  1.00  0.00     0.029 C 
HETATM   25  C4  UNL     1      -5.320   1.805   0.058  1.00  0.00     0.010 C 
ENDBRANCH  22  24
ENDBRANCH   1  22
TORSDOF 5
