REMARK  7 active torsions:
REMARK  status: ('A' for Active; 'I' for Inactive)
REMARK       I    between atoms: C1_2  and  N1_3 
REMARK    1  A    between atoms: C1_2  and  C7_11 
REMARK    2  A    between atoms: N1_3  and  C2_5 
REMARK    3  A    between atoms: C2_5  and  C3_6 
REMARK    4  A    between atoms: C9_13  and  N2_14 
REMARK       I    between atoms: N3_17  and  C12_18 
REMARK    5  A    between atoms: C12_18  and  C13_20 
REMARK    6  A    between atoms: C21_30  and  N4_31 
REMARK       I    between atoms: N4_31  and  C22_33 
REMARK    7  A    between atoms: C22_33  and  C23_35 
ROOT
HETATM    1  C7  UNL     1      -1.178   0.239   0.325  1.00  0.00     0.060 A 
HETATM    2  C8  UNL     1       0.163   0.638   0.310  1.00  0.00     0.050 A 
HETATM    3  C9  UNL     1       1.216  -0.229   0.112  1.00  0.00     0.053 A 
HETATM    4  C19 UNL     1       0.889  -1.542  -0.075  1.00  0.00     0.062 A 
HETATM    5 CL1  UNL     1       2.159  -2.722  -0.326  1.00  0.00    -0.082 Cl
HETATM    6  C20 UNL     1      -0.425  -1.983  -0.067  1.00  0.00     0.056 A 
HETATM    7  C21 UNL     1      -1.488  -1.115   0.133  1.00  0.00     0.052 A 
ENDROOT
BRANCH   3   8
HETATM    8  N2  UNL     1       2.572   0.248   0.099  1.00  0.00    -0.376 N 
HETATM    9  C10 UNL     1       3.399   0.191  -1.080  1.00  0.00     0.143 C 
HETATM   10  C11 UNL     1       4.872  -0.065  -0.720  1.00  0.00     0.145 C 
HETATM   11  N3  UNL     1       5.321   0.971   0.175  1.00  0.00    -0.347 N 
HETATM   12  C12 UNL     1       6.684   1.307   0.241  1.00  0.00     0.248 C 
HETATM   13  C17 UNL     1       4.360   1.656   0.996  1.00  0.00     0.145 C 
HETATM   14  O3  UNL     1       7.058   2.214   1.031  1.00  0.00    -0.270 OA
HETATM   15  C18 UNL     1       3.157   0.816   1.316  1.00  0.00     0.143 C 
BRANCH  12  16
HETATM   16  C13 UNL     1       7.733   0.647  -0.578  1.00  0.00     0.213 C 
HETATM   17  C14 UNL     1       7.933  -0.812  -0.208  1.00  0.00     0.043 C 
HETATM   18  C15 UNL     1       9.308  -1.065  -0.843  1.00  0.00     0.029 C 
HETATM   19  C16 UNL     1       9.927   0.293  -0.761  1.00  0.00     0.168 C 
HETATM   20  O4  UNL     1       8.973   1.175  -0.322  1.00  0.00    -0.376 OA
ENDBRANCH  12  16
ENDBRANCH   3   8
BRANCH   1  21
HETATM   21  C1  UNL     1      -2.233   1.227   0.448  1.00  0.00     0.254 C 
HETATM   22  O1  UNL     1      -3.436   0.908   0.325  1.00  0.00    -0.268 OA
HETATM   23  N1  UNL     1      -1.941   2.610   0.718  1.00  0.00    -0.354 N 
ATOM     24  H1  UNL     1      -0.969   2.896   0.831  1.00  0.00     0.162 HD
BRANCH  23  25
HETATM   25  C2  UNL     1      -2.981   3.605   0.834  1.00  0.00     0.155 C 
BRANCH  25  26
HETATM   26  C3  UNL     1      -3.785   3.772  -0.428  1.00  0.00     0.139 C 
HETATM   27  C4  UNL     1      -4.806   4.887  -0.268  1.00  0.00     0.035 C 
HETATM   28  C5  UNL     1      -4.353   5.899  -1.286  1.00  0.00     0.029 C 
HETATM   29  C6  UNL     1      -2.882   5.527  -1.431  1.00  0.00     0.168 C 
HETATM   30  O2  UNL     1      -2.966   4.152  -1.493  1.00  0.00    -0.384 OA
ENDBRANCH  25  26
ENDBRANCH  23  25
ENDBRANCH   1  21
BRANCH   7  31
HETATM   31  N4  UNL     1      -2.787  -1.638   0.247  1.00  0.00    -0.326 N 
HETATM   32  C22 UNL     1      -3.246  -2.844  -0.285  1.00  0.00     0.226 C 
HETATM   33  O5  UNL     1      -2.555  -3.631  -0.958  1.00  0.00    -0.273 OA
ATOM     34  H4  UNL     1      -3.462  -1.081   0.771  1.00  0.00     0.169 HD
BRANCH  32  35
HETATM   35  C23 UNL     1      -4.679  -3.296  -0.071  1.00  0.00     0.078 C 
HETATM   36  C24 UNL     1      -4.943  -3.452   1.389  1.00  0.00     0.014 C 
HETATM   37  C25 UNL     1      -6.057  -4.430   1.685  1.00  0.00     0.001 C 
HETATM   38  C26 UNL     1      -7.063  -4.523   0.573  1.00  0.00     0.000 C 
HETATM   39  C27 UNL     1      -6.456  -4.795  -0.769  1.00  0.00     0.001 C 
HETATM   40  C28 UNL     1      -4.953  -4.589  -0.772  1.00  0.00     0.014 C 
ENDBRANCH  32  35
ENDBRANCH   7  31
TORSDOF 7
