REMARK  10 active torsions:
REMARK  status: ('A' for Active; 'I' for Inactive)
REMARK    1  A    between atoms: O1_2  and  C2_3 
REMARK    2  A    between atoms: C6_7  and  O2_8 
REMARK    3  A    between atoms: C10_13  and  N1_14 
REMARK    4  A    between atoms: N1_14  and  C11_16 
REMARK    5  A    between atoms: C11_16  and  O3_17 
REMARK    6  A    between atoms: C11_16  and  C12_19 
REMARK    7  A    between atoms: C12_19  and  N2_20 
REMARK       I    between atoms: N2_20  and  C13_22 
REMARK    8  A    between atoms: C13_22  and  C14_24 
REMARK    9  A    between atoms: N4_32  and  C20_33 
REMARK   10  A    between atoms: C20_33  and  C21_34 
ROOT
HETATM    1  C12 UNL     1      -1.227   0.184  -0.185  1.00  0.00     0.125 C 
HETATM    2  C19 UNL     1      -1.687  -1.003   0.663  1.00  0.00     0.277 C 
HETATM    3  N4  UNL     1      -2.688  -1.818  -0.001  1.00  0.00    -0.064 N 
HETATM    4  C24 UNL     1      -3.698  -0.958  -0.576  1.00  0.00     0.238 C 
HETATM    5  C25 UNL     1      -3.065  -0.145  -1.678  1.00  0.00     0.035 C 
HETATM    6  C26 UNL     1      -1.513  -0.202  -1.580  1.00  0.00     0.027 C 
HETATM    7  C27 UNL     1      -1.193  -1.621  -1.944  1.00  0.00     0.035 C 
HETATM    8  C28 UNL     1      -2.116  -2.539  -1.124  1.00  0.00     0.238 C 
ENDROOT
BRANCH   1   9
HETATM    9  C11 UNL     1       0.140   0.547   0.182  1.00  0.00     0.143 C 
BRANCH   9  10
HETATM   10  N1  UNL     1       1.332   0.057  -0.339  1.00  0.00    -0.367 N 
ATOM     11  H1  UNL     1       1.284  -0.641  -1.081  1.00  0.00     0.161 HD
BRANCH  10  12
HETATM   12  C10 UNL     1       2.648   0.489   0.121  1.00  0.00     0.091 C 
HETATM   13  C4  UNL     1       3.420  -0.672   0.696  1.00  0.00     0.014 C 
HETATM   14  C3  UNL     1       4.709  -0.149   1.270  1.00  0.00     0.045 C 
HETATM   15  C5  UNL     1       3.760  -1.693  -0.372  1.00  0.00     0.044 C 
HETATM   16  C2  UNL     1       5.517   0.537   0.201  1.00  0.00     0.064 C 
HETATM   17  C9  UNL     1       4.726   1.631  -0.483  1.00  0.00     0.045 C 
HETATM   18  C29 UNL     1       5.873  -0.496  -0.843  1.00  0.00     0.076 C 
HETATM   19  C8  UNL     1       3.425   1.080  -1.002  1.00  0.00     0.014 C 
HETATM   20  C7  UNL     1       3.764   0.060  -2.071  1.00  0.00     0.044 C 
HETATM   21  C6  UNL     1       4.588  -1.028  -1.446  1.00  0.00     0.061 C 
BRANCH  16  22
HETATM   22  O1  UNL     1       6.630   1.108   0.782  1.00  0.00    -0.385 OA
HETATM   23  C1  UNL     1       7.474   0.227   1.414  1.00  0.00     0.202 C 
ENDBRANCH  16  22
BRANCH  21  24
HETATM   24  O2  UNL     1       4.926  -2.015  -2.368  1.00  0.00    -0.390 OA
ATOM     25  H2  UNL     1       5.447  -1.597  -3.044  1.00  0.00     0.210 HD
ENDBRANCH  21  24
ENDBRANCH  10  12
ENDBRANCH   9  10
BRANCH   9  26
HETATM   26  O3  UNL     1       0.227   1.453   1.122  1.00  0.00    -0.348 OA
ATOM     27  H3  UNL     1      -0.588   1.788   1.478  1.00  0.00     0.219 HD
ENDBRANCH   9  26
ENDBRANCH   1   9
BRANCH   1  28
HETATM   28  N2  UNL     1      -2.051   1.337   0.239  1.00  0.00    -0.338 N 
HETATM   29  C13 UNL     1      -1.826   2.638  -0.289  1.00  0.00     0.255 C 
HETATM   30  O4  UNL     1      -0.918   2.846  -1.147  1.00  0.00    -0.268 OA
ATOM     31  H2  UNL     1      -2.795   1.196   0.923  1.00  0.00     0.164 HD
BRANCH  29  32
HETATM   32  C14 UNL     1      -2.604   3.789   0.120  1.00  0.00     0.070 A 
HETATM   33  C15 UNL     1      -2.362   4.627   1.206  1.00  0.00     0.108 A 
HETATM   34  N3  UNL     1      -3.339   5.579   1.266  1.00  0.00    -0.368 N 
HETATM   35  C16 UNL     1      -3.412   6.625   2.275  1.00  0.00     0.154 C 
HETATM   36  C17 UNL     1      -4.206   5.385   0.252  1.00  0.00     0.114 A 
HETATM   37  C18 UNL     1      -3.739   4.267  -0.457  1.00  0.00     0.066 A 
HETATM   38 CL1  UNL     1      -4.618   3.704  -1.885  1.00  0.00    -0.082 Cl
ENDBRANCH  29  32
ENDBRANCH   1  28
BRANCH   3  39
HETATM   39  C20 UNL     1      -3.196  -2.698   0.999  1.00  0.00     0.241 C 
BRANCH  39  40
HETATM   40  C21 UNL     1      -4.474  -3.392   0.760  1.00  0.00     0.003 C 
HETATM   41  C22 UNL     1      -4.516  -4.323  -0.427  1.00  0.00     0.011 C 
HETATM   42  C23 UNL     1      -4.750  -4.271   1.989  1.00  0.00     0.011 C 
ENDBRANCH  39  40
ENDBRANCH   3  39
TORSDOF 10
