REMARK  9 active torsions:
REMARK  status: ('A' for Active; 'I' for Inactive)
REMARK    1  A    between atoms: C2_2  and  N1_3 
REMARK    2  A    between atoms: C5_6  and  N2_7 
REMARK    3  A    between atoms: N2_7  and  C6_9 
REMARK    4  A    between atoms: C6_9  and  C7_10 
REMARK    5  A    between atoms: C7_10  and  C8_11 
REMARK    6  A    between atoms: C8_11  and  S1_12 
REMARK    7  A    between atoms: S1_12  and  C9_13 
REMARK    8  A    between atoms: C9_13  and  N3_15 
REMARK    9  A    between atoms: N3_15  and  C10_17 
ROOT
HETATM    1  C10 UNL     1       5.469   1.394  -0.364  1.00  0.00     0.186 C 
HETATM    2  C11 UNL     1       4.632   2.613  -0.035  1.00  0.00     0.048 C 
HETATM    3  C12 UNL     1       6.698   1.509   0.417  1.00  0.00     0.084 C 
HETATM    4  N4  UNL     1       7.668   1.613   1.051  1.00  0.00    -0.195 NA
ENDROOT
BRANCH   1   5
HETATM    5  N3  UNL     1       4.734   0.204   0.057  1.00  0.00    -0.359 N 
ATOM      6  H3  UNL     1       3.822   0.306   0.501  1.00  0.00     0.162 HD
BRANCH   5   7
HETATM    7  C9  UNL     1       5.272  -1.085  -0.144  1.00  0.00     0.135 C 
HETATM    8  S2  UNL     1       6.725  -1.237  -0.842  1.00  0.00    -0.053 SA
BRANCH   7   9
HETATM    9  S1  UNL     1       4.392  -2.535   0.349  1.00  0.00    -0.101 SA
BRANCH   9  10
HETATM   10  C8  UNL     1       2.730  -2.147   0.926  1.00  0.00     0.083 C 
BRANCH  10  11
HETATM   11  C7  UNL     1       1.894  -1.699  -0.242  1.00  0.00     0.030 C 
BRANCH  11  12
HETATM   12  C6  UNL     1       0.469  -1.351   0.215  1.00  0.00     0.115 C 
BRANCH  12  13
HETATM   13  N2  UNL     1      -0.256  -0.938  -0.924  1.00  0.00    -0.417 N 
ATOM     14  H2  UNL     1       0.177  -0.905  -1.847  1.00  0.00     0.153 HD
BRANCH  13  15
HETATM   15  C5  UNL     1      -1.610  -0.572  -0.731  1.00  0.00     0.079 C 
HETATM   16  C4  UNL     1      -2.496  -1.696  -0.230  1.00  0.00     0.055 C 
HETATM   17  C3  UNL     1      -3.922  -1.175  -0.406  1.00  0.00     0.274 C 
HETATM   18  N1  UNL     1      -4.188  -0.032   0.431  1.00  0.00     0.088 N 
HETATM   19  C14 UNL     1      -3.208   1.015   0.306  1.00  0.00     0.274 C 
HETATM   20  C13 UNL     1      -1.790   0.551   0.281  1.00  0.00     0.055 C 
BRANCH  18  21
HETATM   21  C2  UNL     1      -5.453   0.509  -0.034  1.00  0.00     0.268 C 
HETATM   22  C1  UNL     1      -5.931   1.704   0.713  1.00  0.00     0.037 C 
ENDBRANCH  18  21
ENDBRANCH  13  15
ENDBRANCH  12  13
ENDBRANCH  11  12
ENDBRANCH  10  11
ENDBRANCH   9  10
ENDBRANCH   7   9
ENDBRANCH   5   7
ENDBRANCH   1   5
TORSDOF 9
