REMARK  10 active torsions:
REMARK  status: ('A' for Active; 'I' for Inactive)
REMARK    1  A    between atoms: N1_5  and  C5_7 
REMARK    2  A    between atoms: C5_7  and  C6_8 
REMARK    3  A    between atoms: C7_9  and  C8_10 
REMARK    4  A    between atoms: C8_10  and  C9_11 
REMARK    5  A    between atoms: C10_12  and  O1_13 
REMARK    6  A    between atoms: C10_12  and  C11_15 
REMARK    7  A    between atoms: C11_15  and  O3_17 
REMARK    8  A    between atoms: O3_17  and  C12_18 
REMARK    9  A    between atoms: C12_18  and  C13_19 
REMARK   10  A    between atoms: C13_19  and  O4_20 
ROOT
HETATM    1  C6  UNL     1      -0.149  -0.433   0.349  1.00  0.00    -0.011 C 
HETATM    2  C7  UNL     1       0.975  -1.034   0.532  1.00  0.00    -0.025 C 
ENDROOT
BRANCH   2   3
HETATM    3  C8  UNL     1       1.863  -1.562  -0.509  1.00  0.00     0.057 C 
BRANCH   3   4
HETATM    4  C9  UNL     1       3.214  -0.931  -0.472  1.00  0.00     0.020 C 
HETATM    5  C10 UNL     1       4.278  -1.677  -0.278  1.00  0.00     0.138 C 
BRANCH   5   6
HETATM    6  O1  UNL     1       4.177  -3.044  -0.105  1.00  0.00    -0.355 OA
ATOM      7  H1  UNL     1       4.946  -3.583   0.035  1.00  0.00     0.218 HD
ENDBRANCH   5   6
BRANCH   5   8
HETATM    8  C11 UNL     1       5.615  -1.069  -0.239  1.00  0.00     0.316 C 
HETATM    9  O2  UNL     1       6.633  -1.774  -0.054  1.00  0.00    -0.257 OA
BRANCH   8  10
HETATM   10  O3  UNL     1       5.787   0.294  -0.404  1.00  0.00    -0.314 OA
BRANCH  10  11
HETATM   11  C12 UNL     1       7.014   0.975  -0.382  1.00  0.00     0.205 C 
BRANCH  11  12
HETATM   12  C13 UNL     1       7.730   0.844   0.932  1.00  0.00     0.191 C 
BRANCH  12  13
HETATM   13  O4  UNL     1       8.956   1.545   0.906  1.00  0.00    -0.399 OA
ATOM     14  H4  UNL     1       9.409   1.462   1.737  1.00  0.00     0.209 HD
ENDBRANCH  12  13
ENDBRANCH  11  12
ENDBRANCH  10  11
ENDBRANCH   8  10
ENDBRANCH   5   8
ENDBRANCH   3   4
ENDBRANCH   2   3
BRANCH   1  15
HETATM   15  C5  UNL     1      -0.763  -0.160  -0.960  1.00  0.00     0.147 C 
BRANCH  15  16
HETATM   16  N1  UNL     1      -2.054  -0.784  -1.093  1.00  0.00    -0.384 N 
HETATM   17  C4  UNL     1      -3.098  -0.396  -0.531  1.00  0.00     0.043 C 
HETATM   18  C3  UNL     1      -3.264   0.754   0.374  1.00  0.00     0.070 C 
HETATM   19  S1  UNL     1      -4.715  -1.132  -0.663  1.00  0.00    -0.107 SA
HETATM   20  C2  UNL     1      -4.668   1.276   0.206  1.00  0.00     0.006 C 
HETATM   21  C1  UNL     1      -4.809   1.740  -1.229  1.00  0.00     0.012 C 
HETATM   22  C14 UNL     1      -5.586   0.067   0.436  1.00  0.00     0.010 C 
HETATM   23  C15 UNL     1      -6.971   0.317  -0.024  1.00  0.00     0.027 C 
HETATM   24  C16 UNL     1      -5.454  -0.435   1.834  1.00  0.00     0.027 C 
ATOM     25  H1  UNL     1      -2.120  -1.606  -1.693  1.00  0.00     0.160 HD
ENDBRANCH  15  16
ENDBRANCH   1  15
TORSDOF 10
