REMARK  6 active torsions:
REMARK  status: ('A' for Active; 'I' for Inactive)
REMARK    1  A    between atoms: C2_2  and  C4_4 
REMARK    2  A    between atoms: C5_5  and  C6_6 
REMARK    3  A    between atoms: C6_6  and  C7_7 
REMARK    4  A    between atoms: C7_7  and  C9_9 
REMARK    5  A    between atoms: C9_9  and  C10_10 
REMARK    6  A    between atoms: C10_10  and  C11_11 
ROOT
HETATM    1  C11 UNL     1      -1.290   0.432   0.660  1.00  0.00     0.264 C 
HETATM    2  N1  UNL     1      -1.099   1.822   0.148  1.00  0.00    -0.052 N 
ATOM      3  H11 UNL     1      -0.295   2.103  -0.414  1.00  0.00     0.279 HD
ATOM      4  H12 UNL     1      -0.870   2.612   0.752  1.00  0.00     0.279 HD
HETATM    5  C12 UNL     1      -2.402   1.612  -0.403  1.00  0.00     0.131 C 
HETATM    6  C13 UNL     1      -3.147   2.862  -0.680  1.00  0.00     0.047 C 
HETATM    7  C14 UNL     1      -2.347   0.607  -1.520  1.00  0.00     0.039 C 
HETATM    8  C15 UNL     1      -3.152  -0.615  -1.322  1.00  0.00     0.003 C 
HETATM    9  C16 UNL     1      -4.142  -0.645  -0.225  1.00  0.00     0.009 C 
HETATM   10  C17 UNL     1      -3.851   0.152   0.987  1.00  0.00    -0.039 C 
HETATM   11  C18 UNL     1      -5.009   1.178   1.122  1.00  0.00     0.015 C 
HETATM   12  C19 UNL     1      -3.966  -0.671   2.248  1.00  0.00     0.015 C 
HETATM   13  C20 UNL     1      -2.622   0.935   0.934  1.00  0.00     0.071 C 
ENDROOT
BRANCH   1  14
HETATM   14  C10 UNL     1      -0.372  -0.476   0.656  1.00  0.00    -0.122 C 
BRANCH  14  15
HETATM   15  C9  UNL     1       0.520  -1.516   0.704  1.00  0.00     0.059 C 
BRANCH  15  16
HETATM   16  C7  UNL     1       1.836  -1.376   0.277  1.00  0.00    -0.055 C 
HETATM   17  C8  UNL     1       2.705  -2.559   0.431  1.00  0.00     0.049 C 
BRANCH  16  18
HETATM   18  C6  UNL     1       2.258  -0.121  -0.224  1.00  0.00     0.007 C 
BRANCH  18  19
HETATM   19  C5  UNL     1       3.419   0.270  -0.640  1.00  0.00     0.001 C 
HETATM   20  C4  UNL     1       4.691  -0.327  -0.775  1.00  0.00     0.006 C 
BRANCH  20  21
HETATM   21  C2  UNL     1       5.791   0.187  -1.195  1.00  0.00    -0.071 C 
HETATM   22  C1  UNL     1       6.899   0.791  -1.642  1.00  0.00     0.018 C 
HETATM   23  C3  UNL     1       6.620  -1.459  -1.142  1.00  0.00     0.047 C 
ENDBRANCH  20  21
ENDBRANCH  18  19
ENDBRANCH  16  18
ENDBRANCH  15  16
ENDBRANCH  14  15
ENDBRANCH   1  14
TORSDOF 6
