REMARK  8 active torsions:
REMARK  status: ('A' for Active; 'I' for Inactive)
REMARK    1  A    between atoms: C2_7  and  N3_8 
REMARK    2  A    between atoms: N3_8  and  N4_9 
REMARK    3  A    between atoms: N3_8  and  C3_12 
REMARK    4  A    between atoms: N4_9  and  O1_10 
REMARK    5  A    between atoms: C4_17  and  N7_18 
REMARK    6  A    between atoms: N7_18  and  C5_20 
REMARK    7  A    between atoms: C5_20  and  C6_21 
REMARK    8  A    between atoms: C6_21  and  N8_22 
ROOT
HETATM    1  N1  UNL     1      -1.905   2.395  -2.584  1.00  0.00    -0.234 N 
ATOM      2  H11 UNL     1      -1.126   2.550  -3.224  1.00  0.00     0.174 HD
ATOM      3  H12 UNL     1      -2.712   3.016  -2.645  1.00  0.00     0.174 HD
HETATM    4  C1  UNL     1      -1.834   1.426  -1.733  1.00  0.00     0.705 A 
HETATM    5  N2  UNL     1      -2.888   1.217  -0.868  1.00  0.00    -0.020 N 
ATOM      6  H2  UNL     1      -3.699   1.834  -0.923  1.00  0.00     0.203 HD
HETATM    7  C2  UNL     1      -2.886   0.245   0.031  1.00  0.00     0.733 A 
HETATM    8  N6  UNL     1      -1.778  -0.572   0.080  1.00  0.00    -0.020 N 
ATOM      9  H6  UNL     1      -1.746  -1.330   0.761  1.00  0.00     0.203 HD
HETATM   10  C4  UNL     1      -0.738  -0.390  -0.752  1.00  0.00     0.707 A 
HETATM   11  N10 UNL     1      -0.773   0.609  -1.653  1.00  0.00    -0.022 N 
ATOM     12  H10 UNL     1       0.017   0.747  -2.283  1.00  0.00     0.203 HD
ENDROOT
BRANCH  10  13
HETATM   13  N7  UNL     1       0.303  -1.135  -0.720  1.00  0.00    -0.223 N 
ATOM     14  H7  UNL     1       0.291  -1.877  -0.020  1.00  0.00     0.177 HD
BRANCH  13  15
HETATM   15  C5  UNL     1       1.469  -1.070  -1.523  1.00  0.00     0.168 C 
BRANCH  15  16
HETATM   16  C6  UNL     1       2.462  -0.016  -1.104  1.00  0.00     0.294 C 
BRANCH  16  17
HETATM   17  N8  UNL     1       2.966  -0.180   0.233  1.00  0.00     0.117 N 
HETATM   18  C7  UNL     1       3.886   0.931   0.467  1.00  0.00     0.302 C 
HETATM   19  C8  UNL     1       5.035   0.327   1.225  1.00  0.00     0.264 C 
HETATM   20  N9  UNL     1       5.083  -1.021   0.671  1.00  0.00    -0.047 N 
HETATM   21  C9  UNL     1       3.689  -1.388   0.460  1.00  0.00     0.502 C 
ATOM     22  H92 UNL     1       5.664  -1.105  -0.163  1.00  0.00     0.279 HD
ATOM     23  H91 UNL     1       5.604  -1.685   1.243  1.00  0.00     0.279 HD
ENDBRANCH  16  17
ENDBRANCH  15  16
ENDBRANCH  13  15
ENDBRANCH  10  13
BRANCH   7  24
HETATM   24  N3  UNL     1      -3.918  -0.007   0.963  1.00  0.00    -0.039 N 
BRANCH  24  25
HETATM   25  N4  UNL     1      -3.841  -1.274   1.686  1.00  0.00     0.043 NA
BRANCH  25  26
HETATM   26  O1  UNL     1      -3.723  -2.213   0.724  1.00  0.00    -0.276 OA
ATOM     27  H1  UNL     1      -3.673  -3.037   1.194  1.00  0.00     0.240 HD
ENDBRANCH  25  26
ENDBRANCH  24  25
BRANCH  24  28
HETATM   28  C3  UNL     1      -4.987   0.780   1.347  1.00  0.00     0.223 C 
HETATM   29  N5  UNL     1      -5.914   0.269   2.326  1.00  0.00    -0.068 NA
HETATM   30  S1  UNL     1      -5.294   2.265   0.813  1.00  0.00    -0.042 SA
ENDBRANCH  24  28
ENDBRANCH   7  24
TORSDOF 8
