REMARK  6 active torsions:
REMARK  status: ('A' for Active; 'I' for Inactive)
REMARK    1  A    between atoms: O1_2  and  C2_3 
REMARK    2  A    between atoms: C3_5  and  C4_6 
REMARK    3  A    between atoms: C6_10  and  C7_11 
REMARK    4  A    between atoms: C7_11  and  O5_12 
REMARK    5  A    between atoms: C8_14  and  N1_15 
REMARK    6  A    between atoms: N1_15  and  C9_17 
ROOT
HETATM    1  C2  UNL     1      -0.235   0.778  -0.704  1.00  0.00     0.287 C 
HETATM    2  O2  UNL     1      -1.518   0.601  -0.126  1.00  0.00    -0.322 OA
HETATM    3  C3  UNL     1      -2.153  -0.352  -0.879  1.00  0.00     0.333 C 
HETATM    4  O4  UNL     1      -1.615  -1.579  -0.677  1.00  0.00    -0.344 OA
HETATM    5  C6  UNL     1      -0.329  -1.683  -0.234  1.00  0.00     0.175 C 
HETATM    6  C8  UNL     1       0.536  -0.504  -0.448  1.00  0.00     0.164 C 
ENDROOT
BRANCH   6   7
HETATM    7  N1  UNL     1       1.362  -0.274   0.699  1.00  0.00    -0.407 N 
ATOM      8  H1  UNL     1       1.199  -0.770   1.575  1.00  0.00     0.154 HD
BRANCH   7   9
HETATM    9  C9  UNL     1       2.417   0.670   0.574  1.00  0.00     0.069 C 
HETATM   10  C10 UNL     1       3.424   0.089  -0.434  1.00  0.00     0.031 C 
HETATM   11  C11 UNL     1       3.117   0.721   1.943  1.00  0.00     0.031 C 
ENDBRANCH   7   9
ENDBRANCH   6   7
BRANCH   1  12
HETATM   12  O1  UNL     1      -0.382   1.086  -2.044  1.00  0.00    -0.364 OA
HETATM   13  C1  UNL     1       0.064   2.408  -2.221  1.00  0.00     0.204 C 
ENDBRANCH   1  12
BRANCH   5  14
HETATM   14  C7  UNL     1      -0.405  -2.152   1.202  1.00  0.00     0.198 C 
BRANCH  14  15
HETATM   15  O5  UNL     1      -1.067  -3.382   1.295  1.00  0.00    -0.398 OA
ATOM     16  H5  UNL     1      -1.115  -3.677   2.197  1.00  0.00     0.209 HD
ENDBRANCH  14  15
ENDBRANCH   5  14
BRANCH   3  17
HETATM   17  C4  UNL     1      -3.580  -0.432  -0.421  1.00  0.00     0.177 C 
HETATM   18  C5  UNL     1      -4.049   0.455   0.653  1.00  0.00     0.096 C 
HETATM   19  O3  UNL     1      -4.285  -1.250  -0.978  1.00  0.00    -0.293 OA
ENDBRANCH   3  17
TORSDOF 6
