REMARK  7 active torsions:
REMARK  status: ('A' for Active; 'I' for Inactive)
REMARK    1  A    between atoms: C3_3  and  O1_4 
REMARK    2  A    between atoms: O1_4  and  C4_5 
REMARK    3  A    between atoms: C5_6  and  O2_7 
REMARK    4  A    between atoms: C6_10  and  C7_11 
REMARK    5  A    between atoms: C6_10  and  C9_13 
REMARK    6  A    between atoms: C9_13  and  O4_14 
REMARK    7  A    between atoms: C10_17  and  O6_18 
ROOT
HETATM    1  C1  UNL     1       5.046   0.881  -1.349  1.00  0.00     0.014 C 
HETATM    2  C2  UNL     1       4.186   0.587  -0.557  1.00  0.00    -0.091 C 
HETATM    3  C3  UNL     1       3.150   0.216   0.379  1.00  0.00     0.261 C 
ENDROOT
BRANCH   3   4
HETATM    4  O1  UNL     1       1.885   0.512  -0.150  1.00  0.00    -0.364 OA
BRANCH   4   5
HETATM    5  C4  UNL     1       0.870   0.169   0.720  1.00  0.00     0.232 C 
HETATM    6  C5  UNL     1       0.016   1.368   1.048  1.00  0.00     0.294 C 
HETATM    7  O3  UNL     1      -1.336   1.093   1.062  1.00  0.00    -0.317 OA
HETATM    8  C6  UNL     1      -1.816   0.536  -0.099  1.00  0.00     0.209 C 
HETATM    9  O5  UNL     1      -0.927  -0.326  -0.712  1.00  0.00    -0.317 OA
HETATM   10  C10 UNL     1      -0.028  -0.913   0.162  1.00  0.00     0.296 C 
BRANCH   6  11
HETATM   11  O2  UNL     1       0.335   2.479   0.259  1.00  0.00    -0.368 OA
ATOM     12  H2  UNL     1      -0.203   3.234   0.466  1.00  0.00     0.212 HD
ENDBRANCH   6  11
BRANCH   8  13
HETATM   13  C7  UNL     1      -3.100  -0.145   0.233  1.00  0.00     0.033 C 
HETATM   14  C8  UNL     1      -3.274  -1.449   0.083  1.00  0.00     0.012 C 
ENDBRANCH   8  13
BRANCH   8  15
HETATM   15  C9  UNL     1      -2.166   1.605  -1.141  1.00  0.00     0.237 C 
BRANCH  15  16
HETATM   16  O4  UNL     1      -3.132   2.461  -0.663  1.00  0.00    -0.395 OA
ATOM     17  H4  UNL     1      -3.349   3.123  -1.309  1.00  0.00     0.209 HD
ENDBRANCH  15  16
ENDBRANCH   8  15
BRANCH  10  18
HETATM   18  O6  UNL     1       0.742  -1.807  -0.561  1.00  0.00    -0.363 OA
HETATM   19  C11 UNL     1       0.611  -3.079  -0.005  1.00  0.00     0.204 C 
ENDBRANCH  10  18
ENDBRANCH   4   5
ENDBRANCH   3   4
TORSDOF 7
