REMARK  4 active torsions:
REMARK  status: ('A' for Active; 'I' for Inactive)
REMARK    1  A    between atoms: C2_2  and  C3_3 
REMARK    2  A    between atoms: N2_13  and  C9_14 
REMARK    3  A    between atoms: C9_14  and  C10_18 
REMARK    4  A    between atoms: C10_18  and  N4_19 
ROOT
HETATM    1  C3  UNL     1       2.714   0.134   0.088  1.00  0.00     0.011 C 
HETATM    2  C4  UNL     1       2.351  -0.101   1.536  1.00  0.00     0.038 C 
HETATM    3  C5  UNL     1       1.245  -1.122   1.403  1.00  0.00     0.143 C 
HETATM    4  C6  UNL     1       1.860  -2.414   0.970  1.00  0.00     0.063 C 
HETATM    5  N1  UNL     1       1.997  -3.383   1.787  1.00  0.00    -0.395 N 
ATOM      6  H11 UNL     1       2.417  -4.265   1.492  1.00  0.00     0.156 HD
ATOM      7  H12 UNL     1       1.676  -3.257   2.747  1.00  0.00     0.156 HD
HETATM    8  S1  UNL     1       2.424  -2.636  -0.716  1.00  0.00    -0.113 SA
HETATM    9  C7  UNL     1       1.758  -1.255  -1.690  1.00  0.00     0.106 C 
HETATM   10  C8  UNL     1       1.456  -0.132  -0.695  1.00  0.00     0.100 C 
HETATM   11  N2  UNL     1       0.486  -0.605   0.283  1.00  0.00    -0.353 N 
ENDROOT
BRANCH  11  12
HETATM   12  C9  UNL     1      -0.904  -0.555   0.138  1.00  0.00     0.092 C 
HETATM   13  N3  UNL     1      -1.652  -1.189   0.983  1.00  0.00    -0.388 N 
ATOM     14  H32 UNL     1      -1.214  -1.714   1.740  1.00  0.00     0.157 HD
ATOM     15  H31 UNL     1      -2.666  -1.153   0.877  1.00  0.00     0.157 HD
BRANCH  12  16
HETATM   16  C10 UNL     1      -1.543   0.211  -0.965  1.00  0.00     0.204 C 
BRANCH  16  17
HETATM   17  N4  UNL     1      -3.001   0.088  -0.872  1.00  0.00    -0.349 N 
HETATM   18  C11 UNL     1      -3.670  -0.898  -1.491  1.00  0.00     0.093 A 
HETATM   19  C12 UNL     1      -5.008  -0.773  -1.236  1.00  0.00     0.038 A 
HETATM   20  C13 UNL     1      -5.096   0.361  -0.418  1.00  0.00     0.033 A 
HETATM   21  S2  UNL     1      -6.148   1.389   0.444  1.00  0.00    -0.100 SA
HETATM   22  C16 UNL     1      -3.865   0.903  -0.184  1.00  0.00     0.052 A 
HETATM   23  C14 UNL     1      -5.006   2.482   1.081  1.00  0.00     0.053 A 
HETATM   24  C15 UNL     1      -3.822   2.007   0.596  1.00  0.00     0.038 A 
ENDBRANCH  16  17
ENDBRANCH  12  16
ENDBRANCH  11  12
BRANCH   1  25
HETATM   25  C2  UNL     1       3.237   1.537  -0.134  1.00  0.00     0.002 C 
HETATM   26  C1  UNL     1       4.464   1.740   0.710  1.00  0.00     0.005 C 
ENDBRANCH   1  25
TORSDOF 4
