REMARK  8 active torsions:
REMARK  status: ('A' for Active; 'I' for Inactive)
REMARK    1  A    between atoms: O1_1  and  C1_3 
REMARK    2  A    between atoms: C4_6  and  O2_7 
REMARK    3  A    between atoms: N1_9  and  C5_10 
REMARK    4  A    between atoms: C5_10  and  C6_11 
REMARK    5  A    between atoms: C6_11  and  C7_12 
REMARK    6  A    between atoms: C7_12  and  N2_13 
REMARK    7  A    between atoms: C13_19  and  C14_20 
REMARK    8  A    between atoms: C14_20  and  C15_21 
ROOT
HETATM    1  C1  UNL     1       0.433   0.290   1.760  1.00  0.00     0.151 A 
HETATM    2  C2  UNL     1      -0.803   0.926   1.657  1.00  0.00     0.007 A 
HETATM    3  C3  UNL     1      -1.530   0.176   0.782  1.00  0.00     0.011 A 
HETATM    4  C4  UNL     1      -0.741  -0.855   0.395  1.00  0.00     0.151 A 
HETATM    5  N1  UNL     1       0.491  -0.792   1.003  1.00  0.00    -0.308 N 
HETATM    6  C13 UNL     1      -2.923   0.642   0.485  1.00  0.00     0.048 C 
HETATM    7  C19 UNL     1      -2.839   2.106   0.252  1.00  0.00    -0.021 C 
HETATM    8  C20 UNL     1      -2.112   2.836   1.104  1.00  0.00    -0.025 C 
HETATM    9  C21 UNL     1      -1.423   2.135   2.249  1.00  0.00     0.070 C 
ENDROOT
BRANCH   5  10
HETATM   10  C5  UNL     1       1.576  -1.711   0.810  1.00  0.00     0.135 C 
BRANCH  10  11
HETATM   11  C6  UNL     1       2.466  -1.442  -0.346  1.00  0.00     0.050 C 
BRANCH  11  12
HETATM   12  C7  UNL     1       3.224  -0.172  -0.356  1.00  0.00     0.274 C 
BRANCH  12  13
HETATM   13  N2  UNL     1       4.162   0.008   0.707  1.00  0.00     0.088 N 
HETATM   14  C8  UNL     1       4.839   1.284   0.600  1.00  0.00     0.272 C 
HETATM   15  C9  UNL     1       5.560   1.333  -0.707  1.00  0.00     0.030 C 
HETATM   16  C10 UNL     1       6.455   0.177  -0.986  1.00  0.00     0.003 C 
HETATM   17  C11 UNL     1       5.989  -1.136  -0.463  1.00  0.00     0.030 C 
HETATM   18  C12 UNL     1       5.147  -1.023   0.784  1.00  0.00     0.272 C 
ENDBRANCH  12  13
ENDBRANCH  11  12
ENDBRANCH  10  11
ENDBRANCH   5  10
BRANCH   1  19
HETATM   19  O1  UNL     1       1.418   0.829   2.604  1.00  0.00    -0.345 OA
ATOM     20  H1  UNL     1       2.260   0.396   2.674  1.00  0.00     0.219 HD
ENDBRANCH   1  19
BRANCH   4  21
HETATM   21  O2  UNL     1      -1.111  -1.848  -0.492  1.00  0.00    -0.345 OA
ATOM     22  H2  UNL     1      -0.558  -2.571  -0.763  1.00  0.00     0.219 HD
ENDBRANCH   4  21
BRANCH   6  23
HETATM   23  C14 UNL     1      -3.499  -0.099  -0.680  1.00  0.00     0.047 C 
BRANCH  23  24
HETATM   24  C15 UNL     1      -4.887   0.361  -0.973  1.00  0.00     0.146 C 
HETATM   25  C16 UNL     1      -5.474  -0.390  -2.153  1.00  0.00     0.199 C 
HETATM   26  O3  UNL     1      -5.809  -1.690  -1.832  1.00  0.00    -0.387 OA
HETATM   27  C17 UNL     1      -6.686  -1.769  -0.753  1.00  0.00     0.193 C 
HETATM   28  C18 UNL     1      -6.854  -0.434  -0.067  1.00  0.00     0.194 C 
HETATM   29  O4  UNL     1      -5.658   0.213   0.170  1.00  0.00    -0.382 OA
ENDBRANCH  23  24
ENDBRANCH   6  23
TORSDOF 8
