REMARK  1 active torsions:
REMARK  status: ('A' for Active; 'I' for Inactive)
REMARK    1  A    between atoms: N2_8  and  O1_9 
ROOT
HETATM    1  N1  UNL     1       3.628   0.005   0.098  1.00  0.00    -0.195 NA
HETATM    2  C1  UNL     1       2.505  -0.058  -0.223  1.00  0.00     0.087 C 
HETATM    3  C2  UNL     1       1.088  -0.119  -0.610  1.00  0.00     0.219 C 
HETATM    4  C3  UNL     1       0.488  -1.318   0.046  1.00  0.00     0.043 C 
HETATM    5  C4  UNL     1      -1.005  -1.300   0.102  1.00  0.00     0.008 C 
HETATM    6  C5  UNL     1      -1.612   0.022   0.379  1.00  0.00     0.047 C 
HETATM    7  C6  UNL     1      -0.902   1.194  -0.192  1.00  0.00     0.091 C 
HETATM    8  N2  UNL     1       0.482   1.110  -0.331  1.00  0.00    -0.258 N 
ENDROOT
BRANCH   8   9
HETATM    9  O1  UNL     1       1.228   2.083   0.139  1.00  0.00    -0.287 OA
ATOM     10  H1  UNL     1       0.816   2.918   0.329  1.00  0.00     0.244 HD
ENDBRANCH   8   9
TORSDOF 1
