REMARK  13 active torsions:
REMARK  status: ('A' for Active; 'I' for Inactive)
REMARK    1  A    between atoms: C2_2  and  C4_4 
REMARK    2  A    between atoms: C8_9  and  C9_10 
REMARK    3  A    between atoms: C9_10  and  C10_11 
REMARK    4  A    between atoms: C10_11  and  C11_12 
REMARK    5  A    between atoms: C11_12  and  C12_13 
REMARK    6  A    between atoms: C12_13  and  C13_14 
REMARK    7  A    between atoms: C13_14  and  C14_15 
REMARK    8  A    between atoms: C14_15  and  O2_16 
REMARK    9  A    between atoms: C14_15  and  N1_18 
REMARK   10  A    between atoms: N1_18  and  C15_20 
REMARK   11  A    between atoms: C21_27  and  C22_28 
REMARK   12  A    between atoms: C22_28  and  O5_30 
REMARK   13  A    between atoms: O5_30  and  C23_31 
ROOT
HETATM    1  C14 UNL     1      -1.196   0.278   1.007  1.00  0.00     0.242 C 
ENDROOT
BRANCH   1   2
HETATM    2  C13 UNL     1       0.038   1.110   0.771  1.00  0.00     0.026 C 
BRANCH   2   3
HETATM    3  C12 UNL     1       1.242   0.604   0.630  1.00  0.00     0.000 C 
BRANCH   3   4
HETATM    4  C11 UNL     1       1.494  -0.835   0.690  1.00  0.00    -0.000 C 
BRANCH   4   5
HETATM    5  C10 UNL     1       2.648  -1.422   0.572  1.00  0.00     0.000 C 
BRANCH   5   6
HETATM    6  C9  UNL     1       3.893  -0.651   0.353  1.00  0.00     0.001 C 
BRANCH   6   7
HETATM    7  C8  UNL     1       5.007  -1.331   0.245  1.00  0.00     0.017 C 
HETATM    8  C7  UNL     1       6.331  -0.832   0.037  1.00  0.00     0.036 A 
HETATM    9  C6  UNL     1       6.612   0.492  -0.104  1.00  0.00     0.186 A 
HETATM   10  C27 UNL     1       7.392  -1.745  -0.005  1.00  0.00     0.157 A 
HETATM   11  C5  UNL     1       7.946   0.896  -0.285  1.00  0.00     0.088 A 
HETATM   12  O1  UNL     1       5.753   1.395  -0.086  1.00  0.00    -0.287 OA
HETATM   13  C4  UNL     1       8.914  -0.076  -0.311  1.00  0.00     0.059 A 
HETATM   14  O6  UNL     1       8.623  -1.359  -0.173  1.00  0.00    -0.326 OA
BRANCH  13  15
HETATM   15  C2  UNL     1      10.320   0.312  -0.496  1.00  0.00     0.035 C 
HETATM   16  C1  UNL     1      10.981   0.170   0.893  1.00  0.00     0.016 C 
HETATM   17  C3  UNL     1      11.085  -0.551  -1.472  1.00  0.00     0.016 C 
ENDBRANCH  13  15
ENDBRANCH   6   7
ENDBRANCH   5   6
ENDBRANCH   4   5
ENDBRANCH   3   4
ENDBRANCH   2   3
ENDBRANCH   1   2
BRANCH   1  18
HETATM   18  O2  UNL     1      -1.135  -0.011   2.399  1.00  0.00    -0.373 OA
ATOM     19  H2  UNL     1      -1.913  -0.536   2.548  1.00  0.00     0.212 HD
ENDBRANCH   1  18
BRANCH   1  20
HETATM   20  N1  UNL     1      -2.333   1.100   0.819  1.00  0.00    -0.362 N 
ATOM     21  H1  UNL     1      -2.345   2.066   1.145  1.00  0.00     0.162 HD
BRANCH  20  22
HETATM   22  C15 UNL     1      -3.471   0.527   0.153  1.00  0.00     0.047 C 
HETATM   23  C16 UNL     1      -3.201   0.123  -1.228  1.00  0.00     0.060 C 
HETATM   24  C17 UNL     1      -3.345   1.150  -2.314  1.00  0.00     0.013 C 
HETATM   25  C18 UNL     1      -4.729   1.687  -2.186  1.00  0.00     0.018 A 
HETATM   26  C19 UNL     1      -5.212   3.016  -2.486  1.00  0.00     0.040 A 
HETATM   27  C20 UNL     1      -4.522   2.862  -1.197  1.00  0.00     0.134 A 
HETATM   28  O3  UNL     1      -4.993   2.459  -0.024  1.00  0.00    -0.338 OA
HETATM   29  C21 UNL     1      -4.691   1.260   0.518  1.00  0.00     0.167 C 
BRANCH  29  30
HETATM   30  C22 UNL     1      -5.929   0.477   0.702  1.00  0.00     0.319 C 
HETATM   31  O4  UNL     1      -7.032   1.073   0.414  1.00  0.00    -0.257 OA
BRANCH  30  32
HETATM   32  O5  UNL     1      -6.076  -0.797   1.134  1.00  0.00    -0.306 OA
BRANCH  32  33
HETATM   33  C23 UNL     1      -7.312  -1.418   1.275  1.00  0.00     0.060 C 
HETATM   34  C24 UNL     1      -8.245  -0.778   2.271  1.00  0.00     0.046 C 
HETATM   35  C25 UNL     1      -8.088  -1.496  -0.027  1.00  0.00     0.046 C 
HETATM   36  C26 UNL     1      -7.079  -2.843   1.735  1.00  0.00     0.046 C 
ENDBRANCH  32  33
ENDBRANCH  30  32
ENDBRANCH  29  30
ENDBRANCH  20  22
ENDBRANCH   1  20
TORSDOF 13
