REMARK  8 active torsions:
REMARK  status: ('A' for Active; 'I' for Inactive)
REMARK    1  A    between atoms: C5_5  and  C6_6 
REMARK    2  A    between atoms: C6_6  and  N1_7 
REMARK    3  A    between atoms: N1_7  and  C7_9 
REMARK    4  A    between atoms: C8_12  and  N3_13 
REMARK    5  A    between atoms: N4_16  and  C11_17 
REMARK    6  A    between atoms: C11_17  and  C12_18 
REMARK    7  A    between atoms: C17_25  and  N6_26 
REMARK    8  A    between atoms: N6_26  and  C18_28 
ROOT
HETATM    1  C7  UNL     1      -1.502   0.659  -0.519  1.00  0.00     0.707 A 
HETATM    2  N2  UNL     1      -0.168   0.931  -0.413  1.00  0.00    -0.021 N 
ATOM      3  H2  UNL     1       0.162   1.877  -0.602  1.00  0.00     0.203 HD
HETATM    4  C8  UNL     1       0.722  -0.014  -0.066  1.00  0.00     0.709 A 
HETATM    5  N5  UNL     1       0.225  -1.254   0.174  1.00  0.00    -0.021 N 
ATOM      6  H5  UNL     1       0.883  -1.987   0.439  1.00  0.00     0.203 HD
HETATM    7  C17 UNL     1      -1.069  -1.580   0.087  1.00  0.00     0.707 A 
HETATM    8  N7  UNL     1      -1.922  -0.592  -0.266  1.00  0.00    -0.021 N 
ATOM      9  H7  UNL     1      -2.917  -0.803  -0.343  1.00  0.00     0.203 HD
ENDROOT
BRANCH   4  10
HETATM   10  N3  UNL     1       2.129   0.241   0.051  1.00  0.00    -0.213 N 
HETATM   11  C9  UNL     1       2.936   0.094  -1.127  1.00  0.00     0.171 C 
HETATM   12  C10 UNL     1       4.093   1.032  -1.233  1.00  0.00     0.293 C 
HETATM   13  N4  UNL     1       4.736   1.231   0.059  1.00  0.00     0.092 N 
HETATM   14  C15 UNL     1       3.761   1.683   1.046  1.00  0.00     0.293 C 
HETATM   15  C16 UNL     1       2.728   0.621   1.298  1.00  0.00     0.171 C 
BRANCH  13  16
HETATM   16  C11 UNL     1       5.757   2.232  -0.042  1.00  0.00     0.277 C 
BRANCH  16  17
HETATM   17  C12 UNL     1       6.934   1.793  -0.875  1.00  0.00     0.014 A 
HETATM   18  C13 UNL     1       7.700   0.581  -0.438  1.00  0.00     0.007 A 
HETATM   19  C14 UNL     1       8.317   1.916  -0.222  1.00  0.00     0.007 A 
ENDBRANCH  16  17
ENDBRANCH  13  16
ENDBRANCH   4  10
BRANCH   1  20
HETATM   20  N1  UNL     1      -2.244   1.642  -0.860  1.00  0.00    -0.220 N 
ATOM     21  H1  UNL     1      -1.758   2.525  -1.017  1.00  0.00     0.178 HD
BRANCH  20  22
HETATM   22  C6  UNL     1      -3.649   1.677  -1.051  1.00  0.00     0.184 C 
BRANCH  22  23
HETATM   23  C5  UNL     1      -4.249   2.845  -0.309  1.00  0.00     0.001 A 
HETATM   24  C4  UNL     1      -5.548   3.265  -0.346  1.00  0.00     0.017 A 
HETATM   25  C3  UNL     1      -5.874   4.330   0.395  1.00  0.00     0.015 A 
HETATM   26  C2  UNL     1      -4.874   4.912   1.132  1.00  0.00    -0.021 A 
HETATM   27  C1  UNL     1      -4.985   6.113   2.042  1.00  0.00     0.056 C 
HETATM   28  S1  UNL     1      -3.517   3.949   0.760  1.00  0.00    -0.098 SA
ENDBRANCH  22  23
ENDBRANCH  20  22
ENDBRANCH   1  20
BRANCH   7  29
HETATM   29  N6  UNL     1      -1.400  -2.779   0.335  1.00  0.00    -0.220 N 
ATOM     30  H6  UNL     1      -0.638  -3.410   0.584  1.00  0.00     0.178 HD
BRANCH  29  31
HETATM   31  C18 UNL     1      -2.703  -3.356   0.309  1.00  0.00     0.099 C 
HETATM   32  C19 UNL     1      -2.845  -4.058  -1.048  1.00  0.00     0.026 C 
HETATM   33  C20 UNL     1      -1.971  -5.316  -1.008  1.00  0.00     0.002 C 
HETATM   34  C21 UNL     1      -2.784  -6.355  -0.265  1.00  0.00     0.000 C 
HETATM   35  C22 UNL     1      -3.564  -5.662   0.810  1.00  0.00     0.002 C 
HETATM   36  C23 UNL     1      -2.885  -4.439   1.359  1.00  0.00     0.026 C 
ENDBRANCH  29  31
ENDBRANCH   7  29
TORSDOF 8
