REMARK  16 active torsions:
REMARK  status: ('A' for Active; 'I' for Inactive)
REMARK    1  A    between atoms: C2_3  and  C3_4 
REMARK    2  A    between atoms: C3_4  and  O1_5 
REMARK    3  A    between atoms: C3_4  and  C4_7 
REMARK    4  A    between atoms: C4_7  and  N2_8 
REMARK    5  A    between atoms: N2_8  and  C5_10 
REMARK    6  A    between atoms: C5_10  and  C6_11 
REMARK    7  A    between atoms: N4_16  and  C9_17 
REMARK    8  A    between atoms: C9_17  and  N5_18 
REMARK       I    between atoms: N5_18  and  C10_20 
REMARK    9  A    between atoms: C10_20  and  C11_22 
REMARK   10  A    between atoms: C11_22  and  N6_23 
REMARK   11  A    between atoms: C11_22  and  C12_27 
REMARK   12  A    between atoms: C12_27  and  C13_28 
REMARK   13  A    between atoms: C16_31  and  O3_32 
REMARK   14  A    between atoms: O3_32  and  C17_33 
REMARK   15  A    between atoms: C17_33  and  C18_34 
REMARK   16  A    between atoms: C26_49  and  O5_50 
ROOT
HETATM    1  C9  UNL     1       1.001   1.534  -0.398  1.00  0.00     0.187 C 
ENDROOT
BRANCH   1   2
HETATM    2  N4  UNL     1       2.205   0.887  -0.809  1.00  0.00    -0.331 N 
HETATM    3  C6  UNL     1       3.429   1.640  -1.055  1.00  0.00     0.126 C 
HETATM    4  C7  UNL     1       4.109   0.795  -2.101  1.00  0.00     0.147 C 
HETATM    5  N3  UNL     1       3.603  -0.538  -1.786  1.00  0.00    -0.384 N 
HETATM    6  C8  UNL     1       2.537  -0.470  -1.063  1.00  0.00     0.179 C 
ATOM      7  H3  UNL     1       4.035  -1.408  -2.097  1.00  0.00     0.160 HD
BRANCH   3   8
HETATM    8  C5  UNL     1       4.231   1.689   0.200  1.00  0.00     0.141 C 
BRANCH   8   9
HETATM    9  N2  UNL     1       5.525   2.274   0.014  1.00  0.00    -0.416 N 
ATOM     10  H2  UNL     1       5.828   2.666  -0.878  1.00  0.00     0.153 HD
BRANCH   9  11
HETATM   11  C4  UNL     1       6.362   2.266   1.178  1.00  0.00     0.152 C 
BRANCH  11  12
HETATM   12  C3  UNL     1       6.827   0.850   1.517  1.00  0.00     0.187 C 
BRANCH  12  13
HETATM   13  C2  UNL     1       7.697   0.337   0.416  1.00  0.00     0.072 A 
HETATM   14  C1  UNL     1       8.186  -0.947   0.381  1.00  0.00     0.122 A 
HETATM   15  N1  UNL     1       7.865  -1.850   1.417  1.00  0.00    -0.096 NA
HETATM   16  C26 UNL     1       8.988  -1.375  -0.649  1.00  0.00     0.170 A 
HETATM   17  N9  UNL     1       9.293  -0.520  -1.631  1.00  0.00    -0.287 N 
HETATM   18  C25 UNL     1       8.806   0.750  -1.593  1.00  0.00     0.326 A 
ATOM     19  H9  UNL     1       9.887  -0.818  -2.404  1.00  0.00     0.172 HD
HETATM   20  N8  UNL     1       8.024   1.168  -0.588  1.00  0.00    -0.308 N 
HETATM   21  O4  UNL     1       9.079   1.570  -2.504  1.00  0.00    -0.247 OA
ATOM     22  H8  UNL     1       7.674   2.126  -0.585  1.00  0.00     0.170 HD
BRANCH  16  23
HETATM   23  O5  UNL     1       9.466  -2.660  -0.667  1.00  0.00    -0.345 OA
ATOM     24  H5  UNL     1      10.021  -2.956  -1.379  1.00  0.00     0.219 HD
ENDBRANCH  16  23
ENDBRANCH  12  13
BRANCH  12  25
HETATM   25  O1  UNL     1       7.625   0.957   2.642  1.00  0.00    -0.388 OA
ATOM     26  H1  UNL     1       7.072   1.283   3.342  1.00  0.00     0.210 HD
ENDBRANCH  12  25
ENDBRANCH  11  12
ENDBRANCH   9  11
ENDBRANCH   8   9
ENDBRANCH   3   8
ENDBRANCH   1   2
BRANCH   1  27
HETATM   27  N5  UNL     1      -0.155   0.732  -0.238  1.00  0.00    -0.321 N 
HETATM   28  C10 UNL     1      -0.777  -0.049  -1.216  1.00  0.00     0.253 C 
HETATM   29  O2  UNL     1      -0.332  -0.120  -2.369  1.00  0.00    -0.271 OA
ATOM     30  H5  UNL     1      -0.579   0.723   0.690  1.00  0.00     0.169 HD
BRANCH  28  31
HETATM   31  C11 UNL     1      -2.020  -0.818  -0.868  1.00  0.00     0.279 C 
BRANCH  31  32
HETATM   32  N6  UNL     1      -2.547  -1.536  -2.012  1.00  0.00    -0.066 N 
ATOM     33  H63 UNL     1      -2.706  -0.911  -2.802  1.00  0.00     0.275 HD
ATOM     34  H62 UNL     1      -1.840  -2.142  -2.428  1.00  0.00     0.275 HD
ATOM     35  H61 UNL     1      -3.391  -2.058  -1.776  1.00  0.00     0.275 HD
ENDBRANCH  31  32
BRANCH  31  36
HETATM   36  C12 UNL     1      -3.044   0.185  -0.430  1.00  0.00     0.081 C 
BRANCH  36  37
HETATM   37  C13 UNL     1      -4.335  -0.364  -0.047  1.00  0.00    -0.056 A 
HETATM   38  C14 UNL     1      -4.574  -0.712   1.259  1.00  0.00     0.010 A 
HETATM   39  C15 UNL     1      -5.774  -1.216   1.707  1.00  0.00     0.037 A 
HETATM   40  C16 UNL     1      -6.832  -1.394   0.801  1.00  0.00     0.069 A 
HETATM   41  C23 UNL     1      -6.603  -1.049  -0.512  1.00  0.00     0.037 A 
HETATM   42  C24 UNL     1      -5.381  -0.542  -0.942  1.00  0.00     0.010 A 
BRANCH  40  43
HETATM   43  O3  UNL     1      -8.013  -1.894   1.276  1.00  0.00    -0.347 OA
BRANCH  43  44
HETATM   44  C17 UNL     1      -9.183  -2.130   0.560  1.00  0.00     0.214 C 
BRANCH  44  45
HETATM   45  C18 UNL     1      -9.745  -0.895  -0.030  1.00  0.00    -0.032 A 
HETATM   46  C19 UNL     1     -10.579  -0.951  -1.123  1.00  0.00     0.026 A 
HETATM   47  C20 UNL     1     -11.117   0.190  -1.689  1.00  0.00     0.088 A 
HETATM   48  N7  UNL     1     -10.814   1.377  -1.153  1.00  0.00    -0.375 N 
HETATM   49  C21 UNL     1     -10.005   1.464  -0.086  1.00  0.00     0.088 A 
ATOM     50  H7  UNL     1     -11.203   2.227  -1.561  1.00  0.00     0.164 HD
HETATM   51  C22 UNL     1      -9.450   0.338   0.503  1.00  0.00     0.026 A 
ENDBRANCH  44  45
ENDBRANCH  43  44
ENDBRANCH  40  43
ENDBRANCH  36  37
ENDBRANCH  31  36
ENDBRANCH  28  31
ENDBRANCH   1  27
TORSDOF 16
