REMARK  1 active torsions:
REMARK  status: ('A' for Active; 'I' for Inactive)
REMARK    1  A    between atoms: N1_1  and  C1_5 
ROOT
HETATM    1  C1  UNL     1       2.781   0.401   0.061  1.00  0.00     0.192 C 
HETATM    2  C2  UNL     1       2.146   0.579   1.444  1.00  0.00     0.065 C 
HETATM    3  C3  UNL     1       1.075   1.393   0.699  1.00  0.00     0.136 C 
HETATM    4  O1  UNL     1      -0.196   1.109   1.097  1.00  0.00    -0.327 OA
HETATM    5  C4  UNL     1      -0.675   0.021   0.425  1.00  0.00     0.282 C 
HETATM    6  C5  UNL     1       0.482  -0.644  -0.285  1.00  0.00     0.111 C 
HETATM    7  C6  UNL     1       1.405   0.529  -0.502  1.00  0.00     0.053 C 
HETATM    8  O2  UNL     1      -1.327  -0.834   1.292  1.00  0.00    -0.333 OA
HETATM    9  C7  UNL     1      -2.529  -0.247   1.682  1.00  0.00     0.176 C 
HETATM   10  C8  UNL     1      -3.466  -0.367   0.471  1.00  0.00     0.053 C 
HETATM   11  C9  UNL     1      -2.524  -0.504  -0.733  1.00  0.00     0.176 C 
HETATM   12  O3  UNL     1      -1.564   0.506  -0.565  1.00  0.00    -0.333 OA
ENDROOT
BRANCH   1  13
HETATM   13  N1  UNL     1       3.462  -0.835  -0.141  1.00  0.00    -0.074 N 
ATOM     14  H13 UNL     1       4.163  -0.972   0.587  1.00  0.00     0.274 HD
ATOM     15  H12 UNL     1       2.838  -1.616   0.062  1.00  0.00     0.274 HD
ATOM     16  H11 UNL     1       3.885  -0.953  -1.062  1.00  0.00     0.274 HD
ENDBRANCH   1  13
TORSDOF 1
