REMARK  9 active torsions:
REMARK  status: ('A' for Active; 'I' for Inactive)
REMARK    1  A    between atoms: N2_4  and  O1_5 
REMARK    2  A    between atoms: N2_4  and  C1_7 
REMARK    3  A    between atoms: C4_10  and  N3_11 
REMARK    4  A    between atoms: N3_11  and  N4_13 
REMARK       I    between atoms: N4_13  and  C5_15 
REMARK    5  A    between atoms: C6_20  and  O2_21 
REMARK    6  A    between atoms: O2_21  and  C7_22 
REMARK    7  A    between atoms: C7_22  and  C8_23 
REMARK    8  A    between atoms: C8_23  and  C9_27 
REMARK    9  A    between atoms: C9_27  and  N8_28 
ROOT
HETATM    1  C1  UNL     1      -0.629   3.147   0.256  1.00  0.00     0.083 A 
HETATM    2  C2  UNL     1      -1.907   2.756  -0.067  1.00  0.00     0.036 A 
HETATM    3  C3  UNL     1      -2.205   1.471  -0.474  1.00  0.00     0.036 A 
HETATM    4  C4  UNL     1      -1.196   0.510  -0.573  1.00  0.00     0.081 A 
HETATM    5  C6  UNL     1       0.085   0.890  -0.253  1.00  0.00     0.099 A 
HETATM    6  C10 UNL     1       0.369   2.170   0.152  1.00  0.00     0.073 A 
ENDROOT
BRANCH   5   7
HETATM    7  O2  UNL     1       1.098  -0.068  -0.353  1.00  0.00    -0.343 OA
BRANCH   7   8
HETATM    8  C7  UNL     1       2.420   0.334   0.001  1.00  0.00     0.229 C 
BRANCH   8   9
HETATM    9  C8  UNL     1       3.375  -0.778  -0.199  1.00  0.00     0.030 C 
HETATM   10  N7  UNL     1       4.537  -0.529  -0.699  1.00  0.00    -0.403 N 
ATOM     11  H72 UNL     1       4.786   0.422  -0.970  1.00  0.00     0.155 HD
ATOM     12  H71 UNL     1       5.195  -1.296  -0.837  1.00  0.00     0.155 HD
BRANCH   9  13
HETATM   13  C9  UNL     1       3.013  -2.159   0.195  1.00  0.00     0.283 C 
BRANCH  13  14
HETATM   14  N8  UNL     1       4.049  -3.073  -0.335  1.00  0.00    -0.074 N 
ATOM     15  H83 UNL     1       4.186  -2.973  -1.341  1.00  0.00     0.274 HD
ATOM     16  H82 UNL     1       4.991  -2.813  -0.042  1.00  0.00     0.274 HD
ATOM     17  H81 UNL     1       3.800  -4.024  -0.064  1.00  0.00     0.274 HD
ENDBRANCH  13  14
ENDBRANCH   9  13
ENDBRANCH   8   9
ENDBRANCH   7   8
ENDBRANCH   5   7
BRANCH   4  18
HETATM   18  N3  UNL     1      -1.517  -0.805  -0.983  1.00  0.00    -0.296 N 
ATOM     19  H3  UNL     1      -0.773  -1.491  -1.110  1.00  0.00     0.187 HD
BRANCH  18  20
HETATM   20  N4  UNL     1      -2.849  -1.175  -1.217  1.00  0.00    -0.273 N 
HETATM   21  C5  UNL     1      -3.491  -2.121  -0.380  1.00  0.00     0.200 C 
HETATM   22  N5  UNL     1      -3.159  -3.357  -0.510  1.00  0.00    -0.372 N 
HETATM   23  N6  UNL     1      -4.464  -1.746   0.575  1.00  0.00    -0.062 NA
ATOM     24  H52 UNL     1      -2.457  -3.628  -1.199  1.00  0.00     0.158 HD
ATOM     25  H51 UNL     1      -3.621  -4.038   0.093  1.00  0.00     0.158 HD
ATOM     26  H4  UNL     1      -3.360  -0.760  -1.996  1.00  0.00     0.189 HD
ENDBRANCH  18  20
ENDBRANCH   4  18
BRANCH   1  27
HETATM   27  N2  UNL     1      -0.345   4.472   0.681  1.00  0.00    -0.170 N 
HETATM   28  N1  UNL     1       0.662   5.054   0.150  1.00  0.00    -0.319 N 
ATOM     29  H12 UNL     1       0.866   6.006   0.455  1.00  0.00     0.179 HD
ATOM     30  H11 UNL     1       1.241   4.584  -0.547  1.00  0.00     0.179 HD
BRANCH  27  31
HETATM   31  O1  UNL     1      -1.115   5.097   1.608  1.00  0.00    -0.268 OA
ATOM     32  H1  UNL     1      -1.863   4.665   2.003  1.00  0.00     0.247 HD
ENDBRANCH  27  31
ENDBRANCH   1  27
TORSDOF 9
