REMARK  8 active torsions:
REMARK  status: ('A' for Active; 'I' for Inactive)
REMARK       I    between atoms: C1_4  and  N3_6 
REMARK    1  A    between atoms: N3_6  and  N4_8 
REMARK    2  A    between atoms: N4_8  and  C2_10 
REMARK    3  A    between atoms: C4_13  and  N5_14 
REMARK       I    between atoms: N5_14  and  C5_16 
REMARK    4  A    between atoms: C5_16  and  C6_18 
REMARK    5  A    between atoms: C6_18  and  C7_20 
REMARK    6  A    between atoms: C7_20  and  C8_21 
REMARK    7  A    between atoms: C8_21  and  C9_22 
REMARK    8  A    between atoms: C9_22  and  N6_23 
ROOT
HETATM    1  C2  UNL     1      -3.387   0.387   0.539  1.00  0.00     0.074 A 
HETATM    2  C3  UNL     1      -2.839   0.425  -0.723  1.00  0.00     0.175 A 
HETATM    3  O1  UNL     1      -1.535   0.405  -0.631  1.00  0.00    -0.303 OA
HETATM    4  C4  UNL     1      -1.176   0.356   0.644  1.00  0.00     0.152 A 
HETATM    5  C10 UNL     1      -2.313   0.342   1.421  1.00  0.00     0.089 A 
ENDROOT
BRANCH   4   6
HETATM    6  N5  UNL     1       0.177   0.322   1.121  1.00  0.00    -0.301 N 
HETATM    7  C5  UNL     1       1.245   0.341   0.205  1.00  0.00     0.293 C 
HETATM    8  O2  UNL     1       1.013   0.387  -1.015  1.00  0.00    -0.264 OA
ATOM      9  H5  UNL     1       0.364   0.284   2.123  1.00  0.00     0.171 HD
BRANCH   7  10
HETATM   10  C6  UNL     1       2.605   0.307   0.695  1.00  0.00     0.216 C 
HETATM   11  O3  UNL     1       2.880   0.259   1.936  1.00  0.00    -0.287 OA
BRANCH  10  12
HETATM   12  C7  UNL     1       3.747   0.327  -0.278  1.00  0.00     0.090 C 
BRANCH  12  13
HETATM   13  C8  UNL     1       5.068   0.284   0.460  1.00  0.00     0.035 C 
BRANCH  13  14
HETATM   14  C9  UNL     1       6.165   0.308  -0.588  1.00  0.00     0.230 C 
BRANCH  14  15
HETATM   15  N6  UNL     1       7.465   0.269   0.062  1.00  0.00    -0.079 N 
ATOM     16  H63 UNL     1       7.574   1.015   0.749  1.00  0.00     0.274 HD
ATOM     17  H62 UNL     1       7.555  -0.527   0.694  1.00  0.00     0.274 HD
ATOM     18  H61 UNL     1       8.202   0.285  -0.643  1.00  0.00     0.274 HD
ENDBRANCH  14  15
ENDBRANCH  13  14
ENDBRANCH  12  13
ENDBRANCH  10  12
ENDBRANCH   7  10
ENDBRANCH   4   6
BRANCH   1  19
HETATM   19  N4  UNL     1      -4.766   0.394   0.830  1.00  0.00    -0.296 N 
ATOM     20  H4  UNL     1      -5.077   0.364   1.801  1.00  0.00     0.187 HD
BRANCH  19  21
HETATM   21  N3  UNL     1      -5.710   0.442  -0.196  1.00  0.00    -0.273 N 
HETATM   22  C1  UNL     1      -6.250  -0.797  -0.641  1.00  0.00     0.200 C 
HETATM   23  N1  UNL     1      -7.522  -0.967  -0.501  1.00  0.00    -0.372 N 
HETATM   24  N2  UNL     1      -5.489  -1.834  -1.216  1.00  0.00    -0.062 NA
ATOM     25  H12 UNL     1      -7.909  -1.855  -0.820  1.00  0.00     0.158 HD
ATOM     26  H11 UNL     1      -8.073  -0.216  -0.085  1.00  0.00     0.158 HD
ATOM     27  H3  UNL     1      -6.001   1.328  -0.610  1.00  0.00     0.189 HD
ENDBRANCH  19  21
ENDBRANCH   1  19
TORSDOF 8
