REMARK  3 active torsions:
REMARK  status: ('A' for Active; 'I' for Inactive)
REMARK    1  A    between atoms: C4_7  and  C5_8 
REMARK    2  A    between atoms: C5_8  and  C6_9 
REMARK    3  A    between atoms: C6_9  and  C7_10 
ROOT
HETATM    1  C5  UNL     1       0.249   1.764  -1.520  1.00  0.00     0.016 C 
ENDROOT
BRANCH   1   2
HETATM    2  C4  UNL     1       1.450   0.888  -1.655  1.00  0.00     0.052 C 
HETATM    3  C1  UNL     1       2.537   1.701  -2.291  1.00  0.00     0.093 C 
HETATM    4  N1  UNL     1       2.308   2.674  -3.346  1.00  0.00    -0.087 NA
HETATM    5  N2  UNL     1       3.645   1.390  -1.767  1.00  0.00    -0.382 N 
HETATM    6  C2  UNL     1       3.555   0.393  -0.744  1.00  0.00     0.121 C 
ATOM      7  H2  UNL     1       4.529   1.814  -2.050  1.00  0.00     0.160 HD
HETATM    8  C3  UNL     1       2.052   0.381  -0.404  1.00  0.00     0.031 C 
ENDBRANCH   1   2
BRANCH   1   9
HETATM    9  C6  UNL     1      -0.981   1.200  -0.930  1.00  0.00     0.028 C 
BRANCH   9  10
HETATM   10  C7  UNL     1      -0.774   0.750   0.454  1.00  0.00    -0.024 C 
HETATM   11  C8  UNL     1      -1.010  -0.438   0.961  1.00  0.00    -0.084 C 
HETATM   12  C9  UNL     1      -1.555  -1.577   0.172  1.00  0.00     0.034 C 
HETATM   13  C13 UNL     1      -0.712  -0.654   2.415  1.00  0.00     0.034 C 
HETATM   14  C10 UNL     1      -2.789  -2.061   0.953  1.00  0.00     0.004 C 
HETATM   15  C11 UNL     1      -2.253  -2.622   2.253  1.00  0.00     0.001 C 
HETATM   16  C12 UNL     1      -1.811  -1.441   3.087  1.00  0.00     0.004 C 
ENDBRANCH   9  10
ENDBRANCH   1   9
TORSDOF 3
