REMARK  5 active torsions:
REMARK  status: ('A' for Active; 'I' for Inactive)
REMARK    1  A    between atoms: C2_2  and  C4_4 
REMARK    2  A    between atoms: C6_6  and  C7_7 
REMARK    3  A    between atoms: C7_7  and  C8_8 
REMARK    4  A    between atoms: C8_8  and  O1_9 
REMARK    5  A    between atoms: N1_11  and  O2_13 
ROOT
HETATM    1  C4  UNL     1      -1.234  -0.867  -0.435  1.00  0.00     0.088 C 
HETATM    2  C5  UNL     1      -0.050  -0.162  -0.966  1.00  0.00     0.031 C 
HETATM    3  C6  UNL     1       0.953   0.280   0.046  1.00  0.00     0.004 C 
HETATM    4  C9  UNL     1       1.328  -0.766   1.040  1.00  0.00     0.108 C 
HETATM    5  C10 UNL     1       0.060  -1.200   1.725  1.00  0.00     0.218 C 
HETATM    6  O3  UNL     1       0.047  -1.463   2.963  1.00  0.00    -0.274 OA
HETATM    7  N2  UNL     1      -1.111  -1.300   0.937  1.00  0.00    -0.356 N 
ATOM      8  H2  UNL     1      -1.936  -1.712   1.374  1.00  0.00     0.162 HD
ENDROOT
BRANCH   3   9
HETATM    9  C7  UNL     1       2.219   0.664  -0.731  1.00  0.00     0.091 C 
BRANCH   9  10
HETATM   10  C8  UNL     1       3.292   1.119   0.143  1.00  0.00     0.135 C 
HETATM   11  N1  UNL     1       4.413   0.495   0.164  1.00  0.00    -0.251 N 
ATOM     12  H1  UNL     1       5.149   0.831   0.785  1.00  0.00     0.196 HD
BRANCH  10  13
HETATM   13  O1  UNL     1       3.118   2.221   0.957  1.00  0.00    -0.348 OA
ATOM     14  H1  UNL     1       3.818   2.518   1.527  1.00  0.00     0.219 HD
ENDBRANCH  10  13
BRANCH  11  15
HETATM   15  O2  UNL     1       4.661  -0.608  -0.616  1.00  0.00    -0.288 OA
ATOM     16  H2  UNL     1       5.491  -1.070  -0.600  1.00  0.00     0.244 HD
ENDBRANCH  11  15
ENDBRANCH   9  10
ENDBRANCH   3   9
BRANCH   1  17
HETATM   17  C2  UNL     1      -2.532  -0.088  -0.628  1.00  0.00     0.000 C 
HETATM   18  C1  UNL     1      -2.504   1.243   0.053  1.00  0.00     0.011 C 
HETATM   19  C3  UNL     1      -3.666  -0.896  -0.028  1.00  0.00     0.011 C 
ENDBRANCH   1  17
TORSDOF 5
