REMARK  14 active torsions:
REMARK  status: ('A' for Active; 'I' for Inactive)
REMARK    1  A    between atoms: C6_9  and  C7_10 
REMARK    2  A    between atoms: C8_11  and  C10_13 
REMARK    3  A    between atoms: C10_13  and  C11_14 
REMARK       I    between atoms: C11_14  and  N2_16 
REMARK    4  A    between atoms: N2_16  and  C12_18 
REMARK    5  A    between atoms: C12_18  and  N3_20 
REMARK    6  A    between atoms: N3_20  and  C14_22 
REMARK    7  A    between atoms: C14_22  and  C16_24 
REMARK    8  A    between atoms: C14_22  and  C18_29 
REMARK    9  A    between atoms: C16_24  and  N4_25 
REMARK   10  A    between atoms: N4_25  and  C17_27 
REMARK       I    between atoms: C18_29  and  N5_31 
REMARK   11  A    between atoms: N5_31  and  C19_33 
REMARK   12  A    between atoms: C19_33  and  C20_34 
REMARK   13  A    between atoms: C20_34  and  C23_37 
REMARK   14  A    between atoms: C23_37  and  N6_38 
ROOT
HETATM    1  C14 UNL     1      -0.454   1.233   0.153  1.00  0.00     0.138 C 
HETATM    2  C15 UNL     1      -0.495   2.151  -1.052  1.00  0.00     0.055 C 
ENDROOT
BRANCH   1   3
HETATM    3  N3  UNL     1       0.373   0.058  -0.017  1.00  0.00    -0.381 N 
ATOM      4  H3  UNL     1      -0.067  -0.853   0.112  1.00  0.00     0.156 HD
BRANCH   3   5
HETATM    5  C12 UNL     1       1.702   0.082  -0.338  1.00  0.00     0.176 C 
HETATM    6  C13 UNL     1       1.919   0.468  -1.818  1.00  0.00     0.055 C 
BRANCH   5   7
HETATM    7  N2  UNL     1       2.386  -1.176  -0.118  1.00  0.00    -0.337 N 
HETATM    8  C11 UNL     1       3.852  -1.238  -0.213  1.00  0.00     0.243 C 
HETATM    9  O2  UNL     1       4.357  -0.156  -0.519  1.00  0.00    -0.269 OA
ATOM     10  H2  UNL     1       1.852  -2.017   0.102  1.00  0.00     0.164 HD
BRANCH   8  11
HETATM   11  C10 UNL     1       4.470  -2.528   0.058  1.00  0.00     0.080 C 
BRANCH  11  12
HETATM   12  C8  UNL     1       5.864  -2.835  -0.253  1.00  0.00    -0.056 C 
HETATM   13  C7  UNL     1       7.022  -2.182   0.303  1.00  0.00     0.020 C 
HETATM   14  C9  UNL     1       5.917  -3.308  -1.700  1.00  0.00     0.048 C 
BRANCH  13  15
HETATM   15  C6  UNL     1       7.689  -0.992  -0.141  1.00  0.00    -0.014 A 
HETATM   16  C2  UNL     1       8.577  -0.950  -1.187  1.00  0.00    -0.045 A 
HETATM   17  C1  UNL     1       9.023  -2.113  -1.981  1.00  0.00     0.049 C 
HETATM   18  C3  UNL     1       9.170   0.292  -1.484  1.00  0.00     0.082 A 
HETATM   19  C4  UNL     1       8.917   1.434  -0.799  1.00  0.00     0.245 A 
HETATM   20  O1  UNL     1       9.481   2.521  -1.112  1.00  0.00    -0.268 OA
HETATM   21  N1  UNL     1       8.043   1.370   0.227  1.00  0.00    -0.333 N 
HETATM   22  C5  UNL     1       7.471   0.221   0.527  1.00  0.00     0.103 A 
ATOM     23  H1  UNL     1       7.826   2.207   0.768  1.00  0.00     0.168 HD
ENDBRANCH  13  15
ENDBRANCH  11  12
ENDBRANCH   8  11
ENDBRANCH   5   7
ENDBRANCH   3   5
ENDBRANCH   1   3
BRANCH   1  24
HETATM   24  C16 UNL     1       0.065   1.906   1.360  1.00  0.00     0.103 C 
BRANCH  24  25
HETATM   25  N4  UNL     1      -0.487   3.087   1.880  1.00  0.00    -0.345 N 
ATOM     26  H4  UNL     1       0.115   3.906   1.792  1.00  0.00     0.167 HD
BRANCH  25  27
HETATM   27  C17 UNL     1      -1.712   3.340   2.496  1.00  0.00     0.352 C 
HETATM   28  O3  UNL     1      -2.536   2.423   2.697  1.00  0.00    -0.283 OA
ENDBRANCH  25  27
ENDBRANCH  24  25
ENDBRANCH   1  24
BRANCH   1  29
HETATM   29  C18 UNL     1      -1.838   0.634   0.213  1.00  0.00     0.254 C 
HETATM   30  O4  UNL     1      -1.984  -0.372   0.922  1.00  0.00    -0.270 OA
HETATM   31  N5  UNL     1      -2.891   1.188  -0.526  1.00  0.00    -0.338 N 
ATOM     32  H5  UNL     1      -2.654   2.031  -1.049  1.00  0.00     0.167 HD
BRANCH  31  33
HETATM   33  C19 UNL     1      -4.213   0.764  -0.657  1.00  0.00     0.074 C 
BRANCH  33  34
HETATM   34  C20 UNL     1      -5.255   0.728   0.369  1.00  0.00     0.011 C 
HETATM   35  C21 UNL     1      -5.559   2.143   0.914  1.00  0.00     0.022 C 
HETATM   36  C22 UNL     1      -5.085  -0.213   1.503  1.00  0.00     0.022 C 
BRANCH  34  37
HETATM   37  C23 UNL     1      -6.543   0.334  -0.398  1.00  0.00     0.286 C 
BRANCH  37  38
HETATM   38  N6  UNL     1      -7.682   0.195   0.444  1.00  0.00     0.092 N 
HETATM   39  C24 UNL     1      -8.901   0.402  -0.426  1.00  0.00     0.275 C 
HETATM   40  C25 UNL     1      -9.965   0.048   0.602  1.00  0.00     0.069 C 
HETATM   41  C26 UNL     1      -9.323  -1.126   1.326  1.00  0.00     0.200 C 
HETATM   42  F1  UNL     1     -10.115  -2.233   1.189  1.00  0.00    -0.248 F 
HETATM   43  C27 UNL     1      -7.968  -1.258   0.666  1.00  0.00     0.309 C 
ENDBRANCH  37  38
ENDBRANCH  34  37
ENDBRANCH  33  34
ENDBRANCH  31  33
ENDBRANCH   1  29
TORSDOF 14
