REMARK  15 active torsions:
REMARK  status: ('A' for Active; 'I' for Inactive)
REMARK    1  A    between atoms: N1_2  and  C4_5 
REMARK    2  A    between atoms: C4_5  and  N2_6 
REMARK    3  A    between atoms: N2_6  and  C5_9 
REMARK    4  A    between atoms: C5_9  and  C6_10 
REMARK    5  A    between atoms: C6_10  and  N3_11 
REMARK    6  A    between atoms: N3_11  and  C7_14 
REMARK    7  A    between atoms: C7_14  and  C8_15 
REMARK    8  A    between atoms: C8_15  and  C9_16 
REMARK    9  A    between atoms: C9_16  and  N4_17 
REMARK   10  A    between atoms: N4_17  and  C10_20 
REMARK   11  A    between atoms: C10_20  and  C11_21 
REMARK   12  A    between atoms: C11_21  and  C12_22 
REMARK   13  A    between atoms: C12_22  and  N5_23 
REMARK   14  A    between atoms: N5_23  and  C13_25 
REMARK   15  A    between atoms: C16_30  and  N7_31 
ROOT
HETATM    1  N4  UNL     1      -2.436   0.210   1.167  1.00  0.00    -0.075 N 
ATOM      2  H41 UNL     1      -2.367  -0.464   1.929  1.00  0.00     0.277 HD
ATOM      3  H42 UNL     1      -2.893  -0.388   0.479  1.00  0.00     0.277 HD
ENDROOT
BRANCH   1   4
HETATM    4  C9  UNL     1      -1.119   0.660   0.713  1.00  0.00     0.233 C 
BRANCH   4   5
HETATM    5  C8  UNL     1      -0.247  -0.528   0.502  1.00  0.00     0.055 C 
BRANCH   5   6
HETATM    6  C7  UNL     1       1.178  -0.219   0.203  1.00  0.00     0.234 C 
BRANCH   6   7
HETATM    7  N3  UNL     1       1.448   0.545  -0.967  1.00  0.00    -0.073 N 
ATOM      8  H32 UNL     1       0.802   1.322  -1.107  1.00  0.00     0.277 HD
ATOM      9  H31 UNL     1       1.235   0.054  -1.835  1.00  0.00     0.277 HD
BRANCH   7  10
HETATM   10  C6  UNL     1       2.851   0.958  -0.852  1.00  0.00     0.259 C 
BRANCH  10  11
HETATM   11  C5  UNL     1       3.732  -0.241  -0.956  1.00  0.00     0.261 C 
BRANCH  11  12
HETATM   12  N2  UNL     1       5.123   0.195  -0.759  1.00  0.00    -0.049 N 
ATOM     13  H22 UNL     1       5.240   0.760   0.082  1.00  0.00     0.279 HD
ATOM     14  H21 UNL     1       5.413   0.897  -1.440  1.00  0.00     0.279 HD
BRANCH  12  15
HETATM   15  C4  UNL     1       5.992  -0.989  -0.767  1.00  0.00     0.466 C 
BRANCH  15  16
HETATM   16  N1  UNL     1       7.324  -0.547  -0.432  1.00  0.00    -0.055 N 
HETATM   17  C1  UNL     1       7.657   0.669  -1.140  1.00  0.00     0.273 C 
HETATM   18  C2  UNL     1       7.301  -0.236   0.994  1.00  0.00     0.273 C 
HETATM   19  C3  UNL     1       8.348  -1.545  -0.708  1.00  0.00     0.273 C 
ENDBRANCH  15  16
ENDBRANCH  12  15
ENDBRANCH  11  12
ENDBRANCH  10  11
ENDBRANCH   7  10
ENDBRANCH   6   7
ENDBRANCH   5   6
ENDBRANCH   4   5
ENDBRANCH   1   4
BRANCH   1  20
HETATM   20  C10 UNL     1      -3.273   1.371   1.531  1.00  0.00     0.234 C 
BRANCH  20  21
HETATM   21  C11 UNL     1      -4.399   0.818   2.344  1.00  0.00     0.047 C 
BRANCH  21  22
HETATM   22  C12 UNL     1      -5.264  -0.121   1.567  1.00  0.00     0.123 C 
BRANCH  22  23
HETATM   23  N5  UNL     1      -5.967   0.630   0.508  1.00  0.00    -0.376 N 
ATOM     24  H5  UNL     1      -5.612   1.523   0.167  1.00  0.00     0.161 HD
BRANCH  23  25
HETATM   25  C13 UNL     1      -7.043   0.115   0.032  1.00  0.00     0.118 A 
HETATM   26  C14 UNL     1      -7.545  -1.086   0.456  1.00  0.00     0.066 A 
HETATM   27  C15 UNL     1      -8.766  -1.569  -0.042  1.00  0.00     0.110 A 
HETATM   28  N6  UNL     1      -9.396  -0.806  -0.933  1.00  0.00    -0.202 N 
HETATM   29  C16 UNL     1      -8.918   0.384  -1.366  1.00  0.00     0.677 A 
ATOM     30  H6  UNL     1     -10.285  -1.135  -1.309  1.00  0.00     0.183 HD
HETATM   31  N8  UNL     1      -7.745   0.823  -0.873  1.00  0.00    -0.177 N 
ATOM     32  H8  UNL     1      -7.377   1.718  -1.194  1.00  0.00     0.185 HD
BRANCH  29  33
HETATM   33  N7  UNL     1      -9.567   1.083  -2.225  1.00  0.00    -0.234 N 
ATOM     34  H72 UNL     1     -10.456   0.750  -2.599  1.00  0.00     0.174 HD
ATOM     35  H71 UNL     1      -9.207   1.980  -2.551  1.00  0.00     0.174 HD
ENDBRANCH  29  33
ENDBRANCH  23  25
ENDBRANCH  22  23
ENDBRANCH  21  22
ENDBRANCH  20  21
ENDBRANCH   1  20
TORSDOF 15
