REMARK  4 active torsions:
REMARK  status: ('A' for Active; 'I' for Inactive)
REMARK    1  A    between atoms: C2_2  and  N1_3 
REMARK    2  A    between atoms: N3_9  and  C6_11 
REMARK    3  A    between atoms: C9_16  and  C10_17 
REMARK    4  A    between atoms: C10_17  and  N5_19 
ROOT
HETATM    1  C6  UNL     1      -0.479  -2.089   1.578  1.00  0.00     0.049 A 
HETATM    2  C7  UNL     1      -0.416  -1.542   2.835  1.00  0.00     0.117 A 
HETATM    3  N4  UNL     1       0.632  -0.773   3.165  1.00  0.00    -0.372 N 
ATOM      4  H4  UNL     1       0.657  -0.378   4.105  1.00  0.00     0.164 HD
HETATM    5  C8  UNL     1       1.646  -0.491   2.342  1.00  0.00     0.096 A 
HETATM    6  C9  UNL     1       1.593  -1.035   1.079  1.00  0.00    -0.018 A 
HETATM    7  C17 UNL     1       0.544  -1.827   0.694  1.00  0.00     0.041 A 
ENDROOT
BRANCH   1   8
HETATM    8  N3  UNL     1      -1.585  -2.896   1.240  1.00  0.00    -0.339 N 
HETATM    9  C5  UNL     1      -2.666  -2.503   0.724  1.00  0.00     0.139 A 
HETATM   10  C4  UNL     1      -2.885  -1.179   0.423  1.00  0.00     0.122 A 
HETATM   11  N7  UNL     1      -3.641  -3.381   0.453  1.00  0.00    -0.317 N 
HETATM   12  N2  UNL     1      -2.162  -0.069   0.552  1.00  0.00    -0.346 N 
HETATM   13  C19 UNL     1      -4.090  -0.756  -0.150  1.00  0.00     0.141 A 
HETATM   14  C3  UNL     1      -2.831   1.001   0.102  1.00  0.00     0.185 A 
ATOM     15  H2  UNL     1      -1.220  -0.037   0.943  1.00  0.00     0.167 HD
HETATM   16  N1  UNL     1      -4.028   0.571  -0.333  1.00  0.00    -0.328 N 
HETATM   17  N8  UNL     1      -5.029  -1.670  -0.400  1.00  0.00    -0.317 N 
HETATM   18  C18 UNL     1      -4.806  -2.963  -0.102  1.00  0.00     0.182 A 
ATOM     19  H8  UNL     1      -5.916  -1.389  -0.817  1.00  0.00     0.170 HD
HETATM   20 CL3  UNL     1      -6.076  -4.138  -0.451  1.00  0.00    -0.045 Cl
ATOM     21  H7  UNL     1      -3.506  -4.370   0.665  1.00  0.00     0.170 HD
ATOM     22  H3  UNL     1      -1.502  -3.894   1.432  1.00  0.00     0.167 HD
BRANCH  16  23
HETATM   23  C2  UNL     1      -5.069   1.423  -0.905  1.00  0.00     0.127 C 
HETATM   24  C1  UNL     1      -4.924   1.541  -2.397  1.00  0.00     0.027 C 
ENDBRANCH  16  23
ENDBRANCH   1   8
BRANCH   6  25
HETATM   25  C10 UNL     1       2.730  -0.725   0.156  1.00  0.00     0.113 C 
HETATM   26  C11 UNL     1       2.181  -1.006  -1.252  1.00  0.00     0.037 C 
BRANCH  25  27
HETATM   27  N5  UNL     1       3.105   0.614   0.218  1.00  0.00    -0.367 N 
HETATM   28  C12 UNL     1       4.079   1.328  -0.025  1.00  0.00     0.123 A 
HETATM   29  N6  UNL     1       3.946   2.673   0.220  1.00  0.00    -0.350 N 
HETATM   30  C16 UNL     1       5.301   0.947  -0.517  1.00  0.00     0.079 A 
HETATM   31  C13 UNL     1       4.893   3.567   0.012  1.00  0.00     0.113 A 
ATOM     32  H6  UNL     1       3.054   3.003   0.588  1.00  0.00     0.166 HD
HETATM   33  C14 UNL     1       6.120   3.192  -0.481  1.00  0.00     0.051 A 
HETATM   34 CL1  UNL     1       7.375   4.400  -0.752  1.00  0.00    -0.083 Cl
HETATM   35  C15 UNL     1       6.323   1.858  -0.749  1.00  0.00     0.053 A 
HETATM   36 CL2  UNL     1       5.641  -0.718  -0.883  1.00  0.00    -0.080 Cl
ATOM     37  H5  UNL     1       2.335   1.179   0.575  1.00  0.00     0.161 HD
ENDBRANCH  25  27
ENDBRANCH   6  25
TORSDOF 4
