REMARK  6 active torsions:
REMARK  status: ('A' for Active; 'I' for Inactive)
REMARK    1  A    between atoms: C4_5  and  C5_6 
REMARK    2  A    between atoms: C8_9  and  O1_10 
REMARK    3  A    between atoms: C9_12  and  N2_13 
REMARK    4  A    between atoms: N3_15  and  C10_17 
REMARK    5  A    between atoms: C10_17  and  C11_23 
REMARK    6  A    between atoms: N4_18  and  N5_20 
ROOT
HETATM    1  C5  UNL     1      -0.815  -0.140   0.733  1.00  0.00    -0.006 A 
HETATM    2  C6  UNL     1      -0.740  -0.870   1.898  1.00  0.00     0.016 A 
HETATM    3  C7  UNL     1       0.458  -1.238   2.439  1.00  0.00     0.040 A 
HETATM    4  C8  UNL     1       1.627  -0.888   1.833  1.00  0.00     0.095 A 
HETATM    5  C9  UNL     1       1.609  -0.149   0.652  1.00  0.00     0.099 A 
HETATM    6  C12 UNL     1       0.371   0.204   0.137  1.00  0.00     0.052 A 
HETATM    7 BR1  UNL     1       0.320   1.232  -1.474  1.00  0.00    -0.048 Br
ENDROOT
BRANCH   5   8
HETATM    8  N2  UNL     1       2.814   0.223   0.009  1.00  0.00    -0.295 N 
HETATM    9  N3  UNL     1       3.713  -0.637  -0.149  1.00  0.00    -0.278 N 
ATOM     10  H3  UNL     1       3.528  -1.578   0.200  1.00  0.00     0.189 HD
ATOM     11  H2  UNL     1       2.949   1.178  -0.322  1.00  0.00     0.187 HD
BRANCH   9  12
HETATM   12  C10 UNL     1       4.959  -0.409  -0.770  1.00  0.00     0.213 C 
HETATM   13  N4  UNL     1       5.007  -0.239  -2.037  1.00  0.00    -0.272 N 
ATOM     14  H4  UNL     1       5.916  -0.075  -2.470  1.00  0.00     0.189 HD
BRANCH  13  15
HETATM   15  N5  UNL     1       3.875  -0.267  -2.859  1.00  0.00    -0.261 N 
HETATM   16  S1  UNL     1       3.983   0.241  -4.374  1.00  0.00     0.059 SA
ATOM     17  H5  UNL     1       2.986  -0.609  -2.495  1.00  0.00     0.196 HD
ENDBRANCH  13  15
BRANCH  12  18
HETATM   18  C11 UNL     1       6.163  -0.368   0.016  1.00  0.00     0.247 C 
HETATM   19  O2  UNL     1       6.093  -0.537   1.257  1.00  0.00    -0.642 OA
HETATM   20  O3  UNL     1       7.382  -0.143  -0.603  1.00  0.00    -0.642 OA
ENDBRANCH  12  18
ENDBRANCH   9  12
ENDBRANCH   5   8
BRANCH   4  21
HETATM   21  O1  UNL     1       2.849  -1.256   2.372  1.00  0.00    -0.358 OA
ATOM     22  H1  UNL     1       3.664  -1.012   1.949  1.00  0.00     0.217 HD
ENDBRANCH   4  21
BRANCH   1  23
HETATM   23  C4  UNL     1      -2.139   0.193   0.229  1.00  0.00    -0.022 A 
HETATM   24  C3  UNL     1      -2.513  -0.033  -1.073  1.00  0.00     0.029 A 
HETATM   25  C2  UNL     1      -3.797   0.314  -1.513  1.00  0.00     0.090 A 
HETATM   26  N1  UNL     1      -4.707   0.872  -0.697  1.00  0.00    -0.371 N 
HETATM   27  C1  UNL     1      -6.028   1.213  -1.203  1.00  0.00     0.154 C 
HETATM   28  C14 UNL     1      -4.352   1.097   0.578  1.00  0.00     0.090 A 
HETATM   29  C13 UNL     1      -3.102   0.774   1.059  1.00  0.00     0.029 A 
ENDBRANCH   1  23
TORSDOF 6
