REMARK  2 active torsions:
REMARK  status: ('A' for Active; 'I' for Inactive)
REMARK    1  A    between atoms: C4_4  and  C5_5 
REMARK    2  A    between atoms: C6_8  and  C7_9 
ROOT
HETATM    1  C5  UNL     1      -1.517  -0.301   0.219  1.00  0.00     0.056 A 
HETATM    2  N1  UNL     1      -0.199   0.062   0.153  1.00  0.00    -0.340 N 
ATOM      3  H1  UNL     1       0.053   1.031   0.348  1.00  0.00     0.167 HD
HETATM    4  C6  UNL     1       0.766  -0.800  -0.156  1.00  0.00     0.116 A 
HETATM    5  N3  UNL     1       0.493  -2.083  -0.421  1.00  0.00    -0.341 N 
ATOM      6  H3  UNL     1       1.245  -2.731  -0.656  1.00  0.00     0.167 HD
HETATM    7  C15 UNL     1      -0.798  -2.516  -0.374  1.00  0.00     0.046 A 
HETATM    8  C16 UNL     1      -1.093  -3.839  -0.630  1.00  0.00     0.030 A 
HETATM    9  C17 UNL     1      -2.406  -4.248  -0.557  1.00  0.00     0.002 A 
HETATM   10  C18 UNL     1      -3.420  -3.389  -0.240  1.00  0.00     0.001 A 
HETATM   11  C19 UNL     1      -3.109  -2.048   0.018  1.00  0.00     0.016 A 
HETATM   12  C20 UNL     1      -1.818  -1.619  -0.050  1.00  0.00     0.018 A 
ENDROOT
BRANCH   4  13
HETATM   13  C7  UNL     1       2.149  -0.281  -0.193  1.00  0.00     0.009 A 
HETATM   14  C8  UNL     1       3.195  -1.117  -0.505  1.00  0.00     0.017 A 
HETATM   15  C9  UNL     1       4.481  -0.638  -0.540  1.00  0.00     0.031 A 
HETATM   16  C10 UNL     1       4.773   0.689  -0.267  1.00  0.00     0.042 A 
HETATM   17  N2  UNL     1       5.911   1.411  -0.229  1.00  0.00    -0.365 N 
HETATM   18  C13 UNL     1       3.697   1.505   0.044  1.00  0.00    -0.007 A 
HETATM   19  C11 UNL     1       5.630   2.685   0.098  1.00  0.00     0.089 A 
ATOM     20  H2  UNL     1       6.844   1.046  -0.420  1.00  0.00     0.165 HD
HETATM   21  C12 UNL     1       4.262   2.764   0.271  1.00  0.00     0.030 A 
HETATM   22  C14 UNL     1       2.404   1.040   0.084  1.00  0.00     0.029 A 
ENDBRANCH   4  13
BRANCH   1  23
HETATM   23  C4  UNL     1      -2.494   0.716   0.572  1.00  0.00    -0.009 A 
HETATM   24  C3  UNL     1      -2.340   1.465   1.743  1.00  0.00     0.014 A 
HETATM   25  C2  UNL     1      -3.194   2.476   2.105  1.00  0.00     0.001 A 
HETATM   26  C1  UNL     1      -4.261   2.784   1.290  1.00  0.00     0.000 A 
HETATM   27  C22 UNL     1      -4.438   2.071   0.140  1.00  0.00     0.001 A 
HETATM   28  C21 UNL     1      -3.558   1.047  -0.209  1.00  0.00     0.014 A 
ENDBRANCH   1  23
TORSDOF 2
