REMARK  2 active torsions:
REMARK  status: ('A' for Active; 'I' for Inactive)
REMARK    1  A    between atoms: C1_2  and  C2_4 
REMARK    2  A    between atoms: C2_4  and  C3_6 
ROOT
HETATM    1  C2  UNL     1      -0.245   0.166   0.557  1.00  0.00     0.181 C 
HETATM    2 CL1  UNL     1       0.281  -0.668   2.022  1.00  0.00    -0.115 Cl
ENDROOT
BRANCH   1   3
HETATM    3  C1  UNL     1       0.681  -0.179  -0.532  1.00  0.00     0.250 C 
HETATM    4  N1  UNL     1       2.043   0.138  -0.402  1.00  0.00    -0.061 NA
HETATM    5  O1  UNL     1       0.253  -0.743  -1.549  1.00  0.00    -0.275 OA
ENDBRANCH   1   3
BRANCH   1   6
HETATM    6  C3  UNL     1      -1.673  -0.178   0.195  1.00  0.00     0.114 C 
HETATM    7 BR1  UNL     1      -2.242   0.770  -1.370  1.00  0.00    -0.094 Br
ENDBRANCH   1   6
TORSDOF 2
