REMARK  3 active torsions:
REMARK  status: ('A' for Active; 'I' for Inactive)
REMARK    1  A    between atoms: C1_2  and  C2_3 
REMARK    2  A    between atoms: C1_2  and  C3_5 
REMARK    3  A    between atoms: C3_5  and  N1_6 
ROOT
HETATM    1  N1  UNL     1      -0.452   0.163  -0.108  1.00  0.00     0.015 N 
HETATM    2  C4  UNL     1      -1.376   1.297   0.001  1.00  0.00     0.262 C 
HETATM    3  C5  UNL     1      -2.674   0.505   0.262  1.00  0.00     0.054 C 
HETATM    4  C6  UNL     1      -2.059  -0.866   0.257  1.00  0.00     0.136 C 
HETATM    5  C7  UNL     1      -1.176  -0.769  -0.988  1.00  0.00     0.283 C 
HETATM    6  N2  UNL     1      -0.814  -0.688   0.936  1.00  0.00    -0.040 NA
ENDROOT
BRANCH   1   7
HETATM    7  C3  UNL     1       0.884   0.414  -0.376  1.00  0.00     0.298 C 
BRANCH   7   8
HETATM    8  C1  UNL     1       1.901  -0.474   0.259  1.00  0.00     0.211 C 
HETATM    9  F1  UNL     1       1.879  -0.472   1.617  1.00  0.00    -0.246 F 
BRANCH   8  10
HETATM   10  C2  UNL     1       3.270   0.025  -0.211  1.00  0.00     0.153 C 
HETATM   11 CL1  UNL     1       3.329   0.034  -2.003  1.00  0.00    -0.128 Cl
ENDBRANCH   8  10
ENDBRANCH   7   8
ENDBRANCH   1   7
TORSDOF 3
