REMARK  6 active torsions:
REMARK  status: ('A' for Active; 'I' for Inactive)
REMARK    1  A    between atoms: O1_1  and  C1_3 
REMARK    2  A    between atoms: C1_3  and  C2_4 
REMARK    3  A    between atoms: C3_6  and  O3_7 
REMARK    4  A    between atoms: C4_9  and  N1_10 
REMARK    5  A    between atoms: C8_14  and  O4_15 
REMARK    6  A    between atoms: C9_17  and  O5_18 
ROOT
HETATM    1  C2  UNL     1       2.626  -0.249  -0.764  1.00  0.00     0.289 C 
HETATM    2  O2  UNL     1       2.945   0.836   0.086  1.00  0.00    -0.325 OA
HETATM    3  C3  UNL     1       1.653   1.392   0.205  1.00  0.00     0.319 C 
HETATM    4  C4  UNL     1       0.821   0.190   0.466  1.00  0.00     0.420 C 
HETATM    5  O6  UNL     1       1.501  -0.828  -0.231  1.00  0.00    -0.320 OA
ENDROOT
BRANCH   4   6
HETATM    6  N1  UNL     1      -0.514   0.257  -0.081  1.00  0.00     0.153 N 
HETATM    7  C5  UNL     1      -1.219   1.352   0.543  1.00  0.00     0.279 C 
HETATM    8  C6  UNL     1      -2.626   1.507   0.027  1.00  0.00     0.033 C 
HETATM    9  C7  UNL     1      -3.244   0.210  -0.398  1.00  0.00     0.038 C 
HETATM   10  C8  UNL     1      -2.610  -1.008   0.167  1.00  0.00     0.177 C 
HETATM   11  C9  UNL     1      -1.119  -1.021   0.182  1.00  0.00     0.389 C 
BRANCH  10  12
HETATM   12  O4  UNL     1      -3.145  -2.119  -0.497  1.00  0.00    -0.391 OA
ATOM     13  H4  UNL     1      -2.739  -2.898  -0.136  1.00  0.00     0.210 HD
ENDBRANCH  10  12
BRANCH  11  14
HETATM   14  O5  UNL     1      -0.678  -1.934  -0.776  1.00  0.00    -0.366 OA
ATOM     15  H5  UNL     1      -1.078  -2.778  -0.602  1.00  0.00     0.212 HD
ENDBRANCH  11  14
ENDBRANCH   4   6
BRANCH   3  16
HETATM   16  O3  UNL     1       1.703   2.297   1.253  1.00  0.00    -0.367 OA
ATOM     17  H3  UNL     1       0.833   2.671   1.333  1.00  0.00     0.212 HD
ENDBRANCH   3  16
BRANCH   1  18
HETATM   18  C1  UNL     1       3.805  -1.160  -0.874  1.00  0.00     0.225 C 
BRANCH  18  19
HETATM   19  O1  UNL     1       4.886  -0.448  -1.407  1.00  0.00    -0.396 OA
ATOM     20  H1  UNL     1       5.636  -1.027  -1.477  1.00  0.00     0.209 HD
ENDBRANCH  18  19
ENDBRANCH   1  18
TORSDOF 6
