REMARK  4 active torsions:
REMARK  status: ('A' for Active; 'I' for Inactive)
REMARK    1  A    between atoms: C2_2  and  N3_16 
REMARK    2  A    between atoms: N1_3  and  C3_5 
REMARK    3  A    between atoms: C3_5  and  C4_9 
REMARK    4  A    between atoms: N3_16  and  N4_18 
ROOT
HETATM    1  C3  UNL     1       0.910  -0.089  -0.743  1.00  0.00     0.080 C 
HETATM    2  N2  UNL     1       0.883   0.188  -2.002  1.00  0.00    -0.389 N 
ATOM      3  H21 UNL     1       1.674   0.617  -2.482  1.00  0.00     0.157 HD
ATOM      4  H22 UNL     1       0.044  -0.027  -2.541  1.00  0.00     0.157 HD
ENDROOT
BRANCH   1   5
HETATM    5  N1  UNL     1      -0.189  -0.685  -0.077  1.00  0.00    -0.335 N 
HETATM    6  C2  UNL     1      -1.187   0.044   0.270  1.00  0.00     0.100 C 
HETATM    7  C1  UNL     1      -1.175   1.487  -0.029  1.00  0.00     0.091 C 
ATOM      8  H1  UNL     1      -0.187  -1.685   0.125  1.00  0.00     0.168 HD
BRANCH   6   9
HETATM    9  N3  UNL     1      -2.308  -0.518   0.942  1.00  0.00    -0.207 N 
ATOM     10  H3  UNL     1      -2.142  -1.023   1.812  1.00  0.00     0.195 HD
BRANCH   9  11
HETATM   11  N4  UNL     1      -3.609  -0.420   0.485  1.00  0.00     0.002 N 
HETATM   12  C11 UNL     1      -4.451  -1.414   1.113  1.00  0.00     0.301 C 
HETATM   13  C12 UNL     1      -3.612  -0.592  -0.972  1.00  0.00     0.301 C 
HETATM   14  C13 UNL     1      -4.201   0.880   0.735  1.00  0.00     0.301 C 
ENDBRANCH   9  11
ENDBRANCH   6   9
ENDBRANCH   1   5
BRANCH   1  15
HETATM   15  C4  UNL     1       2.114   0.220   0.030  1.00  0.00     0.058 C 
HETATM   16  C5  UNL     1       2.731  -1.012   0.640  1.00  0.00     0.017 C 
HETATM   17  C6  UNL     1       4.174  -1.047   0.212  1.00  0.00    -0.009 C 
HETATM   18  C7  UNL     1       4.944  -0.001   1.029  1.00  0.00     0.010 C 
HETATM   19  C9  UNL     1       4.238  -0.109  -0.945  1.00  0.00    -0.001 A 
HETATM   20  C8  UNL     1       4.520   1.015   0.016  1.00  0.00    -0.004 A 
HETATM   21  C10 UNL     1       3.213   0.882  -0.725  1.00  0.00     0.006 A 
ENDBRANCH   1  15
TORSDOF 4
