REMARK  1 active torsions:
REMARK  status: ('A' for Active; 'I' for Inactive)
REMARK       I    between atoms: N1_2  and  C2_4 
REMARK       I    between atoms: C2_4  and  N2_6 
REMARK    1  A    between atoms: C9_13  and  N3_14 
REMARK       I    between atoms: N3_14  and  C10_16 
ROOT
HETATM    1  C1  UNL     1      -4.386  -0.503   1.549  1.00  0.00     0.151 C 
HETATM    2  N1  UNL     1      -3.193  -0.714   0.785  1.00  0.00    -0.347 N 
ATOM      3  H1  UNL     1      -2.924  -1.661   0.517  1.00  0.00     0.163 HD
HETATM    4  C2  UNL     1      -2.387   0.378   0.401  1.00  0.00     0.318 C 
HETATM    5  O1  UNL     1      -2.756   1.532   0.754  1.00  0.00    -0.247 OA
HETATM    6  N2  UNL     1      -1.191   0.212  -0.361  1.00  0.00    -0.324 N 
HETATM    7  C3  UNL     1      -0.598  -0.981  -0.866  1.00  0.00     0.091 C 
HETATM    8  C4  UNL     1      -0.353  -0.607  -2.327  1.00  0.00     0.027 C 
HETATM    9  C5  UNL     1      -0.038   0.870  -2.223  1.00  0.00     0.028 C 
HETATM   10  C6  UNL     1      -0.315   1.281  -0.791  1.00  0.00     0.095 C 
HETATM   11  C7  UNL     1       0.929   1.183   0.065  1.00  0.00     0.027 C 
HETATM   12  C8  UNL     1       0.492   1.125   1.507  1.00  0.00     0.014 C 
HETATM   13  C9  UNL     1       1.670  -0.095  -0.262  1.00  0.00     0.095 C 
HETATM   14  C11 UNL     1       0.757  -1.294  -0.275  1.00  0.00     0.051 C 
ENDROOT
BRANCH  13  15
HETATM   15  N3  UNL     1       2.729  -0.235   0.702  1.00  0.00    -0.330 N 
HETATM   16  C10 UNL     1       4.075  -0.157   0.280  1.00  0.00     0.283 C 
HETATM   17  O2  UNL     1       4.320   0.033  -0.935  1.00  0.00    -0.630 OA
HETATM   18  O3  UNL     1       5.163  -0.280   1.132  1.00  0.00    -0.630 OA
ATOM     19  H3  UNL     1       2.509  -0.390   1.686  1.00  0.00     0.165 HD
ENDBRANCH  13  15
TORSDOF 1
