REMARK  0 active torsions:
REMARK  status: ('A' for Active; 'I' for Inactive)
ROOT
HETATM    1  N1  UNL     1       4.334  -3.562   1.116  1.00  0.00    -0.189 NA
HETATM    2  C1  UNL     1       3.730  -2.600   0.905  1.00  0.00     0.125 C 
HETATM    3  C2  UNL     1       2.991  -1.377   0.647  1.00  0.00     0.156 A 
HETATM    4  N2  UNL     1       1.791  -1.208   0.183  1.00  0.00    -0.344 N 
ATOM      5  H2  UNL     1       1.230  -2.025  -0.056  1.00  0.00     0.167 HD
HETATM    6  C3  UNL     1       1.288  -0.022   0.016  1.00  0.00     0.036 A 
HETATM    7  C4  UNL     1       2.075   1.050   0.351  1.00  0.00     0.011 A 
HETATM    8  S1  UNL     1       3.492   0.263   0.885  1.00  0.00    -0.064 SA
HETATM    9  C5  UNL     1       1.357   2.342   0.099  1.00  0.00     0.086 C 
HETATM   10  C6  UNL     1       0.394   1.864  -0.989  1.00  0.00     0.189 C 
HETATM   11  F1  UNL     1      -0.557   2.810  -1.129  1.00  0.00    -0.248 F 
HETATM   12  C7  UNL     1      -0.021   0.550  -0.472  1.00  0.00     0.038 C 
HETATM   13  C8  UNL     1      -0.652  -0.354  -1.522  1.00  0.00     0.023 C 
HETATM   14  C9  UNL     1      -1.930  -0.806  -0.867  1.00  0.00    -0.013 C 
HETATM   15  C10 UNL     1      -1.639  -1.675   0.353  1.00  0.00     0.005 C 
HETATM   16  C11 UNL     1      -1.114  -0.694   1.396  1.00  0.00     0.006 C 
HETATM   17  C12 UNL     1      -1.025   0.613   0.651  1.00  0.00     0.003 C 
HETATM   18  C13 UNL     1      -2.335   0.489  -0.139  1.00  0.00     0.010 C 
ENDROOT
TORSDOF 0
