REMARK  6 active torsions:
REMARK  status: ('A' for Active; 'I' for Inactive)
REMARK    1  A    between atoms: O1_1  and  C1_3 
REMARK    2  A    between atoms: C5_7  and  N1_8 
REMARK    3  A    between atoms: C7_12  and  C8_13 
REMARK    4  A    between atoms: C11_18  and  N4_19 
REMARK    5  A    between atoms: N4_19  and  C12_21 
REMARK    6  A    between atoms: C16_25  and  C17_26 
ROOT
HETATM    1  N1  UNL     1      -1.643   1.080   0.037  1.00  0.00    -0.286 N 
HETATM    2  N2  UNL     1      -1.025   2.277  -0.099  1.00  0.00    -0.308 N 
ATOM      3  H2  UNL     1      -1.486   3.168  -0.282  1.00  0.00     0.186 HD
HETATM    4  C6  UNL     1       0.284   2.095   0.046  1.00  0.00     0.122 A 
HETATM    5  C7  UNL     1       0.552   0.748   0.287  1.00  0.00     0.022 A 
HETATM    6  C16 UNL     1      -0.702   0.170   0.268  1.00  0.00     0.074 A 
ENDROOT
BRANCH   5   7
HETATM    7  C8  UNL     1       1.829   0.110   0.502  1.00  0.00    -0.005 A 
HETATM    8  C9  UNL     1       2.133  -0.449   1.721  1.00  0.00     0.100 A 
HETATM    9  N3  UNL     1       3.296  -1.052   1.988  1.00  0.00    -0.372 N 
HETATM   10  C10 UNL     1       4.242  -1.144   1.067  1.00  0.00     0.116 A 
ATOM     11  H3  UNL     1       3.456  -1.447   2.915  1.00  0.00     0.164 HD
HETATM   12  C11 UNL     1       4.006  -0.602  -0.186  1.00  0.00     0.044 A 
HETATM   13  C15 UNL     1       2.796   0.030  -0.477  1.00  0.00     0.044 A 
BRANCH  12  14
HETATM   14  N4  UNL     1       5.053  -0.718  -1.137  1.00  0.00    -0.384 N 
ATOM     15  H4  UNL     1       5.090  -1.501  -1.790  1.00  0.00     0.160 HD
BRANCH  14  16
HETATM   16  C12 UNL     1       6.064   0.313  -1.147  1.00  0.00     0.082 A 
HETATM   17  C13 UNL     1       6.911   0.633  -0.001  1.00  0.00     0.027 A 
HETATM   18  C14 UNL     1       7.493  -0.107  -1.147  1.00  0.00     0.027 A 
ENDBRANCH  14  16
ENDBRANCH  12  14
ENDBRANCH   5   7
BRANCH   6  19
HETATM   19  C17 UNL     1      -0.891  -1.292   0.483  1.00  0.00     0.000 A 
HETATM   20  C18 UNL     1      -1.243  -1.839   1.676  1.00  0.00     0.021 A 
HETATM   21  C19 UNL     1      -1.375  -3.196   1.731  1.00  0.00     0.050 A 
HETATM   22  S1  UNL     1      -1.010  -3.687   0.140  1.00  0.00    -0.113 SA
HETATM   23  C20 UNL     1      -0.702  -2.166  -0.553  1.00  0.00     0.063 A 
ENDBRANCH   6  19
BRANCH   1  24
HETATM   24  C5  UNL     1      -3.047   0.930  -0.071  1.00  0.00     0.111 C 
HETATM   25  C4  UNL     1      -3.561  -0.248  -0.813  1.00  0.00     0.027 C 
HETATM   26  C3  UNL     1      -5.007   0.075  -1.210  1.00  0.00     0.004 C 
HETATM   27  C2  UNL     1      -5.578   1.249  -0.502  1.00  0.00     0.032 C 
HETATM   28  C1  UNL     1      -5.219   1.405   0.933  1.00  0.00     0.120 C 
HETATM   29  C21 UNL     1      -3.799   0.987   1.257  1.00  0.00     0.059 C 
BRANCH  28  30
HETATM   30  O1  UNL     1      -6.065   0.774   1.817  1.00  0.00    -0.396 OA
ATOM     31  H1  UNL     1      -5.836   0.874   2.734  1.00  0.00     0.210 HD
ENDBRANCH  28  30
ENDBRANCH   1  24
TORSDOF 6
