REMARK  5 active torsions:
REMARK  status: ('A' for Active; 'I' for Inactive)
REMARK    1  A    between atoms: C3_5  and  C4_6 
REMARK    2  A    between atoms: C12_16  and  C13_17 
REMARK    3  A    between atoms: C14_18  and  C15_19 
REMARK    4  A    between atoms: C18_22  and  C19_23 
REMARK       I    between atoms: C19_23  and  N3_25 
REMARK    5  A    between atoms: N3_25  and  C20_26 
ROOT
HETATM    1  C1  UNL     1       2.306  -0.462  -2.058  1.00  0.00     0.071 C 
HETATM    2  C2  UNL     1       3.193  -0.568  -0.847  1.00  0.00     0.041 A 
HETATM    3  N1  UNL     1       4.516  -0.843  -1.028  1.00  0.00    -0.355 N 
ATOM      4  H1  UNL     1       4.892  -0.971  -1.967  1.00  0.00     0.166 HD
HETATM    5  C3  UNL     1       5.326  -0.945   0.054  1.00  0.00     0.065 A 
HETATM    6  C10 UNL     1       4.825  -0.773   1.305  1.00  0.00     0.034 A 
HETATM    7  C11 UNL     1       5.688  -0.867   2.489  1.00  0.00     0.070 C 
HETATM    8  N2  UNL     1       3.502  -0.500   1.448  1.00  0.00    -0.349 N 
ATOM      9  H2  UNL     1       3.128  -0.373   2.388  1.00  0.00     0.166 HD
HETATM   10  C12 UNL     1       2.675  -0.392   0.414  1.00  0.00     0.110 A 
ENDROOT
BRANCH  10  11
HETATM   11  C13 UNL     1       1.296  -0.086   0.637  1.00  0.00    -0.041 C 
HETATM   12  C14 UNL     1       0.115   0.211   0.806  1.00  0.00    -0.060 C 
BRANCH  12  13
HETATM   13  C15 UNL     1      -1.251   0.599   0.978  1.00  0.00     0.018 A 
HETATM   14  C16 UNL     1      -1.760   1.707   0.284  1.00  0.00     0.022 A 
HETATM   15  C17 UNL     1      -3.071   2.096   0.442  1.00  0.00     0.020 A 
HETATM   16  C18 UNL     1      -3.880   1.386   1.289  1.00  0.00     0.046 A 
HETATM   17  C24 UNL     1      -3.445   0.306   1.987  1.00  0.00     0.020 A 
HETATM   18  C25 UNL     1      -2.095  -0.070   1.804  1.00  0.00     0.022 A 
BRANCH  16  19
HETATM   19  C19 UNL     1      -5.299   1.825   1.454  1.00  0.00     0.321 C 
HETATM   20  O1  UNL     1      -5.463   2.626   2.408  1.00  0.00    -0.251 OA
HETATM   21  N3  UNL     1      -6.231   1.324   0.567  1.00  0.00    -0.400 NA
BRANCH  21  22
HETATM   22  C20 UNL     1      -7.151   0.830  -0.308  1.00  0.00     0.086 C 
HETATM   23  C21 UNL     1      -6.556  -0.206  -1.296  1.00  0.00     0.053 C 
HETATM   24  C22 UNL     1      -8.340   0.102   0.312  1.00  0.00     0.053 C 
HETATM   25  C23 UNL     1      -7.701   1.939  -1.217  1.00  0.00     0.053 C 
ENDBRANCH  21  22
ENDBRANCH  16  19
ENDBRANCH  12  13
ENDBRANCH  10  11
BRANCH   5  26
HETATM   26  C4  UNL     1       6.728  -1.227  -0.215  1.00  0.00    -0.007 A 
HETATM   27  C5  UNL     1       7.396  -0.475  -1.192  1.00  0.00     0.014 A 
HETATM   28  C6  UNL     1       8.707  -0.680  -1.539  1.00  0.00     0.001 A 
HETATM   29  C7  UNL     1       9.390  -1.683  -0.887  1.00  0.00     0.000 A 
HETATM   30  C8  UNL     1       8.753  -2.435   0.075  1.00  0.00     0.001 A 
HETATM   31  C9  UNL     1       7.438  -2.215   0.412  1.00  0.00     0.014 A 
ENDBRANCH   5  26
TORSDOF 5
