REMARK  5 active torsions:
REMARK  status: ('A' for Active; 'I' for Inactive)
REMARK    1  A    between atoms: S1_2  and  C2_3 
REMARK    2  A    between atoms: C3_4  and  C4_5 
REMARK    3  A    between atoms: C6_9  and  O1_10 
REMARK    4  A    between atoms: C7_12  and  C8_13 
REMARK    5  A    between atoms: C8_13  and  O2_14 
ROOT
HETATM    1  C4  UNL     1      -1.147   0.060   0.480  1.00  0.00     0.157 C 
HETATM    2  N1  UNL     1      -1.570   1.256   0.432  1.00  0.00    -0.367 N 
ATOM      3  H1  UNL     1      -0.890   2.005   0.302  1.00  0.00     0.161 HD
HETATM    4  C5  UNL     1      -2.951   1.605   0.551  1.00  0.00     0.156 C 
HETATM    5  C6  UNL     1      -3.894   0.555   0.070  1.00  0.00     0.167 C 
HETATM    6  C7  UNL     1      -3.358  -0.835   0.079  1.00  0.00     0.184 C 
HETATM    7  O3  UNL     1      -2.072  -0.957   0.656  1.00  0.00    -0.325 OA
ENDROOT
BRANCH   1   8
HETATM    8  C3  UNL     1       0.280  -0.290   0.356  1.00  0.00     0.073 A 
HETATM    9  C2  UNL     1       1.345   0.555   0.178  1.00  0.00     0.029 A 
HETATM   10  C10 UNL     1       2.570  -0.022   0.094  1.00  0.00    -0.018 A 
HETATM   11  C9  UNL     1       2.637  -1.382   0.192  1.00  0.00    -0.007 A 
HETATM   12  C11 UNL     1       3.904   0.690  -0.102  1.00  0.00     0.115 C 
HETATM   13  S2  UNL     1       1.014  -1.824   0.398  1.00  0.00    -0.088 SA
HETATM   14  C13 UNL     1       3.865  -2.188   0.127  1.00  0.00     0.057 C 
HETATM   15  C12 UNL     1       4.708  -1.905  -1.096  1.00  0.00     0.079 C 
HETATM   16  S3  UNL     1       4.641  -0.151  -1.558  1.00  0.00    -0.164 SA
BRANCH   9  17
HETATM   17  S1  UNL     1       1.043   2.367   0.069  1.00  0.00    -0.132 SA
HETATM   18  C1  UNL     1       1.135   2.976   1.774  1.00  0.00     0.095 C 
ENDBRANCH   9  17
ENDBRANCH   1   8
BRANCH   6  19
HETATM   19  C8  UNL     1      -3.258  -1.440  -1.310  1.00  0.00     0.199 C 
BRANCH  19  20
HETATM   20  O2  UNL     1      -4.435  -1.404  -2.015  1.00  0.00    -0.398 OA
ATOM     21  H2  UNL     1      -4.372  -1.783  -2.884  1.00  0.00     0.209 HD
ENDBRANCH  19  20
ENDBRANCH   6  19
BRANCH   5  22
HETATM   22  O1  UNL     1      -4.387   0.830  -1.216  1.00  0.00    -0.391 OA
ATOM     23  H1  UNL     1      -4.988   0.161  -1.522  1.00  0.00     0.210 HD
ENDBRANCH   5  22
TORSDOF 5
