REMARK  5 active torsions:
REMARK  status: ('A' for Active; 'I' for Inactive)
REMARK    1  A    between atoms: C2_3  and  C3_4 
REMARK    2  A    between atoms: C3_4  and  N2_5 
REMARK    3  A    between atoms: C7_11  and  S2_12 
REMARK    4  A    between atoms: S2_12  and  N3_15 
REMARK    5  A    between atoms: N3_15  and  C8_17 
ROOT
HETATM    1  N1  UNL     1      -8.219  -0.858  -1.008  1.00  0.00    -0.197 NA
HETATM    2  C1  UNL     1      -7.121  -0.490  -1.064  1.00  0.00     0.060 C 
HETATM    3  C2  UNL     1      -5.716  -0.027  -1.134  1.00  0.00     0.144 C 
ENDROOT
BRANCH   3   4
HETATM    4  C3  UNL     1      -5.182  -0.031   0.233  1.00  0.00     0.150 C 
BRANCH   4   5
HETATM    5  N2  UNL     1      -3.812   0.391   0.389  1.00  0.00    -0.274 N 
HETATM    6  C4  UNL     1      -3.535   1.685   0.609  1.00  0.00     0.293 A 
HETATM    7  O1  UNL     1      -4.367   2.586   0.696  1.00  0.00    -0.259 OA
HETATM    8  S1  UNL     1      -1.901   2.103   0.778  1.00  0.00    -0.028 SA
HETATM    9  C5  UNL     1      -0.848   0.742   0.633  1.00  0.00     0.027 A 
HETATM   10  C6  UNL     1       0.515   0.846   0.736  1.00  0.00     0.045 A 
HETATM   11  C13 UNL     1      -1.532  -0.431   0.406  1.00  0.00     0.050 A 
HETATM   12  C7  UNL     1       1.306  -0.283   0.610  1.00  0.00     0.081 A 
HETATM   13  C11 UNL     1       0.677  -1.464   0.386  1.00  0.00     0.026 A 
HETATM   14  C12 UNL     1      -0.696  -1.556   0.284  1.00  0.00     0.020 A 
HETATM   15  C14 UNL     1      -2.880  -0.583   0.297  1.00  0.00     0.262 A 
HETATM   16  O4  UNL     1      -3.281  -1.789   0.083  1.00  0.00    -0.267 OA
BRANCH  12  17
HETATM   17  S2  UNL     1       3.022  -0.137   0.742  1.00  0.00     0.264 S 
HETATM   18  O2  UNL     1       3.567  -1.384   1.374  1.00  0.00    -0.200 OA
HETATM   19  O3  UNL     1       3.385   1.019   1.642  1.00  0.00    -0.200 OA
BRANCH  17  20
HETATM   20  N3  UNL     1       3.734   0.161  -0.789  1.00  0.00    -0.260 N 
ATOM     21  H3  UNL     1       3.147   0.253  -1.618  1.00  0.00     0.181 HD
BRANCH  20  22
HETATM   22  C8  UNL     1       5.040   0.271  -0.890  1.00  0.00     0.158 A 
HETATM   23  N4  UNL     1       5.934   0.176   0.091  1.00  0.00    -0.345 N 
HETATM   24  C9  UNL     1       7.199   0.314  -0.200  1.00  0.00     0.097 A 
ATOM     25  H4  UNL     1       5.637  -0.001   1.051  1.00  0.00     0.167 HD
HETATM   26  C10 UNL     1       7.532   0.549  -1.507  1.00  0.00     0.070 A 
HETATM   27  S3  UNL     1       6.004   0.562  -2.265  1.00  0.00    -0.064 SA
ENDBRANCH  20  22
ENDBRANCH  17  20
ENDBRANCH  12  17
ENDBRANCH   4   5
ENDBRANCH   3   4
TORSDOF 5
