REMARK  4 active torsions:
REMARK  status: ('A' for Active; 'I' for Inactive)
REMARK    1  A    between atoms: S1_2  and  C2_5 
REMARK    2  A    between atoms: C5_8  and  C6_9 
REMARK    3  A    between atoms: N1_11  and  C8_12 
REMARK    4  A    between atoms: C13_17  and  S2_18 
ROOT
HETATM    1  C6  UNL     1       0.144  -0.080  -0.911  1.00  0.00     0.093 A 
HETATM    2  C7  UNL     1      -0.891  -0.423  -0.039  1.00  0.00     0.151 A 
HETATM    3  N1  UNL     1      -2.024  -0.574  -0.736  1.00  0.00    -0.249 N 
HETATM    4  N2  UNL     1      -1.722  -0.338  -1.993  1.00  0.00    -0.235 N 
ATOM      5  H2  UNL     1      -2.388  -0.378  -2.765  1.00  0.00     0.209 HD
HETATM    6  N3  UNL     1      -0.422  -0.038  -2.125  1.00  0.00    -0.282 N 
ATOM      7  H3  UNL     1       0.054   0.184  -2.999  1.00  0.00     0.188 HD
ENDROOT
BRANCH   1   8
HETATM    8  C5  UNL     1       1.537   0.171  -0.531  1.00  0.00     0.061 A 
HETATM    9  C4  UNL     1       2.498   0.506  -1.461  1.00  0.00     0.033 A 
HETATM   10  C3  UNL     1       3.813   0.750  -1.151  1.00  0.00     0.027 A 
HETATM   11  C2  UNL     1       4.199   0.653   0.176  1.00  0.00     0.074 A 
HETATM   12  C14 UNL     1       3.236   0.320   1.088  1.00  0.00     0.111 A 
HETATM   13  N4  UNL     1       1.948   0.087   0.747  1.00  0.00    -0.363 N 
ATOM     14  H4  UNL     1       1.275  -0.157   1.473  1.00  0.00     0.165 HD
BRANCH  11  15
HETATM   15  S1  UNL     1       5.869   0.960   0.588  1.00  0.00     0.173 S 
HETATM   16  C1  UNL     1       6.849  -0.504   0.530  1.00  0.00     0.167 C 
HETATM   17  O1  UNL     1       6.441   1.975  -0.335  1.00  0.00    -0.223 OA
HETATM   18  O2  UNL     1       5.868   1.551   1.985  1.00  0.00    -0.223 OA
ENDBRANCH  11  15
ENDBRANCH   1   8
BRANCH   3  19
HETATM   19  C8  UNL     1      -3.302  -0.918  -0.252  1.00  0.00     0.081 A 
HETATM   20  C9  UNL     1      -3.707  -2.255  -0.131  1.00  0.00     0.033 A 
HETATM   21  C10 UNL     1      -4.959  -2.585   0.344  1.00  0.00     0.002 A 
HETATM   22  C11 UNL     1      -5.800  -1.546   0.695  1.00  0.00     0.002 A 
HETATM   23  C12 UNL     1      -5.435  -0.216   0.589  1.00  0.00     0.029 A 
HETATM   24  C13 UNL     1      -4.176   0.085   0.111  1.00  0.00     0.109 A 
BRANCH  24  25
HETATM   25  S2  UNL     1      -3.691   1.738  -0.033  1.00  0.00     0.140 S 
HETATM   26  O3  UNL     1      -2.503   2.070   0.854  1.00  0.00    -0.591 OA
HETATM   27  O4  UNL     1      -3.343   2.141  -1.429  1.00  0.00    -0.591 OA
HETATM   28  O5  UNL     1      -4.932   2.778   0.473  1.00  0.00    -0.591 OA
ENDBRANCH  24  25
ENDBRANCH   3  19
TORSDOF 4
