REMARK  10 active torsions:
REMARK  status: ('A' for Active; 'I' for Inactive)
REMARK    1  A    between atoms: N1_1  and  C1_4 
REMARK    2  A    between atoms: C4_14  and  N5_15 
REMARK    3  A    between atoms: C6_19  and  C7_20 
REMARK    4  A    between atoms: C7_20  and  O2_21 
REMARK    5  A    between atoms: C7_20  and  N7_23 
REMARK    6  A    between atoms: N7_23  and  O3_24 
REMARK    7  A    between atoms: N10_31  and  C9_32 
REMARK    8  A    between atoms: C10_37  and  C11_38 
REMARK    9  A    between atoms: C11_38  and  N13_39 
REMARK   10  A    between atoms: N13_39  and  C12_42 
ROOT
HETATM    1  C1  UNL     1       0.593  -4.142   0.811  1.00  0.00     0.700 A 
HETATM    2  N2  UNL     1      -0.601  -4.664   1.057  1.00  0.00    -0.172 N 
ATOM      3  H2  UNL     1      -0.779  -5.567   1.496  1.00  0.00     0.186 HD
HETATM    4  C2  UNL     1      -1.542  -3.793   0.625  1.00  0.00     0.171 A 
HETATM    5  N3  UNL     1      -2.883  -4.014   0.720  1.00  0.00    -0.290 N 
ATOM      6  H3  UNL     1      -3.205  -4.691   1.411  1.00  0.00     0.172 HD
HETATM    7  C3  UNL     1      -3.827  -3.391  -0.047  1.00  0.00     0.340 C 
HETATM    8  O1  UNL     1      -4.863  -4.059  -0.212  1.00  0.00    -0.246 OA
HETATM    9  N4  UNL     1      -3.736  -2.155  -0.622  1.00  0.00    -0.138 N 
ATOM     10  H4  UNL     1      -4.523  -1.884  -1.212  1.00  0.00     0.189 HD
HETATM   11  C4  UNL     1      -2.744  -1.242  -0.515  1.00  0.00     0.724 C 
HETATM   12  N9  UNL     1      -1.438  -1.567  -0.458  1.00  0.00    -0.168 N 
ATOM     13  H9  UNL     1      -0.784  -0.902  -0.870  1.00  0.00     0.186 HD
HETATM   14  C8  UNL     1      -0.897  -2.695   0.094  1.00  0.00     0.207 A 
HETATM   15  N10 UNL     1       0.418  -2.922   0.215  1.00  0.00     0.043 N 
ENDROOT
BRANCH  15  16
HETATM   16  C9  UNL     1       1.501  -2.096  -0.186  1.00  0.00     0.721 A 
HETATM   17  N11 UNL     1       1.957  -1.879  -1.422  1.00  0.00    -0.129 N 
HETATM   18  N12 UNL     1       2.983  -1.062  -1.368  1.00  0.00    -0.273 N 
ATOM     19  H11 UNL     1       1.569  -2.284  -2.274  1.00  0.00     0.205 HD
HETATM   20  C10 UNL     1       3.200  -0.741  -0.068  1.00  0.00     0.138 A 
ATOM     21  H12 UNL     1       3.523  -0.727  -2.165  1.00  0.00     0.189 HD
HETATM   22  N14 UNL     1       2.271  -1.393   0.636  1.00  0.00    -0.175 N 
ATOM     23  H14 UNL     1       2.169  -1.356   1.650  1.00  0.00     0.185 HD
BRANCH  20  24
HETATM   24  C11 UNL     1       4.292   0.150   0.350  1.00  0.00     0.310 C 
BRANCH  24  25
HETATM   25  N13 UNL     1       4.109   1.531  -0.023  1.00  0.00    -0.064 N 
ATOM     26 2H13 UNL     1       3.942   1.642  -1.023  1.00  0.00     0.278 HD
ATOM     27 1H13 UNL     1       3.224   1.908   0.315  1.00  0.00     0.278 HD
BRANCH  25  28
HETATM   28  C12 UNL     1       5.259   2.317   0.438  1.00  0.00     0.186 A 
HETATM   29  C13 UNL     1       6.589   1.945  -0.150  1.00  0.00     0.035 A 
HETATM   30  C14 UNL     1       5.898   3.208  -0.566  1.00  0.00     0.035 A 
ENDBRANCH  25  28
ENDBRANCH  24  25
ENDBRANCH  20  24
ENDBRANCH  15  16
BRANCH   1  31
HETATM   31  N1  UNL     1       1.718  -4.724   1.104  1.00  0.00    -0.233 N 
ATOM     32  H12 UNL     1       1.848  -5.633   1.548  1.00  0.00     0.174 HD
ATOM     33  H11 UNL     1       2.636  -4.323   0.915  1.00  0.00     0.174 HD
ENDBRANCH   1  31
BRANCH  11  34
HETATM   34  N5  UNL     1      -3.112   0.129  -0.458  1.00  0.00    -0.020 N 
HETATM   35  N6  UNL     1      -2.353   1.176  -0.198  1.00  0.00    -0.274 N 
HETATM   36  C5  UNL     1      -3.115   2.302  -0.239  1.00  0.00     0.140 A 
ATOM     37  H6  UNL     1      -1.353   1.146   0.002  1.00  0.00     0.188 HD
HETATM   38  C6  UNL     1      -4.396   1.906  -0.540  1.00  0.00     0.091 A 
HETATM   39  N8  UNL     1      -4.342   0.569  -0.664  1.00  0.00    -0.263 N 
ATOM     40  H8  UNL     1      -5.141  -0.025  -0.887  1.00  0.00     0.189 HD
BRANCH  38  41
HETATM   41  C7  UNL     1      -5.575   2.796  -0.686  1.00  0.00     0.291 C 
BRANCH  41  42
HETATM   42  O2  UNL     1      -5.344   3.929  -1.423  1.00  0.00    -0.372 OA
ATOM     43  H2  UNL     1      -6.099   4.499  -1.516  1.00  0.00     0.212 HD
ENDBRANCH  41  42
BRANCH  41  44
HETATM   44  N7  UNL     1      -6.144   3.092   0.640  1.00  0.00    -0.065 NA
BRANCH  44  45
HETATM   45  O3  UNL     1      -6.478   1.869   1.150  1.00  0.00    -0.293 OA
ATOM     46  H3  UNL     1      -6.845   2.060   2.005  1.00  0.00     0.238 HD
ENDBRANCH  44  45
ENDBRANCH  41  44
ENDBRANCH  38  41
ENDBRANCH  11  34
TORSDOF 10
