REMARK  3 active torsions:
REMARK  status: ('A' for Active; 'I' for Inactive)
REMARK    1  A    between atoms: N2_4  and  N3_6 
REMARK    2  A    between atoms: C1_8  and  C2_10 
REMARK    3  A    between atoms: C2_10  and  C3_11 
ROOT
HETATM    1  N3  UNL     1      -2.349  -0.459   0.383  1.00  0.00    -0.277 N 
ATOM      2  H3  UNL     1      -2.919  -1.303   0.436  1.00  0.00     0.189 HD
HETATM    3  C1  UNL     1      -1.323  -0.525  -0.352  1.00  0.00     0.113 C 
HETATM    4  N4  UNL     1      -1.003  -1.712  -1.051  1.00  0.00    -0.086 NA
ENDROOT
BRANCH   3   5
HETATM    5  C2  UNL     1      -0.443   0.663  -0.481  1.00  0.00     0.116 C 
BRANCH   5   6
HETATM    6  C3  UNL     1       0.941   0.390  -0.026  1.00  0.00    -0.018 A 
HETATM    7  C4  UNL     1       1.414   0.561   1.257  1.00  0.00     0.116 A 
HETATM    8  N5  UNL     1       2.693   0.204   1.230  1.00  0.00    -0.312 N 
HETATM    9  N6  UNL     1       3.042  -0.176   0.018  1.00  0.00    -0.312 N 
ATOM     10  H5  UNL     1       3.318   0.222   2.036  1.00  0.00     0.186 HD
HETATM   11  C5  UNL     1       1.976  -0.070  -0.781  1.00  0.00     0.116 A 
ATOM     12  H6  UNL     1       3.969  -0.497  -0.263  1.00  0.00     0.186 HD
ENDBRANCH   5   6
ENDBRANCH   3   5
BRANCH   1  13
HETATM   13  N2  UNL     1      -2.787   0.613   1.117  1.00  0.00    -0.248 N 
HETATM   14  N1  UNL     1      -3.333   1.654   0.683  1.00  0.00    -0.331 N 
ATOM     15  H12 UNL     1      -3.458   1.692  -0.329  1.00  0.00     0.178 HD
ATOM     16  H11 UNL     1      -3.659   2.452   1.229  1.00  0.00     0.178 HD
ATOM     17  H2  UNL     1      -2.654   0.557   2.127  1.00  0.00     0.207 HD
ENDBRANCH   1  13
TORSDOF 3
