REMARK  10 active torsions:
REMARK  status: ('A' for Active; 'I' for Inactive)
REMARK    1  A    between atoms: C2_2  and  C3_3 
REMARK    2  A    between atoms: C3_3  and  C4_4 
REMARK    3  A    between atoms: C4_4  and  C5_5 
REMARK    4  A    between atoms: C5_5  and  C6_6 
REMARK    5  A    between atoms: C6_6  and  C7_7 
REMARK    6  A    between atoms: C8_11  and  C9_12 
REMARK    7  A    between atoms: C12_16  and  C13_17 
REMARK    8  A    between atoms: C13_17  and  C14_18 
REMARK    9  A    between atoms: C14_18  and  C15_19 
REMARK   10  A    between atoms: C16_20  and  N2_21 
REMARK       I    between atoms: N4_31  and  C22_32 
ROOT
HETATM    1  C13 UNL     1      -0.221  -0.659  -0.766  1.00  0.00     0.031 C 
ENDROOT
BRANCH   1   2
HETATM    2  C12 UNL     1       1.091  -1.037  -1.437  1.00  0.00     0.115 C 
HETATM    3  C8  UNL     1       2.184  -1.454  -0.514  1.00  0.00     0.216 C 
HETATM    4  N1  UNL     1       3.274  -1.908  -1.379  1.00  0.00    -0.056 N 
HETATM    5  C7  UNL     1       3.865  -0.843  -2.157  1.00  0.00     0.277 C 
ATOM      6  H12 UNL     1       2.965  -2.670  -1.983  1.00  0.00     0.278 HD
ATOM      7  H11 UNL     1       3.985  -2.400  -0.838  1.00  0.00     0.278 HD
HETATM    8  C25 UNL     1       2.888   0.074  -2.715  1.00  0.00     0.248 C 
HETATM    9  N7  UNL     1       1.581   0.131  -2.185  1.00  0.00    -0.353 N 
HETATM   10  O3  UNL     1       3.169   0.827  -3.664  1.00  0.00    -0.271 OA
ATOM     11  H7  UNL     1       0.995   0.956  -2.316  1.00  0.00     0.163 HD
BRANCH   3  12
HETATM   12  C9  UNL     1       1.806  -2.684   0.296  1.00  0.00     0.055 A 
HETATM   13  C10 UNL     1       2.856  -3.431   1.074  1.00  0.00     0.047 A 
HETATM   14  C11 UNL     1       1.930  -2.547   1.824  1.00  0.00     0.176 A 
HETATM   15  F1  UNL     1       2.509  -1.424   2.350  1.00  0.00    -0.249 F 
ENDBRANCH   3  12
BRANCH   5  16
HETATM   16  C6  UNL     1       4.916  -0.196  -1.258  1.00  0.00     0.043 C 
BRANCH  16  17
HETATM   17  C5  UNL     1       5.621   0.918  -1.899  1.00  0.00     0.002 C 
BRANCH  17  18
HETATM   18  C4  UNL     1       6.683   1.555  -1.108  1.00  0.00     0.000 C 
BRANCH  18  19
HETATM   19  C3  UNL     1       6.467   2.260   0.146  1.00  0.00    -0.000 C 
BRANCH  19  20
HETATM   20  C2  UNL     1       5.923   1.511   1.315  1.00  0.00    -0.005 C 
HETATM   21  C1  UNL     1       6.772   0.334   1.697  1.00  0.00     0.005 C 
ENDBRANCH  19  20
ENDBRANCH  18  19
ENDBRANCH  17  18
ENDBRANCH  16  17
ENDBRANCH   5  16
ENDBRANCH   1   2
BRANCH   1  22
HETATM   22  C14 UNL     1      -0.101   0.487   0.148  1.00  0.00     0.030 C 
BRANCH  22  23
HETATM   23  C15 UNL     1      -1.296   0.895   0.877  1.00  0.00    -0.009 C 
HETATM   24  C16 UNL     1      -2.516   1.430   0.320  1.00  0.00     0.093 C 
BRANCH  24  25
HETATM   25  N2  UNL     1      -3.359   0.800  -0.607  1.00  0.00    -0.292 N 
HETATM   26  C17 UNL     1      -3.328   0.976  -2.031  1.00  0.00     0.317 C 
HETATM   27  O1  UNL     1      -2.915   2.002  -2.672  1.00  0.00    -0.262 OA
HETATM   28  C18 UNL     1      -3.863  -0.254  -2.599  1.00  0.00     0.311 C 
HETATM   29  O2  UNL     1      -4.011  -0.519  -3.829  1.00  0.00    -0.262 OA
HETATM   30  N3  UNL     1      -4.186  -1.100  -1.480  1.00  0.00    -0.326 N 
HETATM   31  C19 UNL     1      -4.465  -0.149  -0.417  1.00  0.00     0.118 C 
ATOM     32  H3  UNL     1      -4.213  -2.119  -1.442  1.00  0.00     0.165 HD
HETATM   33  C20 UNL     1      -4.467  -0.865   0.868  1.00  0.00     0.074 C 
HETATM   34  C24 UNL     1      -5.777   0.515  -0.761  1.00  0.00     0.074 C 
HETATM   35  C21 UNL     1      -5.250  -0.213   1.976  1.00  0.00     0.129 C 
HETATM   36  N4  UNL     1      -6.450   0.432   1.516  1.00  0.00    -0.356 N 
HETATM   37  C22 UNL     1      -7.734   0.237   2.069  1.00  0.00     0.183 C 
HETATM   38  C23 UNL     1      -6.300   1.358   0.383  1.00  0.00     0.129 C 
HETATM   39  N5  UNL     1      -8.751   0.282   1.278  1.00  0.00    -0.374 N 
HETATM   40  N6  UNL     1      -7.986  -0.007   3.446  1.00  0.00    -0.064 NA
ATOM     41  H52 UNL     1      -8.570   0.457   0.290  1.00  0.00     0.158 HD
ATOM     42  H51 UNL     1      -9.679   0.141   1.678  1.00  0.00     0.158 HD
ENDBRANCH  24  25
ENDBRANCH  22  23
ENDBRANCH   1  22
TORSDOF 10
