REMARK  13 active torsions:
REMARK  status: ('A' for Active; 'I' for Inactive)
REMARK    1  A    between atoms: C2_2  and  C3_3 
REMARK    2  A    between atoms: C2_2  and  C17_28 
REMARK    3  A    between atoms: C3_3  and  C4_4 
REMARK    4  A    between atoms: C4_4  and  C5_5 
REMARK    5  A    between atoms: C5_5  and  C6_6 
REMARK    6  A    between atoms: C5_5  and  N2_13 
REMARK    7  A    between atoms: C6_6  and  N1_7 
REMARK    8  A    between atoms: N2_13  and  C12_16 
REMARK    9  A    between atoms: C12_16  and  C13_17 
REMARK   10  A    between atoms: C13_17  and  N3_18 
REMARK       I    between atoms: N3_18  and  C14_20 
REMARK       I    between atoms: C14_20  and  N4_22 
REMARK   11  A    between atoms: N4_22  and  C15_24 
REMARK   12  A    between atoms: C15_24  and  C16_25 
REMARK   13  A    between atoms: C16_25  and  O2_26 
ROOT
HETATM    1  C5  UNL     1       2.271  -0.638  -1.266  1.00  0.00     0.214 C 
ENDROOT
BRANCH   1   2
HETATM    2  C4  UNL     1       1.472  -0.082  -0.140  1.00  0.00     0.035 C 
BRANCH   2   3
HETATM    3  C3  UNL     1       0.085  -0.573  -0.055  1.00  0.00     0.007 C 
BRANCH   3   4
HETATM    4  C2  UNL     1      -0.720   0.117   1.071  1.00  0.00    -0.014 C 
HETATM    5  C1  UNL     1      -0.122  -0.107   2.395  1.00  0.00     0.010 C 
BRANCH   4   6
HETATM    6  C17 UNL     1      -2.139  -0.229   0.848  1.00  0.00    -0.002 C 
HETATM    7  C18 UNL     1      -2.500   0.087  -0.584  1.00  0.00     0.006 C 
HETATM    8  C19 UNL     1      -3.931   0.580  -0.617  1.00  0.00     0.006 C 
HETATM    9  C20 UNL     1      -4.379   0.326   0.787  1.00  0.00     0.002 C 
HETATM   10  C21 UNL     1      -5.532   1.096   1.265  1.00  0.00     0.049 C 
HETATM   11  C28 UNL     1      -3.158   0.479   1.653  1.00  0.00    -0.036 C 
HETATM   12  C22 UNL     1      -6.662   1.148   0.251  1.00  0.00     0.112 C 
HETATM   13  C25 UNL     1      -5.279   2.492   1.694  1.00  0.00     0.188 C 
HETATM   14  C23 UNL     1      -7.819   1.795   0.913  1.00  0.00     0.224 C 
HETATM   15  O3  UNL     1      -8.960   1.580   0.370  1.00  0.00    -0.273 OA
HETATM   16  N5  UNL     1      -7.715   2.602   2.066  1.00  0.00    -0.295 N 
HETATM   17  C24 UNL     1      -6.428   2.910   2.578  1.00  0.00     0.264 C 
ATOM     18  H5  UNL     1      -8.553   2.959   2.525  1.00  0.00     0.171 HD
HETATM   19  O4  UNL     1      -6.270   3.476   3.661  1.00  0.00    -0.269 OA
HETATM   20  F1  UNL     1      -5.383   3.340   0.580  1.00  0.00    -0.232 F 
HETATM   21  C26 UNL     1      -3.970   2.764   2.333  1.00  0.00     0.055 C 
HETATM   22  C27 UNL     1      -2.833   1.891   1.997  1.00  0.00     0.014 C 
HETATM   23  C29 UNL     1      -3.459  -0.356   2.903  1.00  0.00     0.016 C 
ENDBRANCH   4   6
ENDBRANCH   3   4
ENDBRANCH   2   3
ENDBRANCH   1   2
BRANCH   1  24
HETATM   24  C6  UNL     1       2.484  -2.105  -1.323  1.00  0.00     0.305 C 
BRANCH  24  25
HETATM   25  N1  UNL     1       1.337  -2.924  -1.462  1.00  0.00     0.090 N 
HETATM   26  C7  UNL     1       1.755  -4.327  -1.339  1.00  0.00     0.272 C 
HETATM   27  C8  UNL     1       0.673  -5.291  -1.728  1.00  0.00     0.030 C 
HETATM   28  C9  UNL     1       0.453  -5.256  -3.241  1.00  0.00     0.003 C 
HETATM   29  C10 UNL     1       1.045  -3.927  -3.702  1.00  0.00     0.030 C 
HETATM   30  C11 UNL     1       0.705  -2.812  -2.771  1.00  0.00     0.272 C 
ENDBRANCH  24  25
ENDBRANCH   1  24
BRANCH   1  31
HETATM   31  N2  UNL     1       3.562   0.033  -1.458  1.00  0.00    -0.068 N 
ATOM     32  H22 UNL     1       4.184  -0.133  -0.667  1.00  0.00     0.277 HD
ATOM     33  H21 UNL     1       4.107  -0.420  -2.192  1.00  0.00     0.277 HD
BRANCH  31  34
HETATM   34  C12 UNL     1       3.414   1.443  -1.716  1.00  0.00     0.252 C 
BRANCH  34  35
HETATM   35  C13 UNL     1       4.699   2.003  -2.232  1.00  0.00     0.152 C 
BRANCH  35  36
HETATM   36  N3  UNL     1       5.812   1.770  -1.387  1.00  0.00    -0.342 N 
HETATM   37  C14 UNL     1       5.994   2.179  -0.028  1.00  0.00     0.316 C 
HETATM   38  O1  UNL     1       5.046   2.815   0.491  1.00  0.00    -0.247 OA
HETATM   39  N4  UNL     1       7.161   1.887   0.677  1.00  0.00    -0.341 N 
ATOM     40  H4  UNL     1       7.880   1.361   0.180  1.00  0.00     0.164 HD
ATOM     41  H3  UNL     1       6.582   1.244  -1.800  1.00  0.00     0.164 HD
BRANCH  39  42
HETATM   42  C15 UNL     1       7.450   2.254   2.034  1.00  0.00     0.150 C 
BRANCH  42  43
HETATM   43  C16 UNL     1       6.478   1.693   3.030  1.00  0.00     0.183 C 
BRANCH  43  44
HETATM   44  O2  UNL     1       6.903   2.149   4.300  1.00  0.00    -0.399 OA
ATOM     45  H2  UNL     1       6.288   1.794   4.931  1.00  0.00     0.209 HD
ENDBRANCH  43  44
ENDBRANCH  42  43
ENDBRANCH  39  42
ENDBRANCH  35  36
ENDBRANCH  34  35
ENDBRANCH  31  34
ENDBRANCH   1  31
TORSDOF 13
