REMARK  5 active torsions:
REMARK  status: ('A' for Active; 'I' for Inactive)
REMARK    1  A    between atoms: N1_1  and  C1_4 
REMARK    2  A    between atoms: N5_14  and  C4_15 
REMARK    3  A    between atoms: C4_15  and  C5_16 
REMARK    4  A    between atoms: C5_16  and  N6_17 
REMARK    5  A    between atoms: C7_22  and  N7_23 
ROOT
HETATM    1  C1  UNL     1      -2.625  -0.315  -1.192  1.00  0.00     0.680 C 
HETATM    2  N2  UNL     1      -3.183   0.618  -0.369  1.00  0.00    -0.154 N 
ATOM      3  H2  UNL     1      -4.135   0.897  -0.606  1.00  0.00     0.187 HD
HETATM    4  C2  UNL     1      -2.664   1.215   0.696  1.00  0.00     0.290 C 
HETATM    5  O1  UNL     1      -3.426   1.938   1.409  1.00  0.00    -0.265 OA
HETATM    6  C3  UNL     1      -1.357   1.138   1.131  1.00  0.00     0.150 A 
HETATM    7  N3  UNL     1      -0.751   1.989   1.931  1.00  0.00    -0.279 N 
ATOM      8  H3  UNL     1      -1.172   2.824   2.339  1.00  0.00     0.189 HD
HETATM    9  N4  UNL     1       0.474   1.591   2.116  1.00  0.00    -0.239 N 
ATOM     10  H4  UNL     1       1.152   2.081   2.699  1.00  0.00     0.208 HD
HETATM   11  N5  UNL     1       0.739   0.448   1.441  1.00  0.00    -0.270 N 
HETATM   12  C6  UNL     1      -0.404   0.155   0.819  1.00  0.00     0.130 A 
HETATM   13  C7  UNL     1      -0.599  -0.934  -0.004  1.00  0.00     0.145 C 
HETATM   14  N8  UNL     1      -1.498  -1.031  -1.012  1.00  0.00    -0.175 N 
ATOM     15  H8  UNL     1      -1.297  -1.734  -1.724  1.00  0.00     0.186 HD
ENDROOT
BRANCH  11  16
HETATM   16  C4  UNL     1       2.004  -0.244   1.457  1.00  0.00     0.178 C 
BRANCH  16  17
HETATM   17  C5  UNL     1       2.813   0.269   0.269  1.00  0.00     0.251 C 
BRANCH  17  18
HETATM   18  N6  UNL     1       4.104  -0.368   0.197  1.00  0.00    -0.078 N 
ATOM     19  H63 UNL     1       4.619  -0.268   1.071  1.00  0.00     0.274 HD
ATOM     20  H62 UNL     1       4.019  -1.384   0.180  1.00  0.00     0.274 HD
ATOM     21  H61 UNL     1       4.645  -0.025  -0.597  1.00  0.00     0.274 HD
ENDBRANCH  17  18
ENDBRANCH  16  17
ENDBRANCH  11  16
BRANCH  13  22
HETATM   22  N7  UNL     1       0.149  -1.926   0.231  1.00  0.00    -0.383 N 
ATOM     23  H72 UNL     1       0.826  -1.853   0.990  1.00  0.00     0.157 HD
ATOM     24  H71 UNL     1       0.005  -2.732  -0.378  1.00  0.00     0.157 HD
ENDBRANCH  13  22
BRANCH   1  25
HETATM   25  N1  UNL     1      -3.233  -0.569  -2.298  1.00  0.00    -0.234 N 
ATOM     26  H12 UNL     1      -4.086  -0.027  -2.434  1.00  0.00     0.174 HD
ATOM     27  H11 UNL     1      -2.816  -1.267  -2.914  1.00  0.00     0.174 HD
ENDBRANCH   1  25
TORSDOF 5
