REMARK  3 active torsions:
REMARK  status: ('A' for Active; 'I' for Inactive)
REMARK    1  A    between atoms: N1_1  and  C1_4 
REMARK    2  A    between atoms: C3_8  and  C4_9 
REMARK    3  A    between atoms: C4_9  and  C5_10 
ROOT
HETATM    1  C1  UNL     1      -3.287   1.125   0.277  1.00  0.00     0.678 A 
HETATM    2  N2  UNL     1      -2.322   1.625  -0.484  1.00  0.00    -0.201 N 
ATOM      3  H2  UNL     1      -2.415   2.561  -0.878  1.00  0.00     0.183 HD
HETATM    4  C2  UNL     1      -1.206   0.884  -0.738  1.00  0.00     0.118 A 
HETATM    5  C3  UNL     1      -1.071  -0.380  -0.212  1.00  0.00     0.029 A 
HETATM    6  C8  UNL     1      -2.082  -0.881   0.574  1.00  0.00     0.267 A 
HETATM    7  O2  UNL     1      -2.057  -2.014   1.099  1.00  0.00    -0.267 OA
HETATM    8  N6  UNL     1      -3.153  -0.107   0.789  1.00  0.00    -0.156 N 
ATOM      9  H6  UNL     1      -3.906  -0.473   1.372  1.00  0.00     0.187 HD
ENDROOT
BRANCH   5  10
HETATM   10  C4  UNL     1       0.132  -1.151  -0.499  1.00  0.00     0.080 C 
BRANCH  10  11
HETATM   11  C5  UNL     1       1.111  -1.209   0.652  1.00  0.00     0.181 A 
HETATM   12  N3  UNL     1       1.561   0.099   1.030  1.00  0.00    -0.351 N 
HETATM   13  C6  UNL     1       2.818   0.259   0.846  1.00  0.00     0.191 A 
ATOM     14  H3  UNL     1       0.947   0.823   1.404  1.00  0.00     0.163 HD
HETATM   15  N4  UNL     1       3.586   1.448   1.121  1.00  0.00    -0.063 NA
HETATM   16  N5  UNL     1       3.370  -0.935   0.316  1.00  0.00    -0.299 N 
HETATM   17  C7  UNL     1       2.322  -1.879   0.182  1.00  0.00     0.247 A 
ATOM     18  H5  UNL     1       4.349  -1.087   0.074  1.00  0.00     0.171 HD
HETATM   19  O1  UNL     1       2.509  -3.041  -0.265  1.00  0.00    -0.271 OA
ENDBRANCH  10  11
ENDBRANCH   5  10
BRANCH   1  20
HETATM   20  N1  UNL     1      -4.347   1.798   0.532  1.00  0.00    -0.234 N 
ATOM     21  H12 UNL     1      -4.449   2.735   0.143  1.00  0.00     0.174 HD
ATOM     22  H11 UNL     1      -5.089   1.414   1.117  1.00  0.00     0.174 HD
ENDBRANCH   1  20
TORSDOF 3
