REMARK  14 active torsions:
REMARK  status: ('A' for Active; 'I' for Inactive)
REMARK    1  A    between atoms: C2_2  and  C3_3 
REMARK    2  A    between atoms: C3_3  and  C4_4 
REMARK    3  A    between atoms: C3_3  and  C22_35 
REMARK    4  A    between atoms: C5_5  and  C6_6 
REMARK    5  A    between atoms: C6_6  and  O1_9 
REMARK    6  A    between atoms: O1_9  and  C9_10 
REMARK    7  A    between atoms: C10_11  and  O2_12 
REMARK    8  A    between atoms: O2_12  and  C11_13 
REMARK    9  A    between atoms: C13_15  and  O3_16 
REMARK   10  A    between atoms: C15_19  and  O4_20 
REMARK   11  A    between atoms: C16_22  and  O5_23 
REMARK   12  A    between atoms: C20_29  and  O6_30 
REMARK   13  A    between atoms: C21_32  and  O7_33 
REMARK   14  A    between atoms: C22_35  and  O8_36 
ROOT
HETATM    1  C9  UNL     1      -0.270  -0.786  -0.219  1.00  0.00     0.187 C 
HETATM    2  C10 UNL     1      -1.738  -1.056  -0.472  1.00  0.00     0.186 C 
HETATM    3  C17 UNL     1      -1.775  -2.533  -0.503  1.00  0.00    -0.008 C 
HETATM    4  C18 UNL     1      -2.480  -3.266  -1.328  1.00  0.00     0.101 C 
HETATM    5  C19 UNL     1      -2.415  -4.688  -1.239  1.00  0.00     0.088 C 
HETATM    6  N1  UNL     1      -2.381  -5.844  -1.178  1.00  0.00    -0.192 NA
HETATM    7  C20 UNL     1      -0.871  -2.997   0.565  1.00  0.00     0.181 C 
HETATM    8  C21 UNL     1       0.176  -1.919   0.679  1.00  0.00     0.183 C 
ENDROOT
BRANCH   2   9
HETATM    9  O2  UNL     1      -2.457  -0.538   0.619  1.00  0.00    -0.371 OA
BRANCH   9  10
HETATM   10  C11 UNL     1      -3.419   0.390   0.225  1.00  0.00     0.156 C 
HETATM   11  C12 UNL     1      -3.067   1.759   0.735  1.00  0.00     0.066 C 
HETATM   12  C13 UNL     1      -4.317   2.502   1.192  1.00  0.00     0.123 C 
HETATM   13  C14 UNL     1      -4.846   1.669   2.366  1.00  0.00     0.066 C 
HETATM   14  C15 UNL     1      -5.389   0.406   1.801  1.00  0.00     0.151 C 
HETATM   15  C16 UNL     1      -4.811  -0.048   0.522  1.00  0.00     0.176 C 
BRANCH  12  16
HETATM   16  O3  UNL     1      -3.978   3.781   1.578  1.00  0.00    -0.395 OA
ATOM     17  H3  UNL     1      -4.757   4.244   1.863  1.00  0.00     0.210 HD
ENDBRANCH  12  16
BRANCH  14  18
HETATM   18  O4  UNL     1      -6.788   0.576   1.671  1.00  0.00    -0.393 OA
ATOM     19  H4  UNL     1      -7.135  -0.231   1.310  1.00  0.00     0.210 HD
ENDBRANCH  14  18
BRANCH  15  20
HETATM   20  O5  UNL     1      -5.663   0.269  -0.555  1.00  0.00    -0.390 OA
ATOM     21  H5  UNL     1      -6.551  -0.010  -0.366  1.00  0.00     0.210 HD
ENDBRANCH  15  20
ENDBRANCH   9  10
ENDBRANCH   2   9
BRANCH   7  22
HETATM   22  O6  UNL     1      -0.331  -4.247   0.345  1.00  0.00    -0.388 OA
ATOM     23  H6  UNL     1       0.252  -4.546   1.033  1.00  0.00     0.210 HD
ENDBRANCH   7  22
BRANCH   1  24
HETATM   24  O1  UNL     1       0.402  -0.871  -1.409  1.00  0.00    -0.366 OA
BRANCH  24  25
HETATM   25  C6  UNL     1       1.168   0.231  -1.730  1.00  0.00     0.072 C 
HETATM   26  C7  UNL     1       0.356   1.486  -1.924  1.00  0.00     0.050 C 
HETATM   27  C8  UNL     1       1.852  -0.066  -3.050  1.00  0.00     0.050 C 
BRANCH  25  28
HETATM   28  C5  UNL     1       2.221   0.515  -0.728  1.00  0.00     0.006 C 
HETATM   29  C4  UNL     1       3.502   0.264  -0.914  1.00  0.00    -0.021 C 
BRANCH  29  30
HETATM   30  C3  UNL     1       4.544   0.561   0.113  1.00  0.00     0.031 C 
BRANCH  30  31
HETATM   31  C2  UNL     1       5.554   1.571  -0.440  1.00  0.00     0.006 C 
HETATM   32  C1  UNL     1       4.813   2.860  -0.804  1.00  0.00     0.006 C 
ENDBRANCH  30  31
BRANCH  30  33
HETATM   33  C22 UNL     1       5.262  -0.694   0.521  1.00  0.00     0.175 C 
BRANCH  33  34
HETATM   34  O8  UNL     1       6.219  -0.546   1.482  1.00  0.00    -0.395 OA
HETATM   35  C23 UNL     1       5.768  -0.047   2.691  1.00  0.00     0.201 C 
ENDBRANCH  33  34
ENDBRANCH  30  33
ENDBRANCH  29  30
ENDBRANCH  25  28
ENDBRANCH  24  25
ENDBRANCH   1  24
BRANCH   8  36
HETATM   36  O7  UNL     1       1.383  -2.478   0.235  1.00  0.00    -0.390 OA
ATOM     37  H7  UNL     1       1.663  -3.189   0.799  1.00  0.00     0.210 HD
ENDBRANCH   8  36
TORSDOF 14
