REMARK  14 active torsions:
REMARK  status: ('A' for Active; 'I' for Inactive)
REMARK    1  A    between atoms: O1_2  and  C2_3 
REMARK    2  A    between atoms: C2_3  and  C3_4 
REMARK    3  A    between atoms: C5_7  and  C6_8 
REMARK    4  A    between atoms: C7_9  and  C8_10 
REMARK    5  A    between atoms: C9_11  and  C10_12 
REMARK    6  A    between atoms: C11_13  and  C12_14 
REMARK    7  A    between atoms: C13_15  and  C14_16 
REMARK    8  A    between atoms: C15_17  and  C16_18 
REMARK    9  A    between atoms: C17_20  and  O4_21 
REMARK   10  A    between atoms: C18_23  and  O5_24 
REMARK   11  A    between atoms: C19_26  and  O6_27 
REMARK   12  A    between atoms: C20_29  and  O7_30 
REMARK   13  A    between atoms: C21_32  and  O8_33 
REMARK   14  A    between atoms: C22_35  and  O9_36 
ROOT
HETATM    1  C10 UNL     1       0.563   0.856   0.568  1.00  0.00     0.000 C 
HETATM    2  C11 UNL     1       1.863   0.866   0.743  1.00  0.00     0.000 C 
ENDROOT
BRANCH   2   3
HETATM    3  C12 UNL     1       2.709  -0.170   0.225  1.00  0.00     0.000 C 
HETATM    4  C13 UNL     1       4.005  -0.193   0.380  1.00  0.00    -0.000 C 
BRANCH   4   5
HETATM    5  C14 UNL     1       4.700   0.855   1.104  1.00  0.00    -0.001 C 
HETATM    6  C15 UNL     1       6.005   0.835   1.262  1.00  0.00     0.008 C 
BRANCH   6   7
HETATM    7  C16 UNL     1       6.815  -0.258   0.706  1.00  0.00     0.179 C 
HETATM    8  O3  UNL     1       8.035  -0.370   1.392  1.00  0.00    -0.347 OA
HETATM    9  C17 UNL     1       8.813  -1.385   0.863  1.00  0.00     0.289 C 
HETATM   10  C18 UNL     1       9.404  -0.870  -0.426  1.00  0.00     0.204 C 
HETATM   11  C19 UNL     1       8.467   0.043  -1.165  1.00  0.00     0.183 C 
HETATM   12  C20 UNL     1       7.024  -0.142  -0.777  1.00  0.00     0.182 C 
BRANCH   9  13
HETATM   13  O4  UNL     1       9.797  -1.826   1.710  1.00  0.00    -0.368 OA
ATOM     14  H4  UNL     1      10.331  -2.523   1.347  1.00  0.00     0.212 HD
ENDBRANCH   9  13
BRANCH  10  15
HETATM   15  O5  UNL     1      10.529  -0.096  -0.064  1.00  0.00    -0.388 OA
ATOM     16  H5  UNL     1      10.901   0.228  -0.876  1.00  0.00     0.210 HD
ENDBRANCH  10  15
BRANCH  11  17
HETATM   17  O6  UNL     1       8.849   1.383  -1.105  1.00  0.00    -0.390 OA
ATOM     18  H6  UNL     1       8.257   1.960  -1.572  1.00  0.00     0.210 HD
ENDBRANCH  11  17
BRANCH  12  19
HETATM   19  O7  UNL     1       6.339   0.974  -1.282  1.00  0.00    -0.390 OA
ATOM     20  H7  UNL     1       6.471   1.047  -2.220  1.00  0.00     0.210 HD
ENDBRANCH  12  19
ENDBRANCH   6   7
ENDBRANCH   4   5
ENDBRANCH   2   3
BRANCH   1  21
HETATM   21  C9  UNL     1      -0.145  -0.165  -0.143  1.00  0.00     0.000 C 
HETATM   22  C8  UNL     1      -1.462  -0.149  -0.304  1.00  0.00    -0.000 C 
BRANCH  22  23
HETATM   23  C7  UNL     1      -2.298   0.881   0.210  1.00  0.00    -0.003 C 
HETATM   24  C6  UNL     1      -3.598   0.910   0.059  1.00  0.00    -0.017 C 
BRANCH  24  25
HETATM   25  C5  UNL     1      -4.358  -0.125  -0.668  1.00  0.00     0.063 C 
HETATM   26  C4  UNL     1      -5.087   0.582  -1.800  1.00  0.00     0.179 C 
HETATM   27  O2  UNL     1      -6.236   1.133  -1.289  1.00  0.00    -0.380 OA
HETATM   28  C3  UNL     1      -7.171   0.147  -1.149  1.00  0.00     0.176 C 
HETATM   29  C22 UNL     1      -6.690  -1.009  -0.296  1.00  0.00     0.181 C 
HETATM   30  C21 UNL     1      -5.339  -0.727   0.318  1.00  0.00     0.159 C 
BRANCH  28  31
HETATM   31  C2  UNL     1      -8.473   0.710  -0.653  1.00  0.00     0.201 C 
BRANCH  31  32
HETATM   32  O1  UNL     1      -8.477   1.309   0.559  1.00  0.00    -0.393 OA
HETATM   33  C1  UNL     1      -7.682   2.389   0.758  1.00  0.00     0.201 C 
ENDBRANCH  31  32
ENDBRANCH  28  31
BRANCH  29  34
HETATM   34  O9  UNL     1      -7.599  -1.141   0.760  1.00  0.00    -0.385 OA
HETATM   35  C23 UNL     1      -8.175  -2.411   0.782  1.00  0.00     0.202 C 
ENDBRANCH  29  34
BRANCH  30  36
HETATM   36  O8  UNL     1      -4.812  -1.955   0.735  1.00  0.00    -0.392 OA
ATOM     37  H8  UNL     1      -5.427  -2.332   1.353  1.00  0.00     0.210 HD
ENDBRANCH  30  36
ENDBRANCH  24  25
ENDBRANCH  22  23
ENDBRANCH   1  21
TORSDOF 14
