REMARK  6 active torsions:
REMARK  status: ('A' for Active; 'I' for Inactive)
REMARK    1  A    between atoms: C2_2  and  C3_3 
REMARK    2  A    between atoms: C3_3  and  C4_4 
REMARK    3  A    between atoms: C7_7  and  C8_8 
REMARK    4  A    between atoms: C8_8  and  N1_9 
REMARK    5  A    between atoms: C9_12  and  C10_13 
REMARK    6  A    between atoms: C26_31  and  O1_32 
ROOT
HETATM    1  N1  UNL     1       1.670   2.253  -0.895  1.00  0.00    -0.291 N 
HETATM    2  N2  UNL     1       1.561   3.080   0.119  1.00  0.00    -0.293 N 
ATOM      3  H2  UNL     1       2.333   3.632   0.494  1.00  0.00     0.187 HD
HETATM    4  C9  UNL     1       0.284   3.110   0.611  1.00  0.00     0.125 A 
HETATM    5  C11 UNL     1      -0.435   2.244  -0.150  1.00  0.00     0.008 A 
HETATM    6  C12 UNL     1       0.461   1.715  -1.097  1.00  0.00     0.038 A 
HETATM    7  C13 UNL     1      -0.029   0.733  -2.123  1.00  0.00     0.060 C 
HETATM    8  C14 UNL     1      -0.946  -0.274  -1.547  1.00  0.00     0.012 C 
HETATM    9  C15 UNL     1      -1.745   0.221  -0.358  1.00  0.00     0.004 C 
HETATM   10  C16 UNL     1      -3.055  -0.444  -0.408  1.00  0.00     0.003 C 
HETATM   11  C17 UNL     1      -4.274   0.389  -0.303  1.00  0.00    -0.001 C 
HETATM   12  C18 UNL     1      -4.170   1.621   0.488  1.00  0.00     0.007 C 
HETATM   13  C19 UNL     1      -2.757   2.055   0.831  1.00  0.00     0.015 C 
HETATM   14  C20 UNL     1      -1.803   1.727  -0.247  1.00  0.00    -0.008 C 
HETATM   15  C21 UNL     1      -2.403   2.251  -1.538  1.00  0.00     0.021 C 
HETATM   16  C22 UNL     1      -4.926  -0.809   0.349  1.00  0.00    -0.034 C 
HETATM   17  C23 UNL     1      -5.962  -0.618   1.348  1.00  0.00     0.016 C 
HETATM   18  C24 UNL     1      -5.273  -1.863  -0.680  1.00  0.00     0.012 C 
HETATM   19  C25 UNL     1      -4.370  -3.032  -0.448  1.00  0.00     0.033 C 
HETATM   20  C26 UNL     1      -3.481  -2.701   0.709  1.00  0.00     0.123 C 
HETATM   21  C27 UNL     1      -3.530  -1.190   0.835  1.00  0.00     0.028 C 
ENDROOT
BRANCH   1  22
HETATM   22  C8  UNL     1       2.892   1.969  -1.626  1.00  0.00     0.187 C 
BRANCH  22  23
HETATM   23  C7  UNL     1       3.729   0.944  -1.024  1.00  0.00    -0.038 A 
HETATM   24  C6  UNL     1       3.699  -0.350  -1.458  1.00  0.00     0.009 A 
HETATM   25  C5  UNL     1       4.496  -1.313  -0.875  1.00  0.00     0.007 A 
HETATM   26  C4  UNL     1       5.320  -0.944   0.148  1.00  0.00    -0.058 A 
HETATM   27  C29 UNL     1       5.375   0.339   0.607  1.00  0.00     0.007 A 
HETATM   28  C28 UNL     1       4.574   1.290   0.016  1.00  0.00     0.009 A 
BRANCH  26  29
HETATM   29  C3  UNL     1       6.172  -1.990   0.766  1.00  0.00     0.038 C 
BRANCH  29  30
HETATM   30  C2  UNL     1       7.482  -2.006  -0.004  1.00  0.00     0.000 C 
HETATM   31  C1  UNL     1       8.446  -3.041   0.535  1.00  0.00     0.005 C 
ENDBRANCH  29  30
ENDBRANCH  26  29
ENDBRANCH  22  23
ENDBRANCH   1  22
BRANCH   4  32
HETATM   32  C10 UNL     1      -0.180   3.955   1.727  1.00  0.00     0.295 C 
HETATM   33  F1  UNL     1      -0.885   5.080   1.345  1.00  0.00    -0.170 F 
HETATM   34  F2  UNL     1      -0.621   3.326   2.840  1.00  0.00    -0.170 F 
ENDBRANCH   4  32
BRANCH  20  35
HETATM   35  O1  UNL     1      -2.203  -3.172   0.505  1.00  0.00    -0.395 OA
ATOM     36  H1  UNL     1      -1.639  -2.962   1.240  1.00  0.00     0.210 HD
ENDBRANCH  20  35
TORSDOF 6
