REMARK  15 active torsions:
REMARK  status: ('A' for Active; 'I' for Inactive)
REMARK    1  A    between atoms: C4_4  and  C5_5 
REMARK    2  A    between atoms: C6_6  and  C7_7 
REMARK    3  A    between atoms: C6_6  and  C20_24 
REMARK    4  A    between atoms: C7_7  and  C8_8 
REMARK    5  A    between atoms: C8_8  and  C9_9 
REMARK    6  A    between atoms: C9_9  and  C11_11 
REMARK    7  A    between atoms: C11_11  and  S1_14 
REMARK    8  A    between atoms: S1_14  and  C14_15 
REMARK    9  A    between atoms: C14_15  and  O1_16 
REMARK   10  A    between atoms: C14_15  and  N1_18 
REMARK   11  A    between atoms: N1_18  and  C15_19 
REMARK   12  A    between atoms: C20_24  and  C21_25 
REMARK   13  A    between atoms: C21_25  and  C22_27 
REMARK   14  A    between atoms: C22_27  and  O3_28 
REMARK   15  A    between atoms: C22_27  and  O4_30 
ROOT
HETATM    1  C5  UNL     1      -3.621   0.874   0.352  1.00  0.00     0.052 C 
HETATM    2  C6  UNL     1      -3.645  -0.298  -0.399  1.00  0.00     0.012 C 
ENDROOT
BRANCH   2   3
HETATM    3  C7  UNL     1      -1.895  -0.300  -0.456  1.00  0.00    -0.006 C 
BRANCH   3   4
HETATM    4  C8  UNL     1      -1.023   0.293   0.028  1.00  0.00     0.034 C 
BRANCH   4   5
HETATM    5  C9  UNL     1       0.390  -0.127  -0.461  1.00  0.00     0.003 C 
HETATM    6  C10 UNL     1       0.265  -0.648  -1.888  1.00  0.00     0.012 C 
BRANCH   5   7
HETATM    7  C11 UNL     1       1.336  -0.657   0.477  1.00  0.00     0.013 C 
HETATM    8  C12 UNL     1       1.127  -1.917   1.273  1.00  0.00     0.027 C 
HETATM    9  C13 UNL     1       2.592  -0.980  -0.400  1.00  0.00     0.027 C 
BRANCH   7  10
HETATM   10  S1  UNL     1       1.904   0.666   1.644  1.00  0.00    -0.062 SA
BRANCH  10  11
HETATM   11  C14 UNL     1       3.508   1.174   1.537  1.00  0.00     0.250 C 
BRANCH  11  12
HETATM   12  O1  UNL     1       3.604   2.588   1.532  1.00  0.00    -0.330 OA
ATOM     13  H1  UNL     1       4.508   2.874   1.472  1.00  0.00     0.221 HD
ENDBRANCH  11  12
BRANCH  11  14
HETATM   14  N1  UNL     1       4.739   0.640   1.429  1.00  0.00    -0.413 NA
BRANCH  14  15
HETATM   15  C15 UNL     1       6.084   0.335   1.323  1.00  0.00     0.166 C 
HETATM   16  C16 UNL     1       6.890   1.449   0.623  1.00  0.00     0.039 C 
HETATM   17  C17 UNL     1       7.939   0.715  -0.168  1.00  0.00     0.003 C 
HETATM   18  C18 UNL     1       7.161  -0.520  -0.601  1.00  0.00     0.003 C 
HETATM   19  C19 UNL     1       6.467  -0.881   0.645  1.00  0.00     0.039 C 
ENDBRANCH  14  15
ENDBRANCH  11  14
ENDBRANCH  10  11
ENDBRANCH   7  10
ENDBRANCH   5   7
ENDBRANCH   4   5
ENDBRANCH   3   4
ENDBRANCH   2   3
BRANCH   2  20
HETATM   20  C20 UNL     1      -3.644  -1.312  -1.037  1.00  0.00    -0.062 C 
BRANCH  20  21
HETATM   21  C21 UNL     1      -3.677  -2.478  -1.792  1.00  0.00     0.249 C 
HETATM   22  O2  UNL     1      -4.368  -2.849  -2.802  1.00  0.00    -0.278 OA
BRANCH  21  23
HETATM   23  C22 UNL     1      -2.690  -3.615  -1.322  1.00  0.00     0.338 C 
BRANCH  23  24
HETATM   24  O3  UNL     1      -3.115  -4.764  -1.766  1.00  0.00    -0.364 OA
ATOM     25  H3  UNL     1      -2.521  -5.449  -1.483  1.00  0.00     0.213 HD
ENDBRANCH  23  24
BRANCH  23  26
HETATM   26  O4  UNL     1      -2.874  -3.528   0.137  1.00  0.00    -0.364 OA
ATOM     27  H4  UNL     1      -2.280  -4.213   0.420  1.00  0.00     0.213 HD
ENDBRANCH  23  26
ENDBRANCH  21  23
ENDBRANCH  20  21
ENDBRANCH   2  20
BRANCH   1  28
HETATM   28  C4  UNL     1      -4.851   1.593   0.154  1.00  0.00     0.059 C 
HETATM   29  C3  UNL     1      -5.330   2.847   0.687  1.00  0.00     0.079 C 
HETATM   30  C2  UNL     1      -6.830   2.698   0.707  1.00  0.00     0.088 C 
HETATM   31  C1  UNL     1      -7.458   4.070   0.416  1.00  0.00     0.021 C 
HETATM   32  C23 UNL     1      -7.035   1.768  -0.506  1.00  0.00     0.268 C 
HETATM   33  O5  UNL     1      -5.846   1.040  -0.676  1.00  0.00    -0.283 OA
HETATM   34  O6  UNL     1      -8.043   1.630  -1.237  1.00  0.00    -0.264 OA
ENDBRANCH   1  28
TORSDOF 15
