REMARK  9 active torsions:
REMARK  status: ('A' for Active; 'I' for Inactive)
REMARK    1  A    between atoms: C4_9  and  C5_10 
REMARK    2  A    between atoms: C5_10  and  O2_11 
REMARK    3  A    between atoms: O2_11  and  C6_12 
REMARK    4  A    between atoms: C9_21  and  C10_22 
REMARK    5  A    between atoms: C15_29  and  C16_30 
REMARK    6  A    between atoms: C16_30  and  C17_31 
REMARK    7  A    between atoms: C16_30  and  N7_35 
REMARK    8  A    between atoms: C17_31  and  C18_32 
REMARK    9  A    between atoms: N7_35  and  C21_37 
ROOT
HETATM    1  C1  UNL     1      -3.744  -0.309   3.132  1.00  0.00     0.064 C 
HETATM    2  C2  UNL     1      -2.439  -0.654   2.482  1.00  0.00    -0.005 C 
HETATM    3  N1  UNL     1      -1.511  -0.929   3.333  1.00  0.00    -0.316 N 
ATOM      4  H1  UNL     1      -1.764  -0.886   4.320  1.00  0.00     0.170 HD
HETATM    5  C3  UNL     1      -0.172  -1.286   3.029  1.00  0.00     0.320 C 
HETATM    6  O1  UNL     1       0.709  -1.554   3.873  1.00  0.00    -0.247 OA
HETATM    7  N2  UNL     1       0.070  -1.313   1.607  1.00  0.00    -0.335 N 
ATOM      8  H2  UNL     1       0.747  -1.951   1.189  1.00  0.00     0.164 HD
HETATM    9  C4  UNL     1      -0.719  -0.363   0.784  1.00  0.00     0.122 C 
HETATM   10  C15 UNL     1      -2.160  -0.749   1.057  1.00  0.00     0.078 C 
ENDROOT
BRANCH   9  11
HETATM   11  C5  UNL     1      -0.251  -0.657  -0.619  1.00  0.00     0.203 C 
BRANCH  11  12
HETATM   12  O2  UNL     1       1.132  -0.434  -0.689  1.00  0.00    -0.331 OA
BRANCH  12  13
HETATM   13  C6  UNL     1       1.819   0.740  -0.512  1.00  0.00     0.187 A 
HETATM   14  N3  UNL     1       1.388   1.983  -0.278  1.00  0.00    -0.278 N 
HETATM   15  N4  UNL     1       2.424   2.782  -0.183  1.00  0.00    -0.295 N 
ATOM     16  H3  UNL     1       0.412   2.265  -0.188  1.00  0.00     0.189 HD
HETATM   17  C7  UNL     1       3.566   2.087  -0.355  1.00  0.00     0.094 A 
ATOM     18  H4  UNL     1       2.373   3.785  -0.005  1.00  0.00     0.187 HD
HETATM   19  C8  UNL     1       4.905   2.415  -0.361  1.00  0.00     0.122 A 
HETATM   20  C14 UNL     1       3.235   0.775  -0.567  1.00  0.00     0.116 A 
HETATM   21  N5  UNL     1       5.840   1.467  -0.564  1.00  0.00    -0.353 N 
HETATM   22  C9  UNL     1       5.502   0.162  -0.773  1.00  0.00     0.089 A 
ATOM     23  H5  UNL     1       6.825   1.731  -0.561  1.00  0.00     0.166 HD
HETATM   24  N6  UNL     1       4.187  -0.144  -0.768  1.00  0.00    -0.340 N 
ATOM     25  H6  UNL     1       3.908  -1.113  -0.923  1.00  0.00     0.167 HD
BRANCH  22  26
HETATM   26  C10 UNL     1       6.584  -0.832  -1.001  1.00  0.00     0.007 C 
HETATM   27  C11 UNL     1       7.859  -0.101  -1.436  1.00  0.00     0.022 C 
HETATM   28  C12 UNL     1       6.252  -1.828  -2.070  1.00  0.00     0.022 C 
HETATM   29  C13 UNL     1       6.909  -1.493   0.324  1.00  0.00     0.022 C 
ENDBRANCH  22  26
ENDBRANCH  12  13
ENDBRANCH  11  12
ENDBRANCH   9  11
BRANCH  10  30
HETATM   30  C16 UNL     1      -3.118   0.008   0.177  1.00  0.00     0.088 C 
BRANCH  30  31
HETATM   31  C17 UNL     1      -3.022   1.468   0.546  1.00  0.00     0.029 C 
BRANCH  31  32
HETATM   32  C18 UNL     1      -3.922   2.374  -0.223  1.00  0.00    -0.021 C 
HETATM   33  C19 UNL     1      -3.730   3.833   0.244  1.00  0.00     0.009 C 
HETATM   34  C20 UNL     1      -3.523   2.411  -1.693  1.00  0.00     0.009 C 
ENDBRANCH  31  32
ENDBRANCH  30  31
BRANCH  30  35
HETATM   35  N7  UNL     1      -4.374  -0.509   0.010  1.00  0.00    -0.413 N 
ATOM     36  H7  UNL     1      -5.142   0.058   0.370  1.00  0.00     0.154 HD
BRANCH  35  37
HETATM   37  C21 UNL     1      -4.732  -1.709  -0.588  1.00  0.00     0.068 C 
HETATM   38  C22 UNL     1      -4.318  -2.990   0.041  1.00  0.00     0.031 C 
HETATM   39  C23 UNL     1      -4.302  -1.812  -2.049  1.00  0.00     0.031 C 
ENDBRANCH  35  37
ENDBRANCH  30  35
ENDBRANCH  10  30
TORSDOF 9
