REMARK  14 active torsions:
REMARK  status: ('A' for Active; 'I' for Inactive)
REMARK       I    between atoms: C2_5  and  N3_6 
REMARK       I    between atoms: C2_5  and  N5_17 
REMARK    1  A    between atoms: N3_6  and  O1_8 
REMARK    2  A    between atoms: O1_8  and  C3_9 
REMARK    3  A    between atoms: C3_9  and  C4_10 
REMARK    4  A    between atoms: C4_10  and  O2_11 
REMARK    5  A    between atoms: N4_13  and  O3_15 
REMARK    6  A    between atoms: N5_17  and  S1_19 
REMARK    7  A    between atoms: S1_19  and  N6_20 
REMARK    8  A    between atoms: N6_20  and  C5_21 
REMARK    9  A    between atoms: C7_23  and  O4_24 
REMARK   10  A    between atoms: O4_24  and  C8_25 
REMARK   11  A    between atoms: C10_28  and  O6_29 
REMARK   12  A    between atoms: C11_31  and  O7_32 
REMARK   13  A    between atoms: C12_34  and  N7_35 
REMARK   14  A    between atoms: C14_40  and  N8_41 
ROOT
HETATM    1  N1  UNL     1       4.400  -4.933  -0.543  1.00  0.00    -0.171 NA
HETATM    2  C1  UNL     1       4.014  -3.848  -0.526  1.00  0.00     0.196 C 
HETATM    3  N2  UNL     1       3.529  -2.545  -0.513  1.00  0.00    -0.124 N 
ATOM      4  H2  UNL     1       2.677  -2.311  -1.023  1.00  0.00     0.197 HD
HETATM    5  C2  UNL     1       4.169  -1.619   0.156  1.00  0.00     0.718 C 
HETATM    6  N3  UNL     1       5.347  -1.915   0.868  1.00  0.00    -0.088 N 
ATOM      7  H3  UNL     1       5.611  -2.887   1.030  1.00  0.00     0.213 HD
HETATM    8  N5  UNL     1       3.680  -0.283   0.176  1.00  0.00    -0.147 N 
ATOM      9  H5  UNL     1       4.193   0.485  -0.257  1.00  0.00     0.194 HD
ENDROOT
BRANCH   6  10
HETATM   10  O1  UNL     1       6.136  -0.912   1.341  1.00  0.00    -0.206 OA
BRANCH  10  11
HETATM   11  C3  UNL     1       7.143  -0.312   0.602  1.00  0.00     0.190 C 
HETATM   12  N4  UNL     1       7.679  -0.984  -0.353  1.00  0.00    -0.247 N 
ATOM     13  H4  UNL     1       8.421  -0.552  -0.904  1.00  0.00     0.196 HD
BRANCH  11  14
HETATM   14  C4  UNL     1       7.609   1.081   0.891  1.00  0.00     0.252 C 
BRANCH  14  15
HETATM   15  O2  UNL     1       8.612   1.476   0.041  1.00  0.00    -0.393 OA
ATOM     16  H2  UNL     1       8.908   2.360   0.224  1.00  0.00     0.210 HD
ENDBRANCH  14  15
ENDBRANCH  11  14
BRANCH  12  17
HETATM   17  O3  UNL     1       7.291  -2.250  -0.653  1.00  0.00    -0.288 OA
ATOM     18  H3  UNL     1       7.687  -2.747  -1.359  1.00  0.00     0.244 HD
ENDBRANCH  12  17
ENDBRANCH  10  11
ENDBRANCH   6  10
BRANCH   8  19
HETATM   19  S1  UNL     1       2.124  -0.029   0.999  1.00  0.00     0.070 SA
BRANCH  19  20
HETATM   20  N6  UNL     1       0.858  -0.547  -0.112  1.00  0.00    -0.151 NA
BRANCH  20  21
HETATM   21  C5  UNL     1      -0.303   0.280   0.117  1.00  0.00     0.122 C 
HETATM   22  C6  UNL     1      -1.445  -0.083  -0.785  1.00  0.00     0.058 C 
HETATM   23  C7  UNL     1      -2.685   0.639  -0.288  1.00  0.00     0.157 C 
HETATM   24  C12 UNL     1      -2.371   1.644   0.773  1.00  0.00     0.214 C 
HETATM   25  C13 UNL     1      -1.191   2.519   0.455  1.00  0.00     0.070 C 
HETATM   26  C14 UNL     1      -0.009   1.749  -0.079  1.00  0.00     0.205 C 
BRANCH  23  27
HETATM   27  O4  UNL     1      -3.527  -0.327   0.241  1.00  0.00    -0.351 OA
BRANCH  27  28
HETATM   28  C8  UNL     1      -4.705  -0.343  -0.487  1.00  0.00     0.291 C 
HETATM   29  O5  UNL     1      -4.963  -1.596  -1.042  1.00  0.00    -0.356 OA
HETATM   30  C9  UNL     1      -5.550  -2.322   0.017  1.00  0.00     0.205 C 
HETATM   31  C10 UNL     1      -6.585  -1.365   0.515  1.00  0.00     0.175 C 
HETATM   32  C11 UNL     1      -5.857  -0.035   0.443  1.00  0.00     0.204 C 
BRANCH  31  33
HETATM   33  O6  UNL     1      -6.981  -1.570   1.812  1.00  0.00    -0.391 OA
ATOM     34  H6  UNL     1      -7.639  -0.962   2.128  1.00  0.00     0.210 HD
ENDBRANCH  31  33
BRANCH  32  35
HETATM   35  O7  UNL     1      -6.656   0.942  -0.121  1.00  0.00    -0.388 OA
ATOM     36  H7  UNL     1      -7.380   1.135   0.463  1.00  0.00     0.210 HD
ENDBRANCH  32  35
ENDBRANCH  27  28
ENDBRANCH  23  27
BRANCH  24  37
HETATM   37  N7  UNL     1      -3.532   2.543   0.883  1.00  0.00    -0.072 N 
ATOM     38  H73 UNL     1      -3.791   2.970  -0.006  1.00  0.00     0.274 HD
ATOM     39  H72 UNL     1      -4.407   2.046   1.051  1.00  0.00     0.274 HD
ATOM     40  H71 UNL     1      -3.318   3.229   1.607  1.00  0.00     0.274 HD
ENDBRANCH  24  37
BRANCH  26  41
HETATM   41  N8  UNL     1       0.059   1.987  -1.521  1.00  0.00    -0.073 N 
ATOM     42  H83 UNL     1       0.727   1.379  -1.995  1.00  0.00     0.274 HD
ATOM     43  H82 UNL     1      -0.776   1.677  -2.017  1.00  0.00     0.274 HD
ATOM     44  H81 UNL     1       0.257   2.979  -1.653  1.00  0.00     0.274 HD
ENDBRANCH  26  41
ENDBRANCH  20  21
ENDBRANCH  19  20
ENDBRANCH   8  19
TORSDOF 14
