REMARK  10 active torsions:
REMARK  status: ('A' for Active; 'I' for Inactive)
REMARK    1  A    between atoms: N1_1  and  C1_5 
REMARK    2  A    between atoms: C1_5  and  N2_6 
REMARK    3  A    between atoms: C1_5  and  C2_10 
REMARK    4  A    between atoms: C2_10  and  O1_11 
REMARK    5  A    between atoms: C2_10  and  C3_13 
REMARK    6  A    between atoms: C4_14  and  C5_15 
REMARK    7  A    between atoms: C7_21  and  C8_22 
REMARK    8  A    between atoms: C9_25  and  C10_26 
REMARK    9  A    between atoms: C10_26  and  O7_27 
REMARK   10  A    between atoms: C10_26  and  O8_29 
ROOT
HETATM    1  C3  UNL     1      -1.189  -0.849   0.295  1.00  0.00     0.058 C 
HETATM    2  C4  UNL     1      -0.286  -0.470   1.200  1.00  0.00     0.123 C 
HETATM    3  N3  UNL     1       0.870  -0.040   0.483  1.00  0.00    -0.329 N 
HETATM    4  C6  UNL     1       0.424   0.343  -0.871  1.00  0.00     0.301 C 
HETATM    5  O4  UNL     1       1.514   0.212  -1.674  1.00  0.00    -0.341 OA
HETATM    6  C7  UNL     1       2.588  -0.244  -0.961  1.00  0.00     0.253 C 
HETATM    7  C9  UNL     1       2.269   0.177   0.468  1.00  0.00     0.182 C 
HETATM    8  C11 UNL     1      -0.653  -0.668  -1.067  1.00  0.00     0.209 C 
HETATM    9  O9  UNL     1      -0.995  -1.210  -2.114  1.00  0.00    -0.288 OA
ENDROOT
BRANCH   1  10
HETATM   10  C2  UNL     1      -2.542  -1.366   0.542  1.00  0.00     0.215 C 
BRANCH  10  11
HETATM   11  C1  UNL     1      -3.651  -0.455   0.055  1.00  0.00     0.410 C 
BRANCH  11  12
HETATM   12  N1  UNL     1      -3.590   0.863   0.625  1.00  0.00    -0.048 N 
ATOM     13  H13 UNL     1      -2.824   1.409   0.230  1.00  0.00     0.276 HD
ATOM     14  H12 UNL     1      -4.369   1.443   0.315  1.00  0.00     0.276 HD
ATOM     15  H11 UNL     1      -3.535   0.819   1.643  1.00  0.00     0.276 HD
ENDBRANCH  11  12
BRANCH  11  16
HETATM   16  N2  UNL     1      -3.728  -0.393  -1.370  1.00  0.00    -0.048 N 
ATOM     17  H23 UNL     1      -4.507   0.187  -1.680  1.00  0.00     0.276 HD
ATOM     18  H22 UNL     1      -2.962   0.153  -1.765  1.00  0.00     0.276 HD
ATOM     19  H21 UNL     1      -3.771  -1.328  -1.775  1.00  0.00     0.276 HD
ENDBRANCH  11  16
ENDBRANCH  10  11
BRANCH  10  20
HETATM   20  O1  UNL     1      -2.752  -2.594  -0.123  1.00  0.00    -0.387 OA
ATOM     21  H1  UNL     1      -2.057  -3.165   0.182  1.00  0.00     0.210 HD
ENDBRANCH  10  20
ENDBRANCH   1  10
BRANCH   2  22
HETATM   22  C5  UNL     1      -0.406  -0.470   2.653  1.00  0.00     0.227 C 
HETATM   23  O2  UNL     1       0.594  -0.064   3.321  1.00  0.00    -0.643 OA
HETATM   24  O3  UNL     1      -1.493  -0.864   3.383  1.00  0.00    -0.643 OA
ENDBRANCH   2  22
BRANCH   7  25
HETATM   25  C10 UNL     1       2.541   1.633   0.714  1.00  0.00     0.279 C 
BRANCH  25  26
HETATM   26  O7  UNL     1       2.017   2.499  -0.205  1.00  0.00    -0.369 OA
ATOM     27  H7  UNL     1       2.189   3.420  -0.049  1.00  0.00     0.212 HD
ENDBRANCH  25  26
BRANCH  25  28
HETATM   28  O8  UNL     1       3.902   1.833   0.821  1.00  0.00    -0.369 OA
ATOM     29  H8  UNL     1       4.074   2.754   0.977  1.00  0.00     0.212 HD
ENDBRANCH  25  28
ENDBRANCH   7  25
BRANCH   6  30
HETATM   30  C8  UNL     1       3.890   0.185  -1.444  1.00  0.00     0.205 C 
HETATM   31  O5  UNL     1       4.020   0.941  -2.437  1.00  0.00    -0.646 OA
HETATM   32  O6  UNL     1       5.044  -0.237  -0.807  1.00  0.00    -0.646 OA
ENDBRANCH   6  30
TORSDOF 10
