REMARK  1 active torsions:
REMARK  status: ('A' for Active; 'I' for Inactive)
REMARK       I    between atoms: N1_2  and  C2_4 
REMARK       I    between atoms: C2_4  and  N3_8 
REMARK    1  A    between atoms: N3_8  and  C3_10 
ROOT
HETATM    1  C3  UNL     1       0.063  -0.311   0.372  1.00  0.00     0.050 C 
HETATM    2  C4  UNL     1      -0.795  -1.406   0.968  1.00  0.00     0.036 C 
HETATM    3  C5  UNL     1      -2.258  -1.181   0.753  1.00  0.00    -0.010 C 
HETATM    4  C6  UNL     1      -2.631   0.121   1.432  1.00  0.00     0.009 C 
HETATM    5  C7  UNL     1      -1.846   1.217   0.786  1.00  0.00    -0.010 C 
HETATM    6  C8  UNL     1      -2.091   1.344  -0.689  1.00  0.00     0.030 C 
HETATM    7  C9  UNL     1      -1.705   0.002  -1.322  1.00  0.00     0.040 C 
HETATM    8 CL1  UNL     1      -2.061   0.061  -3.063  1.00  0.00    -0.119 Cl
HETATM    9  C10 UNL     1      -2.606  -1.035  -0.710  1.00  0.00     0.030 C 
HETATM   10  C11 UNL     1      -0.244  -0.287  -1.118  1.00  0.00     0.057 C 
HETATM   11  C12 UNL     1      -0.376   0.990   1.001  1.00  0.00     0.036 C 
ENDROOT
BRANCH   1  12
HETATM   12  N3  UNL     1       1.442  -0.584   0.634  1.00  0.00    -0.217 N 
HETATM   13  C2  UNL     1       2.524   0.228   0.223  1.00  0.00     0.667 C 
HETATM   14  N1  UNL     1       3.456  -0.214  -0.751  1.00  0.00    -0.231 N 
HETATM   15  N2  UNL     1       2.693   1.400   0.728  1.00  0.00    -0.235 N 
HETATM   16  C1  UNL     1       4.897  -0.042  -0.602  1.00  0.00     0.165 C 
ATOM     17  H1  UNL     1       3.103  -0.672  -1.592  1.00  0.00     0.177 HD
ATOM     18  H22 UNL     1       3.474   1.986   0.431  1.00  0.00     0.174 HD
ATOM     19  H21 UNL     1       2.023   1.718   1.428  1.00  0.00     0.174 HD
ATOM     20  H3  UNL     1       1.662  -1.431   1.158  1.00  0.00     0.178 HD
ENDBRANCH   1  12
TORSDOF 1
