REMARK  6 active torsions:
REMARK  status: ('A' for Active; 'I' for Inactive)
REMARK    1  A    between atoms: C2_2  and  N1_3 
REMARK    2  A    between atoms: N1_3  and  C3_5 
REMARK    3  A    between atoms: C5_9  and  S1_10 
REMARK    4  A    between atoms: S1_10  and  C6_12 
REMARK    5  A    between atoms: C8_19  and  C9_20 
REMARK    6  A    between atoms: C9_20  and  C10_21 
ROOT
HETATM    1  C3  UNL     1      -4.118   0.004  -0.222  1.00  0.00     0.226 A 
HETATM    2  N2  UNL     1      -2.780  -0.113  -0.434  1.00  0.00    -0.319 N 
ATOM      3  H2  UNL     1      -2.410   0.135  -1.351  1.00  0.00     0.169 HD
HETATM    4  C4  UNL     1      -1.924  -0.540   0.507  1.00  0.00     0.086 A 
HETATM    5  C5  UNL     1      -0.565  -0.634   0.225  1.00  0.00     0.135 A 
HETATM    6  N5  UNL     1       0.232  -1.062   1.207  1.00  0.00    -0.356 N 
ATOM      7  H5  UNL     1       1.233  -1.141   1.028  1.00  0.00     0.166 HD
HETATM    8  C14 UNL     1      -0.240  -1.396   2.433  1.00  0.00     0.090 A 
HETATM    9  C15 UNL     1      -1.588  -1.299   2.703  1.00  0.00     0.034 A 
HETATM   10  C16 UNL     1      -2.445  -0.866   1.730  1.00  0.00     0.041 A 
HETATM   11  C17 UNL     1      -3.817  -0.746   1.951  1.00  0.00     0.161 A 
HETATM   12 CL1  UNL     1      -4.442  -1.168   3.510  1.00  0.00    -0.055 Cl
HETATM   13  O3  UNL     1      -4.580  -0.317   0.961  1.00  0.00    -0.266 OA
ENDROOT
BRANCH   5  14
HETATM   14  S1  UNL     1      -0.042  -0.202  -1.383  1.00  0.00     0.123 S 
HETATM   15  O1  UNL     1       0.114   1.442  -1.530  1.00  0.00    -0.244 OA
BRANCH  14  16
HETATM   16  C6  UNL     1       1.428  -1.064  -1.710  1.00  0.00     0.134 A 
HETATM   17  N3  UNL     1       1.443  -2.361  -2.068  1.00  0.00    -0.299 N 
HETATM   18  C7  UNL     1       2.713  -2.749  -2.271  1.00  0.00     0.325 A 
ATOM     19  H3  UNL     1       0.620  -2.955  -2.169  1.00  0.00     0.171 HD
HETATM   20  O2  UNL     1       3.055  -3.925  -2.620  1.00  0.00    -0.247 OA
HETATM   21  N4  UNL     1       3.485  -1.688  -2.038  1.00  0.00    -0.309 N 
HETATM   22  C8  UNL     1       2.714  -0.623  -1.687  1.00  0.00     0.053 A 
ATOM     23  H4  UNL     1       4.502  -1.676  -2.112  1.00  0.00     0.170 HD
BRANCH  22  24
HETATM   24  C9  UNL     1       3.218   0.686  -1.371  1.00  0.00     0.087 C 
BRANCH  24  25
HETATM   25  C10 UNL     1       3.263   0.996   0.081  1.00  0.00    -0.019 C 
HETATM   26  C11 UNL     1       4.402   1.287   0.719  1.00  0.00    -0.091 C 
HETATM   27  C12 UNL     1       5.655   1.296  -0.072  1.00  0.00     0.042 C 
HETATM   28  C13 UNL     1       4.410   1.587   2.175  1.00  0.00     0.042 C 
ENDBRANCH  24  25
ENDBRANCH  22  24
ENDBRANCH  14  16
ENDBRANCH   5  14
BRANCH   1  29
HETATM   29  N1  UNL     1      -4.837   0.425  -1.204  1.00  0.00    -0.356 N 
ATOM     30  H1  UNL     1      -4.414   0.659  -2.102  1.00  0.00     0.163 HD
BRANCH  29  31
HETATM   31  C2  UNL     1      -6.265   0.557  -0.995  1.00  0.00     0.118 C 
HETATM   32  C1  UNL     1      -6.587   1.771  -0.114  1.00  0.00     0.026 C 
ENDBRANCH  29  31
ENDBRANCH   1  29
TORSDOF 6
