REMARK  5 active torsions:
REMARK  status: ('A' for Active; 'I' for Inactive)
REMARK    1  A    between atoms: N2_5  and  C4_6 
REMARK    2  A    between atoms: C4_6  and  C5_7 
REMARK    3  A    between atoms: C5_7  and  C6_8 
REMARK    4  A    between atoms: C9_11  and  C10_12 
REMARK    5  A    between atoms: C11_13  and  C12_14 
ROOT
HETATM    1  C10 UNL     1       2.812   1.629  -1.409  1.00  0.00     0.059 A 
HETATM    2  C11 UNL     1       3.991   1.125  -1.266  1.00  0.00     0.059 A 
HETATM    3  C18 UNL     1       4.959   2.034  -1.950  1.00  0.00     0.260 A 
HETATM    4  O1  UNL     1       6.200   1.845  -2.006  1.00  0.00    -0.267 OA
HETATM    5  N4  UNL     1       4.268   3.119  -2.513  1.00  0.00    -0.289 N 
ATOM      6  H4  UNL     1       4.662   3.898  -3.040  1.00  0.00     0.172 HD
HETATM    7  C19 UNL     1       2.919   2.902  -2.195  1.00  0.00     0.260 A 
HETATM    8  O2  UNL     1       1.946   3.655  -2.518  1.00  0.00    -0.267 OA
ENDROOT
BRANCH   1   9
HETATM    9  C9  UNL     1       1.504   1.175  -0.954  1.00  0.00    -0.019 A 
HETATM   10  C8  UNL     1       0.940   0.024  -1.311  1.00  0.00     0.013 A 
HETATM   11  C7  UNL     1      -0.297  -0.390  -0.824  1.00  0.00     0.008 A 
HETATM   12  C6  UNL     1      -0.963   0.414   0.054  1.00  0.00    -0.057 A 
HETATM   13  C21 UNL     1      -0.417   1.609   0.447  1.00  0.00     0.008 A 
HETATM   14  C20 UNL     1       0.808   1.991  -0.051  1.00  0.00     0.013 A 
BRANCH  12  15
HETATM   15  C5  UNL     1      -2.300  -0.037   0.580  1.00  0.00     0.058 C 
BRANCH  15  16
HETATM   16  C4  UNL     1      -3.394   0.477  -0.359  1.00  0.00     0.132 C 
BRANCH  16  17
HETATM   17  N2  UNL     1      -4.693   0.078   0.089  1.00  0.00    -0.366 N 
HETATM   18  C3  UNL     1      -5.254  -1.089  -0.315  1.00  0.00     0.092 A 
HETATM   19  C2  UNL     1      -6.519  -1.476   0.123  1.00  0.00     0.043 A 
HETATM   20  C1  UNL     1      -7.226  -0.678   0.977  1.00  0.00     0.049 A 
HETATM   21  N1  UNL     1      -8.517  -1.056   1.435  1.00  0.00    -0.102 NA
HETATM   22  C23 UNL     1      -6.650   0.506   1.385  1.00  0.00     0.043 A 
HETATM   23  C22 UNL     1      -5.381   0.875   0.934  1.00  0.00     0.092 A 
ENDBRANCH  16  17
ENDBRANCH  15  16
ENDBRANCH  12  15
ENDBRANCH   1   9
BRANCH   2  24
HETATM   24  C12 UNL     1       4.440  -0.097  -0.587  1.00  0.00    -0.016 A 
HETATM   25  C13 UNL     1       5.349   0.080   0.471  1.00  0.00     0.014 A 
HETATM   26  C14 UNL     1       5.892  -0.979   1.164  1.00  0.00     0.030 A 
HETATM   27  C15 UNL     1       5.561  -2.270   0.845  1.00  0.00     0.085 A 
HETATM   28  N3  UNL     1       6.106  -3.377   1.545  1.00  0.00    -0.099 NA
HETATM   29  C16 UNL     1       4.675  -2.464  -0.185  1.00  0.00     0.141 A 
HETATM   30  F1  UNL     1       4.313  -3.721  -0.543  1.00  0.00    -0.204 F 
HETATM   31  C17 UNL     1       4.133  -1.379  -0.880  1.00  0.00     0.056 A 
ENDBRANCH   2  24
TORSDOF 5
