REMARK  6 active torsions:
REMARK  status: ('A' for Active; 'I' for Inactive)
REMARK    1  A    between atoms: N1_1  and  C1_4 
REMARK    2  A    between atoms: C3_13  and  O2_14 
REMARK    3  A    between atoms: O2_14  and  S1_15 
REMARK    4  A    between atoms: S1_15  and  N5_16 
REMARK    5  A    between atoms: S1_15  and  N6_20 
REMARK    6  A    between atoms: N6_20  and  N7_22 
ROOT
HETATM    1  C1  UNL     1      -1.874  -0.890   0.269  1.00  0.00     0.157 A 
HETATM    2  N2  UNL     1      -3.015  -0.394   0.779  1.00  0.00    -0.290 N 
ATOM      3  H2  UNL     1      -3.666  -1.027   1.244  1.00  0.00     0.172 HD
HETATM    4  C2  UNL     1      -3.322   0.907   0.694  1.00  0.00     0.340 A 
HETATM    5  O1  UNL     1      -4.422   1.285   1.206  1.00  0.00    -0.245 OA
HETATM    6  N3  UNL     1      -2.483   1.739   0.092  1.00  0.00    -0.249 N 
ATOM      7  H3  UNL     1      -2.705   2.732   0.021  1.00  0.00     0.192 HD
HETATM    8  N4  UNL     1      -1.370   1.274  -0.409  1.00  0.00    -0.272 N 
ATOM      9  H4  UNL     1      -0.737   1.929  -0.868  1.00  0.00     0.189 HD
HETATM   10  C3  UNL     1      -1.016  -0.016  -0.352  1.00  0.00     0.219 A 
ENDROOT
BRANCH  10  11
HETATM   11  O2  UNL     1       0.178  -0.393  -0.912  1.00  0.00    -0.208 OA
BRANCH  11  12
HETATM   12  S1  UNL     1       1.670  -0.299  -0.110  1.00  0.00     0.253 S 
HETATM   13  O3  UNL     1       1.495  -0.018   1.350  1.00  0.00    -0.197 OA
BRANCH  12  14
HETATM   14  N5  UNL     1       2.554  -1.726  -0.421  1.00  0.00    -0.322 N 
ATOM     15  H52 UNL     1       2.225  -2.500  -0.998  1.00  0.00     0.169 HD
ATOM     16  H51 UNL     1       3.451  -1.669   0.061  1.00  0.00     0.169 HD
ENDBRANCH  12  14
BRANCH  12  17
HETATM   17  N6  UNL     1       2.512   0.907  -0.698  1.00  0.00    -0.228 N 
ATOM     18  H6  UNL     1       2.283   1.341  -1.592  1.00  0.00     0.200 HD
BRANCH  17  19
HETATM   19  N7  UNL     1       3.581   1.338   0.078  1.00  0.00    -0.335 N 
ATOM     20  H72 UNL     1       3.797   0.894   0.970  1.00  0.00     0.177 HD
ATOM     21  H71 UNL     1       4.123   2.115  -0.301  1.00  0.00     0.177 HD
ENDBRANCH  17  19
ENDBRANCH  12  17
ENDBRANCH  11  12
ENDBRANCH  10  11
BRANCH   1  22
HETATM   22  N1  UNL     1      -1.585  -2.128   0.354  1.00  0.00    -0.382 N 
ATOM     23  H12 UNL     1      -2.222  -2.777   0.815  1.00  0.00     0.157 HD
ATOM     24  H11 UNL     1      -0.719  -2.504  -0.033  1.00  0.00     0.157 HD
ENDBRANCH   1  22
TORSDOF 6
