REMARK  1 active torsions:
REMARK  status: ('A' for Active; 'I' for Inactive)
REMARK    1  A    between atoms: C2_2  and  C5_5 
ROOT
HETATM    1  C5  UNL     1       0.144  -0.282  -0.069  1.00  0.00     0.389 C 
HETATM    2  N1  UNL     1       0.796   0.189   1.134  1.00  0.00    -0.045 N 
ATOM      3  H11 UNL     1       0.331  -0.113   1.990  1.00  0.00     0.279 HD
ATOM      4  H12 UNL     1       0.695   1.193   1.282  1.00  0.00     0.279 HD
HETATM    5  C6  UNL     1       2.189  -0.246   1.048  1.00  0.00     0.236 C 
HETATM    6  C7  UNL     1       2.850   0.245  -0.221  1.00  0.00     0.055 C 
HETATM    7  C8  UNL     1       1.854   1.100  -0.977  1.00  0.00     0.236 C 
HETATM    8  N2  UNL     1       0.636   0.400  -1.249  1.00  0.00    -0.045 N 
ATOM      9  H21 UNL     1      -0.071   1.020  -1.645  1.00  0.00     0.279 HD
ATOM     10  H22 UNL     1       0.741  -0.241  -2.035  1.00  0.00     0.279 HD
ENDROOT
BRANCH   1  11
HETATM   11  C2  UNL     1      -1.355  -0.172   0.006  1.00  0.00     0.003 C 
HETATM   12  C1  UNL     1      -2.022  -0.668  -1.259  1.00  0.00     0.018 C 
HETATM   13  C3  UNL     1      -1.849   1.212   0.247  1.00  0.00     0.018 C 
HETATM   14  C4  UNL     1      -1.856  -1.046   1.154  1.00  0.00     0.018 C 
ENDBRANCH   1  11
TORSDOF 1
