REMARK  7 active torsions:
REMARK  status: ('A' for Active; 'I' for Inactive)
REMARK    1  A    between atoms: S1_2  and  C1_4 
REMARK    2  A    between atoms: S1_2  and  N1_12 
REMARK    3  A    between atoms: N1_12  and  C7_13 
REMARK    4  A    between atoms: N1_12  and  C13_26 
REMARK    5  A    between atoms: C9_15  and  O3_16 
REMARK    6  A    between atoms: C10_18  and  O4_19 
REMARK    7  A    between atoms: C11_21  and  O5_22 
ROOT
HETATM    1  N1  UNL     1      -0.537   0.189   0.487  1.00  0.00    -0.265 N 
ENDROOT
BRANCH   1   2
HETATM    2  S1  UNL     1      -1.512   1.614   0.562  1.00  0.00     0.265 S 
HETATM    3  O1  UNL     1      -2.943   1.183   0.851  1.00  0.00    -0.200 OA
HETATM    4  O2  UNL     1      -1.096   2.481   1.740  1.00  0.00    -0.200 OA
BRANCH   2   5
HETATM    5  C1  UNL     1      -1.457   2.595  -0.862  1.00  0.00     0.081 A 
HETATM    6  C2  UNL     1      -2.297   2.310  -1.915  1.00  0.00     0.027 A 
HETATM    7  C3  UNL     1      -2.296   3.084  -3.078  1.00  0.00     0.022 A 
HETATM    8  C4  UNL     1      -1.447   4.152  -3.185  1.00  0.00     0.032 A 
HETATM    9 BR1  UNL     1      -1.452   5.215  -4.792  1.00  0.00    -0.049 Br
HETATM   10  C5  UNL     1      -0.608   4.443  -2.142  1.00  0.00     0.052 A 
HETATM   11 CL1  UNL     1       0.482   5.805  -2.266  1.00  0.00    -0.083 Cl
HETATM   12  C6  UNL     1      -0.607   3.668  -0.976  1.00  0.00     0.050 A 
ENDBRANCH   2   5
ENDBRANCH   1   2
BRANCH   1  13
HETATM   13  C7  UNL     1       0.515  -0.046   1.412  1.00  0.00     0.073 A 
HETATM   14  C8  UNL     1       0.271  -0.729   2.608  1.00  0.00     0.071 A 
HETATM   15  C9  UNL     1       1.244  -0.992   3.553  1.00  0.00     0.103 A 
HETATM   16  C10 UNL     1       2.527  -0.572   3.332  1.00  0.00     0.134 A 
HETATM   17  C11 UNL     1       2.802   0.116   2.144  1.00  0.00     0.126 A 
HETATM   18  C12 UNL     1       1.813   0.360   1.228  1.00  0.00     0.097 A 
HETATM   19 CL2  UNL     1       2.303   1.260  -0.205  1.00  0.00    -0.079 Cl
BRANCH  15  20
HETATM   20  O3  UNL     1       0.889  -1.684   4.714  1.00  0.00    -0.358 OA
ATOM     21  H3  UNL     1       1.558  -1.865   5.364  1.00  0.00     0.217 HD
ENDBRANCH  15  20
BRANCH  16  22
HETATM   22  O4  UNL     1       3.549  -0.804   4.239  1.00  0.00    -0.356 OA
ATOM     23  H4  UNL     1       4.440  -0.512   4.086  1.00  0.00     0.218 HD
ENDBRANCH  16  22
BRANCH  17  24
HETATM   24  O5  UNL     1       4.112   0.526   1.954  1.00  0.00    -0.356 OA
ATOM     25  H5  UNL     1       4.299   0.993   1.148  1.00  0.00     0.218 HD
ENDBRANCH  17  24
ENDBRANCH   1  13
BRANCH   1  26
HETATM   26  C13 UNL     1      -0.836  -0.784  -0.528  1.00  0.00     0.102 C 
HETATM   27  C14 UNL     1       0.230  -1.060  -1.526  1.00  0.00     0.026 C 
HETATM   28  C15 UNL     1      -0.289  -2.211  -2.421  1.00  0.00     0.002 C 
HETATM   29  C16 UNL     1      -0.114  -3.463  -1.605  1.00  0.00     0.000 C 
HETATM   30  C17 UNL     1      -0.248  -3.137  -0.124  1.00  0.00     0.002 C 
HETATM   31  C18 UNL     1      -1.342  -2.105   0.007  1.00  0.00     0.026 C 
ENDBRANCH   1  26
TORSDOF 7
