REMARK  7 active torsions:
REMARK  status: ('A' for Active; 'I' for Inactive)
REMARK    1  A    between atoms: C6_11  and  C7_12 
REMARK    2  A    between atoms: C7_12  and  C8_13 
REMARK    3  A    between atoms: C8_13  and  C9_14 
REMARK    4  A    between atoms: C13_20  and  N4_21 
REMARK    5  A    between atoms: C16_28  and  N7_29 
REMARK    6  A    between atoms: C23_36  and  C24_37 
REMARK    7  A    between atoms: C24_37  and  C25_38 
ROOT
HETATM    1  C9  UNL     1       1.477  -1.704   0.255  1.00  0.00     0.041 A 
HETATM    2  C10 UNL     1       1.095  -2.976  -0.108  1.00  0.00     0.109 A 
HETATM    3  N3  UNL     1      -0.179  -3.330  -0.291  1.00  0.00    -0.364 N 
ATOM      4  H3  UNL     1      -0.412  -4.286  -0.560  1.00  0.00     0.165 HD
HETATM    5  C11 UNL     1      -1.141  -2.430  -0.121  1.00  0.00     0.045 A 
HETATM    6  C12 UNL     1      -2.466  -2.792  -0.319  1.00  0.00     0.064 A 
HETATM    7  C13 UNL     1      -3.473  -1.814  -0.144  1.00  0.00     0.086 A 
HETATM    8  C16 UNL     1      -3.148  -0.547   0.211  1.00  0.00     0.060 A 
HETATM    9  C21 UNL     1      -1.806  -0.185   0.412  1.00  0.00     0.046 A 
HETATM   10  C22 UNL     1      -0.812  -1.143   0.242  1.00  0.00     0.001 A 
HETATM   11  C23 UNL     1       0.515  -0.741   0.440  1.00  0.00    -0.021 A 
ENDROOT
BRANCH   1  12
HETATM   12  C8  UNL     1       2.871  -1.388   0.496  1.00  0.00    -0.059 C 
BRANCH  12  13
HETATM   13  C7  UNL     1       4.050  -1.142   0.683  1.00  0.00    -0.059 C 
BRANCH  13  14
HETATM   14  C6  UNL     1       5.444  -0.882   0.896  1.00  0.00     0.040 A 
HETATM   15  C2  UNL     1       6.092   0.081   0.162  1.00  0.00     0.025 A 
HETATM   16  C1  UNL     1       5.321   0.866  -0.871  1.00  0.00     0.070 C 
HETATM   17  N1  UNL     1       7.394   0.357   0.326  1.00  0.00    -0.345 N 
HETATM   18  C3  UNL     1       8.107  -0.321   1.235  1.00  0.00     0.098 A 
ATOM     19  H1  UNL     1       7.839   1.080  -0.239  1.00  0.00     0.167 HD
HETATM   20  N2  UNL     1       9.384  -0.034   1.378  1.00  0.00    -0.385 N 
HETATM   21  C4  UNL     1       7.544  -1.299   2.011  1.00  0.00     0.049 A 
ATOM     22  H22 UNL     1       9.803   0.694   0.800  1.00  0.00     0.157 HD
ATOM     23  H21 UNL     1       9.927  -0.550   2.070  1.00  0.00     0.157 HD
HETATM   24  C5  UNL     1       6.206  -1.580   1.840  1.00  0.00     0.026 A 
ENDBRANCH  13  14
ENDBRANCH  12  13
ENDBRANCH   1  12
BRANCH  11  25
HETATM   25  C24 UNL     1       0.874   0.642   0.759  1.00  0.00     0.079 C 
BRANCH  25  26
HETATM   26  C25 UNL     1       1.028   1.540  -0.414  1.00  0.00    -0.051 A 
HETATM   27  C26 UNL     1       0.603   2.874  -0.239  1.00  0.00     0.011 A 
HETATM   28  C27 UNL     1       0.689   3.748  -1.287  1.00  0.00     0.046 A 
HETATM   29  C28 UNL     1       1.186   3.313  -2.489  1.00  0.00     0.154 A 
HETATM   30  F1  UNL     1       1.276   4.173  -3.538  1.00  0.00    -0.203 F 
HETATM   31  C29 UNL     1       1.605   2.022  -2.682  1.00  0.00     0.155 A 
HETATM   32  F2  UNL     1       2.101   1.604  -3.890  1.00  0.00    -0.203 F 
HETATM   33  C30 UNL     1       1.514   1.144  -1.613  1.00  0.00     0.053 A 
ENDBRANCH  25  26
ENDBRANCH  11  25
BRANCH   8  34
HETATM   34  N7  UNL     1      -4.101   0.467   0.367  1.00  0.00    -0.379 N 
HETATM   35  C17 UNL     1      -4.839   1.110  -0.696  1.00  0.00     0.123 C 
HETATM   36  C18 UNL     1      -6.234   1.211  -0.143  1.00  0.00     0.021 C 
HETATM   37  C19 UNL     1      -6.019   1.312   1.342  1.00  0.00     0.021 C 
HETATM   38  C20 UNL     1      -4.561   1.120   1.591  1.00  0.00     0.123 C 
ENDBRANCH   8  34
BRANCH   7  39
HETATM   39  N4  UNL     1      -4.813  -2.196  -0.328  1.00  0.00    -0.249 N 
HETATM   40  C14 UNL     1      -5.671  -2.504   0.639  1.00  0.00     0.208 A 
HETATM   41  N5  UNL     1      -6.846  -2.841   0.081  1.00  0.00    -0.346 N 
HETATM   42  C15 UNL     1      -6.719  -2.742  -1.258  1.00  0.00     0.199 A 
ATOM     43  H5  UNL     1      -7.688  -3.123   0.583  1.00  0.00     0.167 HD
HETATM   44  N6  UNL     1      -5.442  -2.339  -1.467  1.00  0.00    -0.288 N 
ATOM     45  H6  UNL     1      -5.029  -2.171  -2.384  1.00  0.00     0.188 HD
ENDBRANCH   7  39
TORSDOF 7
