REMARK  0 active torsions:
REMARK  status: ('A' for Active; 'I' for Inactive)
REMARK       I    between atoms: C2_2  and  N1_4 
REMARK       I    between atoms: N2_8  and  C6_9 
REMARK       I    between atoms: C6_9  and  N4_13 
ROOT
HETATM    1  C1  UNL     1      -4.272  -0.478  -0.840  1.00  0.00     0.117 C 
HETATM    2  C2  UNL     1      -2.853  -0.830  -1.060  1.00  0.00     0.217 C 
HETATM    3  O1  UNL     1      -2.595  -1.895  -1.657  1.00  0.00    -0.274 OA
HETATM    4  N1  UNL     1      -1.815   0.012  -0.607  1.00  0.00    -0.336 N 
HETATM    5  C3  UNL     1      -2.156   1.216   0.070  1.00  0.00     0.129 C 
HETATM    6  C4  UNL     1      -1.012   2.063   0.501  1.00  0.00     0.040 C 
HETATM    7  C5  UNL     1       0.232   1.327   0.871  1.00  0.00     0.144 C 
HETATM    8  N2  UNL     1       0.330   0.007   0.302  1.00  0.00    -0.202 N 
HETATM    9  C6  UNL     1       1.233  -0.900   0.923  1.00  0.00     0.677 C 
HETATM   10  N3  UNL     1       1.077  -1.212   2.165  1.00  0.00    -0.234 N 
ATOM     11  H31 UNL     1       1.724  -1.862   2.610  1.00  0.00     0.174 HD
ATOM     12  H32 UNL     1       0.295  -0.784   2.660  1.00  0.00     0.174 HD
HETATM   13  N4  UNL     1       2.325  -1.498   0.232  1.00  0.00    -0.166 N 
ATOM     14  H4  UNL     1       2.191  -2.421  -0.182  1.00  0.00     0.186 HD
HETATM   15  C7  UNL     1       3.477  -0.928   0.104  1.00  0.00     0.215 C 
HETATM   16  N5  UNL     1       4.474  -1.645  -0.612  1.00  0.00    -0.066 NA
HETATM   17  N6  UNL     1       3.770   0.354   0.639  1.00  0.00    -0.066 NA
HETATM   18  C8  UNL     1      -0.453  -0.372  -0.844  1.00  0.00     0.270 C 
ENDROOT
TORSDOF 0
