REMARK  16 active torsions:
REMARK  status: ('A' for Active; 'I' for Inactive)
REMARK    1  A    between atoms: C2_2  and  C3_3 
REMARK    2  A    between atoms: C2_2  and  C13_17 
REMARK    3  A    between atoms: C3_3  and  C4_4 
REMARK    4  A    between atoms: C4_4  and  C5_5 
REMARK    5  A    between atoms: C5_5  and  C6_6 
REMARK    6  A    between atoms: C6_6  and  O1_7 
REMARK    7  A    between atoms: O1_7  and  C7_8 
REMARK    8  A    between atoms: C7_8  and  C8_10 
REMARK    9  A    between atoms: C9_11  and  C10_12 
REMARK   10  A    between atoms: C11_13  and  C12_14 
REMARK   11  A    between atoms: C16_20  and  O5_21 
REMARK   12  A    between atoms: O5_21  and  C17_22 
REMARK   13  A    between atoms: C17_22  and  C18_24 
REMARK   14  A    between atoms: C18_24  and  C19_25 
REMARK   15  A    between atoms: C20_26  and  C22_28 
REMARK   16  A    between atoms: C23_29  and  C24_30 
ROOT
HETATM    1  C13 UNL     1      -1.211   0.264  -1.416  1.00  0.00     0.150 C 
HETATM    2  C14 UNL     1      -0.000   0.742  -0.691  1.00  0.00     0.046 C 
HETATM    3  C15 UNL     1       0.979  -0.382  -1.068  1.00  0.00     0.047 C 
HETATM    4  C16 UNL     1       2.394  -0.026  -0.857  1.00  0.00     0.139 C 
HETATM    5  C27 UNL     1       3.263  -0.171  -2.078  1.00  0.00     0.037 C 
HETATM    6  C28 UNL     1       2.699   0.469  -3.300  1.00  0.00    -0.014 C 
HETATM    7  C29 UNL     1       3.119   1.942  -3.398  1.00  0.00     0.010 C 
HETATM    8  C30 UNL     1       1.231   0.310  -3.476  1.00  0.00     0.037 C 
HETATM    9  C31 UNL     1       0.574  -0.603  -2.489  1.00  0.00     0.129 C 
HETATM   10  O7  UNL     1      -0.783  -0.415  -2.544  1.00  0.00    -0.376 OA
ENDROOT
BRANCH   1  11
HETATM   11  C2  UNL     1      -2.246   1.274  -1.639  1.00  0.00    -0.061 C 
HETATM   12  C1  UNL     1      -2.087   2.506  -1.187  1.00  0.00     0.017 C 
BRANCH  11  13
HETATM   13  C3  UNL     1      -3.519   0.979  -2.370  1.00  0.00     0.036 C 
BRANCH  13  14
HETATM   14  C4  UNL     1      -4.317  -0.127  -1.664  1.00  0.00     0.006 C 
BRANCH  14  15
HETATM   15  C5  UNL     1      -4.667   0.285  -0.278  1.00  0.00     0.027 C 
BRANCH  15  16
HETATM   16  C6  UNL     1      -5.397  -0.694   0.562  1.00  0.00     0.179 C 
BRANCH  16  17
HETATM   17  O1  UNL     1      -6.594  -1.126   0.133  1.00  0.00    -0.318 OA
BRANCH  17  18
HETATM   18  C7  UNL     1      -7.087  -1.940  -0.806  1.00  0.00     0.282 C 
HETATM   19  O2  UNL     1      -6.233  -2.552  -1.554  1.00  0.00    -0.260 OA
BRANCH  18  20
HETATM   20  C8  UNL     1      -8.495  -2.152  -1.006  1.00  0.00     0.082 C 
HETATM   21  C9  UNL     1      -9.473  -1.617  -0.345  1.00  0.00     0.006 C 
BRANCH  21  22
HETATM   22  C10 UNL     1      -9.434  -0.681   0.752  1.00  0.00     0.007 C 
HETATM   23  C11 UNL     1     -10.576  -0.244   1.304  1.00  0.00     0.084 C 
BRANCH  23  24
HETATM   24  C12 UNL     1     -10.532   0.691   2.400  1.00  0.00     0.198 C 
HETATM   25  O3  UNL     1      -9.414   1.102   2.845  1.00  0.00    -0.645 OA
HETATM   26  O4  UNL     1     -11.697   1.160   2.991  1.00  0.00    -0.645 OA
ENDBRANCH  23  24
ENDBRANCH  21  22
ENDBRANCH  18  20
ENDBRANCH  17  18
ENDBRANCH  16  17
ENDBRANCH  15  16
ENDBRANCH  14  15
ENDBRANCH  13  14
ENDBRANCH  11  13
ENDBRANCH   1  11
BRANCH   4  27
HETATM   27  O5  UNL     1       2.953  -0.900   0.125  1.00  0.00    -0.315 OA
BRANCH  27  28
HETATM   28  C17 UNL     1       3.500  -0.459   1.302  1.00  0.00     0.262 C 
HETATM   29  O6  UNL     1       3.511   0.773   1.530  1.00  0.00    -0.265 OA
BRANCH  28  30
HETATM   30  C18 UNL     1       4.053  -1.466   2.245  1.00  0.00     0.139 C 
BRANCH  30  31
HETATM   31  C19 UNL     1       5.510  -1.498   2.058  1.00  0.00    -0.001 C 
HETATM   32  C20 UNL     1       6.296  -1.212   3.074  1.00  0.00    -0.012 C 
HETATM   33  C21 UNL     1       5.710  -0.863   4.389  1.00  0.00     0.058 C 
BRANCH  32  34
HETATM   34  C22 UNL     1       7.710  -1.251   2.855  1.00  0.00    -0.072 C 
HETATM   35  C23 UNL     1       8.897  -1.280   2.650  1.00  0.00    -0.097 C 
BRANCH  35  36
HETATM   36  C24 UNL     1      10.346  -1.305   2.374  1.00  0.00     0.065 A 
HETATM   37  C25 UNL     1      11.198  -0.229   3.067  1.00  0.00     0.018 A 
HETATM   38  C26 UNL     1      10.908  -0.164   1.591  1.00  0.00     0.018 A 
ENDBRANCH  35  36
ENDBRANCH  32  34
ENDBRANCH  30  31
ENDBRANCH  28  30
ENDBRANCH  27  28
ENDBRANCH   4  27
TORSDOF 16
