REMARK  3 active torsions:
REMARK  status: ('A' for Active; 'I' for Inactive)
REMARK       I    between atoms: C2_2  and  N1_4 
REMARK    1  A    between atoms: N1_4  and  C3_6 
REMARK    2  A    between atoms: C10_15  and  C11_16 
REMARK    3  A    between atoms: C11_16  and  O2_17 
ROOT
HETATM    1  C3  UNL     1       0.301   0.588   0.710  1.00  0.00     0.105 C 
HETATM    2  N2  UNL     1       1.528   0.413   1.201  1.00  0.00    -0.348 N 
ATOM      3  H2  UNL     1       1.850   1.144   1.836  1.00  0.00     0.167 HD
HETATM    4  C4  UNL     1       2.436  -0.619   0.976  1.00  0.00     0.012 C 
HETATM    5  C5  UNL     1       3.778  -0.727   1.597  1.00  0.00     0.068 C 
HETATM    6  C6  UNL     1       2.064  -1.577   0.143  1.00  0.00    -0.042 C 
HETATM    7  C7  UNL     1       2.967  -2.700  -0.123  1.00  0.00     0.050 C 
HETATM    8  C8  UNL     1       0.855  -1.432  -0.585  1.00  0.00     0.008 C 
HETATM    9  C9  UNL     1      -0.248  -0.478  -0.083  1.00  0.00     0.110 C 
HETATM   10  C10 UNL     1      -1.015  -0.252  -1.314  1.00  0.00     0.001 C 
HETATM   11  C12 UNL     1      -2.445  -0.522  -1.266  1.00  0.00     0.087 C 
HETATM   12  N3  UNL     1      -3.409  -0.046  -1.984  1.00  0.00    -0.287 N 
ATOM     13  H3  UNL     1      -3.224   0.632  -2.723  1.00  0.00     0.178 HD
HETATM   14  C13 UNL     1      -4.707  -0.482  -1.724  1.00  0.00     0.182 C 
HETATM   15  N4  UNL     1      -5.789  -0.851  -1.487  1.00  0.00    -0.172 NA
HETATM   16  S1  UNL     1      -2.631  -1.710   0.044  1.00  0.00    -0.067 SA
HETATM   17  C14 UNL     1      -1.061  -1.390   0.859  1.00  0.00     0.189 C 
HETATM   18 CL1  UNL     1      -0.202  -2.919   1.189  1.00  0.00    -0.087 Cl
HETATM   19 CL2  UNL     1      -1.453  -0.579   2.393  1.00  0.00    -0.087 Cl
ENDROOT
BRANCH  10  20
HETATM   20  C11 UNL     1      -0.584   0.868  -2.207  1.00  0.00     0.203 C 
BRANCH  20  21
HETATM   21  O2  UNL     1      -1.481   0.859  -3.305  1.00  0.00    -0.397 OA
ATOM     22  H2  UNL     1      -1.207   1.570  -3.872  1.00  0.00     0.209 HD
ENDBRANCH  20  21
ENDBRANCH  10  20
BRANCH   1  23
HETATM   23  N1  UNL     1      -0.213   1.796   1.223  1.00  0.00    -0.316 N 
HETATM   24  C2  UNL     1      -1.369   2.487   1.101  1.00  0.00     0.218 C 
HETATM   25  C1  UNL     1      -1.530   3.831   1.869  1.00  0.00     0.117 C 
HETATM   26  O1  UNL     1      -2.380   2.249   0.465  1.00  0.00    -0.274 OA
ATOM     27  H1  UNL     1       0.451   2.265   1.839  1.00  0.00     0.170 HD
ENDBRANCH   1  23
TORSDOF 3
