REMARK  14 active torsions:
REMARK  status: ('A' for Active; 'I' for Inactive)
REMARK    1  A    between atoms: C2_2  and  O1_4 
REMARK    2  A    between atoms: O1_4  and  C4_5 
REMARK    3  A    between atoms: C4_5  and  C5_7 
REMARK    4  A    between atoms: C7_9  and  O3_10 
REMARK    5  A    between atoms: O3_10  and  C8_11 
REMARK    6  A    between atoms: C8_11  and  C9_13 
REMARK    7  A    between atoms: C9_13  and  C10_14 
REMARK    8  A    between atoms: C15_19  and  C16_20 
REMARK    9  A    between atoms: C16_20  and  O5_21 
REMARK   10  A    between atoms: O5_21  and  C17_22 
REMARK   11  A    between atoms: C17_22  and  C18_24 
REMARK   12  A    between atoms: C22_28  and  O7_29 
REMARK   13  A    between atoms: C22_28  and  C23_31 
REMARK   14  A    between atoms: C23_31  and  C24_33 
ROOT
HETATM    1  C5  UNL     1      -2.156  -0.852   0.212  1.00  0.00     0.130 C 
HETATM    2  C6  UNL     1      -1.250   0.079   1.040  1.00  0.00     0.055 C 
HETATM    3  C7  UNL     1       0.017   0.361   0.244  1.00  0.00     0.161 C 
HETATM    4  C14 UNL     1       0.691  -0.946   0.098  1.00  0.00    -0.049 C 
HETATM    5  C15 UNL     1       1.808  -1.360   0.626  1.00  0.00     0.005 C 
HETATM    6  C21 UNL     1      -0.120  -1.892  -0.806  1.00  0.00     0.083 C 
HETATM    7  C22 UNL     1      -1.436  -2.138  -0.031  1.00  0.00     0.135 C 
ENDROOT
BRANCH   3   8
HETATM    8  O3  UNL     1       0.731   1.404   0.785  1.00  0.00    -0.311 OA
BRANCH   8   9
HETATM    9  C8  UNL     1       1.018   2.584   0.109  1.00  0.00     0.260 C 
HETATM   10  O4  UNL     1       0.584   2.670  -1.068  1.00  0.00    -0.265 OA
BRANCH   9  11
HETATM   11  C9  UNL     1       1.778   3.693   0.688  1.00  0.00     0.119 C 
BRANCH  11  12
HETATM   12  C10 UNL     1       1.907   4.810  -0.300  1.00  0.00    -0.043 C 
HETATM   13  C11 UNL     1       2.710   5.918   0.386  1.00  0.00     0.015 C 
HETATM   14  C12 UNL     1       2.636   4.428  -1.552  1.00  0.00     0.015 C 
HETATM   15  C13 UNL     1       0.566   5.390  -0.698  1.00  0.00     0.015 C 
ENDBRANCH  11  12
ENDBRANCH   9  11
ENDBRANCH   8   9
ENDBRANCH   3   8
BRANCH   1  16
HETATM   16  C4  UNL     1      -3.337  -1.067   1.060  1.00  0.00     0.266 C 
HETATM   17  O2  UNL     1      -3.615  -2.219   1.458  1.00  0.00    -0.265 OA
BRANCH  16  18
HETATM   18  O1  UNL     1      -4.181  -0.015   1.449  1.00  0.00    -0.316 OA
BRANCH  18  19
HETATM   19  C2  UNL     1      -5.291  -0.327   2.266  1.00  0.00     0.123 C 
HETATM   20  C1  UNL     1      -5.173   0.432   3.589  1.00  0.00     0.040 C 
HETATM   21  C3  UNL     1      -6.599   0.065   1.615  1.00  0.00     0.040 C 
ENDBRANCH  18  19
ENDBRANCH  16  18
ENDBRANCH   1  16
BRANCH   5  22
HETATM   22  C16 UNL     1       2.756  -0.698   1.521  1.00  0.00     0.206 C 
BRANCH  22  23
HETATM   23  O5  UNL     1       4.042  -0.590   0.964  1.00  0.00    -0.317 OA
BRANCH  23  24
HETATM   24  C17 UNL     1       4.845  -1.640   0.601  1.00  0.00     0.262 C 
HETATM   25  O6  UNL     1       4.419  -2.811   0.775  1.00  0.00    -0.265 OA
BRANCH  24  26
HETATM   26  C18 UNL     1       6.200  -1.456   0.009  1.00  0.00     0.077 C 
HETATM   27  C19 UNL     1       6.101  -0.665  -1.302  1.00  0.00     0.020 C 
HETATM   28  C20 UNL     1       7.164  -0.815   0.963  1.00  0.00     0.020 C 
ENDBRANCH  24  26
ENDBRANCH  23  24
ENDBRANCH  22  23
ENDBRANCH   5  22
BRANCH   7  29
HETATM   29  O7  UNL     1      -0.960  -2.527   1.248  1.00  0.00    -0.381 OA
ATOM     30  H7  UNL     1      -0.502  -3.345   1.093  1.00  0.00     0.211 HD
ENDBRANCH   7  29
BRANCH   7  31
HETATM   31  C23 UNL     1      -2.201  -3.220  -0.649  1.00  0.00     0.169 C 
HETATM   32  O8  UNL     1      -2.308  -4.269   0.027  1.00  0.00    -0.294 OA
BRANCH  31  33
HETATM   33  C24 UNL     1      -2.858  -3.244  -1.950  1.00  0.00     0.013 C 
HETATM   34  C25 UNL     1      -3.954  -2.253  -2.181  1.00  0.00     0.023 C 
HETATM   35  C26 UNL     1      -1.872  -3.056  -3.107  1.00  0.00     0.023 C 
HETATM   36  C27 UNL     1      -3.485  -4.620  -2.230  1.00  0.00     0.023 C 
ENDBRANCH  31  33
ENDBRANCH   7  31
TORSDOF 14
