REMARK  9 active torsions:
REMARK  status: ('A' for Active; 'I' for Inactive)
REMARK    1  A    between atoms: O1_2  and  C2_3 
REMARK    2  A    between atoms: C6_7  and  O2_8 
REMARK    3  A    between atoms: C8_10  and  O3_11 
REMARK    4  A    between atoms: C9_13  and  O4_14 
REMARK    5  A    between atoms: O4_14  and  C10_15 
REMARK    6  A    between atoms: C14_19  and  C15_20 
REMARK    7  A    between atoms: C19_27  and  O5_28 
REMARK    8  A    between atoms: C21_30  and  O6_31 
REMARK    9  A    between atoms: C23_33  and  O7_34 
ROOT
HETATM    1  C15 UNL     1       0.771  -2.614  -1.048  1.00  0.00     0.082 C 
HETATM    2  N1  UNL     1       1.373  -3.278  -0.149  1.00  0.00    -0.308 N 
ATOM      3  H1  UNL     1       1.461  -4.279  -0.323  1.00  0.00     0.177 HD
HETATM    4  C16 UNL     1       1.922  -2.827   1.028  1.00  0.00     0.181 C 
HETATM    5  N2  UNL     1       2.381  -2.473   2.010  1.00  0.00    -0.172 NA
ENDROOT
BRANCH   1   6
HETATM    6  C14 UNL     1       0.506  -1.179  -1.058  1.00  0.00     0.066 C 
HETATM    7  C13 UNL     1      -0.451  -0.635  -0.081  1.00  0.00     0.041 C 
HETATM    8  C9  UNL     1      -1.939  -0.784  -0.468  1.00  0.00     0.164 C 
HETATM    9  C27 UNL     1      -0.308   0.900  -0.234  1.00  0.00     0.032 C 
HETATM   10  C5  UNL     1      -2.513   0.392   0.219  1.00  0.00     0.014 A 
HETATM   11  C4  UNL     1      -1.558   1.392   0.294  1.00  0.00    -0.039 A 
HETATM   12  C6  UNL     1      -3.773   0.715   0.749  1.00  0.00     0.113 A 
HETATM   13  C3  UNL     1      -1.854   2.624   0.855  1.00  0.00     0.048 A 
HETATM   14  C2  UNL     1      -3.086   2.924   1.364  1.00  0.00     0.104 A 
HETATM   15  C8  UNL     1      -4.062   1.954   1.311  1.00  0.00     0.133 A 
HETATM   16  C26 UNL     1       0.888   1.240   0.647  1.00  0.00     0.052 C 
HETATM   17  C25 UNL     1       2.021   0.642  -0.120  1.00  0.00    -0.014 A 
HETATM   18  C17 UNL     1       1.830  -0.467  -0.905  1.00  0.00    -0.037 A 
HETATM   19  C23 UNL     1       3.251   1.239  -0.016  1.00  0.00     0.111 A 
HETATM   20  C18 UNL     1       2.926  -0.951  -1.583  1.00  0.00     0.048 A 
HETATM   21  C19 UNL     1       4.184  -0.390  -1.514  1.00  0.00     0.104 A 
HETATM   22  C21 UNL     1       4.349   0.729  -0.713  1.00  0.00     0.135 A 
BRANCH   8  23
HETATM   23  O4  UNL     1      -2.408  -1.943  -0.003  1.00  0.00    -0.376 OA
BRANCH  23  24
HETATM   24  C10 UNL     1      -2.675  -2.991  -0.811  1.00  0.00     0.114 C 
HETATM   25  C11 UNL     1      -4.214  -3.017  -1.081  1.00  0.00     0.039 C 
HETATM   26  C12 UNL     1      -2.375  -4.364  -0.343  1.00  0.00     0.039 C 
ENDBRANCH  23  24
ENDBRANCH   8  23
BRANCH  14  27
HETATM   27  O1  UNL     1      -3.427   4.143   1.934  1.00  0.00    -0.353 OA
HETATM   28  C1  UNL     1      -2.494   5.199   2.036  1.00  0.00     0.210 C 
ENDBRANCH  14  27
BRANCH  15  29
HETATM   29  O3  UNL     1      -5.328   2.215   1.817  1.00  0.00    -0.356 OA
ATOM     30  H3  UNL     1      -6.001   1.546   1.780  1.00  0.00     0.218 HD
ENDBRANCH  15  29
BRANCH  12  31
HETATM   31  O2  UNL     1      -4.835  -0.171   0.768  1.00  0.00    -0.352 OA
HETATM   32  C7  UNL     1      -4.952  -0.930   1.990  1.00  0.00     0.210 C 
ENDBRANCH  12  31
BRANCH  21  33
HETATM   33  O5  UNL     1       5.272  -0.910  -2.216  1.00  0.00    -0.353 OA
HETATM   34  C20 UNL     1       5.055  -2.053  -3.019  1.00  0.00     0.210 C 
ENDBRANCH  21  33
BRANCH  22  35
HETATM   35  O6  UNL     1       5.593   1.330  -0.609  1.00  0.00    -0.351 OA
HETATM   36  C22 UNL     1       6.491   0.911   0.399  1.00  0.00     0.210 C 
ENDBRANCH  22  35
BRANCH  19  37
HETATM   37  O7  UNL     1       3.483   2.359   0.767  1.00  0.00    -0.352 OA
HETATM   38  C24 UNL     1       3.357   3.680   0.304  1.00  0.00     0.210 C 
ENDBRANCH  19  37
ENDBRANCH   1   6
TORSDOF 9
