REMARK  5 active torsions:
REMARK  status: ('A' for Active; 'I' for Inactive)
REMARK    1  A    between atoms: C2_2  and  C4_4 
REMARK    2  A    between atoms: C4_4  and  C5_5 
REMARK    3  A    between atoms: C5_5  and  N1_6 
REMARK    4  A    between atoms: C14_15  and  N2_17 
REMARK    5  A    between atoms: N2_17  and  C16_19 
ROOT
HETATM    1  N1  UNL     1       1.690  -0.439   0.395  1.00  0.00     0.093 N 
HETATM    2  C6  UNL     1       1.565  -0.074   1.779  1.00  0.00     0.273 C 
HETATM    3  C7  UNL     1       1.165   1.378   1.963  1.00  0.00     0.031 C 
HETATM    4  C8  UNL     1      -0.066   1.730   1.183  1.00  0.00     0.009 C 
HETATM    5  C9  UNL     1      -0.553   0.472   0.498  1.00  0.00     0.025 C 
HETATM    6  C10 UNL     1       0.511  -0.114  -0.380  1.00  0.00     0.228 C 
HETATM    7  C11 UNL     1      -0.022  -1.256  -1.170  1.00  0.00     0.043 C 
HETATM    8  C12 UNL     1      -1.420  -1.644  -0.981  1.00  0.00     0.011 C 
HETATM    9  C13 UNL     1      -1.890  -2.339  -2.259  1.00  0.00     0.012 C 
HETATM   10  C14 UNL     1      -2.423  -0.558  -0.666  1.00  0.00     0.029 C 
HETATM   11  C15 UNL     1      -3.351  -0.331  -1.848  1.00  0.00     0.039 C 
HETATM   12  C19 UNL     1      -1.743   0.759  -0.403  1.00  0.00     0.015 C 
HETATM   13  C20 UNL     1      -1.365   1.498  -1.658  1.00  0.00     0.013 C 
ENDROOT
BRANCH  10  14
HETATM   14  N2  UNL     1      -3.242  -1.031   0.379  1.00  0.00    -0.409 N 
ATOM     15  H2  UNL     1      -3.300  -2.039   0.527  1.00  0.00     0.154 HD
BRANCH  14  16
HETATM   16  C16 UNL     1      -3.974  -0.202   1.218  1.00  0.00     0.069 C 
HETATM   17  C17 UNL     1      -5.063   0.639   0.587  1.00  0.00     0.031 C 
HETATM   18  C18 UNL     1      -4.742  -1.151   2.171  1.00  0.00     0.031 C 
ENDBRANCH  14  16
ENDBRANCH  10  14
BRANCH   1  19
HETATM   19  C5  UNL     1       2.869   0.109  -0.213  1.00  0.00     0.273 C 
BRANCH  19  20
HETATM   20  C4  UNL     1       4.156  -0.463   0.288  1.00  0.00     0.034 C 
BRANCH  20  21
HETATM   21  C2  UNL     1       5.279   0.245  -0.484  1.00  0.00    -0.021 C 
HETATM   22  C1  UNL     1       5.253   1.727  -0.252  1.00  0.00     0.009 C 
HETATM   23  C3  UNL     1       6.603  -0.311  -0.044  1.00  0.00     0.009 C 
ENDBRANCH  20  21
ENDBRANCH  19  20
ENDBRANCH   1  19
TORSDOF 5
