REMARK  4 active torsions:
REMARK  status: ('A' for Active; 'I' for Inactive)
REMARK    1  A    between atoms: C2_2  and  C3_3 
REMARK    2  A    between atoms: C3_3  and  C4_4 
REMARK    3  A    between atoms: C4_4  and  N1_5 
REMARK    4  A    between atoms: N1_5  and  C5_7 
ROOT
HETATM    1  C5  UNL     1       1.868   0.504   1.059  1.00  0.00     0.077 C 
HETATM    2  C6  UNL     1       1.599  -0.952   1.018  1.00  0.00     0.025 C 
HETATM    3  C7  UNL     1       0.286  -1.387   0.422  1.00  0.00     0.012 C 
HETATM    4  C8  UNL     1      -0.875  -0.478   0.856  1.00  0.00    -0.032 C 
HETATM    5  C9  UNL     1      -0.828  -0.658   2.380  1.00  0.00     0.016 C 
HETATM    6  C10 UNL     1      -0.439   0.897   0.426  1.00  0.00    -0.003 C 
HETATM    7  C11 UNL     1       0.652   1.368   1.329  1.00  0.00     0.030 C 
HETATM    8  C12 UNL     1      -1.563   1.861   0.277  1.00  0.00     0.011 C 
HETATM    9  C13 UNL     1      -2.798   1.351  -0.331  1.00  0.00    -0.006 C 
HETATM   10  C14 UNL     1      -3.927   1.439   0.642  1.00  0.00     0.005 C 
HETATM   11  C15 UNL     1      -3.953   0.386   1.700  1.00  0.00     0.001 C 
HETATM   12  C16 UNL     1      -3.296  -0.896   1.404  1.00  0.00     0.011 C 
HETATM   13  C17 UNL     1      -2.198  -0.887   0.335  1.00  0.00    -0.029 C 
HETATM   14  C18 UNL     1      -2.084  -2.333  -0.141  1.00  0.00     0.016 C 
HETATM   15  C19 UNL     1      -2.758  -0.087  -0.806  1.00  0.00    -0.036 C 
HETATM   16  C20 UNL     1      -1.972  -0.108  -2.088  1.00  0.00     0.016 C 
HETATM   17  C21 UNL     1      -4.129  -0.513  -1.201  1.00  0.00     0.016 C 
ENDROOT
BRANCH   1  18
HETATM   18  N1  UNL     1       2.657   1.031  -0.022  1.00  0.00    -0.417 N 
ATOM     19  H1  UNL     1       2.280   1.707  -0.687  1.00  0.00     0.153 HD
BRANCH  18  20
HETATM   20  C4  UNL     1       3.997   0.553  -0.109  1.00  0.00     0.114 C 
BRANCH  20  21
HETATM   21  C3  UNL     1       4.759   1.206  -1.258  1.00  0.00     0.019 C 
BRANCH  21  22
HETATM   22  C2  UNL     1       6.179   0.652  -1.276  1.00  0.00    -0.003 C 
HETATM   23  C1  UNL     1       6.196  -0.834  -1.472  1.00  0.00     0.005 C 
ENDBRANCH  21  22
ENDBRANCH  20  21
ENDBRANCH  18  20
ENDBRANCH   1  18
TORSDOF 4
