REMARK  4 active torsions:
REMARK  status: ('A' for Active; 'I' for Inactive)
REMARK    1  A    between atoms: N1_1  and  C1_5 
REMARK    2  A    between atoms: C1_5  and  C2_6 
REMARK    3  A    between atoms: C2_6  and  N2_7 
REMARK    4  A    between atoms: C5_11  and  C6_12 
ROOT
HETATM    1  N2  UNL     1      -2.114  -1.237   0.356  1.00  0.00    -0.375 N 
ATOM      2  H2  UNL     1      -1.800  -2.155   0.042  1.00  0.00     0.161 HD
HETATM    3  C3  UNL     1      -1.220  -0.327   0.459  1.00  0.00     0.103 A 
HETATM    4  C4  UNL     1       0.110  -0.602   0.151  1.00  0.00     0.078 A 
HETATM    5  C5  UNL     1       1.113   0.366   0.252  1.00  0.00     0.048 A 
HETATM    6  N4  UNL     1       0.766   1.599   0.662  1.00  0.00    -0.351 N 
ATOM      7  H4  UNL     1       1.472   2.330   0.747  1.00  0.00     0.166 HD
HETATM    8  C11 UNL     1      -0.530   1.862   0.961  1.00  0.00     0.182 A 
HETATM    9  N5  UNL     1      -1.480   0.926   0.860  1.00  0.00    -0.339 N 
ATOM     10  H5  UNL     1      -2.440   1.175   1.097  1.00  0.00     0.168 HD
ENDROOT
BRANCH   1  11
HETATM   11  C2  UNL     1      -3.497  -1.096   0.635  1.00  0.00     0.148 C 
BRANCH  11  12
HETATM   12  C1  UNL     1      -4.202  -0.071  -0.223  1.00  0.00     0.249 C 
BRANCH  12  13
HETATM   13  N1  UNL     1      -4.115  -0.402  -1.633  1.00  0.00    -0.078 N 
ATOM     14  H13 UNL     1      -3.146  -0.530  -1.926  1.00  0.00     0.274 HD
ATOM     15  H12 UNL     1      -4.462  -1.343  -1.816  1.00  0.00     0.274 HD
ATOM     16  H11 UNL     1      -4.591   0.290  -2.212  1.00  0.00     0.274 HD
ENDBRANCH  12  13
ENDBRANCH  11  12
ENDBRANCH   1  11
BRANCH   5  17
HETATM   17  C6  UNL     1       2.507   0.035  -0.083  1.00  0.00     0.006 A 
HETATM   18  C7  UNL     1       3.507   0.967   0.008  1.00  0.00     0.016 A 
HETATM   19  C8  UNL     1       4.846   0.690  -0.303  1.00  0.00     0.018 A 
HETATM   20  C9  UNL     1       5.138  -0.588  -0.716  1.00  0.00     0.087 A 
HETATM   21  N3  UNL     1       4.159  -1.507  -0.807  1.00  0.00    -0.374 N 
HETATM   22  C10 UNL     1       2.856  -1.218  -0.500  1.00  0.00     0.101 A 
ATOM     23  H3  UNL     1       4.395  -2.450  -1.115  1.00  0.00     0.164 HD
ENDBRANCH   5  17
TORSDOF 4
