REMARK  9 active torsions:
REMARK  status: ('A' for Active; 'I' for Inactive)
REMARK    1  A    between atoms: C3_3  and  O1_4 
REMARK    2  A    between atoms: C4_7  and  C5_8 
REMARK    3  A    between atoms: C5_8  and  C6_9 
REMARK       I    between atoms: C6_9  and  N1_11 
REMARK    4  A    between atoms: N1_11  and  C7_13 
REMARK    5  A    between atoms: C7_13  and  C8_14 
REMARK    6  A    between atoms: C8_14  and  C9_15 
REMARK    7  A    between atoms: C9_15  and  C10_16 
REMARK    8  A    between atoms: C13_23  and  N4_24 
REMARK    9  A    between atoms: C17_34  and  O4_35 
ROOT
HETATM    1  C10 UNL     1       2.258  -1.100   0.865  1.00  0.00     0.102 C 
HETATM    2  C11 UNL     1       2.711  -0.436   2.178  1.00  0.00     0.146 C 
HETATM    3  N2  UNL     1       3.909   0.302   2.019  1.00  0.00    -0.372 N 
ATOM      4  H2  UNL     1       4.515   0.438   2.829  1.00  0.00     0.161 HD
HETATM    5  C12 UNL     1       4.295   0.857   0.778  1.00  0.00     0.147 A 
HETATM    6  N3  UNL     1       5.450   1.541   0.634  1.00  0.00    -0.175 N 
ATOM      7  H3  UNL     1       6.080   1.671   1.426  1.00  0.00     0.186 HD
HETATM    8  C13 UNL     1       5.751   2.044  -0.567  1.00  0.00     0.678 A 
HETATM    9  N5  UNL     1       4.961   1.903  -1.642  1.00  0.00    -0.179 N 
ATOM     10  H5  UNL     1       5.230   2.304  -2.541  1.00  0.00     0.185 HD
HETATM   11  C14 UNL     1       3.796   1.217  -1.512  1.00  0.00     0.146 A 
HETATM   12  S1  UNL     1       2.800   1.003  -2.778  1.00  0.00    -0.057 SA
HETATM   13  C15 UNL     1       3.443   0.684  -0.305  1.00  0.00     0.114 A 
HETATM   14  N6  UNL     1       2.192  -0.052  -0.143  1.00  0.00    -0.373 N 
HETATM   15  C16 UNL     1       1.099   0.369  -0.928  1.00  0.00     0.150 C 
ENDROOT
BRANCH   1  16
HETATM   16  C9  UNL     1       1.067  -1.885   1.168  1.00  0.00     0.028 C 
BRANCH  16  17
HETATM   17  C8  UNL     1       0.418  -2.691   0.108  1.00  0.00     0.022 C 
BRANCH  17  18
HETATM   18  C7  UNL     1      -0.788  -3.457   0.594  1.00  0.00     0.122 C 
BRANCH  18  19
HETATM   19  N1  UNL     1      -1.762  -2.514   1.104  1.00  0.00    -0.361 N 
HETATM   20  C6  UNL     1      -2.381  -1.495   0.330  1.00  0.00     0.223 C 
HETATM   21  O3  UNL     1      -2.165  -1.292  -0.882  1.00  0.00    -0.273 OA
ATOM     22  H1  UNL     1      -2.022  -2.586   2.088  1.00  0.00     0.162 HD
BRANCH  20  23
HETATM   23  C5  UNL     1      -3.361  -0.596   1.000  1.00  0.00     0.170 C 
BRANCH  23  24
HETATM   24  C4  UNL     1      -3.897   0.394   0.053  1.00  0.00     0.098 A 
HETATM   25  O2  UNL     1      -3.541   1.659   0.009  1.00  0.00    -0.289 OA
HETATM   26  C3  UNL     1      -4.187   2.291  -0.935  1.00  0.00     0.192 A 
HETATM   27  C2  UNL     1      -5.020   1.381  -1.549  1.00  0.00     0.032 A 
HETATM   28  C1  UNL     1      -5.932   1.703  -2.682  1.00  0.00     0.056 C 
HETATM   29  C17 UNL     1      -4.848   0.160  -0.929  1.00  0.00     0.106 A 
BRANCH  26  30
HETATM   30  O1  UNL     1      -4.086   3.629  -1.291  1.00  0.00    -0.340 OA
ATOM     31  H1  UNL     1      -3.512   4.256  -0.868  1.00  0.00     0.220 HD
ENDBRANCH  26  30
BRANCH  29  32
HETATM   32  O4  UNL     1      -5.493  -1.022  -1.237  1.00  0.00    -0.357 OA
ATOM     33  H4  UNL     1      -5.375  -1.862  -0.810  1.00  0.00     0.217 HD
ENDBRANCH  29  32
ENDBRANCH  23  24
ENDBRANCH  20  23
ENDBRANCH  18  19
ENDBRANCH  17  18
ENDBRANCH  16  17
ENDBRANCH   1  16
BRANCH   8  34
HETATM   34  N4  UNL     1       6.854   2.694  -0.691  1.00  0.00    -0.234 N 
ATOM     35  H42 UNL     1       7.455   2.801   0.126  1.00  0.00     0.174 HD
ATOM     36  H41 UNL     1       7.084   3.078  -1.608  1.00  0.00     0.174 HD
ENDBRANCH   8  34
TORSDOF 9
