REMARK  10 active torsions:
REMARK  status: ('A' for Active; 'I' for Inactive)
REMARK    1  A    between atoms: C2_2  and  O1_4 
REMARK    2  A    between atoms: O1_4  and  C4_5 
REMARK    3  A    between atoms: C7_8  and  N1_9 
REMARK    4  A    between atoms: N1_9  and  C8_11 
REMARK    5  A    between atoms: C9_14  and  N3_15 
REMARK    6  A    between atoms: N3_15  and  C10_17 
REMARK    7  A    between atoms: C10_17  and  C11_18 
REMARK    8  A    between atoms: C11_18  and  C13_20 
REMARK    9  A    between atoms: C14_26  and  N5_27 
REMARK   10  A    between atoms: N5_27  and  C15_29 
ROOT
HETATM    1  C8  UNL     1       0.042  -1.829  -1.779  1.00  0.00     0.711 A 
HETATM    2  N2  UNL     1      -0.354  -0.830  -0.982  1.00  0.00    -0.021 N 
ATOM      3  H2  UNL     1       0.354  -0.174  -0.652  1.00  0.00     0.203 HD
HETATM    4  C9  UNL     1      -1.621  -0.635  -0.589  1.00  0.00     0.707 A 
HETATM    5  N4  UNL     1      -2.546  -1.527  -1.045  1.00  0.00    -0.021 N 
ATOM      6  H4  UNL     1      -3.522  -1.417  -0.770  1.00  0.00     0.203 HD
HETATM    7  C14 UNL     1      -2.202  -2.546  -1.847  1.00  0.00     0.712 A 
HETATM    8  N8  UNL     1      -0.895  -2.689  -2.210  1.00  0.00    -0.021 N 
ATOM      9  H8  UNL     1      -0.625  -3.462  -2.819  1.00  0.00     0.203 HD
ENDROOT
BRANCH   1  10
HETATM   10  N1  UNL     1       1.274  -1.932  -2.097  1.00  0.00    -0.191 N 
ATOM     11  H1  UNL     1       1.590  -2.688  -2.704  1.00  0.00     0.184 HD
BRANCH  10  12
HETATM   12  C7  UNL     1       2.197  -0.982  -1.595  1.00  0.00     0.049 A 
HETATM   13  C6  UNL     1       2.478   0.203  -2.236  1.00  0.00     0.033 A 
HETATM   14  C5  UNL     1       3.382   1.095  -1.707  1.00  0.00     0.039 A 
HETATM   15  C4  UNL     1       4.057   0.853  -0.506  1.00  0.00     0.069 A 
HETATM   16  C20 UNL     1       3.765  -0.332   0.116  1.00  0.00     0.039 A 
HETATM   17  C19 UNL     1       2.865  -1.232  -0.399  1.00  0.00     0.033 A 
BRANCH  15  18
HETATM   18  O1  UNL     1       4.934   1.806  -0.071  1.00  0.00    -0.347 OA
BRANCH  18  19
HETATM   19  C2  UNL     1       5.715   1.797   1.080  1.00  0.00     0.120 C 
HETATM   20  C1  UNL     1       7.183   1.963   0.785  1.00  0.00     0.040 C 
HETATM   21  C3  UNL     1       5.303   3.013   1.923  1.00  0.00     0.040 C 
ENDBRANCH  18  19
ENDBRANCH  15  18
ENDBRANCH  10  12
ENDBRANCH   1  10
BRANCH   4  22
HETATM   22  N3  UNL     1      -1.975   0.343   0.181  1.00  0.00    -0.224 N 
ATOM     23  H3  UNL     1      -2.950   0.456   0.458  1.00  0.00     0.177 HD
BRANCH  22  24
HETATM   24  C10 UNL     1      -0.976   1.266   0.640  1.00  0.00     0.151 C 
BRANCH  24  25
HETATM   25  C11 UNL     1      -1.579   2.471   1.330  1.00  0.00     0.107 C 
HETATM   26  C12 UNL     1      -0.414   3.355   1.760  1.00  0.00     0.021 C 
BRANCH  25  27
HETATM   27  C13 UNL     1      -2.328   2.091   2.586  1.00  0.00     0.392 C 
HETATM   28  F1  UNL     1      -2.830   3.268   3.124  1.00  0.00    -0.171 F 
HETATM   29  F2  UNL     1      -1.429   1.586   3.496  1.00  0.00    -0.171 F 
HETATM   30  F3  UNL     1      -3.364   1.238   2.338  1.00  0.00    -0.171 F 
ENDBRANCH  25  27
ENDBRANCH  24  25
ENDBRANCH  22  24
ENDBRANCH   4  22
BRANCH   7  31
HETATM   31  N5  UNL     1      -3.068  -3.394  -2.279  1.00  0.00    -0.188 N 
ATOM     32  H5  UNL     1      -2.786  -4.163  -2.887  1.00  0.00     0.184 HD
BRANCH  31  33
HETATM   33  C15 UNL     1      -4.439  -3.234  -1.887  1.00  0.00     0.083 A 
HETATM   34  C16 UNL     1      -5.449  -2.672  -2.627  1.00  0.00     0.138 A 
HETATM   35  N6  UNL     1      -6.545  -2.738  -1.858  1.00  0.00    -0.308 N 
HETATM   36  N7  UNL     1      -6.282  -3.301  -0.695  1.00  0.00    -0.306 N 
ATOM     37  H6  UNL     1      -7.465  -2.396  -2.137  1.00  0.00     0.186 HD
HETATM   38  C17 UNL     1      -7.244  -3.534   0.389  1.00  0.00     0.177 C 
HETATM   39  C18 UNL     1      -4.979  -3.619  -0.687  1.00  0.00     0.141 A 
ENDBRANCH  31  33
ENDBRANCH   7  31
TORSDOF 10
