REMARK  7 active torsions:
REMARK  status: ('A' for Active; 'I' for Inactive)
REMARK    1  A    between atoms: N1_2  and  C2_4 
REMARK    2  A    between atoms: C5_7  and  N2_8 
REMARK    3  A    between atoms: C6_10  and  C7_11 
REMARK    4  A    between atoms: C7_11  and  C8_13 
REMARK    5  A    between atoms: N3_14  and  C9_16 
REMARK    6  A    between atoms: N4_17  and  N5_18 
REMARK    7  A    between atoms: C10_20  and  C11_21 
ROOT
HETATM    1  C9  UNL     1      -2.780  -0.928  -0.257  1.00  0.00     0.235 C 
HETATM    2  N4  UNL     1      -2.901  -0.137   0.980  1.00  0.00    -0.239 N 
HETATM    3  C15 UNL     1      -3.939  -0.741   1.761  1.00  0.00     0.208 C 
HETATM    4  N6  UNL     1      -4.225  -0.309   3.110  1.00  0.00    -0.062 NA
HETATM    5  N7  UNL     1      -4.544  -1.673   1.117  1.00  0.00    -0.351 N 
ATOM      6  H7  UNL     1      -5.314  -2.232   1.484  1.00  0.00     0.163 HD
HETATM    7  C16 UNL     1      -3.976  -1.814  -0.202  1.00  0.00     0.065 C 
HETATM    8  C17 UNL     1      -3.619  -3.283  -0.371  1.00  0.00     0.042 C 
HETATM    9  C18 UNL     1      -4.978  -1.502  -1.302  1.00  0.00     0.042 C 
ENDROOT
BRANCH   1  10
HETATM   10  N3  UNL     1      -1.597  -1.707  -0.271  1.00  0.00    -0.377 N 
HETATM   11  C8  UNL     1      -0.432  -1.258  -0.505  1.00  0.00     0.079 C 
ATOM     12  H3  UNL     1      -1.688  -2.705  -0.078  1.00  0.00     0.160 HD
BRANCH  11  13
HETATM   13  C7  UNL     1       0.746  -2.147  -0.498  1.00  0.00     0.134 C 
HETATM   14  S1  UNL     1       0.660  -3.376   0.841  1.00  0.00    -0.081 SA
BRANCH  13  15
HETATM   15  C6  UNL     1       2.021  -1.364  -0.404  1.00  0.00     0.082 C 
HETATM   16  N2  UNL     1       3.157  -1.912  -0.263  1.00  0.00    -0.368 N 
ATOM     17  H2  UNL     1       3.222  -2.929  -0.210  1.00  0.00     0.165 HD
BRANCH  16  18
HETATM   18  C5  UNL     1       4.340  -1.128  -0.178  1.00  0.00     0.031 A 
HETATM   19  C4  UNL     1       5.345  -1.417   0.723  1.00  0.00     0.031 A 
HETATM   20  C3  UNL     1       6.484  -0.642   0.787  1.00  0.00     0.031 A 
HETATM   21  C2  UNL     1       6.684   0.454  -0.038  1.00  0.00     0.027 A 
HETATM   22  C20 UNL     1       5.676   0.736  -0.935  1.00  0.00     0.031 A 
HETATM   23  C19 UNL     1       4.536  -0.037  -1.002  1.00  0.00     0.031 A 
BRANCH  21  24
HETATM   24  N1  UNL     1       7.866   1.241   0.043  1.00  0.00    -0.394 N 
HETATM   25  C1  UNL     1       8.000   2.369  -0.853  1.00  0.00     0.146 C 
ATOM     26  H1  UNL     1       8.600   1.016   0.715  1.00  0.00     0.159 HD
ENDBRANCH  21  24
ENDBRANCH  16  18
ENDBRANCH  13  15
ENDBRANCH  11  13
ENDBRANCH   1  10
BRANCH   2  27
HETATM   27  N5  UNL     1      -2.171   0.959   1.360  1.00  0.00    -0.303 N 
HETATM   28  C10 UNL     1      -2.281   2.187   1.215  1.00  0.00     0.144 C 
ATOM     29  H5  UNL     1      -1.337   0.705   1.889  1.00  0.00     0.186 HD
BRANCH  28  30
HETATM   30  C11 UNL     1      -3.306   2.956   0.537  1.00  0.00     0.091 A 
HETATM   31  C12 UNL     1      -4.404   2.463  -0.106  1.00  0.00     0.040 A 
HETATM   32  C13 UNL     1      -5.125   3.555  -0.618  1.00  0.00     0.027 A 
HETATM   33  C14 UNL     1      -4.392   4.657  -0.237  1.00  0.00     0.142 A 
HETATM   34  O1  UNL     1      -3.355   4.274   0.423  1.00  0.00    -0.321 OA
ENDBRANCH  28  30
ENDBRANCH   2  27
TORSDOF 7
