REMARK  8 active torsions:
REMARK  status: ('A' for Active; 'I' for Inactive)
REMARK    1  A    between atoms: C2_3  and  C14_26 
REMARK    2  A    between atoms: N2_4  and  N3_6 
REMARK    3  A    between atoms: N3_6  and  C3_8 
REMARK    4  A    between atoms: C6_11  and  N4_12 
REMARK    5  A    between atoms: N4_12  and  C7_14 
REMARK    6  A    between atoms: C7_14  and  C8_19 
REMARK    7  A    between atoms: N5_15  and  O1_17 
REMARK    8  A    between atoms: C14_26  and  C15_28 
ROOT
HETATM    1  N1  UNL     1       3.424  -3.664  -2.186  1.00  0.00    -0.190 NA
HETATM    2  C1  UNL     1       3.678  -2.679  -1.629  1.00  0.00     0.123 C 
HETATM    3  C2  UNL     1       3.981  -1.456  -0.939  1.00  0.00     0.180 C 
HETATM    4  N2  UNL     1       3.210  -1.014  -0.010  1.00  0.00    -0.287 N 
ATOM      5  H2  UNL     1       3.435  -0.143   0.471  1.00  0.00     0.188 HD
ENDROOT
BRANCH   3   6
HETATM    6  C14 UNL     1       5.192  -0.736  -1.320  1.00  0.00     0.227 C 
HETATM    7  O3  UNL     1       5.948  -1.141  -2.213  1.00  0.00    -0.284 OA
BRANCH   6   8
HETATM    8  C15 UNL     1       5.536   0.514  -0.627  1.00  0.00     0.058 A 
HETATM    9  C16 UNL     1       6.615   1.336  -0.819  1.00  0.00     0.023 A 
HETATM   10  C17 UNL     1       6.699   2.424  -0.052  1.00  0.00     0.009 A 
HETATM   11  C18 UNL     1       5.707   2.636   0.867  1.00  0.00     0.050 A 
HETATM   12  S2  UNL     1       4.678   1.294   0.624  1.00  0.00    -0.098 SA
ENDBRANCH   6   8
ENDBRANCH   3   6
BRANCH   4  13
HETATM   13  N3  UNL     1       2.068  -1.728   0.336  1.00  0.00    -0.300 N 
ATOM     14  H3  UNL     1       2.148  -2.738   0.451  1.00  0.00     0.187 HD
BRANCH  13  15
HETATM   15  C3  UNL     1       0.797  -1.128   0.538  1.00  0.00     0.048 A 
HETATM   16  C4  UNL     1       0.431  -0.635   1.780  1.00  0.00     0.033 A 
HETATM   17  C5  UNL     1      -0.806  -0.059   1.976  1.00  0.00     0.032 A 
HETATM   18  C6  UNL     1      -1.729   0.048   0.941  1.00  0.00     0.033 A 
HETATM   19  C12 UNL     1      -1.376  -0.437  -0.293  1.00  0.00     0.032 A 
HETATM   20  C13 UNL     1      -0.131  -1.013  -0.476  1.00  0.00     0.033 A 
BRANCH  18  21
HETATM   21  N4  UNL     1      -2.995   0.642   1.165  1.00  0.00    -0.339 N 
ATOM     22  H4  UNL     1      -3.219   1.007   2.091  1.00  0.00     0.167 HD
BRANCH  21  23
HETATM   23  C7  UNL     1      -3.953   0.739   0.133  1.00  0.00     0.161 C 
HETATM   24  N5  UNL     1      -4.131   1.828  -0.515  1.00  0.00    -0.234 N 
ATOM     25  H5  UNL     1      -4.838   1.841  -1.250  1.00  0.00     0.197 HD
BRANCH  24  26
HETATM   26  O1  UNL     1      -3.427   2.974  -0.277  1.00  0.00    -0.189 OA
HETATM   27  S1  UNL     1      -4.197   4.510  -0.007  1.00  0.00     0.125 SA
ENDBRANCH  24  26
BRANCH  23  28
HETATM   28  C8  UNL     1      -4.785  -0.417  -0.232  1.00  0.00     0.120 A 
HETATM   29  C9  UNL     1      -6.087  -0.320  -0.720  1.00  0.00     0.043 A 
HETATM   30  C10 UNL     1      -6.549  -1.586  -0.950  1.00  0.00     0.027 A 
HETATM   31  C11 UNL     1      -5.503  -2.427  -0.592  1.00  0.00     0.142 A 
HETATM   32  O2  UNL     1      -4.513  -1.694  -0.187  1.00  0.00    -0.319 OA
ENDBRANCH  23  28
ENDBRANCH  21  23
ENDBRANCH  18  21
ENDBRANCH  13  15
ENDBRANCH   4  13
TORSDOF 8
