REMARK  10 active torsions:
REMARK  status: ('A' for Active; 'I' for Inactive)
REMARK    1  A    between atoms: C2_2  and  N1_3 
REMARK    2  A    between atoms: N1_3  and  C3_5 
REMARK    3  A    between atoms: C5_11  and  N4_12 
REMARK    4  A    between atoms: N4_12  and  C6_14 
REMARK    5  A    between atoms: C6_14  and  C7_15 
REMARK    6  A    between atoms: C6_14  and  C8_20 
REMARK    7  A    between atoms: C7_15  and  N5_16 
REMARK    8  A    between atoms: C8_20  and  C9_21 
REMARK    9  A    between atoms: C9_21  and  N6_22 
REMARK   10  A    between atoms: C13_30  and  N9_31 
ROOT
HETATM    1  C6  UNL     1       0.094   1.116   0.564  1.00  0.00     0.126 C 
ENDROOT
BRANCH   1   2
HETATM    2  N4  UNL     1      -1.073   0.518   0.073  1.00  0.00    -0.219 N 
ATOM      3  H4  UNL     1      -0.914  -0.041  -0.765  1.00  0.00     0.178 HD
BRANCH   2   4
HETATM    4  C5  UNL     1      -2.279   0.522   0.444  1.00  0.00     0.693 A 
HETATM    5  N3  UNL     1      -2.650   1.210   1.525  1.00  0.00    -0.187 N 
HETATM    6  C4  UNL     1      -3.932   1.222   1.930  1.00  0.00     0.215 A 
ATOM      7  H3  UNL     1      -1.951   1.734   2.052  1.00  0.00     0.185 HD
HETATM    8  N2  UNL     1      -4.837   0.518   1.213  1.00  0.00    -0.187 N 
HETATM    9  C3  UNL     1      -4.506  -0.187   0.120  1.00  0.00     0.693 A 
ATOM     10  H2  UNL     1      -5.811   0.523   1.515  1.00  0.00     0.185 HD
HETATM   11  N11 UNL     1      -3.218  -0.170  -0.247  1.00  0.00    -0.022 N 
ATOM     12  H11 UNL     1      -2.934  -0.695  -1.074  1.00  0.00     0.203 HD
BRANCH   9  13
HETATM   13  N1  UNL     1      -5.424  -0.828  -0.507  1.00  0.00    -0.226 N 
ATOM     14  H1  UNL     1      -5.143  -1.354  -1.335  1.00  0.00     0.177 HD
BRANCH  13  15
HETATM   15  C2  UNL     1      -6.801  -0.868  -0.146  1.00  0.00     0.133 C 
HETATM   16  C1  UNL     1      -7.601   0.284  -0.662  1.00  0.00     0.027 C 
ENDBRANCH  13  15
ENDBRANCH   9  13
ENDBRANCH   2   4
ENDBRANCH   1   2
BRANCH   1  17
HETATM   17  C7  UNL     1      -0.050   2.548   1.050  1.00  0.00     0.255 C 
BRANCH  17  18
HETATM   18  N5  UNL     1      -0.511   3.427  -0.004  1.00  0.00    -0.077 N 
ATOM     19  H53 UNL     1       0.092   3.372  -0.825  1.00  0.00     0.274 HD
ATOM     20  H52 UNL     1      -1.378   3.086  -0.420  1.00  0.00     0.274 HD
ATOM     21  H51 UNL     1      -0.608   4.389   0.322  1.00  0.00     0.274 HD
ENDBRANCH  17  18
ENDBRANCH   1  17
BRANCH   1  22
HETATM   22  C8  UNL     1       0.812   0.291   1.609  1.00  0.00     0.048 C 
BRANCH  22  23
HETATM   23  C9  UNL     1       1.306  -1.036   1.206  1.00  0.00     0.136 C 
BRANCH  23  24
HETATM   24  N6  UNL     1       2.342  -1.096   0.196  1.00  0.00    -0.293 N 
HETATM   25  C10 UNL     1       2.233  -1.166  -1.137  1.00  0.00     0.330 A 
HETATM   26  O1  UNL     1       1.164  -1.205  -1.790  1.00  0.00    -0.246 OA
HETATM   27  N7  UNL     1       3.423  -1.198  -1.741  1.00  0.00    -0.287 N 
HETATM   28  C11 UNL     1       3.710  -1.272  -3.181  1.00  0.00     0.163 C 
HETATM   29  C12 UNL     1       4.371  -1.150  -0.800  1.00  0.00     0.157 A 
HETATM   30  N8  UNL     1       5.688  -1.160  -0.830  1.00  0.00    -0.174 N 
HETATM   31  C15 UNL     1       3.695  -1.087   0.420  1.00  0.00     0.122 A 
HETATM   32  C13 UNL     1       6.457  -1.115   0.296  1.00  0.00     0.678 A 
ATOM     33  H8  UNL     1       6.154  -1.203  -1.736  1.00  0.00     0.186 HD
HETATM   34  N10 UNL     1       5.832  -1.056   1.512  1.00  0.00    -0.179 N 
HETATM   35  C14 UNL     1       4.486  -1.046   1.526  1.00  0.00     0.147 A 
ATOM     36  H10 UNL     1       6.368  -1.021   2.379  1.00  0.00     0.185 HD
HETATM   37  S1  UNL     1       3.773  -1.029   3.001  1.00  0.00    -0.057 SA
BRANCH  32  38
HETATM   38  N9  UNL     1       7.660  -1.127   0.236  1.00  0.00    -0.234 N 
ATOM     39  H92 UNL     1       8.126  -1.171  -0.670  1.00  0.00     0.174 HD
ATOM     40  H91 UNL     1       8.235  -1.093   1.078  1.00  0.00     0.174 HD
ENDBRANCH  32  38
ENDBRANCH  23  24
ENDBRANCH  22  23
ENDBRANCH   1  22
TORSDOF 10
