REMARK  17 active torsions:
REMARK  status: ('A' for Active; 'I' for Inactive)
REMARK    1  A    between atoms: N2_10  and  C9_11 
REMARK    2  A    between atoms: C9_11  and  O1_12 
REMARK    3  A    between atoms: C9_11  and  C10_14 
REMARK    4  A    between atoms: C12_17  and  C13_18 
REMARK    5  A    between atoms: C13_18  and  C14_19 
REMARK    6  A    between atoms: C14_19  and  C15_20 
REMARK    7  A    between atoms: C15_20  and  C16_21 
REMARK    8  A    between atoms: C16_21  and  C17_22 
REMARK    9  A    between atoms: N5_28  and  C19_30 
REMARK   10  A    between atoms: C19_30  and  O2_31 
REMARK   11  A    between atoms: C19_30  and  C20_33 
REMARK   12  A    between atoms: C20_33  and  N6_34 
REMARK   13  A    between atoms: C20_33  and  C21_38 
REMARK   14  A    between atoms: C21_38  and  C22_39 
REMARK   15  A    between atoms: C22_39  and  C23_40 
REMARK   16  A    between atoms: C23_40  and  C24_41 
REMARK   17  A    between atoms: C24_41  and  N7_42 
ROOT
HETATM    1  C17 UNL     1       3.397   1.032  -1.126  1.00  0.00     0.069 A 
HETATM    2  N3  UNL     1       3.684   2.273  -0.794  1.00  0.00    -0.296 N 
ATOM      3  H3  UNL     1       2.977   2.999  -0.912  1.00  0.00     0.187 HD
HETATM    4  N4  UNL     1       4.824   2.583  -0.330  1.00  0.00    -0.279 N 
ATOM      5  H4  UNL     1       5.036   3.548  -0.078  1.00  0.00     0.189 HD
HETATM    6  C18 UNL     1       5.739   1.626  -0.177  1.00  0.00     0.166 A 
HETATM    7  N5  UNL     1       6.980   1.723   0.271  1.00  0.00    -0.318 N 
ATOM      8  H5  UNL     1       7.389   2.610   0.565  1.00  0.00     0.169 HD
HETATM    9  S2  UNL     1       4.899   0.246  -0.731  1.00  0.00    -0.038 SA
ENDROOT
BRANCH   1  10
HETATM   10  C16 UNL     1       2.169   0.388  -1.697  1.00  0.00     0.066 C 
BRANCH  10  11
HETATM   11  C15 UNL     1       1.293  -0.119  -0.568  1.00  0.00     0.007 C 
BRANCH  11  12
HETATM   12  C14 UNL     1       0.095  -0.848  -1.115  1.00  0.00     0.005 C 
BRANCH  12  13
HETATM   13  C13 UNL     1      -0.827  -0.077  -1.966  1.00  0.00     0.046 C 
BRANCH  13  14
HETATM   14  C12 UNL     1      -1.518   1.035  -1.209  1.00  0.00    -0.017 A 
HETATM   15  S1  UNL     1      -1.064   2.627  -0.899  1.00  0.00    -0.105 SA
HETATM   16  C11 UNL     1      -2.419   3.156  -0.027  1.00  0.00     0.066 A 
HETATM   17  C10 UNL     1      -3.259   2.016   0.011  1.00  0.00     0.022 A 
HETATM   18  C25 UNL     1      -2.755   0.949  -0.606  1.00  0.00     0.030 A 
BRANCH  17  19
HETATM   19  C9  UNL     1      -4.507   2.126   0.774  1.00  0.00     0.149 C 
BRANCH  19  20
HETATM   20  N2  UNL     1      -5.661   1.343   0.679  1.00  0.00    -0.359 N 
HETATM   21  C8  UNL     1      -5.762   0.342  -0.340  1.00  0.00     0.160 C 
HETATM   22  C7  UNL     1      -7.237   0.118  -0.724  1.00  0.00     0.240 C 
HETATM   23  N1  UNL     1      -7.701  -1.122  -0.207  1.00  0.00     0.090 N 
HETATM   24  C6  UNL     1      -8.075   1.306  -0.609  1.00  0.00     0.038 C 
HETATM   25  C1  UNL     1      -7.265  -2.266  -1.014  1.00  0.00     0.310 C 
HETATM   26  C2  UNL     1      -9.100  -1.241   0.030  1.00  0.00     0.273 C 
HETATM   27  C3  UNL     1      -9.323  -0.900   1.494  1.00  0.00     0.035 C 
HETATM   28  C4  UNL     1      -8.776   0.496   1.685  1.00  0.00    -0.011 C 
HETATM   29  C5  UNL     1      -9.011   1.415   0.524  1.00  0.00     0.007 C 
HETATM   30  C27 UNL     1      -7.366   0.527   2.203  1.00  0.00     0.024 C 
HETATM   31  C26 UNL     1      -6.596   1.719   1.767  1.00  0.00     0.125 C 
ENDBRANCH  19  20
BRANCH  19  32
HETATM   32  O1  UNL     1      -4.581   3.078   1.673  1.00  0.00    -0.346 OA
ATOM     33  H1  UNL     1      -3.797   3.610   1.738  1.00  0.00     0.219 HD
ENDBRANCH  19  32
ENDBRANCH  17  19
ENDBRANCH  13  14
ENDBRANCH  12  13
ENDBRANCH  11  12
ENDBRANCH  10  11
ENDBRANCH   1  10
BRANCH   7  34
HETATM   34  C19 UNL     1       7.678   0.537   0.311  1.00  0.00     0.148 C 
BRANCH  34  35
HETATM   35  O2  UNL     1       7.134   0.283   1.827  1.00  0.00    -0.348 OA
ATOM     36  H2  UNL     1       7.616  -0.535   1.855  1.00  0.00     0.219 HD
ENDBRANCH  34  35
BRANCH  34  37
HETATM   37  C20 UNL     1       8.385  -0.663   0.352  1.00  0.00     0.257 C 
BRANCH  37  38
HETATM   38  N6  UNL     1       9.043  -0.950  -0.946  1.00  0.00    -0.068 N 
ATOM     39  H63 UNL     1       8.373  -0.937  -1.715  1.00  0.00     0.275 HD
ATOM     40  H62 UNL     1       9.638  -0.176  -1.242  1.00  0.00     0.275 HD
ATOM     41  H61 UNL     1       9.561  -1.828  -0.916  1.00  0.00     0.275 HD
ENDBRANCH  37  38
BRANCH  37  42
HETATM   42  C21 UNL     1       9.421  -0.760   1.461  1.00  0.00     0.041 C 
BRANCH  42  43
HETATM   43  C22 UNL     1      10.154  -2.026   1.571  1.00  0.00     0.004 C 
BRANCH  43  44
HETATM   44  C23 UNL     1      11.017  -2.504   0.476  1.00  0.00     0.027 C 
BRANCH  44  45
HETATM   45  C24 UNL     1      12.180  -1.643   0.108  1.00  0.00     0.229 C 
BRANCH  45  46
HETATM   46  N7  UNL     1      13.087  -1.460   1.244  1.00  0.00    -0.079 N 
ATOM     47  H73 UNL     1      12.596  -1.097   2.061  1.00  0.00     0.274 HD
ATOM     48  H72 UNL     1      13.390  -2.355   1.629  1.00  0.00     0.274 HD
ATOM     49  H71 UNL     1      13.882  -0.872   0.993  1.00  0.00     0.274 HD
ENDBRANCH  45  46
ENDBRANCH  44  45
ENDBRANCH  43  44
ENDBRANCH  42  43
ENDBRANCH  37  42
ENDBRANCH  34  37
ENDBRANCH   7  34
TORSDOF 17
