REMARK  5 active torsions:
REMARK  status: ('A' for Active; 'I' for Inactive)
REMARK    1  A    between atoms: C4_4  and  C5_5 
REMARK    2  A    between atoms: C6_6  and  C7_7 
REMARK       I    between atoms: C7_7  and  N1_9 
REMARK    3  A    between atoms: N1_9  and  C8_11 
REMARK    4  A    between atoms: C8_11  and  C10_13 
REMARK    5  A    between atoms: C10_13  and  C11_14 
ROOT
HETATM    1  C1  UNL     1      -5.518   3.176   0.580  1.00  0.00     0.068 C 
HETATM    2  C2  UNL     1      -5.107   1.742   0.390  1.00  0.00     0.006 A 
HETATM    3  C3  UNL     1      -3.775   1.375   0.313  1.00  0.00     0.047 A 
HETATM    4  C4  UNL     1      -3.378   0.078   0.141  1.00  0.00     0.042 A 
HETATM    5  C14 UNL     1      -4.342  -0.907   0.040  1.00  0.00     0.085 A 
HETATM    6  C15 UNL     1      -3.955  -2.290  -0.142  1.00  0.00     0.103 C 
HETATM    7  N2  UNL     1      -3.625  -3.397  -0.288  1.00  0.00    -0.191 NA
HETATM    8  C16 UNL     1      -5.668  -0.525   0.119  1.00  0.00     0.028 A 
HETATM    9  C17 UNL     1      -6.686  -1.612   0.006  1.00  0.00     0.070 C 
HETATM   10  N3  UNL     1      -6.028   0.766   0.289  1.00  0.00    -0.362 N 
ATOM     11  H3  UNL     1      -7.018   1.006   0.342  1.00  0.00     0.165 HD
ENDROOT
BRANCH   4  12
HETATM   12  C5  UNL     1      -1.985  -0.311   0.060  1.00  0.00    -0.055 C 
HETATM   13  C6  UNL     1      -0.818  -0.630   0.012  1.00  0.00    -0.000 C 
BRANCH  13  14
HETATM   14  C7  UNL     1       0.551  -1.025  -0.037  1.00  0.00     0.297 C 
HETATM   15  O1  UNL     1       0.867  -2.161   0.384  1.00  0.00    -0.258 OA
HETATM   16  N1  UNL     1       1.517  -0.138  -0.552  1.00  0.00    -0.346 N 
ATOM     17  H1  UNL     1       1.208   0.777  -0.881  1.00  0.00     0.163 HD
BRANCH  16  18
HETATM   18  C8  UNL     1       2.926  -0.460  -0.637  1.00  0.00     0.081 C 
HETATM   19  C9  UNL     1       3.333  -0.502  -2.064  1.00  0.00     0.032 C 
BRANCH  18  20
HETATM   20  C10 UNL     1       3.751   0.448   0.223  1.00  0.00     0.028 C 
BRANCH  20  21
HETATM   21  C11 UNL     1       5.210   0.184   0.192  1.00  0.00    -0.021 C 
HETATM   22  C12 UNL     1       5.496  -1.233   0.669  1.00  0.00     0.009 C 
HETATM   23  C13 UNL     1       5.880   1.112   1.190  1.00  0.00     0.009 C 
ENDBRANCH  20  21
ENDBRANCH  18  20
ENDBRANCH  16  18
ENDBRANCH  13  14
ENDBRANCH   4  12
TORSDOF 5
