REMARK  5 active torsions:
REMARK  status: ('A' for Active; 'I' for Inactive)
REMARK    1  A    between atoms: O1_2  and  C2_3 
REMARK    2  A    between atoms: C11_15  and  O4_16 
REMARK    3  A    between atoms: C15_20  and  S1_21 
REMARK    4  A    between atoms: S1_21  and  C16_22 
REMARK    5  A    between atoms: C18_25  and  O6_26 
ROOT
HETATM    1  C2  UNL     1      -0.677   0.449   1.127  1.00  0.00     0.112 A 
HETATM    2  C3  UNL     1       0.273  -0.231   0.447  1.00  0.00     0.017 A 
HETATM    3  C4  UNL     1      -0.068  -1.082  -0.615  1.00  0.00    -0.011 A 
HETATM    4  C5  UNL     1      -1.366  -1.257  -1.004  1.00  0.00     0.100 A 
HETATM    5  O2  UNL     1      -1.685  -2.040  -1.987  1.00  0.00    -0.273 OA
HETATM    6  C6  UNL     1      -2.899  -2.230  -2.395  1.00  0.00     0.306 A 
HETATM    7  O3  UNL     1      -3.146  -3.023  -3.378  1.00  0.00    -0.258 OA
HETATM    8  C7  UNL     1      -3.936  -1.592  -1.786  1.00  0.00     0.093 A 
HETATM    9 BR1  UNL     1      -5.753  -1.809  -2.308  1.00  0.00    -0.044 Br
HETATM   10  C8  UNL     1      -3.689  -0.735  -0.722  1.00  0.00    -0.023 A 
HETATM   11  C9  UNL     1      -4.800   0.016  -0.103  1.00  0.00     0.051 C 
HETATM   12  C10 UNL     1      -2.394  -0.555  -0.307  1.00  0.00     0.042 A 
HETATM   13  C11 UNL     1      -2.020   0.261   0.722  1.00  0.00     0.115 A 
HETATM   14  C13 UNL     1       1.025  -1.782  -1.343  1.00  0.00     0.043 C 
HETATM   15  C14 UNL     1       2.011  -0.674  -1.684  1.00  0.00     0.023 C 
HETATM   16  C15 UNL     1       2.613  -0.156  -0.422  1.00  0.00     0.089 C 
HETATM   17  C18 UNL     1       1.714  -0.170   0.777  1.00  0.00     0.171 C 
ENDROOT
BRANCH  16  18
HETATM   18  S1  UNL     1       3.224   1.521  -0.782  1.00  0.00    -0.085 SA
BRANCH  18  19
HETATM   19  C16 UNL     1       4.572   1.484  -1.929  1.00  0.00     0.182 C 
HETATM   20  C17 UNL     1       5.158   0.259  -2.520  1.00  0.00     0.104 C 
HETATM   21  O5  UNL     1       5.080   2.553  -2.280  1.00  0.00    -0.286 OA
ENDBRANCH  18  19
ENDBRANCH  16  18
BRANCH  17  22
HETATM   22  O6  UNL     1       2.102   0.851   1.598  1.00  0.00    -0.385 OA
HETATM   23  C19 UNL     1       2.674   0.353   2.768  1.00  0.00     0.202 C 
ENDBRANCH  17  22
BRANCH   1  24
HETATM   24  O1  UNL     1      -0.461   1.315   2.180  1.00  0.00    -0.352 OA
HETATM   25  C1  UNL     1      -0.281   2.710   2.022  1.00  0.00     0.210 C 
ENDBRANCH   1  24
BRANCH  13  26
HETATM   26  O4  UNL     1      -2.993   0.973   1.450  1.00  0.00    -0.352 OA
HETATM   27  C12 UNL     1      -3.400   0.384   2.723  1.00  0.00     0.210 C 
ENDBRANCH  13  26
TORSDOF 5
