REMARK  5 active torsions:
REMARK  status: ('A' for Active; 'I' for Inactive)
REMARK    1  A    between atoms: C2_2  and  O1_3 
REMARK    2  A    between atoms: O1_3  and  C3_4 
REMARK    3  A    between atoms: C3_4  and  C4_6 
REMARK    4  A    between atoms: C5_7  and  C6_8 
REMARK    5  A    between atoms: C15_20  and  C16_21 
ROOT
HETATM    1  C4  UNL     1       0.481   0.775   0.368  1.00  0.00     0.060 A 
HETATM    2  C5  UNL     1       1.488   0.328  -0.438  1.00  0.00     0.004 A 
HETATM    3  S1  UNL     1       0.759  -0.940  -1.335  1.00  0.00    -0.096 SA
HETATM    4  C12 UNL     1      -0.802  -0.869  -0.665  1.00  0.00     0.002 A 
HETATM    5  C13 UNL     1      -0.726   0.147   0.250  1.00  0.00    -0.026 A 
HETATM    6  C14 UNL     1      -1.911   0.567   1.097  1.00  0.00     0.053 C 
HETATM    7  C15 UNL     1      -3.102   0.902   0.268  1.00  0.00     0.059 C 
HETATM    8  C18 UNL     1      -3.674  -0.230  -0.468  1.00  0.00     0.132 C 
HETATM    9  O3  UNL     1      -4.775  -0.637  -0.144  1.00  0.00    -0.298 OA
HETATM   10  C19 UNL     1      -3.074  -0.973  -1.593  1.00  0.00     0.095 C 
HETATM   11  C20 UNL     1      -1.924  -1.772  -1.067  1.00  0.00     0.022 C 
HETATM   12  C21 UNL     1      -2.303  -2.746  -0.000  1.00  0.00     0.019 C 
HETATM   13  C22 UNL     1      -3.189  -3.818  -0.563  1.00  0.00     0.027 C 
HETATM   14  C23 UNL     1      -2.789  -4.312  -1.915  1.00  0.00     0.167 C 
HETATM   15  O4  UNL     1      -2.515  -3.242  -2.798  1.00  0.00    -0.390 OA
HETATM   16  C24 UNL     1      -1.415  -2.597  -2.253  1.00  0.00     0.182 C 
ENDROOT
BRANCH   2  17
HETATM   17  C6  UNL     1       2.926   0.797  -0.557  1.00  0.00     0.033 C 
HETATM   18  C7  UNL     1       3.565   0.145  -1.764  1.00  0.00     0.040 C 
HETATM   19  C8  UNL     1       4.106  -1.228  -1.411  1.00  0.00     0.276 C 
HETATM   20  N1  UNL     1       5.240  -1.103  -0.512  1.00  0.00     0.117 N 
HETATM   21  C9  UNL     1       5.531  -2.344   0.131  1.00  0.00     0.313 C 
HETATM   22  C10 UNL     1       5.103  -0.008   0.392  1.00  0.00     0.405 C 
HETATM   23  F1  UNL     1       5.797   1.108   0.004  1.00  0.00    -0.216 F 
HETATM   24  C11 UNL     1       3.644   0.292   0.665  1.00  0.00     0.079 C 
ENDBRANCH   2  17
BRANCH   1  25
HETATM   25  C3  UNL     1       0.717   1.906   1.330  1.00  0.00     0.294 C 
HETATM   26  O2  UNL     1       1.096   1.705   2.504  1.00  0.00    -0.259 OA
BRANCH  25  27
HETATM   27  O1  UNL     1       0.524   3.223   0.952  1.00  0.00    -0.318 OA
BRANCH  27  28
HETATM   28  C2  UNL     1       0.733   4.303   1.817  1.00  0.00     0.174 C 
HETATM   29  C1  UNL     1       0.436   5.583   1.101  1.00  0.00     0.034 C 
ENDBRANCH  27  28
ENDBRANCH  25  27
ENDBRANCH   1  25
BRANCH   7  30
HETATM   30  C16 UNL     1      -4.166   1.439   1.204  1.00  0.00     0.008 C 
HETATM   31  C17 UNL     1      -3.720   2.669   1.937  1.00  0.00     0.006 C 
ENDBRANCH   7  30
TORSDOF 5
