REMARK  1 active torsions:
REMARK  status: ('A' for Active; 'I' for Inactive)
REMARK    1  A    between atoms: N1_1  and  S1_4 
ROOT
HETATM    1  S1  UNL     1       1.184  -0.706   0.589  1.00  0.00    -0.060 SA
HETATM    2  C1  UNL     1      -0.233  -0.768  -0.524  1.00  0.00     0.108 C 
HETATM    3  C2  UNL     1      -1.037   0.489  -0.284  1.00  0.00     0.099 C 
HETATM    4  S2  UNL     1      -1.690   0.353   1.429  1.00  0.00    -0.085 SA
HETATM    5  S3  UNL     1       0.190  -0.112   2.394  1.00  0.00    -0.016 SA
ENDROOT
BRANCH   1   6
HETATM    6  N1  UNL     1       2.238   0.345   0.164  1.00  0.00    -0.374 NA
ATOM      7  H12 UNL     1       2.711   0.062  -0.695  1.00  0.00     0.164 HD
ATOM      8  H11 UNL     1       3.040   0.380   0.794  1.00  0.00     0.164 HD
ENDBRANCH   1   6
TORSDOF 1
