REMARK  1 active torsions:
REMARK  status: ('A' for Active; 'I' for Inactive)
REMARK    1  A    between atoms: O1_2  and  C2_3 
ROOT
HETATM    1  C2  UNL     1       0.925  -0.430   0.206  1.00  0.00     0.148 C 
HETATM    2  C3  UNL     1       0.530  -1.653   0.923  1.00  0.00     0.098 C 
HETATM    3  N1  UNL     1       0.235  -2.630   1.487  1.00  0.00    -0.194 NA
HETATM    4  C4  UNL     1       0.482  -0.574  -1.225  1.00  0.00     0.053 C 
HETATM    5  C5  UNL     1      -1.000  -0.790  -1.367  1.00  0.00     0.004 C 
HETATM    6  C6  UNL     1      -1.812   0.303  -0.719  1.00  0.00     0.000 C 
HETATM    7  C7  UNL     1      -2.058   0.010   0.730  1.00  0.00     0.000 C 
HETATM    8  C8  UNL     1      -0.951   0.440   1.629  1.00  0.00     0.004 C 
HETATM    9  C9  UNL     1       0.339   0.747   0.901  1.00  0.00     0.053 C 
ENDROOT
BRANCH   1  10
HETATM   10  O1  UNL     1       2.307  -0.369   0.241  1.00  0.00    -0.370 OA
HETATM   11  C1  UNL     1       2.823   0.734  -0.397  1.00  0.00     0.204 C 
ENDBRANCH   1  10
TORSDOF 1
