REMARK  0 active torsions:
REMARK  status: ('A' for Active; 'I' for Inactive)
ROOT
HETATM    1  S1  UNL     1       4.912  -0.315  -0.376  1.00  0.00    -0.052 SA
HETATM    2  C1  UNL     1       3.270  -0.392  -0.290  1.00  0.00     0.145 A 
HETATM    3  N1  UNL     1       2.392   0.590  -0.143  1.00  0.00    -0.343 N 
ATOM      4  H1  UNL     1       2.710   1.556  -0.065  1.00  0.00     0.167 HD
HETATM    5  C2  UNL     1       1.114   0.312  -0.098  1.00  0.00     0.044 A 
HETATM    6  C3  UNL     1       0.742  -1.002  -0.206  1.00  0.00     0.095 A 
HETATM    7  S2  UNL     1       2.281  -1.778  -0.370  1.00  0.00    -0.041 SA
HETATM    8  N2  UNL     1      -0.524  -1.638  -0.203  1.00  0.00    -0.383 N 
ATOM      9  H2  UNL     1      -0.560  -2.518  -0.718  1.00  0.00     0.160 HD
HETATM   10  C4  UNL     1      -1.746  -1.253   0.397  1.00  0.00     0.120 C 
HETATM   11  C5  UNL     1      -1.989   0.205   0.560  1.00  0.00     0.020 C 
HETATM   12  C6  UNL     1      -1.234   0.988  -0.470  1.00  0.00     0.008 C 
HETATM   13  C7  UNL     1       0.094   1.443   0.068  1.00  0.00     0.060 C 
ENDROOT
TORSDOF 0
