REMARK  1 active torsions:
REMARK  status: ('A' for Active; 'I' for Inactive)
REMARK    1  A    between atoms: C2_2  and  O1_3 
ROOT
HETATM    1  C1  UNL     1      -2.795  -0.063  -1.625  1.00  0.00     0.081 C 
HETATM    2  C2  UNL     1      -2.133   0.041  -0.288  1.00  0.00     0.185 C 
HETATM    3  C3  UNL     1      -1.614  -1.275   0.230  1.00  0.00     0.303 C 
HETATM    4  N1  UNL     1      -0.442  -0.843   0.990  1.00  0.00    -0.038 N 
ATOM      5  H11 UNL     1       0.242  -1.573   1.188  1.00  0.00     0.281 HD
ATOM      6  H12 UNL     1      -0.617  -0.613   1.968  1.00  0.00     0.281 HD
HETATM    7  C4  UNL     1       0.040   0.251   0.175  1.00  0.00     0.229 C 
HETATM    8  C5  UNL     1       0.920  -0.357  -0.916  1.00  0.00     0.069 C 
HETATM    9  C6  UNL     1       2.142  -0.919  -0.203  1.00  0.00     0.005 C 
HETATM   10  C7  UNL     1       2.968   0.206   0.377  1.00  0.00     0.000 C 
HETATM   11  C8  UNL     1       2.189   1.490   0.324  1.00  0.00     0.005 C 
HETATM   12  C9  UNL     1       0.846   1.241   0.988  1.00  0.00     0.069 C 
HETATM   13  O2  UNL     1      -1.056   0.906  -0.339  1.00  0.00    -0.316 OA
ENDROOT
BRANCH   2  14
HETATM   14  O1  UNL     1      -3.067   0.513   0.659  1.00  0.00    -0.364 OA
ATOM     15  H1  UNL     1      -2.646   0.579   1.508  1.00  0.00     0.213 HD
ENDBRANCH   2  14
TORSDOF 1
