REMARK  1 active torsions:
REMARK  status: ('A' for Active; 'I' for Inactive)
REMARK    1  A    between atoms: O1_1  and  C1_3 
ROOT
HETATM    1  C1  UNL     1      -1.127  -0.451  -0.344  1.00  0.00     0.127 C 
HETATM    2  C2  UNL     1       0.283  -0.916  -0.623  1.00  0.00     0.033 C 
HETATM    3  C3  UNL     1       1.175  -0.521   0.532  1.00  0.00     0.013 C 
HETATM    4  C4  UNL     1       1.711   0.874   0.179  1.00  0.00     0.074 C 
HETATM    5  S1  UNL     1       0.262   1.923  -0.031  1.00  0.00    -0.167 SA
HETATM    6  C5  UNL     1      -1.262   1.023  -0.214  1.00  0.00     0.105 C 
ENDROOT
BRANCH   1   7
HETATM    7  O1  UNL     1      -1.550  -1.147   0.806  1.00  0.00    -0.395 OA
ATOM      8  H1  UNL     1      -2.437  -0.855   0.981  1.00  0.00     0.210 HD
ENDBRANCH   1   7
TORSDOF 1
