REMARK  1 active torsions:
REMARK  status: ('A' for Active; 'I' for Inactive)
REMARK    1  A    between atoms: N1_1  and  C1_5 
ROOT
HETATM    1  C1  UNL     1      -0.825   0.450  -0.121  1.00  0.00     0.127 C 
HETATM    2  C2  UNL     1       0.178   1.143   0.744  1.00  0.00     0.039 C 
HETATM    3  C3  UNL     1       1.553   1.110   0.071  1.00  0.00     0.002 C 
HETATM    4  C4  UNL     1       1.948  -0.370   0.092  1.00  0.00     0.001 C 
HETATM    5  C5  UNL     1       1.036  -1.079  -0.855  1.00  0.00     0.007 C 
HETATM    6  C6  UNL     1      -0.402  -0.869  -0.646  1.00  0.00     0.021 C 
HETATM    7  C7  UNL     1      -0.923  -1.484   0.660  1.00  0.00     0.009 C 
HETATM    8  C8  UNL     1      -1.898  -0.301   0.684  1.00  0.00     0.039 C 
ENDROOT
BRANCH   1   9
HETATM    9  N1  UNL     1      -1.506   1.337  -1.046  1.00  0.00    -0.070 N 
ATOM     10  H13 UNL     1      -1.937   2.116  -0.548  1.00  0.00     0.275 HD
ATOM     11  H12 UNL     1      -0.833   1.850  -1.615  1.00  0.00     0.275 HD
ATOM     12  H11 UNL     1      -2.190   0.864  -1.636  1.00  0.00     0.275 HD
ENDBRANCH   1   9
TORSDOF 1
