REMARK  2 active torsions:
REMARK  status: ('A' for Active; 'I' for Inactive)
REMARK    1  A    between atoms: C1_2  and  C2_4 
REMARK    2  A    between atoms: C3_5  and  C4_6 
ROOT
HETATM    1  C2  UNL     1      -0.734   1.019  -0.264  1.00  0.00     0.105 C 
HETATM    2  C3  UNL     1      -0.051   0.125   0.494  1.00  0.00     0.019 C 
HETATM    3  C8  UNL     1      -0.469  -0.337   1.746  1.00  0.00     0.101 C 
HETATM    4  N1  UNL     1      -1.730  -0.740   2.085  1.00  0.00    -0.373 N 
ATOM      5  H1  UNL     1      -1.819  -1.490   2.771  1.00  0.00     0.164 HD
HETATM    6  C9  UNL     1      -2.882  -0.210   1.571  1.00  0.00     0.115 C 
HETATM    7  C10 UNL     1      -3.052   0.869   0.723  1.00  0.00     0.100 C 
HETATM    8 CL3  UNL     1      -4.650   1.585   0.683  1.00  0.00    -0.079 Cl
HETATM    9  C11 UNL     1      -2.093   1.433  -0.087  1.00  0.00     0.212 C 
HETATM   10  O3  UNL     1      -2.440   2.433  -0.757  1.00  0.00    -0.285 OA
ENDROOT
BRANCH   2  11
HETATM   11  C4  UNL     1       1.229  -0.370   0.028  1.00  0.00     0.041 A 
HETATM   12  S1  UNL     1       2.261   0.217  -1.220  1.00  0.00    -0.075 SA
HETATM   13  C5  UNL     1       3.495  -0.935  -1.169  1.00  0.00     0.077 A 
HETATM   14 CL1  UNL     1       4.935  -1.012  -2.164  1.00  0.00    -0.076 Cl
HETATM   15  C6  UNL     1       3.082  -1.763  -0.177  1.00  0.00     0.056 A 
HETATM   16  C7  UNL     1       1.928  -1.494   0.448  1.00  0.00     0.054 A 
HETATM   17 CL2  UNL     1       1.249  -2.540   1.742  1.00  0.00    -0.083 Cl
ENDBRANCH   2  11
BRANCH   1  18
HETATM   18  C1  UNL     1      -0.088   1.638  -1.393  1.00  0.00     0.214 C 
HETATM   19  O1  UNL     1       0.582   2.710  -1.357  1.00  0.00    -0.644 OA
HETATM   20  O2  UNL     1      -0.220   1.001  -2.643  1.00  0.00    -0.644 OA
ENDBRANCH   1  18
TORSDOF 2
