REMARK  6 active torsions:
REMARK  status: ('A' for Active; 'I' for Inactive)
REMARK    1  A    between atoms: N1_1  and  C1_5 
REMARK    2  A    between atoms: C1_5  and  C2_6 
REMARK       I    between atoms: N2_10  and  C6_11 
REMARK    3  A    between atoms: C6_11  and  C7_13 
REMARK    4  A    between atoms: C10_16  and  C11_17 
REMARK    5  A    between atoms: C11_17  and  N3_18 
REMARK    6  A    between atoms: N3_18  and  C12_21 
ROOT
HETATM    1  C7  UNL     1      -0.136   0.559  -0.387  1.00  0.00     0.078 C 
HETATM    2  C8  UNL     1       0.446  -0.807  -0.237  1.00  0.00     0.014 C 
HETATM    3  C9  UNL     1       1.838  -0.796   0.412  1.00  0.00     0.007 C 
HETATM    4  C10 UNL     1       2.704   0.076  -0.434  1.00  0.00     0.011 C 
HETATM    5  C15 UNL     1       2.151   1.498  -0.254  1.00  0.00     0.007 C 
HETATM    6  C16 UNL     1       0.860   1.529  -1.003  1.00  0.00     0.014 C 
ENDROOT
BRANCH   1   7
HETATM    7  C6  UNL     1      -1.310   0.528  -1.287  1.00  0.00     0.224 C 
HETATM    8  N2  UNL     1      -2.545  -0.029  -0.908  1.00  0.00    -0.351 N 
HETATM    9  C5  UNL     1      -3.641  -0.042  -1.861  1.00  0.00     0.126 C 
HETATM   10  C17 UNL     1      -2.718  -0.564   0.419  1.00  0.00     0.132 C 
HETATM   11  C4  UNL     1      -4.864   0.655  -1.305  1.00  0.00     0.020 C 
HETATM   12  C3  UNL     1      -4.776   0.851   0.188  1.00  0.00     0.009 C 
HETATM   13  C2  UNL     1      -4.141  -0.321   0.895  1.00  0.00     0.029 C 
HETATM   14  O1  UNL     1      -1.218   1.024  -2.474  1.00  0.00    -0.273 OA
BRANCH  13  15
HETATM   15  C1  UNL     1      -4.952  -1.573   0.793  1.00  0.00     0.235 C 
BRANCH  15  16
HETATM   16  N1  UNL     1      -6.257  -1.417   1.366  1.00  0.00    -0.079 N 
ATOM     17  H13 UNL     1      -6.201  -1.090   2.331  1.00  0.00     0.274 HD
ATOM     18  H12 UNL     1      -6.749  -0.623   0.955  1.00  0.00     0.274 HD
ATOM     19  H11 UNL     1      -6.810  -2.271   1.296  1.00  0.00     0.274 HD
ENDBRANCH  15  16
ENDBRANCH  13  15
ENDBRANCH   1   7
BRANCH   4  20
HETATM   20  C11 UNL     1       4.149   0.118   0.013  1.00  0.00     0.237 C 
BRANCH  20  21
HETATM   21  N3  UNL     1       4.768  -1.173  -0.007  1.00  0.00    -0.071 N 
ATOM     22  H32 UNL     1       4.241  -1.851   0.544  1.00  0.00     0.277 HD
ATOM     23  H31 UNL     1       4.683  -1.616  -0.922  1.00  0.00     0.277 HD
BRANCH  21  24
HETATM   24  C12 UNL     1       6.119  -1.097   0.412  1.00  0.00     0.186 A 
HETATM   25  C13 UNL     1       6.536  -0.658   1.763  1.00  0.00     0.035 A 
HETATM   26  C14 UNL     1       6.692   0.285   0.627  1.00  0.00     0.035 A 
ENDBRANCH  21  24
ENDBRANCH  20  21
ENDBRANCH   4  20
TORSDOF 6
