REMARK  14 active torsions:
REMARK  status: ('A' for Active; 'I' for Inactive)
REMARK    1  A    between atoms: C2_2  and  O1_3 
REMARK    2  A    between atoms: C2_2  and  C4_7 
REMARK    3  A    between atoms: O1_3  and  C3_4 
REMARK    4  A    between atoms: C4_7  and  O3_8 
REMARK    5  A    between atoms: C4_7  and  C5_10 
REMARK    6  A    between atoms: C5_10  and  C7_12 
REMARK    7  A    between atoms: C7_12  and  C8_13 
REMARK    8  A    between atoms: C8_13  and  C9_14 
REMARK    9  A    between atoms: C9_14  and  O4_15 
REMARK   10  A    between atoms: C9_14  and  C10_17 
REMARK   11  A    between atoms: C10_17  and  C13_20 
REMARK   12  A    between atoms: C14_21  and  C15_22 
REMARK   13  A    between atoms: C15_22  and  O5_23 
REMARK   14  A    between atoms: C18_27  and  O6_28 
ROOT
HETATM    1  C13 UNL     1       0.598  -0.281  -1.030  1.00  0.00    -0.016 C 
HETATM    2  C14 UNL     1      -0.507   0.081  -0.394  1.00  0.00     0.008 C 
ENDROOT
BRANCH   1   3
HETATM    3  C10 UNL     1       1.605  -1.232  -0.462  1.00  0.00    -0.004 C 
HETATM    4  C11 UNL     1       2.410  -1.864  -1.564  1.00  0.00     0.021 C 
HETATM    5  C12 UNL     1       0.893  -2.300   0.362  1.00  0.00     0.021 C 
BRANCH   3   6
HETATM    6  C9  UNL     1       2.467  -0.471   0.472  1.00  0.00     0.133 C 
BRANCH   6   7
HETATM    7  C8  UNL     1       3.524  -1.183   1.240  1.00  0.00     0.060 C 
BRANCH   7   8
HETATM    8  C7  UNL     1       4.702  -1.618   0.517  1.00  0.00    -0.015 C 
BRANCH   8   9
HETATM    9  C5  UNL     1       5.952  -1.172   0.757  1.00  0.00    -0.030 C 
HETATM   10  C6  UNL     1       6.249  -0.222   1.823  1.00  0.00     0.050 C 
BRANCH   9  11
HETATM   11  C4  UNL     1       7.019  -1.715  -0.069  1.00  0.00     0.104 C 
BRANCH  11  12
HETATM   12  C2  UNL     1       8.407  -1.392  -0.054  1.00  0.00     0.104 C 
HETATM   13  C1  UNL     1       9.279  -2.032  -0.881  1.00  0.00     0.054 C 
BRANCH  12  14
HETATM   14  O1  UNL     1       8.988  -0.447   0.752  1.00  0.00    -0.262 OA
BRANCH  14  15
HETATM   15  C3  UNL     1       9.175   0.858   0.270  1.00  0.00     0.378 C 
HETATM   16  N1  UNL     1       9.770   1.827   1.097  1.00  0.00    -0.032 NA
HETATM   17  O2  UNL     1       8.797   1.102  -0.895  1.00  0.00    -0.242 OA
ENDBRANCH  14  15
ENDBRANCH  12  14
ENDBRANCH  11  12
BRANCH  11  18
HETATM   18  O3  UNL     1       6.684  -2.619  -0.946  1.00  0.00    -0.357 OA
ATOM     19  H3  UNL     1       5.759  -2.834  -0.956  1.00  0.00     0.217 HD
ENDBRANCH  11  18
ENDBRANCH   9  11
ENDBRANCH   8   9
ENDBRANCH   7   8
ENDBRANCH   6   7
BRANCH   6  20
HETATM   20  O4  UNL     1       3.057   0.675  -0.101  1.00  0.00    -0.394 OA
ATOM     21  H4  UNL     1       2.382   1.130  -0.591  1.00  0.00     0.210 HD
ENDBRANCH   6  20
ENDBRANCH   3   6
ENDBRANCH   1   3
BRANCH   2  22
HETATM   22  C15 UNL     1      -1.430   1.016  -1.030  1.00  0.00     0.082 C 
HETATM   23  C16 UNL     1      -1.754   0.608  -2.461  1.00  0.00     0.045 C 
HETATM   24  C17 UNL     1      -3.152   0.086  -2.473  1.00  0.00     0.042 C 
HETATM   25  C18 UNL     1      -3.621   0.037  -1.041  1.00  0.00     0.071 C 
HETATM   26  C19 UNL     1      -2.770   1.140  -0.422  1.00  0.00     0.059 C 
HETATM   27  C24 UNL     1      -5.047   0.433  -0.856  1.00  0.00     0.055 C 
HETATM   28  C20 UNL     1      -2.861   1.171   1.048  1.00  0.00     0.012 C 
HETATM   29  C21 UNL     1      -4.266   0.877   1.493  1.00  0.00     0.013 C 
HETATM   30  C22 UNL     1      -5.312   1.129   0.464  1.00  0.00    -0.005 C 
HETATM   31  C23 UNL     1      -5.625   2.594   0.278  1.00  0.00     0.019 C 
HETATM   32  C26 UNL     1      -6.600   0.447   0.876  1.00  0.00     0.061 C 
HETATM   33  O7  UNL     1      -6.307  -0.884   0.602  1.00  0.00    -0.380 OA
HETATM   34  C27 UNL     1      -7.000   0.712   2.274  1.00  0.00     0.046 C 
HETATM   35  C28 UNL     1      -7.742   0.841  -0.045  1.00  0.00     0.046 C 
HETATM   36  C25 UNL     1      -5.887  -0.818  -0.725  1.00  0.00     0.177 C 
BRANCH  22  37
HETATM   37  O5  UNL     1      -0.826   2.275  -1.090  1.00  0.00    -0.385 OA
ATOM     38  H5  UNL     1      -1.427   2.884  -1.504  1.00  0.00     0.211 HD
ENDBRANCH  22  37
BRANCH  25  39
HETATM   39  O6  UNL     1      -3.389  -1.196  -0.507  1.00  0.00    -0.389 OA
ATOM     40  H6  UNL     1      -3.685  -1.227   0.395  1.00  0.00     0.210 HD
ENDBRANCH  25  39
ENDBRANCH   2  22
TORSDOF 14
