REMARK  9 active torsions:
REMARK  status: ('A' for Active; 'I' for Inactive)
REMARK    1  A    between atoms: O1_2  and  C2_3 
REMARK    2  A    between atoms: C5_9  and  N2_10 
REMARK    3  A    between atoms: N2_10  and  N3_12 
REMARK    4  A    between atoms: C6_14  and  C7_15 
REMARK    5  A    between atoms: C7_15  and  N4_16 
REMARK    6  A    between atoms: N6_23  and  N7_25 
REMARK    7  A    between atoms: N7_25  and  C9_27 
REMARK    8  A    between atoms: C9_27  and  C10_28 
REMARK    9  A    between atoms: C10_28  and  N8_29 
ROOT
HETATM    1  C2  UNL     1      -1.521   3.035   0.148  1.00  0.00     0.182 A 
HETATM    2  C3  UNL     1      -1.611   1.661   0.092  1.00  0.00     0.103 A 
HETATM    3  C4  UNL     1      -2.775   0.928  -0.060  1.00  0.00     0.275 C 
HETATM    4  O2  UNL     1      -3.836   1.567   0.015  1.00  0.00    -0.267 OA
HETATM    5  N1  UNL     1      -2.928  -0.409  -0.283  1.00  0.00    -0.154 N 
ATOM      6  H1  UNL     1      -3.824  -0.716  -0.661  1.00  0.00     0.187 HD
HETATM    7  C5  UNL     1      -2.006  -1.358  -0.050  1.00  0.00     0.701 C 
HETATM    8  N5  UNL     1      -0.652  -1.217  -0.035  1.00  0.00    -0.173 N 
ATOM      9  H5  UNL     1      -0.118  -2.060  -0.244  1.00  0.00     0.186 HD
HETATM   10  C8  UNL     1       0.075  -0.116   0.218  1.00  0.00     0.150 C 
HETATM   11  N6  UNL     1       1.324  -0.327   0.503  1.00  0.00    -0.289 N 
ATOM     12  H6  UNL     1       1.921   0.475   0.704  1.00  0.00     0.188 HD
HETATM   13  C13 UNL     1      -0.318   1.199   0.218  1.00  0.00     0.076 A 
HETATM   14  C14 UNL     1       0.497   2.295   0.344  1.00  0.00     0.145 A 
HETATM   15  N9  UNL     1       1.772   2.680   0.496  1.00  0.00    -0.335 N 
ATOM     16  H9  UNL     1       2.569   2.047   0.562  1.00  0.00     0.168 HD
HETATM   17  C15 UNL     1       1.850   4.037   0.549  1.00  0.00     0.199 A 
HETATM   18  N10 UNL     1       0.581   4.466   0.425  1.00  0.00    -0.286 N 
ATOM     19  H10 UNL     1       0.295   5.445   0.426  1.00  0.00     0.188 HD
HETATM   20  N11 UNL     1      -0.243   3.438   0.301  1.00  0.00    -0.214 N 
ENDROOT
BRANCH   7  21
HETATM   21  N2  UNL     1      -2.458  -2.528   0.188  1.00  0.00    -0.132 N 
ATOM     22  H2  UNL     1      -1.812  -3.295   0.374  1.00  0.00     0.205 HD
BRANCH  21  23
HETATM   23  N3  UNL     1      -3.834  -2.761   0.195  1.00  0.00    -0.300 N 
HETATM   24  C6  UNL     1      -4.610  -2.492   1.180  1.00  0.00     0.107 C 
ATOM     25  H3  UNL     1      -4.251  -3.173  -0.640  1.00  0.00     0.186 HD
BRANCH  24  26
HETATM   26  C7  UNL     1      -6.058  -2.811   1.008  1.00  0.00     0.275 C 
BRANCH  26  27
HETATM   27  N4  UNL     1      -6.394  -2.634  -0.372  1.00  0.00    -0.075 N 
ATOM     28  H43 UNL     1      -6.152  -1.706  -0.720  1.00  0.00     0.274 HD
ATOM     29  H42 UNL     1      -5.795  -3.176  -0.995  1.00  0.00     0.274 HD
ATOM     30  H41 UNL     1      -7.383  -2.852  -0.490  1.00  0.00     0.274 HD
ENDBRANCH  26  27
ENDBRANCH  24  26
ENDBRANCH  21  23
ENDBRANCH   7  21
BRANCH  11  31
HETATM   31  N7  UNL     1       1.883  -1.599   0.546  1.00  0.00    -0.333 N 
ATOM     32  H7  UNL     1       1.389  -2.332   1.055  1.00  0.00     0.180 HD
BRANCH  31  33
HETATM   33  C9  UNL     1       3.129  -1.927  -0.096  1.00  0.00     0.169 C 
BRANCH  33  34
HETATM   34  C10 UNL     1       4.198  -1.057   0.523  1.00  0.00     0.292 C 
BRANCH  34  35
HETATM   35  N8  UNL     1       5.502  -1.288  -0.032  1.00  0.00     0.081 N 
HETATM   36  C11 UNL     1       5.646  -0.873  -1.389  1.00  0.00     0.309 C 
HETATM   37  C12 UNL     1       6.022  -2.603   0.245  1.00  0.00     0.309 C 
ENDBRANCH  34  35
ENDBRANCH  33  34
ENDBRANCH  31  33
ENDBRANCH  11  31
BRANCH   1  38
HETATM   38  O1  UNL     1      -2.633   3.873   0.054  1.00  0.00    -0.339 OA
HETATM   39  C1  UNL     1      -2.544   5.277   0.111  1.00  0.00     0.211 C 
ENDBRANCH   1  38
TORSDOF 9
