REMARK  4 active torsions:
REMARK  status: ('A' for Active; 'I' for Inactive)
REMARK    1  A    between atoms: C2_2  and  C3_3 
REMARK    2  A    between atoms: C5_5  and  C6_6 
REMARK    3  A    between atoms: C5_5  and  N2_16 
REMARK    4  A    between atoms: C6_6  and  C8_9 
ROOT
HETATM    1  C6  UNL     1       1.416  -0.411  -0.622  1.00  0.00     0.184 C 
HETATM    2  C7  UNL     1       1.056  -1.768  -0.222  1.00  0.00     0.075 C 
HETATM    3  N1  UNL     1       0.805  -2.856   0.106  1.00  0.00    -0.196 NA
ENDROOT
BRANCH   1   4
HETATM    4  C5  UNL     1       0.581   0.673  -0.123  1.00  0.00     0.118 C 
HETATM    5  C4  UNL     1      -0.678   0.778   0.119  1.00  0.00     0.042 C 
HETATM    6  C3  UNL     1      -1.797  -0.210  -0.034  1.00  0.00     0.043 C 
HETATM    7  S1  UNL     1      -1.266   2.359   0.803  1.00  0.00     0.035 SA
HETATM    8  C16 UNL     1      -2.889   0.313  -0.868  1.00  0.00     0.099 C 
HETATM    9  C14 UNL     1      -3.241   1.718  -0.869  1.00  0.00     0.159 C 
HETATM   10  C15 UNL     1      -4.253  -0.297  -0.783  1.00  0.00     0.215 C 
HETATM   11  O3  UNL     1      -2.529   2.786  -0.345  1.00  0.00    -0.259 OA
HETATM   12  N3  UNL     1      -4.386   1.804  -1.473  1.00  0.00    -0.247 N 
HETATM   13  O4  UNL     1      -4.817   0.531  -1.871  1.00  0.00    -0.278 OA
ATOM     14  H3  UNL     1      -4.898   2.671  -1.635  1.00  0.00     0.196 HD
BRANCH   6  15
HETATM   15  C2  UNL     1      -2.137  -0.710   1.345  1.00  0.00     0.006 C 
HETATM   16  C1  UNL     1      -3.183  -1.748   1.462  1.00  0.00     0.006 C 
ENDBRANCH   6  15
BRANCH   4  17
HETATM   17  N2  UNL     1       1.346   1.929   0.050  1.00  0.00    -0.117 N 
HETATM   18  O1  UNL     1       2.064   2.248  -0.903  1.00  0.00    -0.532 OA
HETATM   19  O2  UNL     1       1.245   2.675   1.183  1.00  0.00    -0.532 OA
ENDBRANCH   4  17
ENDBRANCH   1   4
BRANCH   1  20
HETATM   20  C8  UNL     1       2.845  -0.189  -0.288  1.00  0.00    -0.017 A 
HETATM   21  C9  UNL     1       3.242   0.120   0.984  1.00  0.00     0.010 A 
HETATM   22  C10 UNL     1       4.591   0.296   1.269  1.00  0.00     0.001 A 
HETATM   23  C11 UNL     1       5.545   0.164   0.290  1.00  0.00     0.001 A 
HETATM   24  C12 UNL     1       5.155  -0.145  -0.981  1.00  0.00     0.019 A 
HETATM   25  C13 UNL     1       3.798  -0.320  -1.260  1.00  0.00     0.018 A 
HETATM   26 BR1  UNL     1       3.345  -0.748  -3.056  1.00  0.00    -0.051 Br
ENDBRANCH   1  20
TORSDOF 4
