REMARK  3 active torsions:
REMARK  status: ('A' for Active; 'I' for Inactive)
REMARK    1  A    between atoms: C4_5  and  C5_6 
REMARK    2  A    between atoms: C8_9  and  C9_10 
REMARK       I    between atoms: C9_10  and  N2_12 
REMARK    3  A    between atoms: N2_12  and  C10_14 
ROOT
HETATM    1  N1  UNL     1      -4.234   4.219   3.149  1.00  0.00    -0.190 NA
HETATM    2  C1  UNL     1      -4.103   3.311   2.446  1.00  0.00     0.117 C 
HETATM    3  C2  UNL     1      -3.918   2.159   1.574  1.00  0.00     0.115 A 
HETATM    4  C3  UNL     1      -2.650   1.758   1.240  1.00  0.00     0.054 A 
HETATM    5  C4  UNL     1      -2.483   0.646   0.399  1.00  0.00    -0.011 A 
HETATM    6  C16 UNL     1      -3.581  -0.028  -0.078  1.00  0.00     0.002 A 
HETATM    7  C17 UNL     1      -3.443  -1.130  -0.890  1.00  0.00     0.014 A 
HETATM    8  C18 UNL     1      -4.559  -1.819  -1.364  1.00  0.00     0.001 A 
HETATM    9  C19 UNL     1      -5.799  -1.357  -0.988  1.00  0.00     0.002 A 
HETATM   10  C20 UNL     1      -5.954  -0.264  -0.179  1.00  0.00     0.030 A 
HETATM   11  C21 UNL     1      -4.847   0.415   0.288  1.00  0.00     0.044 A 
HETATM   12  N5  UNL     1      -4.963   1.479   1.090  1.00  0.00    -0.347 N 
ATOM     13  H5  UNL     1      -5.900   1.789   1.347  1.00  0.00     0.167 HD
ENDROOT
BRANCH   5  14
HETATM   14  C5  UNL     1      -1.120   0.264   0.010  1.00  0.00    -0.025 A 
HETATM   15  C6  UNL     1      -0.707   0.245  -1.287  1.00  0.00     0.013 A 
HETATM   16  C7  UNL     1       0.563  -0.114  -1.626  1.00  0.00     0.018 A 
HETATM   17  C8  UNL     1       1.480  -0.471  -0.679  1.00  0.00     0.032 A 
HETATM   18  C14 UNL     1       1.091  -0.461   0.643  1.00  0.00     0.018 A 
HETATM   19  C15 UNL     1      -0.192  -0.099   0.994  1.00  0.00     0.013 A 
BRANCH  17  20
HETATM   20  C9  UNL     1       2.838  -0.853  -1.055  1.00  0.00     0.257 C 
HETATM   21  O1  UNL     1       3.184  -0.859  -2.263  1.00  0.00    -0.267 OA
HETATM   22  N2  UNL     1       3.815  -1.229  -0.095  1.00  0.00    -0.308 N 
ATOM     23  H2  UNL     1       3.668  -2.079   0.449  1.00  0.00     0.170 HD
BRANCH  22  24
HETATM   24  C10 UNL     1       4.875  -0.538   0.112  1.00  0.00     0.123 A 
HETATM   25  C11 UNL     1       5.777  -0.968   1.060  1.00  0.00     0.136 A 
HETATM   26  N3  UNL     1       6.911  -0.293   1.330  1.00  0.00    -0.371 N 
HETATM   27  C12 UNL     1       7.202   0.836   0.673  1.00  0.00     0.104 A 
ATOM     28  H3  UNL     1       7.553  -0.645   2.040  1.00  0.00     0.164 HD
HETATM   29  C13 UNL     1       6.313   1.284  -0.280  1.00  0.00     0.106 A 
HETATM   30  N4  UNL     1       5.193   0.596  -0.531  1.00  0.00    -0.350 N 
ATOM     31  H4  UNL     1       4.553   0.949  -1.242  1.00  0.00     0.166 HD
ENDBRANCH  22  24
ENDBRANCH  17  20
ENDBRANCH   5  14
TORSDOF 3
