REMARK  4 active torsions:
REMARK  status: ('A' for Active; 'I' for Inactive)
REMARK    1  A    between atoms: O1_2  and  C2_3 
REMARK    2  A    between atoms: C2_3  and  C3_4 
REMARK       I    between atoms: N1_8  and  C7_10 
REMARK    3  A    between atoms: C8_15  and  C9_16 
REMARK    4  A    between atoms: C9_16  and  N4_17 
ROOT
HETATM    1  C3  UNL     1       1.573  -0.126   0.736  1.00  0.00     0.103 C 
HETATM    2  C4  UNL     1       1.662   1.381   0.859  1.00  0.00     0.033 C 
HETATM    3  C5  UNL     1       0.685   2.043  -0.079  1.00  0.00     0.057 C 
HETATM    4  C6  UNL     1      -0.548   1.249  -0.242  1.00  0.00     0.013 C 
HETATM    5  N1  UNL     1      -1.697   1.734  -0.062  1.00  0.00    -0.336 N 
ATOM      6  H1  UNL     1      -2.495   1.113  -0.196  1.00  0.00     0.168 HD
HETATM    7  C7  UNL     1      -1.969   3.071   0.311  1.00  0.00     0.185 C 
HETATM    8  N2  UNL     1      -2.010   3.960  -0.612  1.00  0.00    -0.374 N 
ATOM      9  H21 UNL     1      -2.206   4.924  -0.343  1.00  0.00     0.158 HD
ATOM     10  H22 UNL     1      -1.857   3.758  -1.600  1.00  0.00     0.158 HD
HETATM   11  N3  UNL     1      -2.181   3.351   1.681  1.00  0.00    -0.064 NA
HETATM   12  C8  UNL     1      -0.408  -0.169  -0.631  1.00  0.00     0.142 C 
HETATM   13  N7  UNL     1       0.947  -0.542  -0.455  1.00  0.00    -0.399 N 
HETATM   14  C11 UNL     1       1.375  -1.733  -1.068  1.00  0.00     0.144 C 
ENDROOT
BRANCH  12  15
HETATM   15  C9  UNL     1      -1.317  -1.076   0.167  1.00  0.00     0.152 C 
BRANCH  15  16
HETATM   16  N4  UNL     1      -2.693  -0.710  -0.027  1.00  0.00    -0.365 N 
HETATM   17  C10 UNL     1      -3.581  -1.571  -0.378  1.00  0.00     0.197 C 
HETATM   18  N5  UNL     1      -3.184  -2.926  -0.580  1.00  0.00    -0.067 NA
HETATM   19  N6  UNL     1      -4.929  -1.181  -0.562  1.00  0.00    -0.067 NA
ATOM     20  H4  UNL     1      -2.973   0.260   0.118  1.00  0.00     0.161 HD
ENDBRANCH  15  16
ENDBRANCH  12  15
BRANCH   1  21
HETATM   21  C2  UNL     1       2.904  -0.778   0.929  1.00  0.00     0.191 C 
BRANCH  21  22
HETATM   22  O1  UNL     1       3.732  -0.448  -0.139  1.00  0.00    -0.394 OA
HETATM   23  C1  UNL     1       4.995  -1.028  -0.022  1.00  0.00     0.201 C 
ENDBRANCH  21  22
ENDBRANCH   1  21
TORSDOF 4
