REMARK  5 active torsions:
REMARK  status: ('A' for Active; 'I' for Inactive)
REMARK    1  A    between atoms: C2_2  and  C3_3 
REMARK    2  A    between atoms: C3_3  and  N1_4 
REMARK       I    between atoms: N1_4  and  C4_6 
REMARK       I    between atoms: C4_6  and  N2_8 
REMARK    3  A    between atoms: N2_8  and  C5_10 
REMARK       I    between atoms: N3_12  and  C7_13 
REMARK       I    between atoms: C7_13  and  N4_15 
REMARK    4  A    between atoms: N4_15  and  C8_17 
REMARK    5  A    between atoms: C8_17  and  C9_18 
ROOT
HETATM    1  C5  UNL     1      -0.498  -1.407  -0.140  1.00  0.00     0.122 C 
HETATM    2  C6  UNL     1       0.606  -1.952   0.724  1.00  0.00     0.154 C 
HETATM    3  N3  UNL     1       1.556  -1.182  -0.092  1.00  0.00    -0.330 N 
HETATM    4  C7  UNL     1       2.937  -0.918  -0.008  1.00  0.00     0.318 C 
HETATM    5  O2  UNL     1       3.602  -1.407   0.949  1.00  0.00    -0.247 OA
HETATM    6  N4  UNL     1       3.564  -0.117  -0.982  1.00  0.00    -0.340 N 
ATOM      7  H4  UNL     1       3.021   0.271  -1.753  1.00  0.00     0.164 HD
HETATM    8  C11 UNL     1       0.529  -0.777  -1.049  1.00  0.00     0.154 C 
ENDROOT
BRANCH   1   9
HETATM    9  N2  UNL     1      -1.310  -0.387   0.470  1.00  0.00    -0.335 N 
HETATM   10  C4  UNL     1      -2.703  -0.487   0.435  1.00  0.00     0.316 C 
HETATM   11  N1  UNL     1      -3.507   0.509   1.031  1.00  0.00    -0.340 N 
HETATM   12  O1  UNL     1      -3.236  -1.464  -0.129  1.00  0.00    -0.247 OA
ATOM     13  H1  UNL     1      -3.041   1.295   1.484  1.00  0.00     0.164 HD
ATOM     14  H2  UNL     1      -0.868   0.410   0.928  1.00  0.00     0.164 HD
BRANCH  11  15
HETATM   15  C3  UNL     1      -4.948   0.480   1.037  1.00  0.00     0.150 C 
BRANCH  15  16
HETATM   16  C2  UNL     1      -5.531   0.477  -0.308  1.00  0.00    -0.018 C 
HETATM   17  C1  UNL     1      -6.337   1.446  -0.688  1.00  0.00     0.008 C 
ENDBRANCH  15  16
ENDBRANCH  11  15
ENDBRANCH   1   9
BRANCH   6  18
HETATM   18  C8  UNL     1       4.977   0.152  -0.885  1.00  0.00     0.150 C 
BRANCH  18  19
HETATM   19  C9  UNL     1       5.256   0.865   0.368  1.00  0.00    -0.018 C 
HETATM   20  C10 UNL     1       5.814   2.090   0.300  1.00  0.00     0.008 C 
ENDBRANCH  18  19
ENDBRANCH   6  18
TORSDOF 5
