REMARK  10 active torsions:
REMARK  status: ('A' for Active; 'I' for Inactive)
REMARK    1  A    between atoms: C2_2  and  O1_3 
REMARK    2  A    between atoms: O1_3  and  C3_4 
REMARK       I    between atoms: C3_4  and  N1_6 
REMARK       I    between atoms: N2_9  and  C6_10 
REMARK    3  A    between atoms: C6_10  and  C7_12 
REMARK    4  A    between atoms: C7_12  and  O4_14 
REMARK    5  A    between atoms: O4_14  and  C9_15 
REMARK    6  A    between atoms: C9_15  and  C11_17 
REMARK    7  A    between atoms: C11_17  and  O5_18 
REMARK    8  A    between atoms: C11_17  and  N3_20 
REMARK       I    between atoms: N3_20  and  C12_22 
REMARK       I    between atoms: C12_22  and  N4_24 
REMARK    9  A    between atoms: N4_24  and  C13_26 
REMARK   10  A    between atoms: C13_26  and  C14_27 
ROOT
HETATM    1  O4  UNL     1      -2.005   1.247  -0.827  1.00  0.00    -0.368 OA
ENDROOT
BRANCH   1   2
HETATM    2  C7  UNL     1      -0.630   1.391  -0.734  1.00  0.00     0.210 C 
HETATM    3  C8  UNL     1      -0.386   2.860  -0.425  1.00  0.00     0.050 C 
BRANCH   2   4
HETATM    4  C6  UNL     1      -0.010   0.592   0.310  1.00  0.00     0.248 C 
HETATM    5  N2  UNL     1       1.384   0.584   0.515  1.00  0.00    -0.347 N 
HETATM    6  C5  UNL     1       2.221   1.386  -0.336  1.00  0.00     0.146 C 
HETATM    7  C15 UNL     1       1.980  -0.238   1.589  1.00  0.00     0.146 C 
HETATM    8  C4  UNL     1       3.626   0.921  -0.447  1.00  0.00     0.148 C 
HETATM    9  N1  UNL     1       4.020  -0.166   0.383  1.00  0.00    -0.325 N 
HETATM   10  C3  UNL     1       5.381  -0.383   0.768  1.00  0.00     0.362 C 
HETATM   11  C16 UNL     1       3.024  -1.100   0.866  1.00  0.00     0.148 C 
HETATM   12  O2  UNL     1       6.313   0.376   0.395  1.00  0.00    -0.238 OA
HETATM   13  O3  UNL     1      -0.741  -0.112   1.048  1.00  0.00    -0.270 OA
BRANCH  10  14
HETATM   14  O1  UNL     1       5.736  -1.452   1.577  1.00  0.00    -0.304 OA
BRANCH  14  15
HETATM   15  C2  UNL     1       7.054  -1.690   1.967  1.00  0.00     0.176 C 
HETATM   16  C1  UNL     1       7.971  -1.915   0.761  1.00  0.00     0.034 C 
ENDBRANCH  14  15
ENDBRANCH  10  14
ENDBRANCH   2   4
ENDBRANCH   1   2
BRANCH   1  17
HETATM   17  C9  UNL     1      -2.476   0.967  -2.071  1.00  0.00     0.167 C 
HETATM   18  C10 UNL     1      -3.448   2.043  -2.580  1.00  0.00     0.044 C 
BRANCH  17  19
HETATM   19  C11 UNL     1      -3.213  -0.354  -2.009  1.00  0.00     0.250 C 
BRANCH  19  20
HETATM   20  O5  UNL     1      -3.645  -0.762  -3.269  1.00  0.00    -0.374 OA
ATOM     21  H5  UNL     1      -4.107  -1.591  -3.230  1.00  0.00     0.212 HD
ENDBRANCH  19  20
BRANCH  19  22
HETATM   22  N3  UNL     1      -4.304  -0.238  -1.074  1.00  0.00    -0.314 N 
HETATM   23  C12 UNL     1      -4.408  -1.028   0.085  1.00  0.00     0.318 C 
HETATM   24  O6  UNL     1      -3.550  -1.889   0.370  1.00  0.00    -0.247 OA
HETATM   25  N4  UNL     1      -5.513  -0.852   0.957  1.00  0.00    -0.335 N 
ATOM     26  H4  UNL     1      -6.225  -0.155   0.738  1.00  0.00     0.164 HD
ATOM     27  H3  UNL     1      -5.034   0.449  -1.262  1.00  0.00     0.166 HD
BRANCH  25  28
HETATM   28  C13 UNL     1      -5.637  -1.655   2.155  1.00  0.00     0.241 C 
BRANCH  28  29
HETATM   29  C14 UNL     1      -6.901  -1.239   2.867  1.00  0.00     0.403 C 
HETATM   30  F1  UNL     1      -7.131  -1.928   4.020  1.00  0.00    -0.169 F 
HETATM   31  F2  UNL     1      -6.795   0.139   3.075  1.00  0.00    -0.169 F 
HETATM   32  F3  UNL     1      -7.944  -1.446   1.958  1.00  0.00    -0.169 F 
ENDBRANCH  28  29
ENDBRANCH  25  28
ENDBRANCH  19  22
ENDBRANCH  17  19
ENDBRANCH   1  17
TORSDOF 10
