REMARK  10 active torsions:
REMARK  status: ('A' for Active; 'I' for Inactive)
REMARK    1  A    between atoms: C5_5  and  S1_6 
REMARK    2  A    between atoms: S1_6  and  N1_9 
REMARK    3  A    between atoms: N1_9  and  C6_11 
REMARK    4  A    between atoms: C11_16  and  C12_17 
REMARK    5  A    between atoms: C12_17  and  O3_19 
REMARK    6  A    between atoms: O3_19  and  C13_20 
REMARK    7  A    between atoms: C13_20  and  C14_21 
REMARK    8  A    between atoms: C15_24  and  C16_25 
REMARK    9  A    between atoms: C19_28  and  O4_29 
REMARK   10  A    between atoms: O4_29  and  C20_30 
ROOT
HETATM    1  C12 UNL     1      -0.552  -1.202  -0.367  1.00  0.00     0.149 C 
HETATM    2  S2  UNL     1       0.002   0.311  -0.717  1.00  0.00    -0.052 SA
ENDROOT
BRANCH   1   3
HETATM    3  C11 UNL     1      -1.785  -1.595  -1.091  1.00  0.00     0.036 A 
HETATM    4  C6  UNL     1      -2.994  -1.666  -0.436  1.00  0.00     0.056 A 
HETATM    5  C7  UNL     1      -4.112  -2.035  -1.148  1.00  0.00     0.031 A 
HETATM    6  C8  UNL     1      -3.996  -2.323  -2.491  1.00  0.00     0.002 A 
HETATM    7  C9  UNL     1      -2.799  -2.258  -3.164  1.00  0.00     0.001 A 
HETATM    8  C10 UNL     1      -1.690  -1.886  -2.432  1.00  0.00     0.017 A 
BRANCH   4   9
HETATM    9  N1  UNL     1      -3.035  -1.363   0.953  1.00  0.00    -0.280 N 
ATOM     10  H1  UNL     1      -2.159  -1.447   1.469  1.00  0.00     0.179 HD
BRANCH   9  11
HETATM   11  S1  UNL     1      -4.401  -0.875   1.837  1.00  0.00     0.263 S 
HETATM   12  O1  UNL     1      -4.044  -0.807   3.315  1.00  0.00    -0.200 OA
HETATM   13  O2  UNL     1      -5.485  -1.943   1.763  1.00  0.00    -0.200 OA
BRANCH  11  14
HETATM   14  C5  UNL     1      -5.115   0.609   1.334  1.00  0.00     0.079 A 
HETATM   15  C4  UNL     1      -6.121   0.634   0.411  1.00  0.00     0.026 A 
HETATM   16  C3  UNL     1      -6.689   1.826   0.013  1.00  0.00     0.008 A 
HETATM   17  C2  UNL     1      -6.258   3.017   0.532  1.00  0.00    -0.062 A 
HETATM   18  C1  UNL     1      -6.885   4.303   0.089  1.00  0.00     0.048 C 
HETATM   19  C24 UNL     1      -5.242   3.009   1.465  1.00  0.00     0.008 A 
HETATM   20  C23 UNL     1      -4.668   1.822   1.871  1.00  0.00     0.026 A 
ENDBRANCH  11  14
ENDBRANCH   9  11
ENDBRANCH   4   9
ENDBRANCH   1   3
BRANCH   1  21
HETATM   21  O3  UNL     1       0.081  -2.029   0.523  1.00  0.00    -0.332 OA
BRANCH  21  22
HETATM   22  C13 UNL     1       1.121  -2.914   0.215  1.00  0.00     0.263 C 
BRANCH  22  23
HETATM   23  C14 UNL     1       2.314  -2.180  -0.343  1.00  0.00     0.172 A 
HETATM   24  N2  UNL     1       3.347  -1.669   0.346  1.00  0.00    -0.321 N 
HETATM   25  C15 UNL     1       4.186  -1.102  -0.519  1.00  0.00     0.137 A 
ATOM     26  H2  UNL     1       3.468  -1.708   1.358  1.00  0.00     0.169 HD
HETATM   27  N3  UNL     1       3.637  -1.283  -1.733  1.00  0.00    -0.242 N 
HETATM   28  O5  UNL     1       2.517  -1.930  -1.614  1.00  0.00    -0.220 OA
ATOM     29  H3  UNL     1       4.039  -0.961  -2.613  1.00  0.00     0.196 HD
BRANCH  25  30
HETATM   30  C16 UNL     1       5.456  -0.412  -0.253  1.00  0.00     0.010 A 
HETATM   31  C17 UNL     1       6.173   0.104  -1.294  1.00  0.00     0.018 A 
HETATM   32  C18 UNL     1       7.355   0.753  -1.109  1.00  0.00     0.038 A 
HETATM   33  C19 UNL     1       7.877   0.913   0.163  1.00  0.00     0.074 A 
HETATM   34  C21 UNL     1       7.160   0.395   1.216  1.00  0.00     0.038 A 
HETATM   35  C22 UNL     1       5.945  -0.270   1.010  1.00  0.00     0.018 A 
BRANCH  33  36
HETATM   36  O4  UNL     1       9.077   1.581   0.262  1.00  0.00    -0.290 OA
BRANCH  36  37
HETATM   37  C20 UNL     1       9.810   1.875   1.398  1.00  0.00     0.505 C 
HETATM   38  F1  UNL     1       9.863   3.250   1.538  1.00  0.00    -0.184 F 
HETATM   39  F2  UNL     1      11.072   1.315   1.390  1.00  0.00    -0.184 F 
ENDBRANCH  36  37
ENDBRANCH  33  36
ENDBRANCH  25  30
ENDBRANCH  22  23
ENDBRANCH  21  22
ENDBRANCH   1  21
TORSDOF 10
