REMARK  10 active torsions:
REMARK  status: ('A' for Active; 'I' for Inactive)
REMARK    1  A    between atoms: O1_2  and  C2_3 
REMARK    2  A    between atoms: C2_3  and  C3_5 
REMARK    3  A    between atoms: C3_5  and  C4_6 
REMARK    4  A    between atoms: C3_5  and  C11_18 
REMARK       I    between atoms: C4_6  and  N1_8 
REMARK    5  A    between atoms: N1_8  and  C5_10 
REMARK    6  A    between atoms: C14_21  and  O4_22 
REMARK    7  A    between atoms: O4_22  and  C15_23 
REMARK    8  A    between atoms: C15_23  and  C16_24 
REMARK    9  A    between atoms: C20_28  and  C21_29 
REMARK   10  A    between atoms: C22_33  and  S1_34 
ROOT
HETATM    1  C11 UNL     1      -0.670   0.230  -0.397  1.00  0.00     0.008 C 
HETATM    2  C12 UNL     1      -0.717   0.411  -1.904  1.00  0.00     0.008 C 
HETATM    3  C13 UNL     1       0.193  -0.619  -2.477  1.00  0.00     0.032 C 
HETATM    4  C14 UNL     1       1.498  -0.744  -1.736  1.00  0.00     0.121 C 
HETATM    5  C25 UNL     1       1.751   0.315  -0.725  1.00  0.00     0.032 C 
HETATM    6  C26 UNL     1       0.614   0.886   0.022  1.00  0.00     0.008 C 
ENDROOT
BRANCH   1   7
HETATM    7  C3  UNL     1      -1.900   0.743   0.271  1.00  0.00     0.181 C 
BRANCH   7   8
HETATM    8  C2  UNL     1      -1.834   0.569   1.737  1.00  0.00     0.272 C 
HETATM    9  O2  UNL     1      -2.627  -0.241   2.336  1.00  0.00    -0.264 OA
BRANCH   8  10
HETATM   10  O1  UNL     1      -0.957   1.224   2.583  1.00  0.00    -0.326 OA
HETATM   11  C1  UNL     1      -0.938   1.015   3.986  1.00  0.00     0.213 C 
ENDBRANCH   8  10
ENDBRANCH   7   8
BRANCH   7  12
HETATM   12  C4  UNL     1      -3.128   0.065  -0.204  1.00  0.00     0.232 C 
HETATM   13  O3  UNL     1      -3.047  -0.981  -0.862  1.00  0.00    -0.273 OA
HETATM   14  N1  UNL     1      -4.379   0.613   0.099  1.00  0.00    -0.356 N 
ATOM     15  H1  UNL     1      -4.403   1.475   0.643  1.00  0.00     0.162 HD
BRANCH  14  16
HETATM   16  C5  UNL     1      -5.646   0.034  -0.311  1.00  0.00     0.084 C 
HETATM   17  C6  UNL     1      -6.356   1.042  -1.160  1.00  0.00     0.031 C 
HETATM   18  C7  UNL     1      -7.850   0.861  -1.199  1.00  0.00     0.081 C 
HETATM   19  C8  UNL     1      -8.479   1.070   0.161  1.00  0.00     0.243 C 
HETATM   20  F1  UNL     1      -8.870   2.401   0.311  1.00  0.00    -0.206 F 
HETATM   21  F2  UNL     1      -9.564   0.227   0.253  1.00  0.00    -0.206 F 
HETATM   22  C9  UNL     1      -7.446   0.790   1.224  1.00  0.00     0.081 C 
HETATM   23  C10 UNL     1      -6.529  -0.361   0.827  1.00  0.00     0.031 C 
ENDBRANCH  14  16
ENDBRANCH   7  12
ENDBRANCH   1   7
BRANCH   4  24
HETATM   24  O4  UNL     1       2.580  -0.817  -2.585  1.00  0.00    -0.381 OA
BRANCH  24  25
HETATM   25  C15 UNL     1       3.333  -1.951  -2.547  1.00  0.00     0.206 C 
BRANCH  25  26
HETATM   26  C16 UNL     1       3.993  -2.250  -1.261  1.00  0.00    -0.034 A 
HETATM   27  C17 UNL     1       3.503  -3.228  -0.434  1.00  0.00     0.009 A 
HETATM   28  C18 UNL     1       4.158  -3.463   0.756  1.00  0.00     0.002 A 
HETATM   29  C19 UNL     1       5.276  -2.745   1.117  1.00  0.00     0.015 A 
HETATM   30  C20 UNL     1       5.794  -1.753   0.304  1.00  0.00     0.010 A 
HETATM   31  C24 UNL     1       5.111  -1.542  -0.885  1.00  0.00     0.024 A 
BRANCH  30  32
HETATM   32  C21 UNL     1       6.963  -0.977   0.665  1.00  0.00     0.138 A 
HETATM   33  N2  UNL     1       7.718  -1.062   1.743  1.00  0.00    -0.241 N 
HETATM   34  O5  UNL     1       8.679  -0.174   1.704  1.00  0.00    -0.210 OA
ATOM     35  H2  UNL     1       7.573  -1.728   2.502  1.00  0.00     0.196 HD
HETATM   36  C22 UNL     1       8.572   0.523   0.584  1.00  0.00     0.209 A 
HETATM   37  N3  UNL     1       7.487   0.013  -0.071  1.00  0.00    -0.314 N 
ATOM     38  H3  UNL     1       7.134   0.333  -0.973  1.00  0.00     0.170 HD
BRANCH  36  39
HETATM   39  S1  UNL     1       9.627   1.845   0.056  1.00  0.00    -0.089 SA
HETATM   40  C23 UNL     1       8.999   3.452   0.664  1.00  0.00     0.099 C 
ENDBRANCH  36  39
ENDBRANCH  30  32
ENDBRANCH  25  26
ENDBRANCH  24  25
ENDBRANCH   4  24
TORSDOF 10
