REMARK  6 active torsions:
REMARK  status: ('A' for Active; 'I' for Inactive)
REMARK    1  A    between atoms: N1_2  and  C2_5 
REMARK    2  A    between atoms: C2_5  and  C3_6 
REMARK    3  A    between atoms: C3_6  and  N2_7 
REMARK       I    between atoms: N2_7  and  C4_9 
REMARK       I    between atoms: C4_9  and  N5_14 
REMARK    4  A    between atoms: N5_14  and  C6_16 
REMARK    5  A    between atoms: C6_16  and  C7_17 
REMARK    6  A    between atoms: C7_17  and  N6_18 
ROOT
HETATM    1  N2  UNL     1       3.266   1.585   0.087  1.00  0.00    -0.224 N 
ATOM      2  H2  UNL     1       2.984   2.529   0.350  1.00  0.00     0.177 HD
HETATM    3  C4  UNL     1       2.470   0.918  -0.854  1.00  0.00     0.683 C 
HETATM    4  N3  UNL     1       2.543   1.249  -2.085  1.00  0.00    -0.126 N 
ATOM      5  H3  UNL     1       1.959   0.755  -2.760  1.00  0.00     0.197 HD
HETATM    6  C5  UNL     1       3.391   2.261  -2.546  1.00  0.00     0.196 C 
HETATM    7  N4  UNL     1       4.091   3.113  -2.948  1.00  0.00    -0.171 NA
HETATM    8  N5  UNL     1       1.597  -0.104  -0.457  1.00  0.00    -0.224 N 
ATOM      9  H5  UNL     1       1.951  -1.025  -0.199  1.00  0.00     0.177 HD
ENDROOT
BRANCH   1  10
HETATM   10  C3  UNL     1       4.455   1.050   0.719  1.00  0.00     0.165 C 
BRANCH  10  11
HETATM   11  C2  UNL     1       5.583   0.882  -0.258  1.00  0.00     0.252 C 
BRANCH  11  12
HETATM   12  N1  UNL     1       6.754   0.352   0.386  1.00  0.00    -0.077 N 
HETATM   13  C1  UNL     1       6.599  -1.002   0.821  1.00  0.00     0.267 C 
ATOM     14  H12 UNL     1       7.043   0.950   1.160  1.00  0.00     0.276 HD
ATOM     15  H11 UNL     1       7.572   0.447  -0.216  1.00  0.00     0.276 HD
ENDBRANCH  11  12
ENDBRANCH  10  11
ENDBRANCH   1  10
BRANCH   8  16
HETATM   16  C6  UNL     1       0.186   0.182  -0.423  1.00  0.00     0.158 C 
BRANCH  16  17
HETATM   17  C7  UNL     1      -0.654  -0.981  -0.015  1.00  0.00     0.143 C 
BRANCH  17  18
HETATM   18  N6  UNL     1      -2.022  -0.606  -0.023  1.00  0.00    -0.379 N 
HETATM   19  C8  UNL     1      -2.345   0.354   1.057  1.00  0.00     0.202 C 
HETATM   20  C9  UNL     1      -3.748   0.440   1.083  1.00  0.00    -0.163 C 
HETATM   21  C10 UNL     1      -5.082   0.764   1.342  1.00  0.00     0.085 C 
HETATM   22  C11 UNL     1      -5.902  -0.207   0.425  1.00  0.00     0.038 C 
HETATM   23  C12 UNL     1      -5.266  -0.594  -0.831  1.00  0.00    -0.024 C 
HETATM   24  C13 UNL     1      -4.182  -1.521  -1.053  1.00  0.00     0.013 C 
HETATM   25  C14 UNL     1      -2.933  -1.625  -0.305  1.00  0.00     0.086 C 
ENDBRANCH  17  18
ENDBRANCH  16  17
ENDBRANCH   8  16
TORSDOF 6
