REMARK  14 active torsions:
REMARK  status: ('A' for Active; 'I' for Inactive)
REMARK    1  A    between atoms: C2_3  and  S1_4 
REMARK    2  A    between atoms: S1_4  and  C3_5 
REMARK    3  A    between atoms: C3_5  and  C4_6 
REMARK       I    between atoms: C4_6  and  N2_8 
REMARK    4  A    between atoms: N2_8  and  C5_10 
REMARK    5  A    between atoms: C6_11  and  O2_12 
REMARK    6  A    between atoms: C7_14  and  N3_15 
REMARK    7  A    between atoms: C9_17  and  C10_18 
REMARK    8  A    between atoms: C12_22  and  C13_23 
REMARK    9  A    between atoms: C15_34  and  C16_35 
REMARK   10  A    between atoms: C16_35  and  O4_36 
REMARK   11  A    between atoms: C16_35  and  O5_38 
REMARK   12  A    between atoms: C17_44  and  C18_45 
REMARK   13  A    between atoms: C18_45  and  N12_46 
REMARK   14  A    between atoms: C18_45  and  N13_50 
ROOT
HETATM    1  C5  UNL     1       0.387  -2.026  -0.056  1.00  0.00     0.152 C 
HETATM    2  C6  UNL     1      -0.332  -1.294   1.027  1.00  0.00     0.194 C 
HETATM    3  C7  UNL     1      -1.523  -2.141   1.324  1.00  0.00     0.335 C 
HETATM    4  N9  UNL     1      -1.790  -2.933   0.140  1.00  0.00    -0.039 N 
ATOM      5  H91 UNL     1      -2.488  -2.520  -0.478  1.00  0.00     0.280 HD
ATOM      6  H92 UNL     1      -2.294  -3.799   0.333  1.00  0.00     0.280 HD
HETATM    7  C15 UNL     1      -0.502  -3.140  -0.495  1.00  0.00     0.267 C 
ENDROOT
BRANCH   1   8
HETATM    8  N2  UNL     1       1.632  -2.522   0.494  1.00  0.00    -0.351 N 
HETATM    9  C4  UNL     1       2.858  -2.044  -0.013  1.00  0.00     0.227 C 
HETATM   10  O1  UNL     1       2.862  -1.199  -0.927  1.00  0.00    -0.273 OA
ATOM     11  H2  UNL     1       1.622  -3.213   1.244  1.00  0.00     0.163 HD
BRANCH   9  12
HETATM   12  C3  UNL     1       4.138  -2.538   0.533  1.00  0.00     0.185 C 
BRANCH  12  13
HETATM   13  S1  UNL     1       5.496  -1.723  -0.312  1.00  0.00    -0.083 SA
BRANCH  13  14
HETATM   14  C2  UNL     1       5.464   0.017   0.103  1.00  0.00     0.162 A 
HETATM   15  N1  UNL     1       6.300   0.971  -0.317  1.00  0.00    -0.316 N 
HETATM   16  C1  UNL     1       7.427   0.787  -1.215  1.00  0.00     0.160 C 
HETATM   17  C17 UNL     1       5.973   2.169   0.201  1.00  0.00     0.158 A 
HETATM   18  N11 UNL     1       4.893   1.942   0.970  1.00  0.00    -0.284 N 
HETATM   19  N10 UNL     1       4.578   0.660   0.920  1.00  0.00    -0.278 N 
ATOM     20  H11 UNL     1       4.394   2.650   1.509  1.00  0.00     0.188 HD
ATOM     21  H10 UNL     1       3.799   0.221   1.412  1.00  0.00     0.189 HD
BRANCH  17  22
HETATM   22  C18 UNL     1       6.628   3.490   0.002  1.00  0.00     0.446 C 
BRANCH  22  23
HETATM   23  N12 UNL     1       8.068   3.373   0.101  1.00  0.00    -0.043 N 
ATOM     24 3H12 UNL     1       8.351   2.941   0.980  1.00  0.00     0.277 HD
ATOM     25 2H12 UNL     1       8.434   2.670  -0.542  1.00  0.00     0.277 HD
ATOM     26 1H12 UNL     1       8.517   4.279  -0.035  1.00  0.00     0.277 HD
ENDBRANCH  22  23
BRANCH  22  27
HETATM   27  N13 UNL     1       6.247   4.093  -1.246  1.00  0.00    -0.043 N 
ATOM     28 3H13 UNL     1       6.428   3.467  -2.031  1.00  0.00     0.277 HD
ATOM     29 2H13 UNL     1       5.233   4.165  -1.329  1.00  0.00     0.277 HD
ATOM     30 1H13 UNL     1       6.696   4.999  -1.382  1.00  0.00     0.277 HD
ENDBRANCH  22  27
ENDBRANCH  17  22
ENDBRANCH  13  14
ENDBRANCH  12  13
ENDBRANCH   9  12
ENDBRANCH   1   8
BRANCH   2  31
HETATM   31  O2  UNL     1      -0.749  -0.024   0.636  1.00  0.00    -0.390 OA
ATOM     32  H2  UNL     1      -1.207   0.442   1.326  1.00  0.00     0.210 HD
ENDBRANCH   2  31
BRANCH   7  33
HETATM   33  C16 UNL     1      -0.724  -3.191  -1.983  1.00  0.00     0.286 C 
BRANCH  33  34
HETATM   34  O4  UNL     1      -1.595  -4.256  -2.246  1.00  0.00    -0.369 OA
ATOM     35  H4  UNL     1      -1.735  -4.288  -3.185  1.00  0.00     0.212 HD
ENDBRANCH  33  34
BRANCH  33  36
HETATM   36  O5  UNL     1       0.462  -3.343  -2.687  1.00  0.00    -0.369 OA
ATOM     37  H5  UNL     1       0.322  -3.375  -3.626  1.00  0.00     0.212 HD
ENDBRANCH  33  36
ENDBRANCH   7  33
BRANCH   3  38
HETATM   38  N3  UNL     1      -2.624  -1.274   1.680  1.00  0.00    -0.251 N 
HETATM   39  C8  UNL     1      -3.266  -0.481   0.811  1.00  0.00     0.142 A 
HETATM   40  C9  UNL     1      -4.250   0.200   1.487  1.00  0.00     0.077 A 
HETATM   41  N7  UNL     1      -4.162  -0.217   2.760  1.00  0.00    -0.282 N 
HETATM   42  N8  UNL     1      -3.186  -1.101   2.873  1.00  0.00    -0.018 NA
ATOM     43  H7  UNL     1      -4.758   0.100   3.524  1.00  0.00     0.184 HD
BRANCH  40  44
HETATM   44  C10 UNL     1      -5.215   1.198   0.919  1.00  0.00     0.050 A 
HETATM   45  C11 UNL     1      -4.919   2.534   0.878  1.00  0.00     0.102 A 
HETATM   46  N4  UNL     1      -3.703   3.173   1.346  1.00  0.00    -0.093 NA
HETATM   47  S2  UNL     1      -6.299   3.222   0.162  1.00  0.00    -0.067 SA
HETATM   48  C12 UNL     1      -7.220   1.811  -0.069  1.00  0.00     0.096 A 
HETATM   49  C14 UNL     1      -6.418   0.820   0.424  1.00  0.00     0.083 A 
HETATM   50  N6  UNL     1      -6.895  -0.567   0.391  1.00  0.00    -0.100 NA
BRANCH  48  51
HETATM   51  C13 UNL     1      -8.573   1.670  -0.665  1.00  0.00     0.273 C 
HETATM   52  N5  UNL     1      -9.279   2.798  -1.133  1.00  0.00    -0.057 NA
HETATM   53  O3  UNL     1      -9.108   0.541  -0.758  1.00  0.00    -0.270 OA
ENDBRANCH  48  51
ENDBRANCH  40  44
ENDBRANCH   3  38
TORSDOF 14
