REMARK  8 active torsions:
REMARK  status: ('A' for Active; 'I' for Inactive)
REMARK    1  A    between atoms: C14_17  and  O4_18 
REMARK    2  A    between atoms: C20_25  and  C22_27 
REMARK    3  A    between atoms: C22_27  and  C23_28 
REMARK    4  A    between atoms: C23_28  and  C24_29 
REMARK    5  A    between atoms: C24_29  and  C25_30 
REMARK    6  A    between atoms: C25_30  and  C26_31 
REMARK    7  A    between atoms: C26_31  and  C27_32 
REMARK    8  A    between atoms: C27_32  and  N1_33 
ROOT
HETATM    1  C1  UNL     1       1.262  -3.783   0.841  1.00  0.00     0.041 C 
HETATM    2  C2  UNL     1      -0.046  -3.064   0.862  1.00  0.00     0.137 C 
HETATM    3  O1  UNL     1      -0.881  -3.710   0.002  1.00  0.00    -0.315 OA
HETATM    4  C3  UNL     1      -1.338  -3.058  -1.072  1.00  0.00     0.264 C 
HETATM    5  O2  UNL     1      -1.378  -3.494  -2.265  1.00  0.00    -0.265 OA
HETATM    6  C4  UNL     1      -1.856  -1.682  -0.862  1.00  0.00     0.096 C 
HETATM    7  C5  UNL     1      -3.319  -1.957  -0.678  1.00  0.00     0.016 C 
HETATM    8  C6  UNL     1      -3.346  -2.407   0.723  1.00  0.00     0.014 C 
HETATM    9  C7  UNL     1      -2.261  -1.645   1.428  1.00  0.00     0.066 C 
HETATM   10  C8  UNL     1      -2.979  -0.733   2.348  1.00  0.00     0.132 C 
HETATM   11  O3  UNL     1      -3.010  -0.821   3.566  1.00  0.00    -0.298 OA
HETATM   12  C9  UNL     1      -3.674   0.318   1.654  1.00  0.00     0.085 C 
HETATM   13  C10 UNL     1      -2.626   1.159   0.990  1.00  0.00     0.012 C 
HETATM   14  C11 UNL     1      -3.402   2.233   0.396  1.00  0.00    -0.017 C 
HETATM   15  C12 UNL     1      -4.815   1.864  -0.035  1.00  0.00     0.018 C 
HETATM   16  C13 UNL     1      -3.725   3.237   1.549  1.00  0.00     0.018 C 
HETATM   17  C14 UNL     1      -2.818   3.124  -0.641  1.00  0.00     0.126 C 
HETATM   18  C15 UNL     1      -1.799   2.397  -1.409  1.00  0.00     0.033 C 
HETATM   19  C16 UNL     1      -1.803   0.897  -1.229  1.00  0.00     0.013 C 
HETATM   20  C17 UNL     1      -1.521   0.461   0.227  1.00  0.00    -0.029 C 
HETATM   21  C18 UNL     1      -0.298   1.361   0.438  1.00  0.00     0.016 C 
HETATM   22  C19 UNL     1      -1.345  -0.990   0.404  1.00  0.00    -0.000 C 
HETATM   23  C20 UNL     1       0.039  -1.544   0.783  1.00  0.00    -0.008 C 
HETATM   24  C21 UNL     1       0.433  -1.186   2.204  1.00  0.00     0.019 C 
ENDROOT
BRANCH  23  25
HETATM   25  C22 UNL     1       1.199  -1.173  -0.034  1.00  0.00     0.012 C 
BRANCH  25  26
HETATM   26  C23 UNL     1       1.502  -1.433  -1.403  1.00  0.00     0.001 C 
BRANCH  26  27
HETATM   27  C24 UNL     1       2.855  -0.780  -1.734  1.00  0.00     0.000 C 
BRANCH  27  28
HETATM   28  C25 UNL     1       3.973  -1.317  -0.889  1.00  0.00     0.002 C 
BRANCH  28  29
HETATM   29  C26 UNL     1       5.286  -0.662  -1.263  1.00  0.00     0.030 C 
BRANCH  29  30
HETATM   30  C27 UNL     1       5.297   0.818  -1.087  1.00  0.00     0.271 C 
BRANCH  30  31
HETATM   31  N1  UNL     1       5.043   1.224   0.288  1.00  0.00     0.080 N 
HETATM   32  C28 UNL     1       6.161   0.837   1.159  1.00  0.00     0.309 C 
HETATM   33  C29 UNL     1       5.090   2.696   0.267  1.00  0.00     0.309 C 
ENDBRANCH  30  31
ENDBRANCH  29  30
ENDBRANCH  28  29
ENDBRANCH  27  28
ENDBRANCH  26  27
ENDBRANCH  25  26
ENDBRANCH  23  25
BRANCH  17  34
HETATM   34  O4  UNL     1      -3.799   3.698  -1.447  1.00  0.00    -0.395 OA
ATOM     35  H4  UNL     1      -3.426   4.267  -2.110  1.00  0.00     0.210 HD
ENDBRANCH  17  34
TORSDOF 8
