REMARK  8 active torsions:
REMARK  status: ('A' for Active; 'I' for Inactive)
REMARK    1  A    between atoms: C2_2  and  C4_4 
REMARK    2  A    between atoms: C4_4  and  C5_5 
REMARK    3  A    between atoms: C5_5  and  C6_6 
REMARK    4  A    between atoms: C6_6  and  C7_8 
REMARK    5  A    between atoms: C12_13  and  O2_14 
REMARK    6  A    between atoms: C17_20  and  C19_22 
REMARK    7  A    between atoms: C19_22  and  O4_24 
REMARK    8  A    between atoms: O4_24  and  C20_25 
ROOT
HETATM    1  C7  UNL     1      -3.677   1.322  -0.917  1.00  0.00     0.064 C 
HETATM    2  C8  UNL     1      -3.430   1.776  -2.332  1.00  0.00     0.013 C 
HETATM    3  C9  UNL     1      -1.912   1.968  -2.447  1.00  0.00     0.007 C 
HETATM    4  C10 UNL     1      -1.460   1.773  -1.034  1.00  0.00     0.001 C 
HETATM    5  C11 UNL     1      -0.045   1.621  -0.752  1.00  0.00     0.024 C 
HETATM    6  C12 UNL     1       0.868   1.458  -1.935  1.00  0.00     0.123 C 
HETATM    7  C13 UNL     1       2.303   1.486  -1.413  1.00  0.00     0.042 C 
HETATM    8  C14 UNL     1       2.490   0.507  -0.289  1.00  0.00     0.026 C 
HETATM    9  C15 UNL     1       3.907   0.451   0.100  1.00  0.00    -0.066 C 
HETATM   10  C16 UNL     1       4.852   1.209  -0.399  1.00  0.00     0.016 C 
HETATM   11  C17 UNL     1       4.245  -0.574   1.155  1.00  0.00     0.067 C 
HETATM   12  C18 UNL     1       5.001   0.013   2.299  1.00  0.00     0.031 C 
HETATM   13  C22 UNL     1       2.940  -1.216   1.544  1.00  0.00     0.025 C 
HETATM   14  C23 UNL     1       1.898  -0.212   1.961  1.00  0.00     0.012 C 
HETATM   15  C24 UNL     1       1.575   0.791   0.882  1.00  0.00    -0.032 C 
HETATM   16  C25 UNL     1       1.766   2.162   1.462  1.00  0.00     0.016 C 
HETATM   17  C26 UNL     1       0.171   0.584   0.332  1.00  0.00     0.001 C 
HETATM   18  C27 UNL     1      -0.890   0.815   1.369  1.00  0.00     0.007 C 
HETATM   19  C28 UNL     1      -2.192   0.282   0.811  1.00  0.00     0.011 C 
HETATM   20  C29 UNL     1      -2.372   0.605  -0.633  1.00  0.00    -0.030 C 
HETATM   21  C30 UNL     1      -2.259  -0.542  -1.556  1.00  0.00     0.016 C 
ENDROOT
BRANCH   1  22
HETATM   22  C6  UNL     1      -4.898   0.611  -0.646  1.00  0.00     0.132 C 
HETATM   23  O1  UNL     1      -5.657   1.138   0.201  1.00  0.00    -0.298 OA
BRANCH  22  24
HETATM   24  C5  UNL     1      -5.403  -0.641  -1.208  1.00  0.00     0.083 C 
BRANCH  24  25
HETATM   25  C4  UNL     1      -6.740  -1.094  -0.719  1.00  0.00     0.040 C 
BRANCH  25  26
HETATM   26  C2  UNL     1      -6.843  -1.355   0.721  1.00  0.00    -0.093 C 
HETATM   27  C1  UNL     1      -7.736  -0.705   1.443  1.00  0.00     0.014 C 
HETATM   28  C3  UNL     1      -5.956  -2.344   1.379  1.00  0.00     0.042 C 
ENDBRANCH  25  26
ENDBRANCH  24  25
ENDBRANCH  22  24
ENDBRANCH   1  22
BRANCH   6  29
HETATM   29  O2  UNL     1       0.754   2.659  -2.679  1.00  0.00    -0.395 OA
ATOM     30  H2  UNL     1       1.331   2.556  -3.427  1.00  0.00     0.210 HD
ENDBRANCH   6  29
BRANCH  11  31
HETATM   31  C19 UNL     1       5.098  -1.646   0.540  1.00  0.00     0.271 C 
HETATM   32  O3  UNL     1       5.437  -1.610  -0.664  1.00  0.00    -0.264 OA
BRANCH  31  33
HETATM   33  O4  UNL     1       5.536  -2.715   1.305  1.00  0.00    -0.321 OA
BRANCH  33  34
HETATM   34  C20 UNL     1       6.349  -3.738   0.721  1.00  0.00     0.174 C 
HETATM   35  C21 UNL     1       7.605  -3.076   0.216  1.00  0.00     0.034 C 
ENDBRANCH  33  34
ENDBRANCH  31  33
ENDBRANCH  11  31
TORSDOF 8
