REMARK  7 active torsions:
REMARK  status: ('A' for Active; 'I' for Inactive)
REMARK    1  A    between atoms: S1_2  and  C2_3 
REMARK    2  A    between atoms: C2_3  and  N4_13 
REMARK    3  A    between atoms: N1_4  and  C3_6 
REMARK    4  A    between atoms: C3_6  and  N2_8 
REMARK    5  A    between atoms: N2_8  and  N3_10 
REMARK    6  A    between atoms: N4_13  and  C4_15 
REMARK    7  A    between atoms: C4_15  and  C5_16 
ROOT
HETATM    1  C2  UNL     1       1.810  -0.245  -0.913  1.00  0.00     0.141 C 
HETATM    2  N1  UNL     1       2.705  -1.169  -0.875  1.00  0.00    -0.313 N 
ATOM      3  H1  UNL     1       3.460  -1.178  -1.561  1.00  0.00     0.170 HD
ENDROOT
BRANCH   1   4
HETATM    4  S1  UNL     1       1.859   1.032  -2.148  1.00  0.00    -0.099 SA
HETATM    5  C1  UNL     1       0.511   2.197  -1.991  1.00  0.00     0.099 C 
ENDBRANCH   1   4
BRANCH   1   6
HETATM    6  N4  UNL     1       0.759  -0.228   0.039  1.00  0.00    -0.368 N 
ATOM      7  H4  UNL     1       0.930   0.083   0.995  1.00  0.00     0.161 HD
BRANCH   6   8
HETATM    8  C4  UNL     1      -0.558  -0.659  -0.369  1.00  0.00     0.153 C 
BRANCH   8   9
HETATM    9  C5  UNL     1      -1.556  -0.587   0.760  1.00  0.00     0.139 C 
HETATM   10  C6  UNL     1      -1.679   0.857   1.194  1.00  0.00     0.035 C 
HETATM   11  C7  UNL     1      -2.770   1.332   0.228  1.00  0.00     0.029 C 
HETATM   12  C8  UNL     1      -3.611   0.074   0.169  1.00  0.00     0.168 C 
HETATM   13  O1  UNL     1      -2.789  -1.002   0.333  1.00  0.00    -0.384 OA
ENDBRANCH   8   9
ENDBRANCH   6   8
ENDBRANCH   1   6
BRANCH   2  14
HETATM   14  C3  UNL     1       2.639  -2.181   0.130  1.00  0.00     0.192 C 
HETATM   15  S2  UNL     1       1.967  -3.637  -0.183  1.00  0.00    -0.039 SA
BRANCH  14  16
HETATM   16  N2  UNL     1       3.152  -1.951   1.417  1.00  0.00    -0.283 N 
ATOM     17  H2  UNL     1       3.096  -2.686   2.122  1.00  0.00     0.188 HD
BRANCH  16  18
HETATM   18  N3  UNL     1       3.747  -0.707   1.746  1.00  0.00    -0.343 N 
ATOM     19  H32 UNL     1       3.795   0.017   1.030  1.00  0.00     0.176 HD
ATOM     20  H31 UNL     1       4.120  -0.540   2.681  1.00  0.00     0.176 HD
ENDBRANCH  16  18
ENDBRANCH  14  16
ENDBRANCH   2  14
TORSDOF 7
