REMARK  6 active torsions:
REMARK  status: ('A' for Active; 'I' for Inactive)
REMARK    1  A    between atoms: N1_1  and  N2_4 
REMARK    2  A    between atoms: N2_4  and  N3_5 
REMARK    3  A    between atoms: N3_5  and  S1_7 
REMARK    4  A    between atoms: S1_7  and  C1_10 
REMARK    5  A    between atoms: C1_10  and  C2_11 
REMARK    6  A    between atoms: C2_11  and  N4_12 
ROOT
HETATM    1  C2  UNL     1      -0.353  -0.371  -0.089  1.00  0.00     0.232 C 
HETATM    2  C3  UNL     1      -0.644   0.536  -1.246  1.00  0.00     0.137 C 
HETATM    3  S2  UNL     1      -1.702   1.934  -0.770  1.00  0.00    -0.163 SA
HETATM    4  C4  UNL     1      -3.312   1.422  -0.145  1.00  0.00     0.095 C 
HETATM    5  C5  UNL     1      -3.626   0.026  -0.538  1.00  0.00     0.151 C 
HETATM    6  N5  UNL     1      -3.485  -0.943   0.504  1.00  0.00    -0.322 N 
ATOM      7  H5  UNL     1      -4.256  -1.560   0.760  1.00  0.00     0.181 HD
HETATM    8  N6  UNL     1      -2.294  -1.012   1.137  1.00  0.00    -0.249 N 
ATOM      9  H6  UNL     1      -2.092  -1.783   1.774  1.00  0.00     0.207 HD
HETATM   10  N7  UNL     1      -1.370  -0.045   0.916  1.00  0.00    -0.285 N 
ATOM     11  H7  UNL     1      -1.381   0.846   1.413  1.00  0.00     0.184 HD
ENDROOT
BRANCH   1  12
HETATM   12  C1  UNL     1       0.969  -0.125   0.589  1.00  0.00     0.227 C 
BRANCH  12  13
HETATM   13  S1  UNL     1       2.392  -0.511  -0.338  1.00  0.00     0.246 S 
HETATM   14  O1  UNL     1       2.425  -1.988  -0.678  1.00  0.00    -0.205 OA
HETATM   15  O2  UNL     1       2.539   0.252  -1.602  1.00  0.00    -0.205 OA
BRANCH  13  16
HETATM   16  N3  UNL     1       3.784  -0.157   0.655  1.00  0.00    -0.211 N 
ATOM     17  H3  UNL     1       4.230  -0.823   1.286  1.00  0.00     0.197 HD
BRANCH  16  18
HETATM   18  N2  UNL     1       4.201   1.156   0.469  1.00  0.00    -0.020 NA
BRANCH  18  19
HETATM   19  N1  UNL     1       5.351   1.122  -0.343  1.00  0.00    -0.328 N 
ATOM     20  H12 UNL     1       5.787   0.280  -0.718  1.00  0.00     0.174 HD
ATOM     21  H11 UNL     1       5.657   2.085  -0.479  1.00  0.00     0.174 HD
ENDBRANCH  18  19
ENDBRANCH  16  18
ENDBRANCH  13  16
ENDBRANCH  12  13
ENDBRANCH   1  12
BRANCH   1  22
HETATM   22  N4  UNL     1      -0.452  -1.773  -0.459  1.00  0.00    -0.050 N 
ATOM     23  H43 UNL     1       0.337  -2.078  -1.029  1.00  0.00     0.277 HD
ATOM     24  H42 UNL     1      -0.305  -2.394   0.337  1.00  0.00     0.277 HD
ATOM     25  H41 UNL     1      -1.347  -1.940  -0.918  1.00  0.00     0.277 HD
ENDBRANCH   1  22
TORSDOF 6
