REMARK  6 active torsions:
REMARK  status: ('A' for Active; 'I' for Inactive)
REMARK    1  A    between atoms: C5_5  and  C6_6 
REMARK    2  A    between atoms: C8_9  and  S2_10 
REMARK    3  A    between atoms: S2_10  and  C9_11 
REMARK    4  A    between atoms: C9_11  and  C10_12 
REMARK       I    between atoms: C10_12  and  N1_14 
REMARK    5  A    between atoms: N1_14  and  C11_16 
REMARK    6  A    between atoms: C14_19  and  N2_20 
ROOT
HETATM    1  C9  UNL     1       1.645   1.036  -1.465  1.00  0.00     0.184 C 
ENDROOT
BRANCH   1   2
HETATM    2  S2  UNL     1       2.529   2.123  -0.364  1.00  0.00    -0.096 SA
BRANCH   2   3
HETATM    3  C8  UNL     1       3.602   1.103   0.701  1.00  0.00     0.112 A 
HETATM    4  S1  UNL     1       3.422   0.262   2.139  1.00  0.00    -0.075 SA
HETATM    5  C7  UNL     1       5.042  -0.340   2.310  1.00  0.00     0.082 A 
HETATM    6  C6  UNL     1       5.628   0.185   1.182  1.00  0.00     0.051 A 
HETATM    7  N3  UNL     1       4.894   0.897   0.401  1.00  0.00    -0.344 N 
ATOM      8  H3  UNL     1       5.293   1.304  -0.445  1.00  0.00     0.167 HD
BRANCH   6   9
HETATM    9  C5  UNL     1       7.086  -0.011   0.894  1.00  0.00     0.009 A 
HETATM   10  C4  UNL     1       7.838  -0.956   1.528  1.00  0.00     0.015 A 
HETATM   11  C3  UNL     1       9.212  -1.068   1.239  1.00  0.00     0.007 A 
HETATM   12  C2  UNL     1       9.843  -0.244   0.323  1.00  0.00    -0.061 A 
HETATM   13  C1  UNL     1      11.299  -0.373   0.019  1.00  0.00     0.048 C 
HETATM   14  C23 UNL     1       9.061   0.698  -0.302  1.00  0.00     0.026 A 
HETATM   15  C22 UNL     1       7.719   0.806  -0.019  1.00  0.00     0.024 A 
HETATM   16 BR1  UNL     1       6.660   2.156  -0.881  1.00  0.00    -0.050 Br
ENDBRANCH   6   9
ENDBRANCH   2   3
ENDBRANCH   1   2
BRANCH   1  17
HETATM   17  C10 UNL     1       0.228   0.878  -0.998  1.00  0.00     0.227 C 
HETATM   18  O1  UNL     1      -0.190   1.583  -0.051  1.00  0.00    -0.273 OA
HETATM   19  N1  UNL     1      -0.546  -0.069  -1.695  1.00  0.00    -0.356 N 
ATOM     20  H1  UNL     1      -0.073  -0.626  -2.406  1.00  0.00     0.162 HD
BRANCH  19  21
HETATM   21  C11 UNL     1      -1.915  -0.312  -1.494  1.00  0.00     0.084 C 
HETATM   22  C12 UNL     1      -2.351  -1.558  -0.858  1.00  0.00     0.027 C 
HETATM   23  C13 UNL     1      -3.494  -1.342   0.130  1.00  0.00     0.038 C 
HETATM   24  C14 UNL     1      -4.588  -0.467  -0.379  1.00  0.00     0.223 C 
HETATM   25  C20 UNL     1      -4.057   0.739  -1.120  1.00  0.00     0.038 C 
HETATM   26  C21 UNL     1      -2.567   0.913  -0.800  1.00  0.00     0.027 C 
BRANCH  24  27
HETATM   27  N2  UNL     1      -5.415  -0.063   0.747  1.00  0.00     0.093 N 
HETATM   28  C15 UNL     1      -6.184   1.129   0.487  1.00  0.00     0.273 C 
HETATM   29  C16 UNL     1      -7.431   1.180   1.356  1.00  0.00     0.030 C 
HETATM   30  C17 UNL     1      -8.411   0.198   0.760  1.00  0.00     0.003 C 
HETATM   31  C18 UNL     1      -7.652  -1.047   0.394  1.00  0.00     0.030 C 
HETATM   32  C19 UNL     1      -6.319  -1.151   1.052  1.00  0.00     0.273 C 
ENDBRANCH  24  27
ENDBRANCH  19  21
ENDBRANCH   1  17
TORSDOF 6
