REMARK  5 active torsions:
REMARK  status: ('A' for Active; 'I' for Inactive)
REMARK    1  A    between atoms: C2_5  and  N3_6 
REMARK    2  A    between atoms: N3_6  and  N4_8 
REMARK    3  A    between atoms: C3_10  and  C4_11 
REMARK    4  A    between atoms: N6_17  and  N7_18 
REMARK    5  A    between atoms: C9_23  and  N8_24 
ROOT
HETATM    1  N1  UNL     1      -4.720  -1.549   0.144  1.00  0.00    -0.079 NA
HETATM    2  C1  UNL     1      -3.500  -0.816   0.036  1.00  0.00     0.170 A 
HETATM    3  N2  UNL     1      -2.325  -1.441  -0.081  1.00  0.00    -0.173 N 
ATOM      4  H2  UNL     1      -2.304  -2.461  -0.094  1.00  0.00     0.185 HD
HETATM    5  C2  UNL     1      -1.153  -0.753  -0.184  1.00  0.00     0.722 A 
HETATM    6  N6  UNL     1      -1.136   0.588  -0.172  1.00  0.00    -0.050 N 
HETATM    7  C8  UNL     1      -2.329   1.222  -0.054  1.00  0.00     0.318 A 
HETATM    8  O1  UNL     1      -2.301   2.479  -0.043  1.00  0.00    -0.263 OA
HETATM    9  C9  UNL     1      -3.539   0.581   0.054  1.00  0.00     0.214 A 
ENDROOT
BRANCH   5  10
HETATM   10  N3  UNL     1      -0.051  -1.408  -0.295  1.00  0.00    -0.130 N 
ATOM     11  H3  UNL     1      -0.075  -2.428  -0.304  1.00  0.00     0.205 HD
BRANCH  10  12
HETATM   12  N4  UNL     1       1.156  -0.762  -0.401  1.00  0.00    -0.295 N 
HETATM   13  C3  UNL     1       2.213  -1.123   0.271  1.00  0.00     0.137 C 
ATOM     14  H4  UNL     1       1.229   0.035  -1.033  1.00  0.00     0.186 HD
BRANCH  13  15
HETATM   15  C4  UNL     1       3.492  -0.442   0.161  1.00  0.00     0.049 A 
HETATM   16  C5  UNL     1       3.783   0.645  -0.636  1.00  0.00     0.032 A 
HETATM   17  C6  UNL     1       5.113   1.002  -0.457  1.00  0.00     0.019 A 
HETATM   18  C7  UNL     1       5.600   0.100   0.464  1.00  0.00     0.088 A 
HETATM   19  N5  UNL     1       4.631  -0.750   0.822  1.00  0.00    -0.365 N 
ATOM     20  H5  UNL     1       4.735  -1.513   1.491  1.00  0.00     0.165 HD
ENDBRANCH  13  15
ENDBRANCH  10  12
ENDBRANCH   5  10
BRANCH   6  21
HETATM   21  N7  UNL     1       0.063   1.300  -0.278  1.00  0.00    -0.321 N 
ATOM     22  H72 UNL     1       0.960   0.823  -0.367  1.00  0.00     0.178 HD
ATOM     23  H71 UNL     1       0.076   2.320  -0.269  1.00  0.00     0.178 HD
ENDBRANCH   6  21
BRANCH   9  24
HETATM   24  N8  UNL     1      -4.776   1.280   0.176  1.00  0.00    -0.106 N 
HETATM   25  O2  UNL     1      -5.363   1.320   1.275  1.00  0.00    -0.531 OA
HETATM   26  O3  UNL     1      -5.372   1.929  -0.878  1.00  0.00    -0.531 OA
ENDBRANCH   9  24
TORSDOF 5
