REMARK  6 active torsions:
REMARK  status: ('A' for Active; 'I' for Inactive)
REMARK    1  A    between atoms: C2_2  and  C3_3 
REMARK    2  A    between atoms: C3_3  and  N1_4 
REMARK       I    between atoms: N1_4  and  C4_6 
REMARK    3  A    between atoms: C4_6  and  C5_8 
REMARK    4  A    between atoms: C5_8  and  N2_9 
REMARK    5  A    between atoms: C5_8  and  C7_13 
REMARK    6  A    between atoms: N2_9  and  C6_11 
REMARK       I    between atoms: C7_13  and  N3_15 
ROOT
HETATM    1  C5  UNL     1      -0.052   1.693  -0.370  1.00  0.00     0.269 C 
ENDROOT
BRANCH   1   2
HETATM    2  C4  UNL     1       1.101   1.187   0.430  1.00  0.00     0.249 C 
HETATM    3  N1  UNL     1       1.681  -0.057   0.155  1.00  0.00    -0.359 N 
ATOM      4  H1  UNL     1       1.302  -0.621  -0.606  1.00  0.00     0.162 HD
HETATM    5  O1  UNL     1       1.570   1.877   1.364  1.00  0.00    -0.271 OA
BRANCH   3   6
HETATM    6  C3  UNL     1       2.811  -0.573   0.922  1.00  0.00     0.122 C 
BRANCH   6   7
HETATM    7  C2  UNL     1       3.236  -1.929   0.435  1.00  0.00     0.015 C 
HETATM    8  C1  UNL     1       3.656  -1.944  -0.996  1.00  0.00     0.006 C 
ENDBRANCH   6   7
ENDBRANCH   3   6
ENDBRANCH   1   2
BRANCH   1   9
HETATM    9  N2  UNL     1       0.190   3.163  -0.363  1.00  0.00    -0.347 N 
ATOM     10  H2  UNL     1       0.144   3.693   0.507  1.00  0.00     0.163 HD
BRANCH   9  11
HETATM   11  C6  UNL     1       0.481   3.800  -1.569  1.00  0.00     0.349 C 
HETATM   12  O2  UNL     1       0.555   3.224  -2.687  1.00  0.00    -0.284 OA
ENDBRANCH   9  11
ENDBRANCH   1   9
BRANCH   1  13
HETATM   13  C7  UNL     1      -1.337   1.479   0.291  1.00  0.00     0.252 C 
HETATM   14  O3  UNL     1      -1.797   2.455   0.973  1.00  0.00    -0.270 OA
HETATM   15  N3  UNL     1      -2.078   0.290   0.215  1.00  0.00    -0.350 N 
HETATM   16  C8  UNL     1      -3.356   0.163   0.969  1.00  0.00     0.126 C 
HETATM   17  C11 UNL     1      -1.897  -0.926  -0.509  1.00  0.00     0.126 C 
HETATM   18  C9  UNL     1      -3.933  -1.174   0.595  1.00  0.00     0.021 C 
HETATM   19  C10 UNL     1      -2.642  -1.969   0.348  1.00  0.00     0.021 C 
ENDBRANCH   1  13
TORSDOF 6
