REMARK  1 active torsions:
REMARK  status: ('A' for Active; 'I' for Inactive)
REMARK    1  A    between atoms: N1_1  and  N2_4 
REMARK       I    between atoms: N2_4  and  C1_6 
REMARK       I    between atoms: C1_6  and  N3_8 
ROOT
HETATM    1  N2  UNL     1       3.409   0.339  -0.412  1.00  0.00    -0.258 N 
ATOM      2  H2  UNL     1       2.988   0.643  -1.290  1.00  0.00     0.191 HD
HETATM    3  C1  UNL     1       2.598  -0.249   0.583  1.00  0.00     0.336 C 
HETATM    4  O1  UNL     1       3.192  -0.610   1.662  1.00  0.00    -0.245 OA
HETATM    5  N3  UNL     1       1.207  -0.438   0.417  1.00  0.00    -0.330 N 
HETATM    6  C2  UNL     1       0.306  -1.024   1.366  1.00  0.00     0.131 C 
HETATM    7  C3  UNL     1      -0.846  -0.031   1.296  1.00  0.00     0.059 C 
HETATM    8  C4  UNL     1      -0.952   0.151  -0.200  1.00  0.00     0.078 C 
HETATM    9  C5  UNL     1      -1.921  -0.844  -0.798  1.00  0.00     0.042 C 
HETATM   10  C6  UNL     1      -3.228  -0.098  -0.700  1.00  0.00     0.029 C 
HETATM   11  C7  UNL     1      -2.808   1.293  -0.246  1.00  0.00     0.169 C 
HETATM   12  O2  UNL     1      -1.451   1.394  -0.553  1.00  0.00    -0.378 OA
HETATM   13  C8  UNL     1       0.445  -0.075  -0.740  1.00  0.00     0.165 C 
ENDROOT
BRANCH   1  14
HETATM   14  N1  UNL     1       4.766   0.508  -0.213  1.00  0.00    -0.341 N 
ATOM     15  H12 UNL     1       5.171   0.198   0.670  1.00  0.00     0.177 HD
ATOM     16  H11 UNL     1       5.352   0.933  -0.932  1.00  0.00     0.177 HD
ENDBRANCH   1  14
TORSDOF 1
