REMARK  13 active torsions:
REMARK  status: ('A' for Active; 'I' for Inactive)
REMARK    1  A    between atoms: O1_2  and  C2_3 
REMARK    2  A    between atoms: C2_3  and  C3_5 
REMARK    3  A    between atoms: C3_5  and  N1_6 
REMARK    4  A    between atoms: C4_9  and  C5_10 
REMARK    5  A    between atoms: C5_10  and  O3_12 
REMARK    6  A    between atoms: C8_15  and  C9_16 
REMARK    7  A    between atoms: N4_19  and  N5_20 
REMARK    8  A    between atoms: N6_25  and  C12_26 
REMARK    9  A    between atoms: C12_26  and  C13_27 
REMARK       I    between atoms: C13_27  and  N7_29 
REMARK   10  A    between atoms: N7_29  and  N8_31 
REMARK       I    between atoms: N8_31  and  C14_33 
REMARK   11  A    between atoms: C14_33  and  C15_35 
REMARK   12  A    between atoms: C15_35  and  C16_36 
REMARK   13  A    between atoms: C16_36  and  N9_37 
ROOT
HETATM    1  C9  UNL     1      -2.598   1.514  -0.150  1.00  0.00     0.100 A 
HETATM    2  C10 UNL     1      -2.579   1.589  -1.551  1.00  0.00     0.158 A 
HETATM    3  N3  UNL     1      -3.493   0.755  -2.286  1.00  0.00    -0.080 NA
HETATM    4  N4  UNL     1      -1.729   2.394  -2.180  1.00  0.00    -0.221 N 
HETATM    5  C11 UNL     1      -0.852   3.162  -1.477  1.00  0.00     0.204 A 
HETATM    6  S1  UNL     1       0.167   4.133  -2.322  1.00  0.00    -0.038 SA
HETATM    7  N6  UNL     1      -0.847   3.113  -0.147  1.00  0.00    -0.280 N 
HETATM    8  C21 UNL     1      -1.697   2.312   0.512  1.00  0.00     0.266 A 
HETATM    9  O8  UNL     1      -1.667   2.300   1.785  1.00  0.00    -0.267 OA
ENDROOT
BRANCH   7  10
HETATM   10  C12 UNL     1       0.066   3.931   0.599  1.00  0.00     0.239 C 
BRANCH  10  11
HETATM   11  C13 UNL     1       1.361   3.241   0.843  1.00  0.00     0.254 C 
HETATM   12  O4  UNL     1       2.337   3.831   1.362  1.00  0.00    -0.270 OA
HETATM   13  N7  UNL     1       1.546   1.895   0.497  1.00  0.00    -0.266 N 
ATOM     14  H7  UNL     1       0.739   1.425   0.087  1.00  0.00     0.190 HD
BRANCH  13  15
HETATM   15  N8  UNL     1       2.684   1.124   0.641  1.00  0.00    -0.267 N 
HETATM   16  C14 UNL     1       2.916  -0.158   1.027  1.00  0.00     0.237 C 
HETATM   17  O5  UNL     1       2.004  -0.955   1.336  1.00  0.00    -0.272 OA
ATOM     18  H8  UNL     1       3.538   1.629   0.405  1.00  0.00     0.190 HD
BRANCH  16  19
HETATM   19  C15 UNL     1       4.361  -0.671   1.086  1.00  0.00     0.125 C 
BRANCH  19  20
HETATM   20  C16 UNL     1       4.635  -1.642  -0.040  1.00  0.00     0.142 C 
BRANCH  20  21
HETATM   21  N9  UNL     1       6.006  -2.076  -0.003  1.00  0.00    -0.309 N 
HETATM   22  C17 UNL     1       6.392  -3.268   0.492  1.00  0.00     0.101 A 
HETATM   23  C18 UNL     1       7.719  -3.633   0.436  1.00  0.00     0.092 A 
HETATM   24  C19 UNL     1       8.639  -2.777  -0.120  1.00  0.00     0.250 A 
HETATM   25  O6  UNL     1       9.852  -3.091  -0.181  1.00  0.00    -0.268 OA
HETATM   26  N10 UNL     1       8.200  -1.574  -0.605  1.00  0.00    -0.275 N 
HETATM   27  C20 UNL     1       6.927  -1.214  -0.561  1.00  0.00     0.329 A 
ATOM     28  H10 UNL     1       8.878  -0.932  -1.015  1.00  0.00     0.173 HD
HETATM   29  O7  UNL     1       6.558  -0.096  -1.020  1.00  0.00    -0.246 OA
ENDBRANCH  20  21
ENDBRANCH  19  20
ENDBRANCH  16  19
ENDBRANCH  13  15
ENDBRANCH  10  11
ENDBRANCH   7  10
BRANCH   4  30
HETATM   30  N5  UNL     1      -1.718   2.478  -3.568  1.00  0.00    -0.335 N 
ATOM     31  H52 UNL     1      -2.375   1.903  -4.095  1.00  0.00     0.177 HD
ATOM     32  H51 UNL     1      -1.066   3.096  -4.051  1.00  0.00     0.177 HD
ENDBRANCH   4  30
BRANCH   1  33
HETATM   33  C8  UNL     1      -3.659   0.760   0.507  1.00  0.00     0.054 A 
HETATM   34  N1  UNL     1      -3.599  -0.028   1.562  1.00  0.00    -0.285 N 
HETATM   35  N2  UNL     1      -4.770  -0.449   1.671  1.00  0.00    -0.299 N 
HETATM   36  C4  UNL     1      -5.813  -0.314   1.085  1.00  0.00     0.060 A 
ATOM     37  H2  UNL     1      -4.869  -1.075   2.470  1.00  0.00     0.187 HD
HETATM   38  C7  UNL     1      -4.940   0.700   0.081  1.00  0.00     0.121 A 
BRANCH  34  39
HETATM   39  C3  UNL     1      -2.531  -0.567   2.380  1.00  0.00     0.259 C 
BRANCH  39  40
HETATM   40  C2  UNL     1      -2.264  -1.970   1.836  1.00  0.00     0.278 C 
HETATM   41  O2  UNL     1      -1.446  -2.729   2.378  1.00  0.00    -0.263 OA
BRANCH  40  42
HETATM   42  O1  UNL     1      -2.974  -2.354   0.722  1.00  0.00    -0.325 OA
HETATM   43  C1  UNL     1      -2.854  -3.637   0.101  1.00  0.00     0.213 C 
ENDBRANCH  40  42
ENDBRANCH  39  40
ENDBRANCH  34  39
BRANCH  36  44
HETATM   44  C5  UNL     1      -7.068  -0.143   0.365  1.00  0.00     0.063 C 
HETATM   45  C6  UNL     1      -7.522   0.371  -0.887  1.00  0.00     0.078 C 
BRANCH  44  46
HETATM   46  O3  UNL     1      -8.088  -0.622   1.117  1.00  0.00    -0.363 OA
ATOM     47  H3  UNL     1      -8.906  -0.510   0.648  1.00  0.00     0.217 HD
ENDBRANCH  44  46
ENDBRANCH  36  44
ENDBRANCH   1  33
TORSDOF 13
