REMARK  2 active torsions:
REMARK  status: ('A' for Active; 'I' for Inactive)
REMARK    1  A    between atoms: C8_8  and  C9_9 
REMARK    2  A    between atoms: C8_8  and  C10_13 
ROOT
HETATM    1  C1  UNL     1       2.678  -1.334   0.477  1.00  0.00     0.021 C 
HETATM    2  C2  UNL     1       1.617  -0.514  -0.209  1.00  0.00    -0.005 C 
HETATM    3  C3  UNL     1       1.314  -0.964  -1.611  1.00  0.00     0.021 C 
HETATM    4  C4  UNL     1       2.001   0.960  -0.248  1.00  0.00     0.015 C 
HETATM    5  C5  UNL     1       0.859   1.828  -0.621  1.00  0.00     0.006 C 
HETATM    6  C6  UNL     1      -0.209   1.745   0.489  1.00  0.00     0.041 C 
HETATM    7  C7  UNL     1      -0.724   0.343   0.433  1.00  0.00    -0.015 C 
HETATM    8  C8  UNL     1      -1.981  -0.002   0.355  1.00  0.00     0.139 C 
HETATM    9  C11 UNL     1       0.357  -0.662   0.588  1.00  0.00     0.018 C 
HETATM   10  N1  UNL     1       0.291  -1.644   1.396  1.00  0.00    -0.401 N 
ATOM     11  H11 UNL     1      -0.567  -1.745   1.939  1.00  0.00     0.156 HD
ATOM     12  H12 UNL     1       1.034  -2.335   1.503  1.00  0.00     0.156 HD
ENDROOT
BRANCH   8  13
HETATM   13  C9  UNL     1      -2.976   1.137   0.346  1.00  0.00     0.422 C 
HETATM   14  F1  UNL     1      -3.023   1.789  -0.832  1.00  0.00    -0.166 F 
HETATM   15  F2  UNL     1      -4.249   0.550   0.595  1.00  0.00    -0.166 F 
HETATM   16  F3  UNL     1      -2.816   2.003   1.399  1.00  0.00    -0.166 F 
ENDBRANCH   8  13
BRANCH   8  17
HETATM   17  C10 UNL     1      -2.573  -1.324   0.163  1.00  0.00     0.422 C 
HETATM   18  F4  UNL     1      -3.601  -1.166  -0.846  1.00  0.00    -0.166 F 
HETATM   19  F5  UNL     1      -3.224  -1.753   1.289  1.00  0.00    -0.166 F 
HETATM   20  F6  UNL     1      -1.803  -2.302  -0.385  1.00  0.00    -0.166 F 
ENDBRANCH   8  17
TORSDOF 2
