REMARK  2 active torsions:
REMARK  status: ('A' for Active; 'I' for Inactive)
REMARK    1  A    between atoms: C6_6  and  C7_7 
REMARK    2  A    between atoms: C8_11  and  N1_12 
ROOT
HETATM    1  C1  UNL     1       2.733  -0.924   0.188  1.00  0.00     0.010 C 
HETATM    2  C2  UNL     1       1.533  -0.544  -0.690  1.00  0.00    -0.016 C 
HETATM    3  C3  UNL     1       0.423  -1.455  -0.361  1.00  0.00     0.009 C 
HETATM    4  C4  UNL     1      -0.726  -0.862   0.386  1.00  0.00    -0.004 C 
HETATM    5  C5  UNL     1      -1.877  -1.814   0.373  1.00  0.00     0.011 C 
HETATM    6  C6  UNL     1      -1.015   0.480  -0.191  1.00  0.00     0.127 C 
HETATM    7  C8  UNL     1       0.135   1.338   0.221  1.00  0.00     0.196 C 
HETATM    8  C9  UNL     1       1.325   0.902  -0.586  1.00  0.00     0.037 C 
ENDROOT
BRANCH   6   9
HETATM    9  C7  UNL     1      -2.363   1.028   0.133  1.00  0.00     0.393 C 
HETATM   10  F1  UNL     1      -2.480   2.269  -0.469  1.00  0.00    -0.171 F 
HETATM   11  F2  UNL     1      -3.300   0.229  -0.541  1.00  0.00    -0.171 F 
HETATM   12  F3  UNL     1      -2.622   1.094   1.469  1.00  0.00    -0.171 F 
ENDBRANCH   6   9
BRANCH   7  13
HETATM   13  N1  UNL     1      -0.087   2.742   0.105  1.00  0.00    -0.074 N 
ATOM     14  H13 UNL     1      -0.377   2.975  -0.845  1.00  0.00     0.274 HD
ATOM     15  H12 UNL     1      -0.927   3.009   0.619  1.00  0.00     0.274 HD
ATOM     16  H11 UNL     1       0.699   3.328   0.387  1.00  0.00     0.274 HD
ENDBRANCH   7  13
TORSDOF 2
