REMARK  3 active torsions:
REMARK  status: ('A' for Active; 'I' for Inactive)
REMARK    1  A    between atoms: C6_6  and  C7_7 
REMARK    2  A    between atoms: C12_18  and  C13_19 
REMARK    3  A    between atoms: N3_20  and  C14_22 
ROOT
HETATM    1  C1  UNL     1      -3.350  -3.131  -0.732  1.00  0.00     0.015 C 
HETATM    2  C2  UNL     1      -2.505  -1.978  -0.135  1.00  0.00    -0.042 C 
HETATM    3  C3  UNL     1      -3.449  -1.023   0.484  1.00  0.00     0.009 C 
HETATM    4  C4  UNL     1      -3.475   0.350  -0.102  1.00  0.00     0.002 C 
HETATM    5  C5  UNL     1      -2.442   1.271   0.429  1.00  0.00     0.021 C 
HETATM    6  C6  UNL     1      -1.098   1.254  -0.175  1.00  0.00     0.064 C 
HETATM    7  C9  UNL     1      -0.989   0.814  -1.576  1.00  0.00     0.029 C 
HETATM    8  C10 UNL     1      -0.597  -0.578  -1.064  1.00  0.00     0.029 C 
HETATM    9  C11 UNL     1      -1.693  -1.495  -1.266  1.00  0.00     0.017 C 
HETATM   10  C12 UNL     1      -0.318   0.024   0.232  1.00  0.00     0.111 C 
HETATM   11  O3  UNL     1      -0.750  -0.582   1.362  1.00  0.00    -0.373 OA
HETATM   12  C20 UNL     1      -0.447  -1.916   1.337  1.00  0.00     0.170 C 
HETATM   13  C21 UNL     1      -1.634  -2.697   0.905  1.00  0.00     0.035 C 
ENDROOT
BRANCH  10  14
HETATM   14  C13 UNL     1       1.135   0.410   0.376  1.00  0.00     0.100 C 
HETATM   15  N3  UNL     1       2.034  -0.298  -0.201  1.00  0.00    -0.367 N 
ATOM     16  H3  UNL     1       1.705  -1.101  -0.737  1.00  0.00     0.165 HD
BRANCH  15  17
HETATM   17  C14 UNL     1       3.418  -0.091  -0.177  1.00  0.00     0.031 A 
HETATM   18  C15 UNL     1       4.314  -1.089   0.199  1.00  0.00     0.032 A 
HETATM   19  C16 UNL     1       5.674  -0.923   0.231  1.00  0.00     0.044 A 
HETATM   20  C17 UNL     1       6.209   0.295  -0.127  1.00  0.00     0.116 A 
HETATM   21  F1  UNL     1       7.553   0.446  -0.097  1.00  0.00    -0.206 F 
HETATM   22  C18 UNL     1       5.356   1.316  -0.507  1.00  0.00     0.044 A 
HETATM   23  C19 UNL     1       3.972   1.125  -0.531  1.00  0.00     0.032 A 
ENDBRANCH  15  17
ENDBRANCH  10  14
BRANCH   6  24
HETATM   24  C7  UNL     1      -0.393   2.537   0.113  1.00  0.00     0.156 A 
HETATM   25  N1  UNL     1      -0.465   3.260   1.266  1.00  0.00    -0.278 N 
HETATM   26  N2  UNL     1       0.287   4.342   1.175  1.00  0.00    -0.243 N 
ATOM     27  H1  UNL     1      -1.020   3.002   2.082  1.00  0.00     0.189 HD
HETATM   28  C8  UNL     1       0.839   4.311  -0.034  1.00  0.00     0.385 A 
ATOM     29  H2  UNL     1       0.418   5.058   1.889  1.00  0.00     0.192 HD
HETATM   30  O1  UNL     1       1.625   5.201  -0.461  1.00  0.00    -0.236 OA
HETATM   31  O2  UNL     1       0.417   3.216  -0.657  1.00  0.00    -0.244 OA
ENDBRANCH   6  24
TORSDOF 3
