REMARK  4 active torsions:
REMARK  status: ('A' for Active; 'I' for Inactive)
REMARK    1  A    between atoms: O1_2  and  C2_3 
REMARK    2  A    between atoms: C9_10  and  O2_11 
REMARK    3  A    between atoms: C11_15  and  O3_16 
REMARK    4  A    between atoms: C13_18  and  O4_19 
ROOT
HETATM    1  C2  UNL     1      -2.487   0.919   0.110  1.00  0.00     0.046 C 
HETATM    2  C3  UNL     1      -1.475   1.538   0.633  1.00  0.00     0.038 C 
HETATM    3  C4  UNL     1      -0.565   1.374   1.734  1.00  0.00    -0.059 C 
HETATM    4  C5  UNL     1      -0.905   2.125   3.014  1.00  0.00     0.048 C 
HETATM    5  C6  UNL     1       0.596   0.696   1.807  1.00  0.00     0.022 C 
HETATM    6  C7  UNL     1       1.328  -0.094   0.851  1.00  0.00     0.010 A 
HETATM    7  C8  UNL     1       1.086  -1.395   0.412  1.00  0.00    -0.003 A 
HETATM    8  C9  UNL     1       1.909  -2.024  -0.541  1.00  0.00     0.098 A 
HETATM    9  C10 UNL     1       2.997  -1.353  -1.065  1.00  0.00     0.103 A 
HETATM   10 CL1  UNL     1       4.019  -2.163  -2.266  1.00  0.00    -0.078 Cl
HETATM   11  C11 UNL     1       3.264  -0.082  -0.652  1.00  0.00     0.127 A 
HETATM   12  C13 UNL     1       2.460   0.514   0.269  1.00  0.00     0.114 A 
HETATM   13  C15 UNL     1       0.055  -2.277   0.962  1.00  0.00     0.120 C 
HETATM   14  C16 UNL     1      -1.014  -2.739   0.113  1.00  0.00     0.131 C 
HETATM   15  O5  UNL     1      -1.519  -3.842   0.414  1.00  0.00    -0.298 OA
HETATM   16  C17 UNL     1      -1.626  -2.118  -1.078  1.00  0.00     0.078 C 
HETATM   17  C18 UNL     1      -3.120  -2.317  -0.963  1.00  0.00     0.008 C 
HETATM   18  C19 UNL     1      -3.804  -1.021  -0.686  1.00  0.00     0.007 C 
HETATM   19  C20 UNL     1      -3.176  -0.340   0.508  1.00  0.00     0.064 C 
ENDROOT
BRANCH   1  20
HETATM   20  O1  UNL     1      -3.099   1.489  -1.044  1.00  0.00    -0.360 OA
HETATM   21  C1  UNL     1      -2.519   2.431  -1.873  1.00  0.00     0.209 C 
ENDBRANCH   1  20
BRANCH  12  22
HETATM   22  O4  UNL     1       2.845   1.828   0.630  1.00  0.00    -0.352 OA
HETATM   23  C14 UNL     1       2.285   2.862  -0.136  1.00  0.00     0.210 C 
ENDBRANCH  12  22
BRANCH   8  24
HETATM   24  O2  UNL     1       1.712  -3.298  -1.003  1.00  0.00    -0.358 OA
ATOM     25  H2  UNL     1       2.267  -3.723  -1.646  1.00  0.00     0.217 HD
ENDBRANCH   8  24
BRANCH  11  26
HETATM   26  O3  UNL     1       4.373   0.569  -1.201  1.00  0.00    -0.351 OA
HETATM   27  C12 UNL     1       5.626   0.442  -0.560  1.00  0.00     0.210 C 
ENDBRANCH  11  26
TORSDOF 4
