REMARK  7 active torsions:
REMARK  status: ('A' for Active; 'I' for Inactive)
REMARK    1  A    between atoms: C2_2  and  O1_3 
REMARK    2  A    between atoms: O1_3  and  C3_4 
REMARK    3  A    between atoms: C3_4  and  C4_6 
REMARK    4  A    between atoms: C4_6  and  N1_7 
REMARK    5  A    between atoms: C8_15  and  C9_16 
REMARK    6  A    between atoms: C10_19  and  C11_20 
REMARK    7  A    between atoms: C12_23  and  C13_24 
ROOT
HETATM    1  N1  UNL     1       0.462  -0.298   0.642  1.00  0.00    -0.159 NA
HETATM    2  N2  UNL     1       0.841   0.671   1.610  1.00  0.00    -0.049 NA
HETATM    3  N3  UNL     1       0.002   1.800   1.389  1.00  0.00    -0.103 NA
HETATM    4  C5  UNL     1      -0.793   1.417   0.245  1.00  0.00     0.230 C 
HETATM    5  N4  UNL     1      -1.928   2.094  -0.087  1.00  0.00    -0.401 N 
ATOM      6  H4  UNL     1      -2.486   2.586   0.611  1.00  0.00     0.154 HD
HETATM    7  C6  UNL     1      -2.293   2.075  -1.475  1.00  0.00     0.120 C 
HETATM    8  C7  UNL     1      -1.662   0.930  -2.195  1.00  0.00     0.066 C 
HETATM    9  C8  UNL     1      -2.067  -0.412  -1.571  1.00  0.00     0.036 C 
HETATM   10  C10 UNL     1      -1.752  -0.826  -0.370  1.00  0.00     0.070 C 
HETATM   11  C12 UNL     1      -0.936  -0.073   0.617  1.00  0.00     0.193 C 
ENDROOT
BRANCH   1  12
HETATM   12  C4  UNL     1       1.015  -1.546   0.853  1.00  0.00     0.164 C 
BRANCH  12  13
HETATM   13  C3  UNL     1       2.504  -1.467   0.613  1.00  0.00     0.294 C 
HETATM   14  O2  UNL     1       3.216  -2.434   0.922  1.00  0.00    -0.259 OA
BRANCH  13  15
HETATM   15  O1  UNL     1       3.103  -0.356   0.059  1.00  0.00    -0.318 OA
BRANCH  15  16
HETATM   16  C2  UNL     1       4.489  -0.245  -0.185  1.00  0.00     0.174 C 
HETATM   17  C1  UNL     1       4.734   1.127  -0.801  1.00  0.00     0.034 C 
ENDBRANCH  15  16
ENDBRANCH  13  15
ENDBRANCH  12  13
ENDBRANCH   1  12
BRANCH  11  18
HETATM   18  C13 UNL     1      -1.553  -0.066   1.983  1.00  0.00     0.207 C 
HETATM   19  O7  UNL     1      -2.776   0.187   2.128  1.00  0.00    -0.646 OA
HETATM   20  O8  UNL     1      -0.837  -0.332   3.141  1.00  0.00    -0.646 OA
ENDBRANCH  11  18
BRANCH  10  21
HETATM   21  C11 UNL     1      -2.175  -2.097   0.131  1.00  0.00     0.208 C 
HETATM   22  O5  UNL     1      -2.811  -2.963  -0.426  1.00  0.00    -0.644 OA
HETATM   23  O6  UNL     1      -1.843  -2.465   1.462  1.00  0.00    -0.644 OA
ENDBRANCH  10  21
BRANCH   9  24
HETATM   24  C9  UNL     1      -2.879  -1.204  -2.437  1.00  0.00     0.206 C 
HETATM   25  O3  UNL     1      -3.101  -0.647  -3.621  1.00  0.00    -0.644 OA
HETATM   26  O4  UNL     1      -3.503  -2.410  -2.367  1.00  0.00    -0.644 OA
ENDBRANCH   9  24
TORSDOF 7
