REMARK  9 active torsions:
REMARK  status: ('A' for Active; 'I' for Inactive)
REMARK    1  A    between atoms: O1_2  and  C2_3 
REMARK    2  A    between atoms: C3_4  and  N1_5 
REMARK    3  A    between atoms: C4_9  and  O2_10 
REMARK    4  A    between atoms: O2_10  and  S1_11 
REMARK    5  A    between atoms: C5_15  and  O6_16 
REMARK    6  A    between atoms: C6_18  and  O7_19 
REMARK    7  A    between atoms: O7_19  and  C7_20 
REMARK    8  A    between atoms: C9_25  and  O8_26 
REMARK    9  A    between atoms: C10_28  and  O9_29 
ROOT
HETATM    1  C2  UNL     1      -1.002  -0.859  -0.785  1.00  0.00     0.185 C 
HETATM    2  C3  UNL     1      -2.090   0.148  -0.839  1.00  0.00     0.247 C 
HETATM    3  C4  UNL     1      -2.074   0.938   0.447  1.00  0.00     0.209 C 
HETATM    4  C5  UNL     1      -1.021   0.308   1.334  1.00  0.00     0.182 C 
HETATM    5  C6  UNL     1      -0.150  -0.532   0.433  1.00  0.00     0.186 C 
ENDROOT
BRANCH   5   6
HETATM    6  O7  UNL     1       0.959   0.244   0.095  1.00  0.00    -0.346 OA
BRANCH   6   7
HETATM    7  C7  UNL     1       2.156  -0.324   0.500  1.00  0.00     0.353 C 
HETATM    8  N2  UNL     1       2.828   0.586   1.371  1.00  0.00    -0.044 N 
HETATM    9  C8  UNL     1       4.155   0.796   0.904  1.00  0.00     0.269 C 
ATOM     10  H22 UNL     1       2.316   1.461   1.484  1.00  0.00     0.280 HD
ATOM     11  H21 UNL     1       2.805   0.277   2.343  1.00  0.00     0.280 HD
HETATM   12  C9  UNL     1       4.359   0.030  -0.358  1.00  0.00     0.176 C 
HETATM   13  C10 UNL     1       3.018  -0.560  -0.703  1.00  0.00     0.205 C 
BRANCH  12  14
HETATM   14  O8  UNL     1       4.811   0.900  -1.362  1.00  0.00    -0.391 OA
ATOM     15  H8  UNL     1       4.941   0.412  -2.166  1.00  0.00     0.210 HD
ENDBRANCH  12  14
BRANCH  13  16
HETATM   16  O9  UNL     1       3.113  -1.914  -0.989  1.00  0.00    -0.389 OA
ATOM     17  H9  UNL     1       3.659  -2.064  -1.752  1.00  0.00     0.210 HD
ENDBRANCH  13  16
ENDBRANCH   6   7
ENDBRANCH   5   6
BRANCH   1  18
HETATM   18  O1  UNL     1      -1.364  -2.160  -0.871  1.00  0.00    -0.386 OA
HETATM   19  C1  UNL     1      -0.870  -2.887  -1.922  1.00  0.00     0.202 C 
ENDBRANCH   1  18
BRANCH   4  20
HETATM   20  O6  UNL     1      -1.595  -0.470   2.341  1.00  0.00    -0.390 OA
ATOM     21  H6  UNL     1      -0.934  -0.865   2.898  1.00  0.00     0.210 HD
ENDBRANCH   4  20
BRANCH   2  22
HETATM   22  N1  UNL     1      -3.404  -0.420  -1.060  1.00  0.00    -0.070 N 
ATOM     23  H13 UNL     1      -3.408  -0.998  -1.900  1.00  0.00     0.274 HD
ATOM     24  H12 UNL     1      -3.609  -1.133  -0.360  1.00  0.00     0.274 HD
ATOM     25  H11 UNL     1      -4.152   0.272  -1.097  1.00  0.00     0.274 HD
ENDBRANCH   2  22
BRANCH   3  26
HETATM   26  O2  UNL     1      -3.311   0.915   1.089  1.00  0.00    -0.247 OA
BRANCH  26  27
HETATM   27  S1  UNL     1      -3.908   2.437   1.350  1.00  0.00     0.252 S 
HETATM   28  O3  UNL     1      -4.512   2.566   2.741  1.00  0.00    -0.572 OA
HETATM   29  O4  UNL     1      -2.886   3.518   1.139  1.00  0.00    -0.572 OA
HETATM   30  O5  UNL     1      -5.201   2.707   0.279  1.00  0.00    -0.572 OA
ENDBRANCH  26  27
ENDBRANCH   3  26
TORSDOF 9
