REMARK  5 active torsions:
REMARK  status: ('A' for Active; 'I' for Inactive)
REMARK    1  A    between atoms: C2_2  and  C3_3 
REMARK    2  A    between atoms: C2_2  and  N2_12 
REMARK    3  A    between atoms: C3_3  and  O1_4 
REMARK    4  A    between atoms: C3_3  and  C4_6 
REMARK    5  A    between atoms: C4_6  and  N1_7 
ROOT
HETATM    1  C3  UNL     1       0.126  -1.300  -0.547  1.00  0.00     0.179 C 
ENDROOT
BRANCH   1   2
HETATM    2  C2  UNL     1      -0.821  -0.828   0.528  1.00  0.00     0.249 C 
HETATM    3  C1  UNL     1      -1.686  -1.950   0.983  1.00  0.00     0.045 C 
BRANCH   2   4
HETATM    4  N2  UNL     1      -1.531   0.336   0.065  1.00  0.00     0.095 N 
HETATM    5  C9  UNL     1      -2.299   0.925   1.149  1.00  0.00     0.273 C 
HETATM    6  C10 UNL     1      -3.722   1.041   0.702  1.00  0.00     0.032 C 
HETATM    7  C11 UNL     1      -3.846   0.046  -0.432  1.00  0.00     0.032 C 
HETATM    8  C12 UNL     1      -2.437   0.103  -1.010  1.00  0.00     0.273 C 
ENDBRANCH   2   4
ENDBRANCH   1   2
BRANCH   1   9
HETATM    9  O1  UNL     1       0.796  -2.408  -0.060  1.00  0.00    -0.392 OA
ATOM     10  H1  UNL     1       1.392  -2.705  -0.737  1.00  0.00     0.210 HD
ENDBRANCH   1   9
BRANCH   1  11
HETATM   11  C4  UNL     1       1.006  -0.221  -1.068  1.00  0.00     0.306 C 
BRANCH  11  12
HETATM   12  N1  UNL     1       1.923   0.368  -0.195  1.00  0.00     0.090 N 
HETATM   13  C5  UNL     1       3.012  -0.389   0.280  1.00  0.00     0.272 C 
HETATM   14  C6  UNL     1       3.895   0.722   0.881  1.00  0.00     0.032 C 
HETATM   15  C7  UNL     1       3.913   1.681  -0.307  1.00  0.00     0.032 C 
HETATM   16  C8  UNL     1       2.503   1.545  -0.817  1.00  0.00     0.272 C 
ENDBRANCH  11  12
ENDBRANCH   1  11
TORSDOF 5
