REMARK  4 active torsions:
REMARK  status: ('A' for Active; 'I' for Inactive)
REMARK    1  A    between atoms: N2_11  and  C8_12 
REMARK    2  A    between atoms: C8_12  and  C9_13 
REMARK    3  A    between atoms: C9_13  and  C10_14 
REMARK    4  A    between atoms: C10_14  and  C11_15 
ROOT
HETATM    1  C1  UNL     1      -4.237   0.049  -0.291  1.00  0.00     0.028 C 
HETATM    2  C2  UNL     1      -3.477   1.323  -0.620  1.00  0.00     0.235 C 
HETATM    3  N1  UNL     1      -2.192   1.304   0.010  1.00  0.00    -0.043 N 
ATOM      4  H11 UNL     1      -2.287   1.168   1.016  1.00  0.00     0.279 HD
ATOM      5  H12 UNL     1      -1.774   2.234   0.001  1.00  0.00     0.279 HD
HETATM    6  C3  UNL     1      -1.269   0.319  -0.558  1.00  0.00     0.423 C 
HETATM    7  C4  UNL     1      -1.975  -0.981  -0.724  1.00  0.00     0.048 C 
HETATM    8  C5  UNL     1      -3.295  -1.075   0.017  1.00  0.00     0.010 C 
HETATM    9  C6  UNL     1      -1.058  -2.031  -0.139  1.00  0.00     0.039 C 
HETATM   10  C7  UNL     1      -0.255  -1.225   0.867  1.00  0.00     0.275 C 
HETATM   11  N2  UNL     1      -0.240   0.148   0.447  1.00  0.00     0.119 N 
ENDROOT
BRANCH  11  12
HETATM   12  C8  UNL     1       1.051   0.595  -0.023  1.00  0.00     0.275 C 
BRANCH  12  13
HETATM   13  C9  UNL     1       1.987   0.602   1.141  1.00  0.00     0.033 C 
BRANCH  13  14
HETATM   14  C10 UNL     1       3.397   1.026   0.797  1.00  0.00     0.036 C 
BRANCH  14  15
HETATM   15  C11 UNL     1       4.065   0.137  -0.202  1.00  0.00     0.145 A 
HETATM   16  C12 UNL     1       5.476   0.522  -0.562  1.00  0.00     0.200 A 
HETATM   17  O1  UNL     1       5.144  -0.656   0.197  1.00  0.00    -0.381 OA
ENDBRANCH  14  15
ENDBRANCH  13  14
ENDBRANCH  12  13
ENDBRANCH  11  12
TORSDOF 4
