REMARK  10 active torsions:
REMARK  status: ('A' for Active; 'I' for Inactive)
REMARK    1  A    between atoms: C2_2  and  C4_4 
REMARK       I    between atoms: C4_4  and  N1_6 
REMARK    2  A    between atoms: N1_6  and  C5_8 
REMARK    3  A    between atoms: C8_11  and  C9_12 
REMARK    4  A    between atoms: C9_12  and  C10_13 
REMARK    5  A    between atoms: N2_16  and  C13_17 
REMARK    6  A    between atoms: C13_17  and  C14_18 
REMARK    7  A    between atoms: C14_18  and  N3_19 
REMARK    8  A    between atoms: N3_19  and  S1_21 
REMARK    9  A    between atoms: S1_21  and  C15_24 
REMARK   10  A    between atoms: N4_30  and  O4_32 
ROOT
HETATM    1  C10 UNL     1       0.083   1.119   0.551  1.00  0.00     0.005 C 
HETATM    2  C11 UNL     1      -0.115   1.419  -0.900  1.00  0.00     0.026 C 
HETATM    3  C12 UNL     1      -1.633   1.704  -0.911  1.00  0.00     0.124 C 
HETATM    4  N2  UNL     1      -1.869   2.333   0.391  1.00  0.00    -0.368 N 
HETATM    5  C21 UNL     1      -0.641   2.340   1.161  1.00  0.00     0.128 C 
ENDROOT
BRANCH   4   6
HETATM    6  C13 UNL     1      -3.076   2.861   0.861  1.00  0.00     0.118 C 
HETATM    7  N4  UNL     1      -3.124   4.090   1.234  1.00  0.00    -0.255 N 
ATOM      8  H4  UNL     1      -4.015   4.453   1.574  1.00  0.00     0.195 HD
BRANCH   6   9
HETATM    9  C14 UNL     1      -4.322   2.051   0.950  1.00  0.00     0.210 C 
BRANCH   9  10
HETATM   10  N3  UNL     1      -4.144   0.940   1.822  1.00  0.00    -0.312 N 
ATOM     11  H3  UNL     1      -3.255   0.772   2.293  1.00  0.00     0.172 HD
BRANCH  10  12
HETATM   12  S1  UNL     1      -5.465  -0.087   2.044  1.00  0.00     0.231 S 
HETATM   13  O2  UNL     1      -6.583   0.690   2.699  1.00  0.00    -0.206 OA
HETATM   14  O3  UNL     1      -5.066  -1.159   3.057  1.00  0.00    -0.206 OA
BRANCH  12  15
HETATM   15  C15 UNL     1      -6.066  -0.919   0.638  1.00  0.00     0.129 C 
HETATM   16  C16 UNL     1      -6.570  -0.066  -0.479  1.00  0.00     0.022 C 
HETATM   17  C17 UNL     1      -7.590  -0.918  -1.243  1.00  0.00     0.001 C 
HETATM   18  C18 UNL     1      -7.136  -2.370  -1.241  1.00  0.00     0.000 C 
HETATM   19  C19 UNL     1      -5.626  -2.462  -1.209  1.00  0.00     0.001 C 
HETATM   20  C20 UNL     1      -5.069  -1.901   0.064  1.00  0.00     0.022 C 
ENDBRANCH  12  15
ENDBRANCH  10  12
ENDBRANCH   9  10
ENDBRANCH   6   9
BRANCH   7  21
HETATM   21  O4  UNL     1      -2.057   4.937   1.203  1.00  0.00    -0.288 OA
ATOM     22  H4  UNL     1      -2.092   5.845   1.479  1.00  0.00     0.244 HD
ENDBRANCH   7  21
ENDBRANCH   4   6
BRANCH   1  23
HETATM   23  C9  UNL     1       1.447   1.098   1.097  1.00  0.00     0.011 C 
BRANCH  23  24
HETATM   24  C8  UNL     1       2.435   0.115   0.566  1.00  0.00    -0.014 C 
HETATM   25  C7  UNL     1       3.724   0.364   1.401  1.00  0.00     0.006 C 
HETATM   26  C6  UNL     1       4.550  -0.877   1.140  1.00  0.00     0.025 C 
HETATM   27  C5  UNL     1       4.900  -0.916  -0.305  1.00  0.00     0.084 C 
HETATM   28  C23 UNL     1       4.231   0.084  -1.178  1.00  0.00     0.025 C 
HETATM   29  C22 UNL     1       2.776   0.360  -0.857  1.00  0.00     0.006 C 
BRANCH  27  30
HETATM   30  N1  UNL     1       6.362  -0.811  -0.503  1.00  0.00    -0.353 N 
HETATM   31  C4  UNL     1       7.102  -1.854  -1.085  1.00  0.00     0.246 C 
HETATM   32  O1  UNL     1       6.497  -2.903  -1.446  1.00  0.00    -0.268 OA
ATOM     33  H1  UNL     1       6.844   0.039  -0.210  1.00  0.00     0.163 HD
BRANCH  31  34
HETATM   34  C2  UNL     1       8.523  -1.771  -1.286  1.00  0.00    -0.004 C 
HETATM   35  C1  UNL     1       9.216  -0.719  -0.938  1.00  0.00     0.024 C 
HETATM   36  C3  UNL     1       9.296  -2.899  -1.911  1.00  0.00     0.053 C 
ENDBRANCH  31  34
ENDBRANCH  27  30
ENDBRANCH  23  24
ENDBRANCH   1  23
TORSDOF 10
