REMARK  7 active torsions:
REMARK  status: ('A' for Active; 'I' for Inactive)
REMARK    1  A    between atoms: C2_2  and  C4_4 
REMARK    2  A    between atoms: C4_4  and  C5_5 
REMARK    3  A    between atoms: C5_5  and  C6_6 
REMARK    4  A    between atoms: C6_6  and  N1_7 
REMARK    5  A    between atoms: N1_7  and  C7_9 
REMARK    6  A    between atoms: C7_9  and  C8_10 
REMARK    7  A    between atoms: C8_10  and  C9_11 
ROOT
HETATM    1  N1  UNL     1       0.741   1.050  -1.027  1.00  0.00    -0.421 N 
ATOM      2  H1  UNL     1       0.793   1.915  -1.565  1.00  0.00     0.153 HD
ENDROOT
BRANCH   1   3
HETATM    3  C6  UNL     1      -0.425   0.744  -0.236  1.00  0.00     0.113 C 
BRANCH   3   4
HETATM    4  C5  UNL     1      -1.174  -0.376  -0.832  1.00  0.00     0.019 C 
BRANCH   4   5
HETATM    5  C4  UNL     1      -2.398  -0.884  -0.186  1.00  0.00     0.005 C 
BRANCH   5   6
HETATM    6  C2  UNL     1      -3.539   0.072  -0.017  1.00  0.00    -0.023 C 
HETATM    7  C1  UNL     1      -3.271   1.267   0.843  1.00  0.00     0.009 C 
HETATM    8  C3  UNL     1      -4.728  -0.684   0.561  1.00  0.00     0.009 C 
ENDBRANCH   5   6
ENDBRANCH   4   5
ENDBRANCH   3   4
ENDBRANCH   1   3
BRANCH   1   9
HETATM    9  C7  UNL     1       1.810   0.125  -1.041  1.00  0.00     0.114 C 
BRANCH   9  10
HETATM   10  C8  UNL     1       2.490   0.129   0.304  1.00  0.00     0.024 C 
BRANCH  10  11
HETATM   11  C9  UNL     1       3.670  -0.795   0.376  1.00  0.00    -0.013 A 
HETATM   12  C10 UNL     1       4.834  -0.660  -0.509  1.00  0.00     0.005 A 
HETATM   13  C11 UNL     1       4.931  -0.084   0.906  1.00  0.00     0.005 A 
ENDBRANCH  10  11
ENDBRANCH   9  10
ENDBRANCH   1   9
TORSDOF 7
