REMARK  9 active torsions:
REMARK  status: ('A' for Active; 'I' for Inactive)
REMARK    1  A    between atoms: N1_1  and  C1_4 
REMARK    2  A    between atoms: C3_8  and  N3_9 
REMARK    3  A    between atoms: N3_9  and  N4_11 
REMARK    4  A    between atoms: N7_23  and  C7_24 
REMARK    5  A    between atoms: C7_24  and  O3_25 
REMARK    6  A    between atoms: O3_25  and  C8_26 
REMARK    7  A    between atoms: C8_26  and  O4_27 
REMARK    8  A    between atoms: C8_26  and  C9_29 
REMARK    9  A    between atoms: C9_29  and  O5_30 
ROOT
HETATM    1  C1  UNL     1      -0.282   2.100  -0.455  1.00  0.00     0.681 A 
HETATM    2  N2  UNL     1      -1.580   1.916  -0.765  1.00  0.00    -0.186 N 
ATOM      3  H2  UNL     1      -2.207   2.582  -1.216  1.00  0.00     0.184 HD
HETATM    4  C2  UNL     1      -1.873   0.675  -0.357  1.00  0.00     0.127 A 
HETATM    5  C3  UNL     1      -3.126   0.076  -0.486  1.00  0.00     0.153 C 
HETATM    6  N5  UNL     1      -3.534  -1.077   0.063  1.00  0.00    -0.291 N 
ATOM      7  H5  UNL     1      -4.473  -1.363  -0.214  1.00  0.00     0.172 HD
HETATM    8  C4  UNL     1      -2.920  -1.934   0.923  1.00  0.00     0.328 C 
HETATM    9  O1  UNL     1      -3.622  -2.721   1.589  1.00  0.00    -0.247 OA
HETATM   10  N6  UNL     1      -1.593  -2.044   1.157  1.00  0.00    -0.273 N 
ATOM     11  H6  UNL     1      -1.282  -2.850   1.699  1.00  0.00     0.173 HD
HETATM   12  C5  UNL     1      -0.649  -1.187   0.739  1.00  0.00     0.279 C 
HETATM   13  O2  UNL     1       0.521  -1.623   0.854  1.00  0.00    -0.265 OA
HETATM   14  C6  UNL     1      -0.755   0.080   0.209  1.00  0.00     0.153 A 
HETATM   15  N7  UNL     1       0.232   0.997   0.136  1.00  0.00    -0.154 N 
ENDROOT
BRANCH  15  16
HETATM   16  C7  UNL     1       1.573   0.796   0.609  1.00  0.00     0.321 C 
BRANCH  16  17
HETATM   17  O3  UNL     1       2.424   0.249  -0.341  1.00  0.00    -0.339 OA
BRANCH  17  18
HETATM   18  C8  UNL     1       3.678   0.105   0.232  1.00  0.00     0.282 C 
BRANCH  18  19
HETATM   19  O4  UNL     1       4.535   0.963  -0.477  1.00  0.00    -0.369 OA
ATOM     20  H4  UNL     1       5.394   0.864  -0.084  1.00  0.00     0.212 HD
ENDBRANCH  18  19
BRANCH  18  21
HETATM   21  C9  UNL     1       4.166  -1.327   0.160  1.00  0.00     0.224 C 
BRANCH  21  22
HETATM   22  O5  UNL     1       4.218  -1.648  -1.214  1.00  0.00    -0.396 OA
ATOM     23  H5  UNL     1       4.524  -2.546  -1.259  1.00  0.00     0.209 HD
ENDBRANCH  21  22
ENDBRANCH  18  21
ENDBRANCH  17  18
ENDBRANCH  16  17
ENDBRANCH  15  16
BRANCH   1  24
HETATM   24  N1  UNL     1       0.367   3.198  -0.701  1.00  0.00    -0.234 N 
ATOM     25  H12 UNL     1      -0.021   4.030  -1.147  1.00  0.00     0.174 HD
ATOM     26  H11 UNL     1       1.350   3.337  -0.466  1.00  0.00     0.174 HD
ENDBRANCH   1  24
BRANCH   5  27
HETATM   27  N3  UNL     1      -3.970   0.714  -1.215  1.00  0.00    -0.290 N 
ATOM     28  H3  UNL     1      -3.712   1.597  -1.656  1.00  0.00     0.188 HD
BRANCH  27  29
HETATM   29  N4  UNL     1      -5.235   0.183  -1.391  1.00  0.00    -0.344 N 
ATOM     30  H42 UNL     1      -5.478  -0.701  -0.943  1.00  0.00     0.176 HD
ATOM     31  H41 UNL     1      -5.905   0.689  -1.970  1.00  0.00     0.176 HD
ENDBRANCH  27  29
ENDBRANCH   5  27
TORSDOF 9
