REMARK  1 active torsions:
REMARK  status: ('A' for Active; 'I' for Inactive)
REMARK    1  A    between atoms: C2_2  and  C3_3 
ROOT
HETATM    1  C1  UNL     1       0.622   1.703  -0.546  1.00  0.00     0.074 C 
HETATM    2  C2  UNL     1       0.258   0.254  -0.185  1.00  0.00     0.188 C 
HETATM    3  N2  UNL     1      -0.497  -0.257  -1.302  1.00  0.00    -0.308 N 
ATOM      4  H2  UNL     1      -0.170  -0.035  -2.242  1.00  0.00     0.167 HD
HETATM    5  C4  UNL     1      -1.669  -1.051  -1.175  1.00  0.00     0.326 C 
HETATM    6  O2  UNL     1      -2.198  -1.647  -2.129  1.00  0.00    -0.247 OA
HETATM    7  N3  UNL     1      -2.282  -1.177   0.120  1.00  0.00    -0.261 N 
ATOM      8  H3  UNL     1      -3.124  -1.738   0.251  1.00  0.00     0.175 HD
HETATM    9  C5  UNL     1      -1.678  -0.495   1.214  1.00  0.00     0.326 C 
HETATM   10  O3  UNL     1      -2.224  -0.610   2.355  1.00  0.00    -0.247 OA
HETATM   11  N4  UNL     1      -0.503   0.289   1.036  1.00  0.00    -0.308 N 
ATOM     12  H4  UNL     1      -0.191   0.893   1.796  1.00  0.00     0.167 HD
ENDROOT
BRANCH   2  13
HETATM   13  C3  UNL     1       1.528  -0.471  -0.070  1.00  0.00     0.280 C 
HETATM   14  N1  UNL     1       2.489  -0.192   0.938  1.00  0.00    -0.058 NA
HETATM   15  O1  UNL     1       1.758  -1.378  -0.913  1.00  0.00    -0.272 OA
ENDBRANCH   2  13
TORSDOF 1
