REMARK  4 active torsions:
REMARK  status: ('A' for Active; 'I' for Inactive)
REMARK    1  A    between atoms: C2_7  and  S1_8 
REMARK    2  A    between atoms: S1_8  and  C3_9 
REMARK    3  A    between atoms: C3_9  and  C4_10 
REMARK    4  A    between atoms: C4_10  and  N3_11 
ROOT
HETATM    1  N1  UNL     1      -3.414   1.816   0.354  1.00  0.00    -0.233 N 
ATOM      2  H11 UNL     1      -4.327   1.884  -0.096  1.00  0.00     0.174 HD
ATOM      3  H12 UNL     1      -3.219   2.761   0.685  1.00  0.00     0.174 HD
HETATM    4  C1  UNL     1      -2.615   0.818   0.519  1.00  0.00     0.692 A 
HETATM    5  N2  UNL     1      -1.414   0.729   1.111  1.00  0.00    -0.168 N 
ATOM      6  H2  UNL     1      -0.927   1.509   1.552  1.00  0.00     0.186 HD
HETATM    7  C2  UNL     1      -0.940  -0.526   1.045  1.00  0.00     0.174 A 
HETATM    8  N4  UNL     1      -1.868  -1.244   0.396  1.00  0.00    -0.265 N 
ATOM      9  H4  UNL     1      -1.807  -2.240   0.184  1.00  0.00     0.189 HD
HETATM   10  N5  UNL     1      -2.876  -0.448   0.076  1.00  0.00    -0.130 N 
ATOM     11  H5  UNL     1      -3.717  -0.735  -0.424  1.00  0.00     0.205 HD
ENDROOT
BRANCH   7  12
HETATM   12  S1  UNL     1       0.632  -1.136   1.690  1.00  0.00    -0.090 SA
BRANCH  12  13
HETATM   13  C3  UNL     1       1.836  -0.901   0.343  1.00  0.00     0.109 C 
BRANCH  13  14
HETATM   14  C4  UNL     1       2.031   0.600   0.101  1.00  0.00     0.240 C 
BRANCH  14  15
HETATM   15  N3  UNL     1       2.992   0.711  -0.979  1.00  0.00    -0.079 N 
ATOM     16  H33 UNL     1       3.863   0.211  -0.801  1.00  0.00     0.274 HD
ATOM     17  H32 UNL     1       2.723   0.196  -1.817  1.00  0.00     0.274 HD
ATOM     18  H31 UNL     1       3.122   1.710  -1.140  1.00  0.00     0.274 HD
ENDBRANCH  14  15
ENDBRANCH  13  14
ENDBRANCH  12  13
ENDBRANCH   7  12
TORSDOF 4
