REMARK  4 active torsions:
REMARK  status: ('A' for Active; 'I' for Inactive)
REMARK    1  A    between atoms: N1_1  and  C1_4 
REMARK    2  A    between atoms: N5_15  and  C6_16 
REMARK    3  A    between atoms: C6_16  and  C7_17 
REMARK    4  A    between atoms: C7_17  and  N6_18 
ROOT
HETATM    1  C1  UNL     1      -2.621   0.761  -0.090  1.00  0.00     0.115 A 
HETATM    2  N2  UNL     1      -3.150  -0.470   0.051  1.00  0.00    -0.338 N 
ATOM      3  H2  UNL     1      -4.144  -0.575   0.254  1.00  0.00     0.168 HD
HETATM    4  C2  UNL     1      -2.378  -1.556  -0.074  1.00  0.00     0.183 A 
HETATM    5  N3  UNL     1      -1.072  -1.375  -0.341  1.00  0.00    -0.337 N 
ATOM      6  H3  UNL     1      -0.481  -2.201  -0.436  1.00  0.00     0.168 HD
HETATM    7  C3  UNL     1      -0.501  -0.166  -0.490  1.00  0.00     0.138 A 
HETATM    8  C4  UNL     1      -1.282   0.964  -0.364  1.00  0.00     0.070 A 
HETATM    9  C5  UNL     1      -0.455   2.037  -0.560  1.00  0.00     0.126 A 
HETATM   10  N4  UNL     1       0.781   1.534  -0.795  1.00  0.00    -0.307 N 
ATOM     11  H4  UNL     1       1.610   2.099  -0.978  1.00  0.00     0.186 HD
HETATM   12  N5  UNL     1       0.769   0.221  -0.756  1.00  0.00    -0.275 N 
ENDROOT
BRANCH  12  13
HETATM   13  C6  UNL     1       1.843  -0.727  -0.945  1.00  0.00     0.178 C 
BRANCH  13  14
HETATM   14  C7  UNL     1       2.543  -1.062   0.351  1.00  0.00     0.251 C 
BRANCH  14  15
HETATM   15  N6  UNL     1       3.085   0.190   0.880  1.00  0.00    -0.078 N 
ATOM     16  H63 UNL     1       3.684   0.680   0.216  1.00  0.00     0.274 HD
ATOM     17  H62 UNL     1       2.380   0.920   0.982  1.00  0.00     0.274 HD
ATOM     18  H61 UNL     1       3.558  -0.036   1.755  1.00  0.00     0.274 HD
ENDBRANCH  14  15
ENDBRANCH  13  14
ENDBRANCH  12  13
BRANCH   1  19
HETATM   19  N1  UNL     1      -3.385   1.779   0.036  1.00  0.00    -0.385 N 
ATOM     20  H12 UNL     1      -4.373   1.629   0.238  1.00  0.00     0.157 HD
ATOM     21  H11 UNL     1      -2.984   2.711  -0.071  1.00  0.00     0.157 HD
ENDBRANCH   1  19
TORSDOF 4
