REMARK  4 active torsions:
REMARK  status: ('A' for Active; 'I' for Inactive)
REMARK    1  A    between atoms: C5_6  and  C6_7 
REMARK    2  A    between atoms: C6_7  and  O2_8 
REMARK    3  A    between atoms: C11_14  and  C12_15 
REMARK    4  A    between atoms: C12_15  and  O3_16 
ROOT
HETATM    1  C1  UNL     1      -0.862   2.592   0.951  1.00  0.00     0.020 C 
HETATM    2  C2  UNL     1      -1.045   1.340   0.175  1.00  0.00     0.005 C 
HETATM    3  C3  UNL     1      -1.909   1.565  -1.080  1.00  0.00     0.179 C 
HETATM    4  O1  UNL     1      -2.668   0.461  -1.372  1.00  0.00    -0.389 OA
HETATM    5  C4  UNL     1      -2.041  -0.751  -1.205  1.00  0.00     0.179 C 
HETATM    6  C5  UNL     1      -1.435  -0.949   0.158  1.00  0.00     0.009 C 
HETATM    7  C7  UNL     1      -1.854   0.296   0.970  1.00  0.00     0.028 C 
HETATM    8  C8  UNL     1       0.023  -0.782   0.205  1.00  0.00     0.028 C 
HETATM    9  C9  UNL     1       0.861  -1.576  -0.715  1.00  0.00     0.011 C 
HETATM   10  C10 UNL     1       2.285  -1.076  -0.421  1.00  0.00     0.034 C 
HETATM   11  C11 UNL     1       2.399   0.396  -0.386  1.00  0.00     0.145 C 
HETATM   12  O4  UNL     1       1.372   1.065   0.264  1.00  0.00    -0.377 OA
HETATM   13  C13 UNL     1       0.189   0.669  -0.278  1.00  0.00     0.137 C 
ENDROOT
BRANCH   6  14
HETATM   14  C6  UNL     1      -1.930  -2.153   0.882  1.00  0.00     0.176 C 
BRANCH  14  15
HETATM   15  O2  UNL     1      -3.310  -2.029   1.048  1.00  0.00    -0.400 OA
ATOM     16  H2  UNL     1      -3.626  -2.797   1.510  1.00  0.00     0.209 HD
ENDBRANCH  14  15
ENDBRANCH   6  14
BRANCH  11  17
HETATM   17  C12 UNL     1       3.699   0.741   0.351  1.00  0.00     0.196 C 
BRANCH  17  18
HETATM   18  O3  UNL     1       4.789   0.105  -0.242  1.00  0.00    -0.398 OA
ATOM     19  H3  UNL     1       5.594   0.319   0.215  1.00  0.00     0.209 HD
ENDBRANCH  17  18
ENDBRANCH  11  17
TORSDOF 4
