REMARK  7 active torsions:
REMARK  status: ('A' for Active; 'I' for Inactive)
REMARK    1  A    between atoms: C3_3  and  C4_4 
REMARK    2  A    between atoms: C3_3  and  O1_6 
REMARK    3  A    between atoms: O1_6  and  C6_7 
REMARK    4  A    between atoms: C10_11  and  O2_12 
REMARK    5  A    between atoms: C13_16  and  C15_18 
REMARK    6  A    between atoms: C15_18  and  O4_20 
REMARK    7  A    between atoms: C18_24  and  O6_25 
ROOT
HETATM    1  C6  UNL     1       1.342   0.549   0.227  1.00  0.00     0.136 C 
HETATM    2  C7  UNL     1       1.028  -0.343  -0.937  1.00  0.00     0.048 C 
HETATM    3  C8  UNL     1      -0.111  -1.173  -0.389  1.00  0.00     0.017 C 
HETATM    4  C9  UNL     1       0.516  -2.224   0.466  1.00  0.00     0.021 C 
HETATM    5  C10 UNL     1      -1.039  -1.716  -1.424  1.00  0.00     0.129 C 
HETATM    6  C11 UNL     1      -2.057  -2.555  -0.706  1.00  0.00     0.034 C 
HETATM    7  C12 UNL     1      -2.503  -2.106   0.616  1.00  0.00     0.025 C 
HETATM    8  C13 UNL     1      -2.048  -0.762   1.121  1.00  0.00     0.077 C 
HETATM    9  C14 UNL     1      -1.740  -0.971   2.608  1.00  0.00     0.029 C 
HETATM   10  C17 UNL     1      -0.938  -0.128   0.369  1.00  0.00     0.096 C 
HETATM   11  O5  UNL     1      -1.501   0.651  -0.604  1.00  0.00    -0.348 OA
HETATM   12  C18 UNL     1      -1.217   1.958  -0.683  1.00  0.00     0.260 C 
HETATM   13  C20 UNL     1      -0.897   2.695   0.568  1.00  0.00     0.061 C 
HETATM   14  C21 UNL     1      -0.110   1.944   1.576  1.00  0.00     0.015 C 
HETATM   15  C22 UNL     1       0.122   0.542   1.146  1.00  0.00     0.052 C 
ENDROOT
BRANCH   1  16
HETATM   16  O1  UNL     1       2.499   0.112   0.934  1.00  0.00    -0.350 OA
BRANCH  16  17
HETATM   17  C3  UNL     1       3.692   0.037   0.276  1.00  0.00     0.042 C 
HETATM   18  C2  UNL     1       4.580  -0.939   0.511  1.00  0.00     0.001 C 
HETATM   19  C1  UNL     1       4.298  -1.993   1.509  1.00  0.00     0.038 C 
BRANCH  17  20
HETATM   20  C4  UNL     1       4.017   1.074  -0.734  1.00  0.00     0.060 C 
HETATM   21  C5  UNL     1       5.362   0.840  -1.358  1.00  0.00     0.012 C 
ENDBRANCH  17  20
ENDBRANCH  16  17
ENDBRANCH   1  16
BRANCH   5  22
HETATM   22  O2  UNL     1      -0.350  -2.515  -2.326  1.00  0.00    -0.395 OA
ATOM     23  H2  UNL     1      -0.941  -2.861  -2.985  1.00  0.00     0.210 HD
ENDBRANCH   5  22
BRANCH   8  24
HETATM   24  C15 UNL     1      -3.276   0.090   1.141  1.00  0.00     0.270 C 
HETATM   25  O3  UNL     1      -3.651   0.761   2.140  1.00  0.00    -0.264 OA
BRANCH  24  26
HETATM   26  O4  UNL     1      -4.134   0.228   0.055  1.00  0.00    -0.326 OA
HETATM   27  C16 UNL     1      -5.290   1.023   0.055  1.00  0.00     0.213 C 
ENDBRANCH  24  26
ENDBRANCH   8  24
BRANCH  12  28
HETATM   28  O6  UNL     1      -2.265   2.619  -1.323  1.00  0.00    -0.366 OA
HETATM   29  C19 UNL     1      -1.939   3.197  -2.519  1.00  0.00     0.204 C 
ENDBRANCH  12  28
TORSDOF 7
