REMARK  9 active torsions:
REMARK  status: ('A' for Active; 'I' for Inactive)
REMARK    1  A    between atoms: C2_2  and  C3_3 
REMARK    2  A    between atoms: C3_3  and  N1_4 
REMARK    3  A    between atoms: N1_4  and  C4_5 
REMARK       I    between atoms: N1_4  and  C17_21 
REMARK    4  A    between atoms: C4_5  and  C5_6 
REMARK       I    between atoms: C5_6  and  N2_8 
REMARK    5  A    between atoms: N2_8  and  C6_10 
REMARK       I    between atoms: C17_21  and  N3_23 
REMARK    6  A    between atoms: N3_23  and  C18_25 
REMARK    7  A    between atoms: C18_25  and  C19_26 
REMARK    8  A    between atoms: C19_26  and  C20_27 
REMARK    9  A    between atoms: C20_27  and  N4_28 
ROOT
HETATM    1  N1  UNL     1      -0.701   2.396  -2.595  1.00  0.00    -0.326 N 
HETATM    2  C17 UNL     1       0.542   2.025  -2.012  1.00  0.00     0.318 C 
HETATM    3  O2  UNL     1       1.344   2.936  -1.704  1.00  0.00    -0.247 OA
HETATM    4  N3  UNL     1       0.900   0.673  -1.771  1.00  0.00    -0.343 N 
ATOM      5  H3  UNL     1       0.253  -0.075  -2.019  1.00  0.00     0.164 HD
ENDROOT
BRANCH   1   6
HETATM    6  C3  UNL     1      -0.963   3.776  -2.795  1.00  0.00     0.127 C 
BRANCH   6   7
HETATM    7  C2  UNL     1      -1.613   4.599  -1.769  1.00  0.00     0.015 C 
HETATM    8  C1  UNL     1      -3.003   4.263  -1.389  1.00  0.00     0.006 C 
ENDBRANCH   6   7
ENDBRANCH   1   6
BRANCH   1   9
HETATM    9  C4  UNL     1      -1.558   1.369  -3.060  1.00  0.00     0.230 C 
BRANCH   9  10
HETATM   10  C5  UNL     1      -2.417   0.659  -2.123  1.00  0.00     0.236 C 
HETATM   11  O1  UNL     1      -3.190  -0.207  -2.677  1.00  0.00    -0.272 OA
HETATM   12  N2  UNL     1      -2.505   0.786  -0.734  1.00  0.00    -0.350 N 
ATOM     13  H2  UNL     1      -1.884   1.476  -0.311  1.00  0.00     0.163 HD
BRANCH  12  14
HETATM   14  C6  UNL     1      -3.360   0.068   0.180  1.00  0.00     0.033 C 
HETATM   15  C7  UNL     1      -2.999   0.613   1.569  1.00  0.00     0.031 C 
HETATM   16  C8  UNL     1      -3.460  -0.168   2.714  1.00  0.00     0.007 C 
HETATM   17  C9  UNL     1      -4.653  -1.032   2.577  1.00  0.00    -0.014 C 
HETATM   18  C10 UNL     1      -5.817  -0.379   1.897  1.00  0.00     0.009 C 
HETATM   19  C14 UNL     1      -4.293  -2.377   1.989  1.00  0.00     0.009 C 
HETATM   20  C11 UNL     1      -5.805  -0.540   0.409  1.00  0.00    -0.012 C 
HETATM   21  C12 UNL     1      -5.498  -1.921  -0.065  1.00  0.00     0.009 C 
HETATM   22  C16 UNL     1      -4.776   0.399  -0.157  1.00  0.00     0.035 C 
HETATM   23  C13 UNL     1      -4.163  -2.309   0.482  1.00  0.00    -0.012 C 
HETATM   24  C15 UNL     1      -3.041  -1.389   0.096  1.00  0.00     0.035 C 
ENDBRANCH  12  14
ENDBRANCH   9  10
ENDBRANCH   1   9
BRANCH   4  25
HETATM   25  C18 UNL     1       2.208   0.344  -1.162  1.00  0.00     0.126 C 
BRANCH  25  26
HETATM   26  C19 UNL     1       2.310  -1.127  -1.034  1.00  0.00     0.050 C 
BRANCH  26  27
HETATM   27  C20 UNL     1       3.578  -1.630  -0.471  1.00  0.00     0.274 C 
BRANCH  27  28
HETATM   28  N4  UNL     1       3.944  -1.228   0.845  1.00  0.00     0.089 N 
HETATM   29  C21 UNL     1       4.332   0.110   1.053  1.00  0.00     0.273 C 
HETATM   30  C22 UNL     1       5.634   0.097   1.817  1.00  0.00     0.043 C 
HETATM   31  C23 UNL     1       6.174  -1.284   1.520  1.00  0.00     0.011 C 
HETATM   32  C24 UNL     1       7.041  -1.843   2.601  1.00  0.00     0.039 C 
HETATM   33  C26 UNL     1       7.043  -1.348   0.306  1.00  0.00     0.179 C 
HETATM   34  C27 UNL     1       4.922  -2.127   1.365  1.00  0.00     0.284 C 
HETATM   35  C25 UNL     1       8.265  -2.323   1.829  1.00  0.00     0.168 C 
HETATM   36  O3  UNL     1       8.351  -1.377   0.798  1.00  0.00    -0.390 OA
ENDBRANCH  27  28
ENDBRANCH  26  27
ENDBRANCH  25  26
ENDBRANCH   4  25
TORSDOF 9
