REMARK  7 active torsions:
REMARK  status: ('A' for Active; 'I' for Inactive)
REMARK    1  A    between atoms: C2_2  and  C3_3 
REMARK    2  A    between atoms: C2_2  and  C6_7 
REMARK    3  A    between atoms: C3_3  and  N1_4 
REMARK    4  A    between atoms: C10_12  and  O2_13 
REMARK    5  A    between atoms: C14_18  and  O3_19 
REMARK    6  A    between atoms: O3_19  and  C15_20 
REMARK       I    between atoms: C15_20  and  N2_22 
REMARK    7  A    between atoms: N2_22  and  C16_24 
ROOT
HETATM    1  C6  UNL     1      -1.903   0.585  -0.008  1.00  0.00    -0.056 C 
HETATM    2  C7  UNL     1      -3.318   1.123   0.240  1.00  0.00     0.070 C 
HETATM    3  C8  UNL     1      -3.375   2.401   0.952  1.00  0.00     0.158 A 
HETATM    4  O1  UNL     1      -3.353   2.163   2.434  1.00  0.00    -0.372 OA
HETATM    5  C9  UNL     1      -2.398   2.885   1.809  1.00  0.00     0.187 A 
HETATM    6  C10 UNL     1      -1.034   2.410   1.485  1.00  0.00     0.103 C 
HETATM    7  C11 UNL     1       0.001   2.597   2.524  1.00  0.00     0.022 C 
HETATM    8  C12 UNL     1      -0.480   2.969   3.895  1.00  0.00     0.013 C 
HETATM    9  C13 UNL     1       0.830   1.371   2.427  1.00  0.00     0.041 C 
HETATM   10  C14 UNL     1       0.444   0.728   1.045  1.00  0.00     0.149 C 
HETATM   11  C20 UNL     1      -1.009   0.932   1.069  1.00  0.00     0.041 C 
HETATM   12  C21 UNL     1      -1.443   0.095   2.307  1.00  0.00     0.026 C 
ENDROOT
BRANCH  10  13
HETATM   13  O3  UNL     1       0.875  -0.625   1.289  1.00  0.00    -0.297 OA
BRANCH  13  14
HETATM   14  C15 UNL     1       1.998  -1.109   0.690  1.00  0.00     0.361 C 
HETATM   15  O4  UNL     1       2.662  -0.380  -0.075  1.00  0.00    -0.238 OA
HETATM   16  N2  UNL     1       2.432  -2.434   0.918  1.00  0.00    -0.332 N 
ATOM     17  H2  UNL     1       1.904  -3.047   1.539  1.00  0.00     0.165 HD
BRANCH  16  18
HETATM   18  C16 UNL     1       3.648  -2.925   0.256  1.00  0.00     0.086 C 
HETATM   19  C17 UNL     1       4.539  -3.603   1.268  1.00  0.00     0.025 C 
HETATM   20  C18 UNL     1       4.533  -4.825   0.362  1.00  0.00     0.004 C 
HETATM   21  C19 UNL     1       3.437  -4.219  -0.509  1.00  0.00     0.025 C 
ENDBRANCH  16  18
ENDBRANCH  13  14
ENDBRANCH  10  13
BRANCH   1  22
HETATM   22  C2  UNL     1      -1.657   0.659  -1.457  1.00  0.00    -0.043 C 
HETATM   23  C1  UNL     1      -1.706   1.951  -2.157  1.00  0.00     0.050 C 
BRANCH  22  24
HETATM   24  C3  UNL     1      -0.595  -0.257  -1.979  1.00  0.00     0.091 C 
BRANCH  24  25
HETATM   25  N1  UNL     1      -0.634  -0.656  -3.315  1.00  0.00    -0.398 N 
HETATM   26  C4  UNL     1      -0.377   0.240  -4.361  1.00  0.00     0.148 C 
HETATM   27  C5  UNL     1      -1.014  -1.967  -3.654  1.00  0.00     0.148 C 
ENDBRANCH  24  25
ENDBRANCH  22  24
ENDBRANCH   1  22
BRANCH   6  28
HETATM   28  O2  UNL     1      -0.599   3.188   0.407  1.00  0.00    -0.386 OA
ATOM     29  H2  UNL     1       0.276   2.883   0.199  1.00  0.00     0.210 HD
ENDBRANCH   6  28
TORSDOF 7
