REMARK  8 active torsions:
REMARK  status: ('A' for Active; 'I' for Inactive)
REMARK    1  A    between atoms: C2_2  and  C4_4 
REMARK    2  A    between atoms: C4_4  and  N1_5 
REMARK    3  A    between atoms: C4_4  and  C10_15 
REMARK    4  A    between atoms: N2_8  and  S1_9 
REMARK    5  A    between atoms: C10_15  and  N3_18 
REMARK    6  A    between atoms: N3_18  and  C13_20 
REMARK    7  A    between atoms: N6_27  and  N7_28 
REMARK       I    between atoms: N7_28  and  C15_30 
REMARK    8  A    between atoms: C15_30  and  C16_32 
ROOT
HETATM    1  N3  UNL     1      -1.031  -0.227   1.189  1.00  0.00    -0.212 N 
ATOM      2  H3  UNL     1      -1.350  -0.672   0.329  1.00  0.00     0.178 HD
ENDROOT
BRANCH   1   3
HETATM    3  C10 UNL     1       0.351  -0.112   1.243  1.00  0.00     0.071 C 
HETATM    4  C11 UNL     1       0.897  -1.395   0.501  1.00  0.00     0.041 C 
HETATM    5  C12 UNL     1       0.957  -0.242   2.592  1.00  0.00     0.041 C 
BRANCH   3   6
HETATM    6  C4  UNL     1       0.911   1.044   0.392  1.00  0.00     0.254 C 
BRANCH   6   7
HETATM    7  C2  UNL     1       0.560   2.391   0.835  1.00  0.00     0.013 C 
HETATM    8  C1  UNL     1       0.519   3.379  -0.336  1.00  0.00     0.012 C 
HETATM    9  C3  UNL     1       1.223   3.035   1.968  1.00  0.00     0.012 C 
ENDBRANCH   6   7
BRANCH   6  10
HETATM   10  N1  UNL     1       2.120   0.742  -0.252  1.00  0.00     0.098 N 
HETATM   11  C5  UNL     1       2.313   1.320  -1.570  1.00  0.00     0.288 C 
HETATM   12  C6  UNL     1       3.256   0.349  -2.307  1.00  0.00     0.137 C 
HETATM   13  N2  UNL     1       4.519   0.413  -1.635  1.00  0.00    -0.208 NA
HETATM   14  C8  UNL     1       4.467   0.164  -0.234  1.00  0.00     0.137 C 
HETATM   15  C9  UNL     1       3.338   0.903   0.469  1.00  0.00     0.288 C 
BRANCH  13  16
HETATM   16  S1  UNL     1       5.769  -0.433  -2.440  1.00  0.00     0.207 S 
HETATM   17  C7  UNL     1       5.304  -2.156  -2.514  1.00  0.00     0.180 C 
HETATM   18  O1  UNL     1       5.831   0.099  -3.864  1.00  0.00    -0.212 OA
HETATM   19  O2  UNL     1       7.082  -0.245  -1.750  1.00  0.00    -0.212 OA
ENDBRANCH  13  16
ENDBRANCH   6  10
ENDBRANCH   3   6
ENDBRANCH   1   3
BRANCH   1  20
HETATM   20  C13 UNL     1      -2.004   0.093   1.963  1.00  0.00     0.717 A 
HETATM   21  N4  UNL     1      -1.913   0.692   3.161  1.00  0.00    -0.128 N 
HETATM   22  N5  UNL     1      -3.115   0.826   3.650  1.00  0.00    -0.260 N 
ATOM     23  H4  UNL     1      -1.049   0.992   3.613  1.00  0.00     0.205 HD
HETATM   24  C14 UNL     1      -4.004   0.330   2.802  1.00  0.00     0.230 A 
ATOM     25  H5  UNL     1      -3.337   1.250   4.551  1.00  0.00     0.190 HD
HETATM   26  S2  UNL     1      -5.634   0.302   3.041  1.00  0.00    -0.037 SA
HETATM   27  N6  UNL     1      -3.319  -0.144   1.715  1.00  0.00    -0.054 N 
BRANCH  27  28
HETATM   28  N7  UNL     1      -3.950  -0.707   0.629  1.00  0.00    -0.246 N 
HETATM   29  C15 UNL     1      -3.532  -1.184  -0.600  1.00  0.00     0.244 C 
HETATM   30  O3  UNL     1      -2.357  -1.182  -0.985  1.00  0.00    -0.271 OA
ATOM     31  H7  UNL     1      -4.958  -0.792   0.761  1.00  0.00     0.191 HD
BRANCH  29  32
HETATM   32  C16 UNL     1      -4.517  -1.764  -1.596  1.00  0.00     0.032 C 
HETATM   33  C17 UNL     1      -3.780  -2.169  -2.842  1.00  0.00     0.025 C 
HETATM   34  C18 UNL     1      -5.599  -0.740  -1.851  1.00  0.00     0.025 C 
HETATM   35  C19 UNL     1      -5.179  -3.002  -1.022  1.00  0.00     0.025 C 
ENDBRANCH  29  32
ENDBRANCH  27  28
ENDBRANCH   1  20
TORSDOF 8
