REMARK  9 active torsions:
REMARK  status: ('A' for Active; 'I' for Inactive)
REMARK    1  A    between atoms: O1_2  and  C2_3 
REMARK    2  A    between atoms: C5_6  and  S1_7 
REMARK    3  A    between atoms: S1_7  and  N1_10 
REMARK    4  A    between atoms: C8_13  and  N2_14 
REMARK    5  A    between atoms: C9_15  and  C10_16 
REMARK    6  A    between atoms: C17_28  and  N5_29 
REMARK    7  A    between atoms: N5_29  and  C18_31 
REMARK    8  A    between atoms: C18_31  and  C19_32 
REMARK    9  A    between atoms: C19_32  and  C20_33 
ROOT
HETATM    1  N2  UNL     1      -1.689  -0.788   0.315  1.00  0.00    -0.293 N 
HETATM    2  C9  UNL     1      -1.253  -1.768  -0.465  1.00  0.00     0.059 A 
HETATM    3  C15 UNL     1       0.144  -1.720  -0.495  1.00  0.00     0.064 A 
HETATM    4  C16 UNL     1       0.547  -0.661   0.312  1.00  0.00     0.081 A 
HETATM    5  N4  UNL     1       1.784  -0.215   0.630  1.00  0.00    -0.335 N 
ATOM      6  H4  UNL     1       2.608  -0.668   0.235  1.00  0.00     0.168 HD
HETATM    7  C17 UNL     1       1.924   0.827   1.468  1.00  0.00     0.171 A 
HETATM    8  C28 UNL     1       0.762   1.410   1.980  1.00  0.00     0.291 A 
HETATM    9  O5  UNL     1       0.919   2.380   2.760  1.00  0.00    -0.264 OA
HETATM   10  N7  UNL     1      -0.447   0.944   1.643  1.00  0.00    -0.304 N 
ATOM     11  H7  UNL     1      -1.280   1.388   2.030  1.00  0.00     0.171 HD
HETATM   12  C29 UNL     1      -0.586  -0.100   0.803  1.00  0.00     0.143 A 
ENDROOT
BRANCH   1  13
HETATM   13  C8  UNL     1      -2.983  -0.400   0.694  1.00  0.00     0.067 A 
HETATM   14  C5  UNL     1      -3.647   0.639   0.064  1.00  0.00     0.107 A 
HETATM   15  C4  UNL     1      -4.909   1.033   0.537  1.00  0.00     0.030 A 
HETATM   16  C3  UNL     1      -5.494   0.404   1.613  1.00  0.00     0.038 A 
HETATM   17  C2  UNL     1      -4.853  -0.631   2.254  1.00  0.00     0.070 A 
HETATM   18  C30 UNL     1      -3.625  -0.999   1.778  1.00  0.00     0.068 A 
BRANCH  14  19
HETATM   19  S1  UNL     1      -3.074   1.463  -1.337  1.00  0.00     0.262 S 
HETATM   20  O2  UNL     1      -1.654   1.869  -1.333  1.00  0.00    -0.200 OA
HETATM   21  O3  UNL     1      -3.211   0.496  -2.529  1.00  0.00    -0.200 OA
BRANCH  19  22
HETATM   22  N1  UNL     1      -4.060   2.805  -1.771  1.00  0.00    -0.315 N 
HETATM   23  C6  UNL     1      -4.135   3.831  -0.799  1.00  0.00     0.162 C 
HETATM   24  C7  UNL     1      -5.254   2.479  -2.468  1.00  0.00     0.162 C 
ENDBRANCH  19  22
ENDBRANCH  14  19
BRANCH  17  25
HETATM   25  O1  UNL     1      -5.480  -1.231   3.328  1.00  0.00    -0.356 OA
HETATM   26  C1  UNL     1      -6.751  -0.792   3.760  1.00  0.00     0.210 C 
ENDBRANCH  17  25
ENDBRANCH   1  13
BRANCH   2  27
HETATM   27  C10 UNL     1      -1.979  -2.868  -1.135  1.00  0.00     0.059 A 
HETATM   28  C11 UNL     1      -3.349  -2.813  -1.307  1.00  0.00     0.021 A 
HETATM   29  C12 UNL     1      -4.005  -3.902  -1.881  1.00  0.00     0.018 A 
HETATM   30  C13 UNL     1      -3.340  -5.026  -2.281  1.00  0.00     0.091 A 
HETATM   31  N3  UNL     1      -2.013  -5.058  -2.105  1.00  0.00    -0.333 N 
HETATM   32  C14 UNL     1      -1.338  -4.023  -1.552  1.00  0.00     0.257 A 
ATOM     33  H3  UNL     1      -1.495  -5.887  -2.396  1.00  0.00     0.168 HD
HETATM   34  O4  UNL     1      -0.120  -4.176  -1.442  1.00  0.00    -0.267 OA
ENDBRANCH   2  27
BRANCH   7  35
HETATM   35  N5  UNL     1       3.077   1.260   1.780  1.00  0.00    -0.371 N 
ATOM     36  H5  UNL     1       3.145   2.053   2.418  1.00  0.00     0.161 HD
BRANCH  35  37
HETATM   37  C18 UNL     1       4.294   0.678   1.270  1.00  0.00     0.126 C 
BRANCH  37  38
HETATM   38  C19 UNL     1       4.647   1.244  -0.082  1.00  0.00     0.060 C 
BRANCH  38  39
HETATM   39  C20 UNL     1       5.904   0.644  -0.597  1.00  0.00    -0.029 A 
HETATM   40  C21 UNL     1       6.050  -0.330  -1.566  1.00  0.00     0.096 A 
HETATM   41  N6  UNL     1       7.354  -0.584  -1.724  1.00  0.00    -0.365 N 
HETATM   42  C22 UNL     1       8.092   0.188  -0.891  1.00  0.00     0.042 A 
ATOM     43  H6  UNL     1       7.739  -1.264  -2.380  1.00  0.00     0.165 HD
HETATM   44  C23 UNL     1       9.437   0.332  -0.646  1.00  0.00     0.030 A 
HETATM   45  C27 UNL     1       7.197   0.949  -0.192  1.00  0.00    -0.002 A 
HETATM   46  C24 UNL     1       9.890   1.230   0.292  1.00  0.00     0.002 A 
HETATM   47  C25 UNL     1       8.971   1.981   0.979  1.00  0.00     0.001 A 
HETATM   48  C26 UNL     1       7.629   1.856   0.753  1.00  0.00     0.014 A 
ENDBRANCH  38  39
ENDBRANCH  37  38
ENDBRANCH  35  37
ENDBRANCH   7  35
TORSDOF 9
