REMARK  4 active torsions:
REMARK  status: ('A' for Active; 'I' for Inactive)
REMARK    1  A    between atoms: C2_2  and  C3_6 
REMARK    2  A    between atoms: C15_18  and  O1_19 
REMARK    3  A    between atoms: C20_25  and  O2_26 
REMARK    4  A    between atoms: O2_26  and  C21_27 
ROOT
HETATM    1  C3  UNL     1       2.996  -1.080   0.306  1.00  0.00     0.060 C 
HETATM    2  C4  UNL     1       2.141  -2.234  -0.126  1.00  0.00     0.014 C 
HETATM    3  C5  UNL     1       0.819  -1.890  -0.677  1.00  0.00     0.011 C 
HETATM    4  C6  UNL     1       0.074  -0.871   0.111  1.00  0.00    -0.030 C 
HETATM    5  C7  UNL     1      -0.278  -1.471   1.445  1.00  0.00     0.016 C 
HETATM    6  C8  UNL     1       0.927   0.362   0.237  1.00  0.00     0.025 C 
HETATM    7  C9  UNL     1       0.239   1.468   0.987  1.00  0.00     0.008 C 
HETATM    8  C10 UNL     1      -1.179   1.705   0.647  1.00  0.00     0.007 C 
HETATM    9  C11 UNL     1      -1.945   0.442   0.356  1.00  0.00     0.005 C 
HETATM   10  C12 UNL     1      -3.377   0.670   0.024  1.00  0.00    -0.017 C 
HETATM   11  C13 UNL     1      -3.674   1.660  -1.024  1.00  0.00     0.018 C 
HETATM   12  C14 UNL     1      -4.046   1.171   1.320  1.00  0.00     0.018 C 
HETATM   13  C15 UNL     1      -4.011  -0.699  -0.219  1.00  0.00     0.126 C 
HETATM   14  C16 UNL     1      -3.387  -1.309  -1.427  1.00  0.00     0.033 C 
HETATM   15  C17 UNL     1      -1.934  -1.618  -1.070  1.00  0.00     0.013 C 
HETATM   16  C18 UNL     1      -1.189  -0.408  -0.622  1.00  0.00    -0.032 C 
HETATM   17  C19 UNL     1      -0.844   0.376  -1.858  1.00  0.00     0.016 C 
HETATM   18  C20 UNL     1       2.279   0.097   0.830  1.00  0.00     0.146 C 
ENDROOT
BRANCH   1  19
HETATM   19  C2  UNL     1       3.923  -0.803  -0.820  1.00  0.00    -0.018 C 
HETATM   20  C1  UNL     1       4.859  -1.850  -1.277  1.00  0.00     0.063 C 
HETATM   21  N1  UNL     1       3.931   0.322  -1.408  1.00  0.00    -0.405 N 
ATOM     22  H12 UNL     1       4.568   0.512  -2.182  1.00  0.00     0.155 HD
ATOM     23  H11 UNL     1       3.285   1.045  -1.092  1.00  0.00     0.155 HD
ENDBRANCH   1  19
BRANCH  18  24
HETATM   24  O2  UNL     1       3.087   1.254   0.726  1.00  0.00    -0.315 OA
BRANCH  24  25
HETATM   25  C21 UNL     1       3.528   2.003   1.780  1.00  0.00     0.255 C 
HETATM   26  C22 UNL     1       4.371   3.194   1.522  1.00  0.00     0.126 C 
HETATM   27  O3  UNL     1       3.211   1.665   2.940  1.00  0.00    -0.266 OA
ENDBRANCH  24  25
ENDBRANCH  18  24
BRANCH  13  28
HETATM   28  O1  UNL     1      -5.396  -0.611  -0.279  1.00  0.00    -0.395 OA
ATOM     29  H1  UNL     1      -5.790  -1.462  -0.430  1.00  0.00     0.210 HD
ENDBRANCH  13  28
TORSDOF 4
