REMARK  11 active torsions:
REMARK  status: ('A' for Active; 'I' for Inactive)
REMARK    1  A    between atoms: O1_2  and  C2_3 
REMARK    2  A    between atoms: C5_6  and  C6_7 
REMARK       I    between atoms: C6_7  and  N1_9 
REMARK    3  A    between atoms: N1_9  and  C7_11 
REMARK    4  A    between atoms: C7_11  and  O3_12 
REMARK    5  A    between atoms: C7_11  and  C8_14 
REMARK    6  A    between atoms: C8_14  and  O4_15 
REMARK    7  A    between atoms: C8_14  and  C9_17 
REMARK    8  A    between atoms: C9_17  and  C10_19 
REMARK    9  A    between atoms: C10_19  and  N2_21 
REMARK   10  A    between atoms: N2_21  and  C12_23 
REMARK   11  A    between atoms: C12_23  and  C14_25 
ROOT
HETATM    1  C7  UNL     1      -0.272  -0.342  -0.631  1.00  0.00     0.256 C 
ENDROOT
BRANCH   1   2
HETATM    2  N1  UNL     1       1.151  -0.162  -0.525  1.00  0.00    -0.328 N 
HETATM    3  C6  UNL     1       2.031  -1.154  -0.997  1.00  0.00     0.253 C 
HETATM    4  O2  UNL     1       1.545  -2.194  -1.514  1.00  0.00    -0.268 OA
ATOM      5  H1  UNL     1       1.525   0.689  -0.105  1.00  0.00     0.165 HD
BRANCH   3   6
HETATM    6  C5  UNL     1       3.467  -0.942  -0.871  1.00  0.00     0.032 A 
HETATM    7  C4  UNL     1       4.000  -0.035   0.016  1.00  0.00     0.020 A 
HETATM    8  C3  UNL     1       5.382   0.157   0.113  1.00  0.00     0.038 A 
HETATM    9  C2  UNL     1       6.278  -0.539  -0.659  1.00  0.00     0.068 A 
HETATM   10  C16 UNL     1       5.737  -1.464  -1.564  1.00  0.00     0.038 A 
HETATM   11  C15 UNL     1       4.374  -1.648  -1.655  1.00  0.00     0.020 A 
BRANCH   9  12
HETATM   12  O1  UNL     1       7.654  -0.395  -0.609  1.00  0.00    -0.356 OA
HETATM   13  C1  UNL     1       8.312   0.484   0.243  1.00  0.00     0.210 C 
ENDBRANCH   9  12
ENDBRANCH   3   6
ENDBRANCH   1   2
BRANCH   1  14
HETATM   14  O3  UNL     1      -0.836   0.587  -1.510  1.00  0.00    -0.374 OA
ATOM     15  H3  UNL     1      -1.776   0.468  -1.580  1.00  0.00     0.212 HD
ENDBRANCH   1  14
BRANCH   1  16
HETATM   16  C8  UNL     1      -0.861  -0.237   0.748  1.00  0.00     0.238 C 
BRANCH  16  17
HETATM   17  O4  UNL     1      -0.620   0.982   1.345  1.00  0.00    -0.384 OA
ATOM     18  H4  UNL     1      -0.992   1.048   2.217  1.00  0.00     0.210 HD
ENDBRANCH  16  17
BRANCH  16  19
HETATM   19  C9  UNL     1      -2.340  -0.537   0.731  1.00  0.00     0.181 C 
HETATM   20  O5  UNL     1      -2.678  -1.556   0.216  1.00  0.00    -0.293 OA
BRANCH  19  21
HETATM   21  C10 UNL     1      -3.227   0.445   1.345  1.00  0.00     0.146 C 
HETATM   22  C11 UNL     1      -2.799   0.585   2.814  1.00  0.00     0.040 C 
BRANCH  21  23
HETATM   23  N2  UNL     1      -4.611   0.372   1.204  1.00  0.00    -0.398 N 
ATOM     24  H2  UNL     1      -5.197   0.115   1.999  1.00  0.00     0.154 HD
BRANCH  23  25
HETATM   25  C12 UNL     1      -5.184   0.652  -0.024  1.00  0.00     0.175 C 
HETATM   26  C13 UNL     1      -4.937  -0.171  -1.232  1.00  0.00     0.043 C 
BRANCH  25  27
HETATM   27  C14 UNL     1      -6.690   0.813   0.065  1.00  0.00     0.195 C 
HETATM   28  O6  UNL     1      -7.182   0.658   1.210  1.00  0.00    -0.646 OA
HETATM   29  O7  UNL     1      -7.414   1.109  -1.065  1.00  0.00    -0.646 OA
ENDBRANCH  25  27
ENDBRANCH  23  25
ENDBRANCH  21  23
ENDBRANCH  19  21
ENDBRANCH  16  19
ENDBRANCH   1  16
TORSDOF 11
