REMARK  10 active torsions:
REMARK  status: ('A' for Active; 'I' for Inactive)
REMARK    1  A    between atoms: C2_2  and  C3_4 
REMARK    2  A    between atoms: C7_8  and  O1_9 
REMARK    3  A    between atoms: C10_15  and  C11_16 
REMARK    4  A    between atoms: C11_16  and  O2_17 
REMARK    5  A    between atoms: C11_16  and  C12_19 
REMARK    6  A    between atoms: C12_19  and  O3_20 
REMARK    7  A    between atoms: C12_19  and  C13_22 
REMARK    8  A    between atoms: C13_22  and  C14_23 
REMARK    9  A    between atoms: C14_23  and  C15_25 
REMARK   10  A    between atoms: C15_25  and  O5_26 
ROOT
HETATM    1  C3  UNL     1      -4.851  -0.943   0.904  1.00  0.00    -0.040 C 
HETATM    2  C4  UNL     1      -4.243  -1.279  -0.227  1.00  0.00    -0.006 C 
HETATM    3  C5  UNL     1      -3.142  -0.337  -0.540  1.00  0.00     0.005 C 
HETATM    4  C6  UNL     1      -3.740   0.586  -1.618  1.00  0.00     0.022 C 
HETATM    5  C7  UNL     1      -2.038  -1.148  -1.124  1.00  0.00     0.132 C 
HETATM    6  C8  UNL     1      -0.800  -0.395  -1.503  1.00  0.00     0.057 C 
HETATM    7  C9  UNL     1       0.268  -0.408  -0.473  1.00  0.00     0.084 C 
HETATM    8  N1  UNL     1       1.569  -0.781  -0.995  1.00  0.00    -0.410 N 
ATOM      9  H1  UNL     1       1.948  -1.721  -0.882  1.00  0.00     0.154 HD
HETATM   10  C10 UNL     1       2.276   0.235  -1.667  1.00  0.00     0.108 C 
HETATM   11  C16 UNL     1       1.566   1.540  -1.805  1.00  0.00     0.032 C 
HETATM   12  C17 UNL     1       0.827   2.023  -0.583  1.00  0.00    -0.011 C 
HETATM   13  C18 UNL     1      -0.208   2.968  -1.057  1.00  0.00     0.010 C 
HETATM   14  C19 UNL     1       0.405   0.895   0.309  1.00  0.00     0.012 C 
HETATM   15  C20 UNL     1      -0.629   1.169   1.302  1.00  0.00     0.012 C 
HETATM   16  C21 UNL     1      -1.744   0.177   1.501  1.00  0.00    -0.008 C 
HETATM   17  C22 UNL     1      -2.325   0.475   2.876  1.00  0.00     0.006 C 
HETATM   18  C23 UNL     1      -3.720  -0.048   2.854  1.00  0.00     0.010 C 
HETATM   19  C24 UNL     1      -4.185   0.242   1.468  1.00  0.00     0.025 C 
HETATM   20  C25 UNL     1      -2.911   0.466   0.641  1.00  0.00     0.012 C 
ENDROOT
BRANCH  10  21
HETATM   21  C11 UNL     1       3.718   0.445  -1.170  1.00  0.00     0.169 C 
BRANCH  21  22
HETATM   22  O2  UNL     1       4.221   1.454  -1.982  1.00  0.00    -0.391 OA
ATOM     23  H2  UNL     1       5.111   1.584  -1.675  1.00  0.00     0.210 HD
ENDBRANCH  21  22
BRANCH  21  24
HETATM   24  C12 UNL     1       4.542  -0.786  -1.315  1.00  0.00     0.155 C 
BRANCH  24  25
HETATM   25  O3  UNL     1       4.118  -1.846  -0.512  1.00  0.00    -0.393 OA
ATOM     26  H3  UNL     1       4.644  -2.632  -0.605  1.00  0.00     0.210 HD
ENDBRANCH  24  25
BRANCH  24  27
HETATM   27  C13 UNL     1       6.009  -0.570  -1.287  1.00  0.00     0.115 C 
BRANCH  27  28
HETATM   28  C14 UNL     1       6.558   0.049  -0.087  1.00  0.00     0.152 C 
HETATM   29  O4  UNL     1       6.754   1.267  -0.104  1.00  0.00    -0.296 OA
BRANCH  28  30
HETATM   30  C15 UNL     1       6.901  -0.657   1.149  1.00  0.00     0.242 C 
BRANCH  30  31
HETATM   31  O5  UNL     1       6.592  -2.007   1.155  1.00  0.00    -0.394 OA
ATOM     32  H5  UNL     1       6.815  -2.465   1.957  1.00  0.00     0.209 HD
ENDBRANCH  30  31
ENDBRANCH  28  30
ENDBRANCH  27  28
ENDBRANCH  24  27
ENDBRANCH  21  24
ENDBRANCH  10  21
BRANCH   5  33
HETATM   33  O1  UNL     1      -1.767  -2.314  -0.391  1.00  0.00    -0.394 OA
ATOM     34  H1  UNL     1      -1.063  -2.831  -0.764  1.00  0.00     0.210 HD
ENDBRANCH   5  33
BRANCH   1  35
HETATM   35  C2  UNL     1      -5.955  -1.658   1.467  1.00  0.00     0.008 C 
HETATM   36  C1  UNL     1      -6.558  -1.317   2.569  1.00  0.00     0.032 C 
HETATM   37 BR1  UNL     1      -6.603  -3.233   0.577  1.00  0.00    -0.051 Br
ENDBRANCH   1  35
TORSDOF 10
