REMARK  10 active torsions:
REMARK  status: ('A' for Active; 'I' for Inactive)
REMARK    1  A    between atoms: C3_5  and  N2_6 
REMARK    2  A    between atoms: N2_6  and  C4_8 
REMARK    3  A    between atoms: C7_13  and  C8_14 
REMARK    4  A    between atoms: C8_14  and  S1_15 
REMARK    5  A    between atoms: S1_15  and  N4_18 
REMARK    6  A    between atoms: N4_18  and  C9_20 
REMARK    7  A    between atoms: C10_21  and  O3_22 
REMARK    8  A    between atoms: C11_24  and  C12_25 
REMARK    9  A    between atoms: C12_25  and  O4_28 
REMARK   10  A    between atoms: C17_33  and  C18_34 
ROOT
HETATM    1  N4  UNL     1      -1.671  -2.050   0.826  1.00  0.00    -0.281 N 
ATOM      2  H4  UNL     1      -2.065  -2.811   1.380  1.00  0.00     0.178 HD
ENDROOT
BRANCH   1   3
HETATM    3  S1  UNL     1       0.043  -2.047   0.493  1.00  0.00     0.236 S 
HETATM    4  O1  UNL     1       0.294  -2.140  -0.959  1.00  0.00    -0.205 OA
HETATM    5  O2  UNL     1       0.548  -3.401   1.076  1.00  0.00    -0.205 OA
BRANCH   3   6
HETATM    6  C8  UNL     1       0.961  -0.832   1.300  1.00  0.00     0.222 C 
BRANCH   6   7
HETATM    7  C7  UNL     1       2.373  -0.606   0.851  1.00  0.00     0.065 A 
HETATM    8  C2  UNL     1       3.532  -0.860   1.531  1.00  0.00     0.046 A 
HETATM    9  C1  UNL     1       3.745  -1.824   2.646  1.00  0.00     0.071 C 
HETATM   10  N1  UNL     1       4.480  -0.155   0.925  1.00  0.00    -0.194 N 
HETATM   11  C3  UNL     1       4.009   0.549  -0.122  1.00  0.00     0.679 A 
ATOM     12  H1  UNL     1       5.456  -0.147   1.220  1.00  0.00     0.184 HD
HETATM   13  N3  UNL     1       2.673   0.257  -0.182  1.00  0.00    -0.193 N 
ATOM     14  H3  UNL     1       2.013   0.616  -0.872  1.00  0.00     0.184 HD
BRANCH  11  15
HETATM   15  N2  UNL     1       4.612   1.401  -0.882  1.00  0.00    -0.222 N 
ATOM     16  H2  UNL     1       4.101   1.856  -1.638  1.00  0.00     0.178 HD
BRANCH  15  17
HETATM   17  C4  UNL     1       6.004   1.714  -0.669  1.00  0.00     0.091 C 
HETATM   18  C5  UNL     1       6.945   0.804  -1.445  1.00  0.00     0.032 C 
HETATM   19  C6  UNL     1       6.356   3.148  -1.054  1.00  0.00     0.032 C 
ENDBRANCH  15  17
ENDBRANCH  11  15
ENDBRANCH   6   7
ENDBRANCH   3   6
ENDBRANCH   1   3
BRANCH   1  20
HETATM   20  C9  UNL     1      -2.530  -1.032   0.353  1.00  0.00     0.084 A 
HETATM   21  C10 UNL     1      -2.720   0.205   0.836  1.00  0.00     0.102 A 
HETATM   22  C11 UNL     1      -3.451   1.159   0.133  1.00  0.00     0.012 A 
HETATM   23  C15 UNL     1      -3.976   0.805  -1.084  1.00  0.00     0.033 A 
HETATM   24  C16 UNL     1      -3.797  -0.467  -1.595  1.00  0.00     0.020 A 
HETATM   25 BR1  UNL     1      -4.588  -0.879  -3.284  1.00  0.00    -0.050 Br
HETATM   26  C17 UNL     1      -3.091  -1.414  -0.915  1.00  0.00    -0.007 A 
BRANCH  21  27
HETATM   27  O3  UNL     1      -2.202   0.596   2.052  1.00  0.00    -0.358 OA
ATOM     28  H3  UNL     1      -2.337   1.472   2.394  1.00  0.00     0.217 HD
ENDBRANCH  21  27
BRANCH  22  29
HETATM   29  C12 UNL     1      -3.790   2.515   0.628  1.00  0.00     0.080 C 
HETATM   30  C13 UNL     1      -2.618   3.331   1.110  1.00  0.00     0.051 C 
HETATM   31  C14 UNL     1      -4.576   3.329  -0.370  1.00  0.00     0.051 C 
BRANCH  29  32
HETATM   32  O4  UNL     1      -4.562   2.303   1.827  1.00  0.00    -0.386 OA
ATOM     33  H4  UNL     1      -4.779   3.172   2.144  1.00  0.00     0.211 HD
ENDBRANCH  29  32
ENDBRANCH  22  29
BRANCH  26  34
HETATM   34  C18 UNL     1      -3.030  -2.860  -1.262  1.00  0.00     0.014 C 
HETATM   35  C19 UNL     1      -3.092  -3.237  -2.697  1.00  0.00     0.015 C 
HETATM   36  C20 UNL     1      -4.292  -3.504  -0.579  1.00  0.00     0.015 C 
ENDBRANCH  26  34
ENDBRANCH   1  20
TORSDOF 10
