REMARK  9 active torsions:
REMARK  status: ('A' for Active; 'I' for Inactive)
REMARK    1  A    between atoms: C2_2  and  O1_3 
REMARK    2  A    between atoms: O1_3  and  C3_4 
REMARK    3  A    between atoms: C3_4  and  C4_6 
REMARK    4  A    between atoms: C5_7  and  C6_8 
REMARK    5  A    between atoms: C6_8  and  O4_10 
REMARK    6  A    between atoms: C9_14  and  N1_15 
REMARK       I    between atoms: N1_15  and  C10_17 
REMARK    7  A    between atoms: C10_17  and  C11_19 
REMARK    8  A    between atoms: C11_19  and  S2_20 
REMARK    9  A    between atoms: S2_20  and  C12_21 
ROOT
HETATM    1  C4  UNL     1       2.094  -1.132  -0.436  1.00  0.00     0.090 A 
HETATM    2  C5  UNL     1       3.057  -1.805  -1.140  1.00  0.00     0.065 A 
HETATM    3  C8  UNL     1       2.711  -2.170  -2.432  1.00  0.00     0.070 A 
HETATM    4  S1  UNL     1       1.146  -1.612  -2.636  1.00  0.00    -0.082 SA
HETATM    5  C9  UNL     1       0.903  -0.901  -1.054  1.00  0.00     0.093 A 
ENDROOT
BRANCH   5   6
HETATM    6  N1  UNL     1      -0.407  -0.520  -0.644  1.00  0.00    -0.320 N 
HETATM    7  C10 UNL     1      -1.040  -0.738   0.535  1.00  0.00     0.231 C 
HETATM    8  O5  UNL     1      -0.585  -1.374   1.507  1.00  0.00    -0.272 OA
ATOM      9  H1  UNL     1      -0.949  -0.008  -1.340  1.00  0.00     0.169 HD
BRANCH   7  10
HETATM   10  C11 UNL     1      -2.435  -0.187   0.769  1.00  0.00     0.177 C 
BRANCH  10  11
HETATM   11  S2  UNL     1      -2.950   0.695  -0.701  1.00  0.00    -0.151 SA
BRANCH  11  12
HETATM   12  C12 UNL     1      -4.589   1.404  -0.568  1.00  0.00    -0.003 C 
HETATM   13  C13 UNL     1      -4.903   2.118  -1.868  1.00  0.00     0.026 C 
HETATM   14  C14 UNL     1      -4.726   2.374   0.584  1.00  0.00     0.026 C 
HETATM   15  C15 UNL     1      -5.576   0.267  -0.335  1.00  0.00     0.026 C 
ENDBRANCH  11  12
ENDBRANCH  10  11
ENDBRANCH   7  10
ENDBRANCH   5   6
BRANCH   1  16
HETATM   16  C3  UNL     1       2.385  -0.360   0.827  1.00  0.00     0.297 C 
HETATM   17  O2  UNL     1       3.370  -0.500   1.553  1.00  0.00    -0.259 OA
BRANCH  16  18
HETATM   18  O1  UNL     1       1.516   0.650   1.287  1.00  0.00    -0.318 OA
BRANCH  18  19
HETATM   19  C2  UNL     1       1.756   1.401   2.438  1.00  0.00     0.174 C 
HETATM   20  C1  UNL     1       3.078   2.142   2.261  1.00  0.00     0.034 C 
ENDBRANCH  18  19
ENDBRANCH  16  18
ENDBRANCH   1  16
BRANCH   2  21
HETATM   21  C6  UNL     1       4.394  -2.228  -0.630  1.00  0.00     0.294 C 
HETATM   22  O3  UNL     1       4.859  -2.089   0.497  1.00  0.00    -0.259 OA
BRANCH  21  23
HETATM   23  O4  UNL     1       5.300  -2.882  -1.504  1.00  0.00    -0.322 OA
HETATM   24  C7  UNL     1       6.578  -3.301  -1.070  1.00  0.00     0.213 C 
ENDBRANCH  21  23
ENDBRANCH   2  21
TORSDOF 9
