REMARK  8 active torsions:
REMARK  status: ('A' for Active; 'I' for Inactive)
REMARK    1  A    between atoms: N1_1  and  N2_4 
REMARK    2  A    between atoms: N2_4  and  C1_6 
REMARK    3  A    between atoms: C1_6  and  N3_8 
REMARK       I    between atoms: N3_8  and  C2_10 
REMARK    4  A    between atoms: C2_10  and  C3_12 
REMARK    5  A    between atoms: C3_12  and  C4_13 
REMARK    6  A    between atoms: C7_16  and  O2_17 
REMARK    7  A    between atoms: O2_17  and  S2_18 
REMARK    8  A    between atoms: S2_18  and  N4_19 
ROOT
HETATM    1  C4  UNL     1       0.270   0.842   0.228  1.00  0.00    -0.049 A 
HETATM    2  C5  UNL     1       0.580  -0.033  -0.754  1.00  0.00     0.010 A 
HETATM    3  C6  UNL     1       1.668  -0.896  -0.661  1.00  0.00     0.039 A 
HETATM    4  C7  UNL     1       2.482  -0.894   0.448  1.00  0.00     0.091 A 
HETATM    5  C8  UNL     1       2.187  -0.015   1.463  1.00  0.00     0.039 A 
HETATM    6  C9  UNL     1       1.104   0.840   1.362  1.00  0.00     0.010 A 
ENDROOT
BRANCH   1   7
HETATM    7  C3  UNL     1      -0.788   1.852   0.250  1.00  0.00     0.141 C 
BRANCH   7   8
HETATM    8  C2  UNL     1      -2.147   1.430  -0.068  1.00  0.00     0.228 C 
HETATM    9  N3  UNL     1      -2.819   0.278   0.339  1.00  0.00    -0.302 N 
ATOM     10  H3  UNL     1      -2.327  -0.399   0.921  1.00  0.00     0.171 HD
HETATM   11  O1  UNL     1      -2.800   2.249  -0.837  1.00  0.00    -0.273 OA
BRANCH   9  12
HETATM   12  C1  UNL     1      -4.161   0.016  -0.028  1.00  0.00     0.192 C 
HETATM   13  S1  UNL     1      -4.975   1.123  -0.950  1.00  0.00    -0.039 SA
BRANCH  12  14
HETATM   14  N2  UNL     1      -4.856  -1.154   0.324  1.00  0.00    -0.283 N 
ATOM     15  H2  UNL     1      -4.396  -1.879   0.874  1.00  0.00     0.188 HD
BRANCH  14  16
HETATM   16  N1  UNL     1      -6.185  -1.316  -0.087  1.00  0.00    -0.343 N 
ATOM     17  H12 UNL     1      -6.630  -0.581  -0.637  1.00  0.00     0.176 HD
ATOM     18  H11 UNL     1      -6.689  -2.165   0.168  1.00  0.00     0.176 HD
ENDBRANCH  14  16
ENDBRANCH  12  14
ENDBRANCH   9  12
ENDBRANCH   7   8
ENDBRANCH   1   7
BRANCH   4  19
HETATM   19  O2  UNL     1       3.556  -1.777   0.482  1.00  0.00    -0.217 OA
BRANCH  19  20
HETATM   20  S2  UNL     1       5.087  -1.326  -0.120  1.00  0.00     0.360 S 
HETATM   21  O3  UNL     1       6.108  -1.800   0.860  1.00  0.00    -0.176 OA
HETATM   22  O4  UNL     1       5.386  -1.946  -1.433  1.00  0.00    -0.176 OA
BRANCH  20  23
HETATM   23  N4  UNL     1       5.174   0.400  -0.239  1.00  0.00    -0.305 N 
ATOM     24  H42 UNL     1       4.418   1.035   0.016  1.00  0.00     0.171 HD
ATOM     25  H41 UNL     1       6.089   0.670  -0.599  1.00  0.00     0.171 HD
ENDBRANCH  20  23
ENDBRANCH  19  20
ENDBRANCH   4  19
TORSDOF 8
