REMARK  7 active torsions:
REMARK  status: ('A' for Active; 'I' for Inactive)
REMARK       I    between atoms: C2_2  and  N1_4 
REMARK    1  A    between atoms: N1_4  and  C3_6 
REMARK    2  A    between atoms: C6_9  and  S1_10 
REMARK    3  A    between atoms: S1_10  and  N2_12 
REMARK    4  A    between atoms: S1_10  and  N6_22 
REMARK       I    between atoms: C7_14  and  N4_16 
REMARK    5  A    between atoms: N4_16  and  N5_18 
REMARK    6  A    between atoms: N5_18  and  O3_20 
REMARK    7  A    between atoms: N6_22  and  N7_24 
ROOT
HETATM    1  S1  UNL     1      -1.983  -0.502   1.187  1.00  0.00     0.158 S 
HETATM    2  O2  UNL     1      -1.981  -0.512   2.710  1.00  0.00    -0.221 OA
ENDROOT
BRANCH   1   3
HETATM    3  C6  UNL     1      -0.332  -0.385   0.631  1.00  0.00     0.060 A 
HETATM    4  C5  UNL     1       0.101  -0.868  -0.584  1.00  0.00     0.026 A 
HETATM    5  C4  UNL     1       1.409  -0.752  -0.978  1.00  0.00     0.031 A 
HETATM    6  C3  UNL     1       2.359  -0.136  -0.158  1.00  0.00     0.034 A 
HETATM    7  C9  UNL     1       1.933   0.349   1.057  1.00  0.00     0.031 A 
HETATM    8  C8  UNL     1       0.593   0.223   1.445  1.00  0.00     0.026 A 
BRANCH   6   9
HETATM    9  N1  UNL     1       3.688  -0.039  -0.601  1.00  0.00    -0.328 N 
HETATM   10  C2  UNL     1       4.778   0.522   0.044  1.00  0.00     0.218 C 
HETATM   11  C1  UNL     1       6.132   0.503  -0.656  1.00  0.00     0.117 C 
HETATM   12  O1  UNL     1       4.814   1.070   1.176  1.00  0.00    -0.274 OA
ATOM     13  H1  UNL     1       3.876  -0.435  -1.522  1.00  0.00     0.169 HD
ENDBRANCH   6   9
ENDBRANCH   1   3
BRANCH   1  14
HETATM   14  N2  UNL     1      -2.917   0.864   0.718  1.00  0.00    -0.268 N 
HETATM   15  C7  UNL     1      -3.585   0.804  -0.362  1.00  0.00     0.217 C 
HETATM   16  N3  UNL     1      -3.554  -0.361  -1.153  1.00  0.00    -0.061 NA
HETATM   17  N4  UNL     1      -4.352   1.926  -0.748  1.00  0.00    -0.253 N 
ATOM     18  H4  UNL     1      -5.211   2.136  -0.240  1.00  0.00     0.191 HD
ATOM     19  H2  UNL     1      -2.935   1.705   1.295  1.00  0.00     0.180 HD
BRANCH  17  20
HETATM   20  N5  UNL     1      -3.970   2.754  -1.801  1.00  0.00    -0.208 N 
ATOM     21  H5  UNL     1      -3.521   2.341  -2.618  1.00  0.00     0.215 HD
BRANCH  20  22
HETATM   22  O3  UNL     1      -4.164   3.999  -1.772  1.00  0.00    -0.274 OA
ATOM     23  H3  UNL     1      -3.903   4.564  -2.490  1.00  0.00     0.246 HD
ENDBRANCH  20  22
ENDBRANCH  17  20
ENDBRANCH   1  14
BRANCH   1  24
HETATM   24  N6  UNL     1      -2.642  -1.856   0.752  1.00  0.00    -0.246 N 
ATOM     25  H6  UNL     1      -2.434  -2.272  -0.156  1.00  0.00     0.198 HD
BRANCH  24  26
HETATM   26  N7  UNL     1      -3.522  -2.477   1.642  1.00  0.00    -0.337 N 
ATOM     27  H72 UNL     1      -3.719  -2.048   2.546  1.00  0.00     0.177 HD
ATOM     28  H71 UNL     1      -3.951  -3.358   1.359  1.00  0.00     0.177 HD
ENDBRANCH  24  26
ENDBRANCH   1  24
TORSDOF 7
