REMARK  10 active torsions:
REMARK  status: ('A' for Active; 'I' for Inactive)
REMARK    1  A    between atoms: O1_2  and  C2_3 
REMARK    2  A    between atoms: C2_3  and  C3_5 
REMARK    3  A    between atoms: C3_5  and  C4_6 
REMARK    4  A    between atoms: C3_5  and  C7_11 
REMARK    5  A    between atoms: C4_6  and  O3_7 
REMARK    6  A    between atoms: O3_7  and  C5_8 
REMARK       I    between atoms: N1_14  and  C10_15 
REMARK    7  A    between atoms: C10_15  and  C11_17 
REMARK    8  A    between atoms: C11_17  and  C12_18 
REMARK    9  A    between atoms: C16_22  and  C17_23 
REMARK   10  A    between atoms: C17_23  and  C20_26 
ROOT
HETATM    1  C7  UNL     1       1.652  -0.186  -0.152  1.00  0.00    -0.065 C 
HETATM    2  C8  UNL     1       1.107  -0.591   0.966  1.00  0.00    -0.003 C 
HETATM    3  C9  UNL     1      -0.137   0.142   1.428  1.00  0.00     0.153 C 
HETATM    4  N1  UNL     1      -0.886   0.510   0.230  1.00  0.00    -0.343 N 
HETATM    5  C10 UNL     1      -2.177  -0.009   0.078  1.00  0.00     0.221 C 
HETATM    6  O5  UNL     1      -2.805   0.289  -0.963  1.00  0.00    -0.273 OA
HETATM    7  C16 UNL     1      -0.255   1.357  -0.726  1.00  0.00     0.104 C 
HETATM    8  C21 UNL     1       1.180   0.954  -0.987  1.00  0.00     0.061 C 
ENDROOT
BRANCH   1   9
HETATM    9  C3  UNL     1       2.877  -0.866  -0.659  1.00  0.00     0.138 C 
BRANCH   9  10
HETATM   10  C2  UNL     1       2.482  -1.596  -1.923  1.00  0.00     0.268 C 
HETATM   11  O2  UNL     1       1.278  -1.667  -2.211  1.00  0.00    -0.264 OA
BRANCH  10  12
HETATM   12  O1  UNL     1       3.432  -2.173  -2.740  1.00  0.00    -0.326 OA
HETATM   13  C1  UNL     1       3.103  -2.864  -3.926  1.00  0.00     0.213 C 
ENDBRANCH  10  12
ENDBRANCH   9  10
BRANCH   9  14
HETATM   14  C4  UNL     1       3.412  -1.929   0.265  1.00  0.00     0.197 C 
BRANCH  14  15
HETATM   15  O3  UNL     1       3.859  -1.456   1.499  1.00  0.00    -0.321 OA
BRANCH  15  16
HETATM   16  C5  UNL     1       4.875  -0.545   1.713  1.00  0.00     0.254 C 
HETATM   17  C6  UNL     1       5.285  -0.095   3.076  1.00  0.00     0.126 C 
HETATM   18  O4  UNL     1       5.472  -0.083   0.711  1.00  0.00    -0.266 OA
ENDBRANCH  15  16
ENDBRANCH  14  15
ENDBRANCH   9  14
ENDBRANCH   1   9
BRANCH   7  19
HETATM   19  C17 UNL     1      -0.344   2.835  -0.474  1.00  0.00     0.005 C 
HETATM   20  C18 UNL     1      -1.798   3.283  -0.436  1.00  0.00     0.022 C 
HETATM   21  C19 UNL     1       0.220   3.502  -1.744  1.00  0.00     0.022 C 
BRANCH  19  22
HETATM   22  C20 UNL     1       0.417   3.354   0.658  1.00  0.00     0.063 C 
HETATM   23  N2  UNL     1       1.552   3.896   0.670  1.00  0.00    -0.410 N 
ATOM     24  H22 UNL     1       1.988   3.976  -0.249  1.00  0.00     0.155 HD
ATOM     25  H21 UNL     1       2.084   4.259   1.461  1.00  0.00     0.155 HD
ENDBRANCH  19  22
ENDBRANCH   7  19
BRANCH   5  26
HETATM   26  C11 UNL     1      -2.806  -0.870   1.075  1.00  0.00     0.111 C 
BRANCH  26  27
HETATM   27  C12 UNL     1      -4.185  -1.327   0.748  1.00  0.00    -0.043 C 
HETATM   28  C13 UNL     1      -4.643  -2.209   1.920  1.00  0.00     0.015 C 
HETATM   29  C14 UNL     1      -5.161  -0.163   0.722  1.00  0.00     0.015 C 
HETATM   30  C15 UNL     1      -4.294  -2.167  -0.484  1.00  0.00     0.015 C 
ENDBRANCH  26  27
ENDBRANCH   5  26
TORSDOF 10
