REMARK  8 active torsions:
REMARK  status: ('A' for Active; 'I' for Inactive)
REMARK    1  A    between atoms: N1_1  and  C1_4 
REMARK    2  A    between atoms: C2_7  and  N3_8 
REMARK    3  A    between atoms: C4_14  and  C5_15 
REMARK    4  A    between atoms: C5_15  and  C6_16 
REMARK    5  A    between atoms: C6_16  and  C7_17 
REMARK    6  A    between atoms: C7_17  and  S1_18 
REMARK    7  A    between atoms: S1_18  and  C8_21 
REMARK    8  A    between atoms: C10_23  and  C11_24 
ROOT
HETATM    1  C1  UNL     1      -6.956   0.834   0.019  1.00  0.00     0.679 A 
HETATM    2  N2  UNL     1      -6.072   1.473   0.803  1.00  0.00    -0.175 N 
ATOM      3  H2  UNL     1      -6.388   2.286   1.332  1.00  0.00     0.186 HD
HETATM    4  C2  UNL     1      -4.778   1.085   0.923  1.00  0.00     0.145 A 
HETATM    5  C3  UNL     1      -4.324  -0.011   0.219  1.00  0.00     0.122 A 
HETATM    6  N4  UNL     1      -3.057  -0.452   0.289  1.00  0.00    -0.352 N 
ATOM      7  H4  UNL     1      -2.407   0.052   0.892  1.00  0.00     0.166 HD
HETATM    8  C4  UNL     1      -2.599  -1.505  -0.379  1.00  0.00     0.025 A 
HETATM    9  C15 UNL     1      -3.543  -2.155  -1.190  1.00  0.00     0.114 A 
HETATM   10  N7  UNL     1      -4.811  -1.725  -1.269  1.00  0.00    -0.348 N 
ATOM     11  H7  UNL     1      -5.466  -2.225  -1.870  1.00  0.00     0.167 HD
HETATM   12  C16 UNL     1      -5.245  -0.656  -0.581  1.00  0.00     0.151 A 
HETATM   13  N8  UNL     1      -6.521  -0.237  -0.671  1.00  0.00    -0.174 N 
ATOM     14  H8  UNL     1      -7.171  -0.741  -1.274  1.00  0.00     0.186 HD
ENDROOT
BRANCH   8  15
HETATM   15  C5  UNL     1      -1.217  -2.043  -0.347  1.00  0.00     0.059 C 
BRANCH  15  16
HETATM   16  C6  UNL     1      -0.354  -1.423  -1.402  1.00  0.00     0.021 C 
BRANCH  16  17
HETATM   17  C7  UNL     1      -0.173   0.034  -1.221  1.00  0.00     0.147 C 
BRANCH  17  18
HETATM   18  S1  UNL     1       0.704   0.509   0.201  1.00  0.00     0.182 S 
HETATM   19  O1  UNL     1       0.812   2.020   0.201  1.00  0.00    -0.222 OA
HETATM   20  O2  UNL     1       0.097   0.101   1.490  1.00  0.00    -0.222 OA
BRANCH  18  21
HETATM   21  C8  UNL     1       2.349  -0.172   0.211  1.00  0.00     0.103 A 
HETATM   22  C9  UNL     1       3.523   0.525   0.236  1.00  0.00     0.048 A 
HETATM   23  C10 UNL     1       4.672  -0.193   0.239  1.00  0.00     0.040 A 
HETATM   24  C14 UNL     1       4.541  -1.555   0.218  1.00  0.00     0.171 A 
HETATM   25  F1  UNL     1       5.521  -2.530   0.216  1.00  0.00    -0.197 F 
HETATM   26  S2  UNL     1       2.843  -1.790   0.194  1.00  0.00    -0.047 SA
BRANCH  23  27
HETATM   27  C11 UNL     1       6.033   0.437   0.265  1.00  0.00     0.065 A 
HETATM   28  C12 UNL     1       7.256  -0.185   0.271  1.00  0.00     0.123 A 
HETATM   29  N5  UNL     1       8.230   0.757   0.297  1.00  0.00    -0.317 N 
HETATM   30  C13 UNL     1       7.596   1.944   0.306  1.00  0.00     0.324 A 
ATOM     31  H5  UNL     1       9.238   0.599   0.308  1.00  0.00     0.170 HD
HETATM   32  O3  UNL     1       8.141   3.072   0.329  1.00  0.00    -0.247 OA
HETATM   33  N6  UNL     1       6.273   1.760   0.287  1.00  0.00    -0.306 N 
ATOM     34  H6  UNL     1       5.567   2.496   0.289  1.00  0.00     0.170 HD
ENDBRANCH  23  27
ENDBRANCH  18  21
ENDBRANCH  17  18
ENDBRANCH  16  17
ENDBRANCH  15  16
ENDBRANCH   8  15
BRANCH   4  35
HETATM   35  N3  UNL     1      -3.944   1.710   1.678  1.00  0.00    -0.383 N 
ATOM     36  H32 UNL     1      -4.280   2.520   2.199  1.00  0.00     0.157 HD
ATOM     37  H31 UNL     1      -2.971   1.418   1.768  1.00  0.00     0.157 HD
ENDBRANCH   4  35
BRANCH   1  38
HETATM   38  N1  UNL     1      -8.190   1.222  -0.081  1.00  0.00    -0.234 N 
ATOM     39  H12 UNL     1      -8.520   2.033   0.442  1.00  0.00     0.174 HD
ATOM     40  H11 UNL     1      -8.861   0.737  -0.676  1.00  0.00     0.174 HD
ENDBRANCH   1  38
TORSDOF 8
