REMARK  8 active torsions:
REMARK  status: ('A' for Active; 'I' for Inactive)
REMARK    1  A    between atoms: C5_5  and  O1_6 
REMARK    2  A    between atoms: C7_9  and  N1_10 
REMARK       I    between atoms: N1_10  and  C9_12 
REMARK    3  A    between atoms: C9_12  and  O3_14 
REMARK    4  A    between atoms: O3_14  and  C10_15 
REMARK    5  A    between atoms: C13_18  and  C14_19 
REMARK       I    between atoms: C14_19  and  N2_21 
REMARK    6  A    between atoms: N2_21  and  C15_23 
REMARK    7  A    between atoms: C15_23  and  N3_24 
REMARK       I    between atoms: N3_24  and  C16_26 
REMARK    8  A    between atoms: C16_26  and  C17_28 
ROOT
HETATM    1  C10 UNL     1      -0.318   0.608   1.020  1.00  0.00     0.081 A 
HETATM    2  C11 UNL     1       0.136  -0.188   2.067  1.00  0.00     0.038 A 
HETATM    3  C12 UNL     1       1.442  -0.545   2.183  1.00  0.00     0.020 A 
HETATM    4  C13 UNL     1       2.389  -0.119   1.238  1.00  0.00     0.032 A 
HETATM    5  C18 UNL     1       1.973   0.666   0.193  1.00  0.00     0.020 A 
HETATM    6  C19 UNL     1       0.623   1.020   0.098  1.00  0.00     0.038 A 
ENDROOT
BRANCH   1   7
HETATM    7  O3  UNL     1      -1.628   0.981   0.885  1.00  0.00    -0.261 OA
BRANCH   7   8
HETATM    8  C9  UNL     1      -2.544   0.263   0.158  1.00  0.00     0.372 C 
HETATM    9  N1  UNL     1      -3.879   0.714   0.066  1.00  0.00    -0.297 N 
HETATM   10  C8  UNL     1      -4.247   1.932   0.752  1.00  0.00     0.162 C 
HETATM   11  O2  UNL     1      -2.181  -0.790  -0.417  1.00  0.00    -0.238 OA
BRANCH   9  12
HETATM   12  C7  UNL     1      -4.818  -0.030  -0.691  1.00  0.00     0.047 A 
HETATM   13  C2  UNL     1      -5.906  -0.560  -0.020  1.00  0.00    -0.035 A 
HETATM   14  C1  UNL     1      -6.105  -0.375   1.434  1.00  0.00     0.050 C 
HETATM   15  C3  UNL     1      -6.832  -1.285  -0.750  1.00  0.00     0.012 A 
HETATM   16  C4  UNL     1      -6.724  -1.503  -2.098  1.00  0.00     0.037 A 
HETATM   17  C5  UNL     1      -5.638  -0.971  -2.753  1.00  0.00     0.067 A 
HETATM   18  C6  UNL     1      -4.699  -0.243  -2.045  1.00  0.00     0.066 A 
BRANCH  17  19
HETATM   19  O1  UNL     1      -5.467  -1.151  -4.104  1.00  0.00    -0.361 OA
ATOM     20  H1  UNL     1      -4.717  -0.784  -4.556  1.00  0.00     0.217 HD
ENDBRANCH  17  19
ENDBRANCH   9  12
ENDBRANCH   7   8
ENDBRANCH   1   7
BRANCH   4  21
HETATM   21  C14 UNL     1       3.783  -0.514   1.386  1.00  0.00     0.252 C 
HETATM   22  O4  UNL     1       4.127  -1.278   2.348  1.00  0.00    -0.268 OA
HETATM   23  N2  UNL     1       4.768  -0.075   0.494  1.00  0.00    -0.341 N 
ATOM     24  H2  UNL     1       4.534   0.536  -0.288  1.00  0.00     0.164 HD
BRANCH  23  25
HETATM   25  C15 UNL     1       6.150  -0.521   0.719  1.00  0.00     0.249 C 
BRANCH  25  26
HETATM   26  N3  UNL     1       7.039   0.001  -0.272  1.00  0.00    -0.341 N 
HETATM   27  C16 UNL     1       8.406  -0.320  -0.204  1.00  0.00     0.273 C 
HETATM   28  O5  UNL     1       8.880  -1.065   0.721  1.00  0.00    -0.269 OA
ATOM     29  H3  UNL     1       6.686   0.599  -1.019  1.00  0.00     0.164 HD
BRANCH  27  30
HETATM   30  C17 UNL     1       9.350   0.211  -1.224  1.00  0.00     0.269 C 
HETATM   31 CL1  UNL     1      11.010  -0.345  -0.894  1.00  0.00    -0.073 Cl
HETATM   32 CL2  UNL     1       9.279   1.978  -1.322  1.00  0.00    -0.073 Cl
HETATM   33 CL3  UNL     1       8.902  -0.453  -2.829  1.00  0.00    -0.073 Cl
ENDBRANCH  27  30
ENDBRANCH  25  26
ENDBRANCH  23  25
ENDBRANCH   4  21
TORSDOF 8
