REMARK  9 active torsions:
REMARK  status: ('A' for Active; 'I' for Inactive)
REMARK    1  A    between atoms: C2_2  and  C3_3 
REMARK    2  A    between atoms: C2_2  and  C4_6 
REMARK    3  A    between atoms: C7_9  and  O3_10 
REMARK    4  A    between atoms: C8_12  and  O4_13 
REMARK    5  A    between atoms: O4_13  and  C9_14 
REMARK    6  A    between atoms: C9_14  and  C10_16 
REMARK    7  A    between atoms: C10_16  and  C11_17 
REMARK    8  A    between atoms: C10_16  and  O6_19 
REMARK    9  A    between atoms: C16_25  and  C17_26 
ROOT
HETATM    1  C4  UNL     1       2.715  -0.098   0.745  1.00  0.00     0.042 C 
HETATM    2  C5  UNL     1       2.169  -0.990  -0.320  1.00  0.00     0.013 C 
HETATM    3  C6  UNL     1       0.678  -0.672  -0.584  1.00  0.00     0.044 C 
HETATM    4  C7  UNL     1       0.578   0.762  -0.925  1.00  0.00     0.121 C 
HETATM    5  C8  UNL     1      -0.840   1.291  -0.986  1.00  0.00     0.268 C 
HETATM    6  C14 UNL     1      -0.703   2.660  -0.415  1.00  0.00     0.292 C 
HETATM    7  O7  UNL     1      -1.661   3.502  -0.316  1.00  0.00    -0.262 OA
HETATM    8  O8  UNL     1       0.624   2.819  -0.029  1.00  0.00    -0.310 OA
HETATM    9  C15 UNL     1       1.085   1.555   0.263  1.00  0.00     0.184 C 
HETATM   10  C16 UNL     1       2.576   1.369   0.363  1.00  0.00     0.128 C 
ENDROOT
BRANCH   5  11
HETATM   11  O4  UNL     1      -1.726   0.482  -0.279  1.00  0.00    -0.301 OA
BRANCH  11  12
HETATM   12  C9  UNL     1      -2.867  -0.068  -0.852  1.00  0.00     0.288 C 
HETATM   13  O5  UNL     1      -3.036   0.226  -2.065  1.00  0.00    -0.262 OA
BRANCH  12  14
HETATM   14  C10 UNL     1      -3.781  -0.921  -0.067  1.00  0.00     0.220 C 
BRANCH  14  15
HETATM   15  C11 UNL     1      -4.176  -0.224   1.244  1.00  0.00     0.038 C 
HETATM   16  C12 UNL     1      -4.873   1.086   0.962  1.00  0.00     0.008 C 
ENDBRANCH  14  15
BRANCH  14  17
HETATM   17  O6  UNL     1      -4.856  -1.391  -0.747  1.00  0.00    -0.381 OA
HETATM   18  C13 UNL     1      -4.967  -2.756  -0.861  1.00  0.00     0.202 C 
ENDBRANCH  14  17
ENDBRANCH  12  14
ENDBRANCH  11  12
ENDBRANCH   5  11
BRANCH   4  19
HETATM   19  O3  UNL     1       1.171   1.072  -2.120  1.00  0.00    -0.384 OA
ATOM     20  H3  UNL     1       1.107   1.994  -2.339  1.00  0.00     0.210 HD
ENDBRANCH   4  19
BRANCH  10  21
HETATM   21  C17 UNL     1       3.273   1.724  -0.865  1.00  0.00     0.180 C 
HETATM   22  O9  UNL     1       3.988   0.991  -1.589  1.00  0.00    -0.648 OA
HETATM   23  O10 UNL     1       3.155   3.047  -1.330  1.00  0.00    -0.648 OA
ENDBRANCH  10  21
BRANCH   1  24
HETATM   24  C2  UNL     1       4.022  -0.470   1.226  1.00  0.00     0.014 C 
HETATM   25  C1  UNL     1       4.998   0.445   1.325  1.00  0.00     0.026 C 
BRANCH  24  26
HETATM   26  C3  UNL     1       4.406  -1.802   1.639  1.00  0.00     0.204 C 
HETATM   27  O1  UNL     1       3.623  -2.757   1.616  1.00  0.00    -0.644 OA
HETATM   28  O2  UNL     1       5.693  -2.043   2.081  1.00  0.00    -0.644 OA
ENDBRANCH  24  26
ENDBRANCH   1  24
TORSDOF 9
