REMARK  12 active torsions:
REMARK  status: ('A' for Active; 'I' for Inactive)
REMARK    1  A    between atoms: N1_5  and  C5_6 
REMARK    2  A    between atoms: C9_10  and  C10_11 
REMARK    3  A    between atoms: C12_14  and  N2_15 
REMARK    4  A    between atoms: N5_22  and  C13_23 
REMARK    5  A    between atoms: C13_23  and  C14_24 
REMARK    6  A    between atoms: C14_24  and  C15_25 
REMARK    7  A    between atoms: C15_25  and  O1_26 
REMARK    8  A    between atoms: C15_25  and  C16_28 
REMARK    9  A    between atoms: C16_28  and  C17_29 
REMARK   10  A    between atoms: C17_29  and  C18_30 
REMARK   11  A    between atoms: C18_30  and  C19_31 
REMARK   12  A    between atoms: C19_31  and  N6_32 
ROOT
HETATM    1  C5  UNL     1      -3.445   0.765  -0.417  1.00  0.00     0.040 A 
HETATM    2  C6  UNL     1      -3.738   2.054  -0.061  1.00  0.00     0.031 A 
HETATM    3  C7  UNL     1      -2.806   3.090  -0.040  1.00  0.00     0.018 A 
HETATM    4  C8  UNL     1      -1.522   2.821  -0.392  1.00  0.00     0.023 A 
HETATM    5  C9  UNL     1      -0.414   3.602  -0.465  1.00  0.00     0.088 A 
HETATM    6  N4  UNL     1       0.576   2.745  -0.881  1.00  0.00    -0.295 N 
ATOM      7  H4  UNL     1       1.546   3.020  -1.036  1.00  0.00     0.187 HD
HETATM    8  N5  UNL     1       0.121   1.542  -1.051  1.00  0.00    -0.291 N 
HETATM    9  C24 UNL     1      -1.199   1.507  -0.762  1.00  0.00     0.065 A 
HETATM   10  C25 UNL     1      -2.142   0.512  -0.771  1.00  0.00     0.062 A 
ENDROOT
BRANCH   8  11
HETATM   11  C13 UNL     1       0.889   0.390  -1.504  1.00  0.00     0.152 C 
BRANCH  11  12
HETATM   12  C14 UNL     1       1.456  -0.420  -0.401  1.00  0.00     0.053 C 
BRANCH  12  13
HETATM   13  C15 UNL     1       2.404   0.182   0.540  1.00  0.00     0.119 C 
BRANCH  13  14
HETATM   14  O1  UNL     1       1.974   1.295   1.242  1.00  0.00    -0.396 OA
ATOM     15  H1  UNL     1       2.589   1.685   1.852  1.00  0.00     0.210 HD
ENDBRANCH  13  14
BRANCH  13  16
HETATM   16  C16 UNL     1       3.855   0.244   0.179  1.00  0.00     0.032 C 
BRANCH  16  17
HETATM   17  C17 UNL     1       4.216   0.978  -1.043  1.00  0.00     0.004 C 
BRANCH  17  18
HETATM   18  C18 UNL     1       5.688   1.111  -1.270  1.00  0.00     0.030 C 
BRANCH  18  19
HETATM   19  C19 UNL     1       6.474  -0.129  -1.413  1.00  0.00     0.272 C 
BRANCH  19  20
HETATM   20  N6  UNL     1       6.561  -1.003  -0.284  1.00  0.00     0.092 N 
HETATM   21  C20 UNL     1       7.281  -2.199  -0.741  1.00  0.00     0.298 C 
HETATM   22  C21 UNL     1       8.191  -2.741   0.332  1.00  0.00     0.198 C 
HETATM   23  O2  UNL     1       7.534  -2.572   1.561  1.00  0.00    -0.388 OA
HETATM   24  C22 UNL     1       7.640  -1.221   1.894  1.00  0.00     0.198 C 
HETATM   25  C23 UNL     1       7.374  -0.324   0.726  1.00  0.00     0.298 C 
ENDBRANCH  19  20
ENDBRANCH  18  19
ENDBRANCH  17  18
ENDBRANCH  16  17
ENDBRANCH  13  16
ENDBRANCH  12  13
ENDBRANCH  11  12
ENDBRANCH   8  11
BRANCH   5  26
HETATM   26  C10 UNL     1      -0.209   5.057  -0.172  1.00  0.00     0.070 A 
HETATM   27  C11 UNL     1      -1.190   5.904   0.230  1.00  0.00     0.085 A 
HETATM   28  S1  UNL     1      -0.343   7.411   0.393  1.00  0.00    -0.064 SA
HETATM   29  C12 UNL     1       1.183   6.858  -0.059  1.00  0.00     0.142 A 
HETATM   30  N3  UNL     1       1.010   5.576  -0.314  1.00  0.00    -0.335 N 
ATOM     31  H3  UNL     1       1.792   4.994  -0.613  1.00  0.00     0.168 HD
BRANCH  29  32
HETATM   32  N2  UNL     1       2.325   7.523  -0.151  1.00  0.00    -0.380 N 
ATOM     33  H22 UNL     1       2.459   8.515   0.046  1.00  0.00     0.158 HD
ATOM     34  H21 UNL     1       3.249   7.188  -0.425  1.00  0.00     0.158 HD
ENDBRANCH  29  32
ENDBRANCH   5  26
BRANCH   1  35
HETATM   35  N1  UNL     1      -4.435  -0.261  -0.416  1.00  0.00    -0.332 N 
HETATM   36  C4  UNL     1      -4.361  -1.452   0.229  1.00  0.00     0.104 A 
HETATM   37  C3  UNL     1      -5.507  -2.199   0.009  1.00  0.00    -0.030 A 
HETATM   38  C2  UNL     1      -5.987  -3.529   0.432  1.00  0.00     0.024 C 
HETATM   39  C27 UNL     1      -6.312  -1.431  -0.803  1.00  0.00    -0.030 A 
HETATM   40  C1  UNL     1      -5.824  -4.565  -0.662  1.00  0.00     0.015 C 
HETATM   41  C30 UNL     1      -7.434  -3.487   0.837  1.00  0.00     0.045 C 
HETATM   42  C29 UNL     1      -8.263  -2.481   0.114  1.00  0.00     0.186 C 
HETATM   43  C31 UNL     1      -7.489  -3.317   2.343  1.00  0.00     0.015 C 
HETATM   44  C28 UNL     1      -7.623  -2.020  -1.185  1.00  0.00     0.101 C 
HETATM   45  F1  UNL     1      -8.425  -1.337   0.908  1.00  0.00    -0.225 F 
HETATM   46 CL1  UNL     1      -9.889  -3.098  -0.244  1.00  0.00    -0.082 Cl
HETATM   47  C26 UNL     1      -5.630  -0.268  -1.038  1.00  0.00     0.104 A 
ENDBRANCH   1  35
TORSDOF 12
