REMARK  2 active torsions:
REMARK  status: ('A' for Active; 'I' for Inactive)
REMARK    1  A    between atoms: C2_2  and  N2_6 
REMARK    2  A    between atoms: N2_6  and  C3_8 
ROOT
HETATM    1  C3  UNL     1       0.546  -0.533  -0.259  1.00  0.00     0.122 C 
HETATM    2  C4  UNL     1       0.347  -1.390   0.966  1.00  0.00     0.028 C 
HETATM    3  C5  UNL     1      -1.081  -1.896   0.951  1.00  0.00     0.002 C 
HETATM    4  C6  UNL     1      -2.082  -0.787   1.024  1.00  0.00     0.005 C 
HETATM    5  C7  UNL     1      -2.203  -0.029  -0.289  1.00  0.00    -0.011 C 
HETATM    6  C8  UNL     1      -3.640   0.505  -0.394  1.00  0.00     0.010 C 
HETATM    7  C9  UNL     1      -1.307   1.166  -0.202  1.00  0.00     0.034 A 
HETATM    8  C10 UNL     1      -0.404   1.578  -1.277  1.00  0.00     0.054 A 
HETATM    9  C11 UNL     1       0.115   0.899  -0.022  1.00  0.00     0.128 A 
HETATM   10  F1  UNL     1       0.887   1.598   0.856  1.00  0.00    -0.240 F 
ENDROOT
BRANCH   1  11
HETATM   11  N2  UNL     1       1.915  -0.483  -0.699  1.00  0.00    -0.373 N 
ATOM     12  H2  UNL     1       2.117  -0.815  -1.642  1.00  0.00     0.161 HD
BRANCH  11  13
HETATM   13  C2  UNL     1       2.996  -0.014   0.065  1.00  0.00     0.066 C 
HETATM   14  C1  UNL     1       3.964   0.902  -0.594  1.00  0.00     0.088 C 
HETATM   15  N1  UNL     1       3.211  -0.317   1.291  1.00  0.00    -0.389 N 
ATOM     16  H12 UNL     1       3.996   0.024   1.846  1.00  0.00     0.157 HD
ATOM     17  H11 UNL     1       2.547  -0.945   1.743  1.00  0.00     0.157 HD
ENDBRANCH  11  13
ENDBRANCH   1  11
TORSDOF 2
