REMARK  15 active torsions:
REMARK  status: ('A' for Active; 'I' for Inactive)
REMARK    1  A    between atoms: C2_2  and  C4_4 
REMARK    2  A    between atoms: C6_6  and  C8_8 
REMARK    3  A    between atoms: C8_8  and  O1_9 
REMARK    4  A    between atoms: C11_12  and  C12_13 
REMARK    5  A    between atoms: C12_13  and  O2_14 
REMARK    6  A    between atoms: C12_13  and  C13_16 
REMARK    7  A    between atoms: C21_25  and  O4_26 
REMARK    8  A    between atoms: C24_31  and  O6_32 
REMARK    9  A    between atoms: O6_32  and  C25_33 
REMARK   10  A    between atoms: C25_33  and  C26_34 
REMARK   11  A    between atoms: C26_34  and  O7_35 
REMARK   12  A    between atoms: C26_34  and  C27_37 
REMARK   13  A    between atoms: C27_37  and  C34_46 
REMARK   14  A    between atoms: C28_38  and  O8_39 
REMARK   15  A    between atoms: C28_38  and  C29_41 
ROOT
HETATM    1  C13 UNL     1      -1.528  -0.501   0.130  1.00  0.00     0.158 C 
HETATM    2  O3  UNL     1      -0.143  -0.646   0.343  1.00  0.00    -0.366 OA
HETATM    3  C14 UNL     1       0.078  -1.663   1.208  1.00  0.00     0.122 C 
HETATM    4  C15 UNL     1       0.384  -1.076   2.602  1.00  0.00     0.052 C 
HETATM    5  C16 UNL     1      -1.221  -2.410   1.399  1.00  0.00     0.036 C 
HETATM    6  C17 UNL     1      -1.391  -3.633   0.587  1.00  0.00     0.046 C 
HETATM    7  C18 UNL     1      -0.207  -4.498   0.843  1.00  0.00    -0.035 C 
HETATM    8  C19 UNL     1      -0.037  -5.820   1.060  1.00  0.00    -0.050 C 
HETATM    9  C20 UNL     1      -1.159  -6.780   1.086  1.00  0.00     0.046 C 
HETATM   10  C21 UNL     1       1.418  -6.114   1.229  1.00  0.00     0.150 C 
HETATM   11  C22 UNL     1       1.991  -4.961   0.366  1.00  0.00     0.085 C 
HETATM   12  C23 UNL     1       1.096  -3.856   0.890  1.00  0.00     0.150 A 
HETATM   13  O5  UNL     1       1.576  -3.308   2.051  1.00  0.00    -0.328 OA
HETATM   14  C24 UNL     1       1.230  -2.500   0.817  1.00  0.00     0.234 A 
HETATM   15  C38 UNL     1      -2.242  -1.311   1.109  1.00  0.00     0.020 C 
HETATM   16  C39 UNL     1      -2.632  -0.707   2.409  1.00  0.00     0.013 C 
ENDROOT
BRANCH  14  17
HETATM   17  O6  UNL     1       2.380  -1.930   0.363  1.00  0.00    -0.347 OA
BRANCH  17  18
HETATM   18  C25 UNL     1       2.388  -1.163  -0.745  1.00  0.00     0.208 C 
BRANCH  18  19
HETATM   19  C26 UNL     1       3.749  -0.880  -1.309  1.00  0.00     0.174 C 
BRANCH  19  20
HETATM   20  O7  UNL     1       3.475  -0.179  -2.557  1.00  0.00    -0.389 OA
ATOM     21  H7  UNL     1       4.337   0.000  -2.914  1.00  0.00     0.210 HD
ENDBRANCH  19  20
BRANCH  19  22
HETATM   22  C27 UNL     1       4.779  -0.169  -0.587  1.00  0.00    -0.008 C 
HETATM   23  C28 UNL     1       4.703   1.213  -0.186  1.00  0.00     0.077 C 
BRANCH  23  24
HETATM   24  O8  UNL     1       5.416   1.978  -0.993  1.00  0.00    -0.360 OA
ATOM     25  H8  UNL     1       5.366   2.889  -0.729  1.00  0.00     0.217 HD
ENDBRANCH  23  24
BRANCH  23  26
HETATM   26  C29 UNL     1       4.054   1.925   0.840  1.00  0.00    -0.027 C 
HETATM   27  C30 UNL     1       3.293   1.201   1.898  1.00  0.00     0.051 C 
HETATM   28  C31 UNL     1       4.106   3.233   0.981  1.00  0.00    -0.079 C 
HETATM   29  C32 UNL     1       4.851   4.146   0.091  1.00  0.00     0.043 C 
HETATM   30  C33 UNL     1       3.371   3.907   2.114  1.00  0.00     0.043 C 
ENDBRANCH  23  26
BRANCH  22  31
HETATM   31  C34 UNL     1       6.200  -0.486  -1.068  1.00  0.00    -0.023 C 
HETATM   32  C35 UNL     1       7.182   0.317  -0.234  1.00  0.00     0.019 C 
HETATM   33  C36 UNL     1       6.429  -0.179  -2.517  1.00  0.00     0.019 C 
HETATM   34  C37 UNL     1       6.498  -1.963  -0.846  1.00  0.00     0.019 C 
ENDBRANCH  22  31
ENDBRANCH  19  22
ENDBRANCH  18  19
ENDBRANCH  17  18
ENDBRANCH  14  17
BRANCH   1  35
HETATM   35  C12 UNL     1      -1.801   0.919  -0.047  1.00  0.00     0.176 C 
BRANCH  35  36
HETATM   36  C11 UNL     1      -3.177   1.346  -0.379  1.00  0.00     0.154 C 
HETATM   37  C10 UNL     1      -3.077   2.813  -0.808  1.00  0.00     0.046 C 
HETATM   38  C6  UNL     1      -4.459   3.455  -0.942  1.00  0.00    -0.018 C 
HETATM   39  C5  UNL     1      -5.469   2.474  -1.448  1.00  0.00     0.047 C 
HETATM   40  C7  UNL     1      -4.775   4.020   0.402  1.00  0.00     0.018 C 
HETATM   41  C4  UNL     1      -5.164   1.041  -1.285  1.00  0.00     0.150 C 
HETATM   42  O9  UNL     1      -3.792   0.718  -1.444  1.00  0.00    -0.374 OA
BRANCH  38  43
HETATM   43  C8  UNL     1      -4.274   4.545  -1.958  1.00  0.00     0.176 C 
BRANCH  43  44
HETATM   44  O1  UNL     1      -5.314   5.287  -2.355  1.00  0.00    -0.395 OA
HETATM   45  C9  UNL     1      -5.999   6.054  -1.501  1.00  0.00     0.201 C 
ENDBRANCH  43  44
ENDBRANCH  38  43
BRANCH  41  46
HETATM   46  C2  UNL     1      -6.030   0.237  -2.186  1.00  0.00    -0.065 C 
HETATM   47  C1  UNL     1      -6.846  -0.659  -1.663  1.00  0.00     0.016 C 
HETATM   48  C3  UNL     1      -6.003   0.410  -3.655  1.00  0.00     0.045 C 
ENDBRANCH  41  46
ENDBRANCH  35  36
BRANCH  35  49
HETATM   49  O2  UNL     1      -1.397   1.682   1.071  1.00  0.00    -0.390 OA
ATOM     50  H2  UNL     1      -0.513   1.408   1.284  1.00  0.00     0.210 HD
ENDBRANCH  35  49
ENDBRANCH   1  35
BRANCH  10  51
HETATM   51  O4  UNL     1       1.787  -7.343   0.756  1.00  0.00    -0.391 OA
ATOM     52  H4  UNL     1       2.712  -7.530   0.863  1.00  0.00     0.210 HD
ENDBRANCH  10  51
TORSDOF 15
