REMARK  13 active torsions:
REMARK  status: ('A' for Active; 'I' for Inactive)
REMARK    1  A    between atoms: C2_2  and  C3_3 
REMARK    2  A    between atoms: C12_13  and  O2_14 
REMARK    3  A    between atoms: C13_16  and  O3_18 
REMARK    4  A    between atoms: C15_20  and  O4_21 
REMARK    5  A    between atoms: C22_29  and  C24_31 
REMARK    6  A    between atoms: C24_31  and  O5_32 
REMARK    7  A    between atoms: O5_32  and  C25_33 
REMARK    8  A    between atoms: C28_37  and  N1_38 
REMARK    9  A    between atoms: N1_38  and  C30_40 
REMARK   10  A    between atoms: C30_40  and  C31_41 
REMARK   11  A    between atoms: C31_41  and  N2_42 
REMARK   12  A    between atoms: N2_42  and  C32_43 
REMARK   13  A    between atoms: N2_42  and  C34_45 
ROOT
HETATM    1  C3  UNL     1      -5.697   2.903  -0.951  1.00  0.00    -0.020 C 
HETATM    2  C4  UNL     1      -7.227   3.062  -0.990  1.00  0.00     0.020 C 
HETATM    3  C5  UNL     1      -5.318   3.153   0.492  1.00  0.00     0.016 C 
HETATM    4  C6  UNL     1      -5.593   1.879   1.232  1.00  0.00     0.037 C 
HETATM    5  C7  UNL     1      -4.401   0.961   0.923  1.00  0.00     0.152 C 
HETATM    6  O1  UNL     1      -4.471  -0.080   1.753  1.00  0.00    -0.370 OA
HETATM    7  C8  UNL     1      -3.486  -0.450   2.608  1.00  0.00     0.071 A 
HETATM    8  C9  UNL     1      -3.480   0.738   3.628  1.00  0.00     0.047 C 
HETATM    9  C10 UNL     1      -3.421  -1.832   3.122  1.00  0.00     0.053 A 
HETATM   10  C11 UNL     1      -4.062  -3.057   2.748  1.00  0.00     0.017 C 
HETATM   11  C12 UNL     1      -4.486  -3.565   1.463  1.00  0.00     0.076 C 
HETATM   12  C13 UNL     1      -3.666  -3.930   0.332  1.00  0.00     0.128 C 
HETATM   13  C14 UNL     1      -4.768  -4.116  -0.774  1.00  0.00     0.056 C 
HETATM   14  C15 UNL     1      -2.506  -3.373  -0.278  1.00  0.00     0.167 C 
HETATM   15  C16 UNL     1      -1.965  -1.978  -0.028  1.00  0.00     0.051 C 
HETATM   16  C17 UNL     1      -2.787  -0.858  -0.289  1.00  0.00    -0.018 C 
HETATM   17  C18 UNL     1      -3.617  -0.168  -1.169  1.00  0.00     0.002 C 
HETATM   18  C19 UNL     1      -4.444   0.759  -0.563  1.00  0.00    -0.047 C 
HETATM   19  C20 UNL     1      -5.385   1.548  -1.452  1.00  0.00     0.025 C 
HETATM   20  C21 UNL     1      -4.856   1.519  -2.857  1.00  0.00     0.016 C 
HETATM   21  C22 UNL     1      -1.510  -1.790   1.426  1.00  0.00    -0.006 C 
HETATM   22  C23 UNL     1      -0.867  -3.036   1.985  1.00  0.00     0.018 C 
HETATM   23  C38 UNL     1      -2.316  -1.174   2.437  1.00  0.00     0.042 A 
ENDROOT
BRANCH  21  24
HETATM   24  C24 UNL     1      -0.235  -0.908   1.222  1.00  0.00     0.183 C 
BRANCH  24  25
HETATM   25  O5  UNL     1       0.696  -1.568   0.451  1.00  0.00    -0.338 OA
BRANCH  25  26
HETATM   26  C25 UNL     1       1.850  -0.848   0.210  1.00  0.00     0.413 C 
HETATM   27  O6  UNL     1       2.136  -0.726  -1.139  1.00  0.00    -0.332 OA
HETATM   28  C26 UNL     1       3.204   0.078  -1.378  1.00  0.00     0.158 C 
HETATM   29  C27 UNL     1       2.645   1.378  -1.978  1.00  0.00     0.042 C 
HETATM   30  C28 UNL     1       4.167   0.315  -0.278  1.00  0.00     0.279 C 
HETATM   31  C36 UNL     1       3.940  -0.520   0.949  1.00  0.00     0.158 C 
HETATM   32  C37 UNL     1       3.524   0.313   2.141  1.00  0.00     0.042 C 
HETATM   33  O7  UNL     1       2.978  -1.504   0.766  1.00  0.00    -0.332 OA
BRANCH  30  34
HETATM   34  N1  UNL     1       5.553   0.221  -0.694  1.00  0.00     0.095 N 
HETATM   35  C29 UNL     1       5.917  -1.078  -1.173  1.00  0.00     0.310 C 
BRANCH  34  36
HETATM   36  C30 UNL     1       6.476   0.800   0.225  1.00  0.00     0.302 C 
BRANCH  36  37
HETATM   37  C31 UNL     1       7.909   0.697  -0.199  1.00  0.00     0.302 C 
BRANCH  37  38
HETATM   38  N2  UNL     1       8.224   1.337  -1.444  1.00  0.00     0.089 N 
BRANCH  38  39
HETATM   39  C32 UNL     1       9.658   1.087  -1.677  1.00  0.00     0.268 C 
HETATM   40  C33 UNL     1       9.886  -0.400  -1.959  1.00  0.00     0.037 C 
ENDBRANCH  38  39
BRANCH  38  41
HETATM   41  C34 UNL     1       8.154   2.789  -1.208  1.00  0.00     0.268 C 
HETATM   42  C35 UNL     1       8.477   3.492  -2.497  1.00  0.00     0.037 C 
ENDBRANCH  38  41
ENDBRANCH  37  38
ENDBRANCH  36  37
ENDBRANCH  34  36
ENDBRANCH  30  34
ENDBRANCH  25  26
ENDBRANCH  24  25
ENDBRANCH  21  24
BRANCH  14  43
HETATM   43  O4  UNL     1      -1.343  -4.206  -0.301  1.00  0.00    -0.391 OA
ATOM     44  H4  UNL     1      -0.569  -3.834  -0.708  1.00  0.00     0.210 HD
ENDBRANCH  14  43
BRANCH  12  45
HETATM   45  O3  UNL     1      -3.319  -5.332   0.451  1.00  0.00    -0.381 OA
ATOM     46  H3  UNL     1      -2.779  -5.572  -0.293  1.00  0.00     0.211 HD
ENDBRANCH  12  45
BRANCH  11  47
HETATM   47  O2  UNL     1      -5.760  -2.968   1.147  1.00  0.00    -0.362 OA
ATOM     48  H2  UNL     1      -6.039  -3.302   0.302  1.00  0.00     0.217 HD
ENDBRANCH  11  47
BRANCH   1  49
HETATM   49  C2  UNL     1      -5.157   3.996  -1.818  1.00  0.00    -0.027 C 
HETATM   50  C1  UNL     1      -5.570   5.235  -1.529  1.00  0.00     0.007 C 
ENDBRANCH   1  49
TORSDOF 13
