REMARK  2 active torsions:
REMARK  status: ('A' for Active; 'I' for Inactive)
REMARK    1  A    between atoms: C2_2  and  N1_3 
REMARK    2  A    between atoms: C3_6  and  N3_7 
ROOT
HETATM    1  N1  UNL     1       1.067  -0.349  -0.126  1.00  0.00    -0.267 N 
HETATM    2  N2  UNL     1       0.901   0.863   0.390  1.00  0.00    -0.129 N 
ATOM      3  H2  UNL     1       1.701   1.494   0.438  1.00  0.00     0.206 HD
HETATM    4  C3  UNL     1      -0.291   1.285   0.852  1.00  0.00     0.694 A 
HETATM    5  N4  UNL     1      -1.356   0.465   0.796  1.00  0.00    -0.168 N 
HETATM    6  C4  UNL     1      -2.620   0.953   1.301  1.00  0.00     0.177 C 
HETATM    7  C5  UNL     1      -1.255  -0.795   0.276  1.00  0.00     0.166 A 
HETATM    8  N5  UNL     1      -1.930  -1.925   0.001  1.00  0.00    -0.308 N 
ATOM      9  H5  UNL     1      -2.902  -2.205   0.133  1.00  0.00     0.176 HD
HETATM   10  S1  UNL     1      -0.594  -2.702  -0.636  1.00  0.00     0.011 SA
HETATM   11  C6  UNL     1       0.011  -1.172  -0.186  1.00  0.00     0.154 A 
ENDROOT
BRANCH   4  12
HETATM   12  N3  UNL     1      -0.447   2.466   1.354  1.00  0.00    -0.233 N 
ATOM     13  H32 UNL     1       0.360   3.088   1.396  1.00  0.00     0.174 HD
ATOM     14  H31 UNL     1      -1.350   2.786   1.704  1.00  0.00     0.174 HD
ENDBRANCH   4  12
BRANCH   1  15
HETATM   15  C2  UNL     1       2.369  -0.763  -0.613  1.00  0.00     0.146 C 
HETATM   16  C1  UNL     1       2.479  -0.394  -2.065  1.00  0.00     0.028 C 
ENDBRANCH   1  15
TORSDOF 2
