REMARK  4 active torsions:
REMARK  status: ('A' for Active; 'I' for Inactive)
REMARK    1  A    between atoms: C2_2  and  C3_3 
REMARK    2  A    between atoms: C3_3  and  N1_4 
REMARK    3  A    between atoms: N1_4  and  C4_6 
REMARK    4  A    between atoms: C7_11  and  N3_12 
ROOT
HETATM    1  C4  UNL     1       0.732   0.241  -0.300  1.00  0.00     0.693 A 
HETATM    2  N2  UNL     1      -0.264  -0.229  -1.057  1.00  0.00    -0.191 N 
ATOM      3  H2  UNL     1      -0.030  -0.706  -1.928  1.00  0.00     0.184 HD
HETATM    4  C5  UNL     1      -1.582  -0.101  -0.719  1.00  0.00     0.067 A 
HETATM    5  C6  UNL     1      -2.576  -0.666  -1.648  1.00  0.00     0.073 C 
HETATM    6  C7  UNL     1      -1.892   0.538   0.448  1.00  0.00     0.139 A 
HETATM    7  N4  UNL     1      -0.860   1.004   1.194  1.00  0.00    -0.270 N 
ATOM      8  H4  UNL     1      -1.074   1.484   2.068  1.00  0.00     0.189 HD
HETATM    9  N5  UNL     1       0.394   0.871   0.853  1.00  0.00    -0.131 N 
ATOM     10  H5  UNL     1       1.125   1.244   1.459  1.00  0.00     0.205 HD
ENDROOT
BRANCH   1  11
HETATM   11  N1  UNL     1       1.981   0.111  -0.637  1.00  0.00    -0.221 N 
ATOM     12  H1  UNL     1       2.232  -0.363  -1.505  1.00  0.00     0.178 HD
BRANCH  11  13
HETATM   13  C3  UNL     1       3.009   0.641   0.224  1.00  0.00     0.164 C 
BRANCH  13  14
HETATM   14  C2  UNL     1       4.336   0.366  -0.352  1.00  0.00    -0.017 C 
HETATM   15  C1  UNL     1       5.228  -0.356   0.310  1.00  0.00     0.008 C 
ENDBRANCH  13  14
ENDBRANCH  11  13
ENDBRANCH   1  11
BRANCH   6  16
HETATM   16  N3  UNL     1      -3.035   0.730   0.893  1.00  0.00    -0.378 N 
HETATM   17  C8  UNL     1      -4.352   0.458   0.524  1.00  0.00     0.147 C 
ATOM     18  H3  UNL     1      -3.001   1.229   1.782  1.00  0.00     0.160 HD
ENDBRANCH   6  16
TORSDOF 4
