REMARK  4 active torsions:
REMARK  status: ('A' for Active; 'I' for Inactive)
REMARK    1  A    between atoms: N1_5  and  C5_6 
REMARK    2  A    between atoms: C5_6  and  C6_7 
REMARK    3  A    between atoms: C8_11  and  N3_12 
REMARK    4  A    between atoms: N5_17  and  O1_18 
ROOT
HETATM    1  C5  UNL     1       1.156  -1.364  -0.934  1.00  0.00     0.209 C 
ENDROOT
BRANCH   1   2
HETATM    2  N1  UNL     1      -0.141  -0.910  -0.472  1.00  0.00    -0.272 N 
HETATM    3  C4  UNL     1      -0.695  -1.509   0.593  1.00  0.00     0.113 A 
HETATM    4  C3  UNL     1      -1.919  -1.142   1.096  1.00  0.00     0.027 A 
HETATM    5  C2  UNL     1      -2.599  -0.115   0.474  1.00  0.00    -0.034 A 
HETATM    6  C1  UNL     1      -3.915   0.305   0.986  1.00  0.00     0.050 C 
HETATM    7  C9  UNL     1      -2.016   0.488  -0.617  1.00  0.00     0.061 A 
HETATM    8  N5  UNL     1      -0.809   0.072  -1.054  1.00  0.00    -0.166 N 
HETATM    9  C10 UNL     1      -2.695   1.589  -1.321  1.00  0.00     0.073 C 
BRANCH   8  10
HETATM   10  O1  UNL     1      -0.260   0.711  -2.159  1.00  0.00    -0.268 OA
ATOM     11  H1  UNL     1      -0.740   1.416  -2.577  1.00  0.00     0.247 HD
ENDBRANCH   8  10
ENDBRANCH   1   2
BRANCH   1  12
HETATM   12  C6  UNL     1       2.269  -0.626  -0.278  1.00  0.00     0.062 A 
HETATM   13  C7  UNL     1       2.907  -0.988   0.908  1.00  0.00     0.133 A 
HETATM   14  N2  UNL     1       3.851  -0.100   1.194  1.00  0.00    -0.200 N 
HETATM   15  C8  UNL     1       3.825   0.832   0.200  1.00  0.00     0.676 A 
ATOM     16  H2  UNL     1       4.475  -0.113   2.001  1.00  0.00     0.183 HD
HETATM   17  N4  UNL     1       2.866   0.510  -0.689  1.00  0.00    -0.193 N 
ATOM     18  H4  UNL     1       2.631   1.037  -1.530  1.00  0.00     0.184 HD
BRANCH  15  19
HETATM   19  N3  UNL     1       4.602   1.848   0.141  1.00  0.00    -0.234 N 
ATOM     20  H32 UNL     1       5.328   2.092   0.814  1.00  0.00     0.174 HD
ATOM     21  H31 UNL     1       4.583   2.546  -0.603  1.00  0.00     0.174 HD
ENDBRANCH  15  19
ENDBRANCH   1  12
TORSDOF 4
