REMARK  5 active torsions:
REMARK  status: ('A' for Active; 'I' for Inactive)
REMARK    1  A    between atoms: O1_2  and  C2_3 
REMARK    2  A    between atoms: C2_3  and  C3_5 
REMARK    3  A    between atoms: C5_7  and  O3_8 
REMARK    4  A    between atoms: C15_20  and  C16_21 
REMARK    5  A    between atoms: C16_21  and  C17_23 
ROOT
HETATM    1  C3  UNL     1      -2.655   1.344  -1.002  1.00  0.00     0.074 C 
HETATM    2  C4  UNL     1      -2.027   2.415  -1.920  1.00  0.00     0.029 C 
HETATM    3  C5  UNL     1      -3.737   0.759  -1.869  1.00  0.00     0.136 C 
HETATM    4  C6  UNL     1      -4.324  -0.501  -1.369  1.00  0.00     0.034 C 
HETATM    5  C7  UNL     1      -3.648  -0.980  -0.149  1.00  0.00     0.015 C 
HETATM    6  C8  UNL     1      -2.113  -1.043  -0.301  1.00  0.00    -0.003 C 
HETATM    7  C9  UNL     1      -1.951  -1.887  -1.552  1.00  0.00     0.019 C 
HETATM    8  C10 UNL     1      -1.660   0.384  -0.482  1.00  0.00     0.017 C 
HETATM    9  C11 UNL     1      -0.339   0.329  -1.211  1.00  0.00     0.010 C 
HETATM   10  C12 UNL     1       0.772   0.855  -0.389  1.00  0.00     0.039 C 
HETATM   11  C13 UNL     1       1.522  -0.077   0.458  1.00  0.00     0.069 C 
HETATM   12  C14 UNL     1       1.697   0.469   1.883  1.00  0.00     0.047 C 
HETATM   13  O4  UNL     1       2.853  -0.093  -0.062  1.00  0.00    -0.337 OA
HETATM   14  C15 UNL     1       3.815  -0.930   0.464  1.00  0.00     0.112 C 
HETATM   15  C20 UNL     1       3.374  -1.980   1.073  1.00  0.00     0.014 C 
HETATM   16  C21 UNL     1       1.981  -2.394   1.279  1.00  0.00     0.038 C 
HETATM   17  C22 UNL     1       0.963  -1.486   0.567  1.00  0.00     0.031 C 
HETATM   18  C23 UNL     1      -0.248  -1.556   1.397  1.00  0.00     0.033 C 
HETATM   19  C24 UNL     1      -0.490  -2.925   2.062  1.00  0.00     0.011 C 
HETATM   20  C25 UNL     1      -1.537  -3.174   0.963  1.00  0.00     0.045 C 
HETATM   21  C26 UNL     1      -1.597  -1.638   0.934  1.00  0.00     0.115 C 
HETATM   22  F1  UNL     1      -2.463  -1.305   2.010  1.00  0.00    -0.242 F 
ENDROOT
BRANCH   1  23
HETATM   23  C2  UNL     1      -3.252   2.193   0.088  1.00  0.00     0.269 C 
HETATM   24  O2  UNL     1      -4.454   2.260   0.362  1.00  0.00    -0.264 OA
BRANCH  23  25
HETATM   25  O1  UNL     1      -2.361   2.953   0.829  1.00  0.00    -0.326 OA
HETATM   26  C1  UNL     1      -2.779   3.804   1.890  1.00  0.00     0.213 C 
ENDBRANCH  23  25
ENDBRANCH   1  23
BRANCH   3  27
HETATM   27  O3  UNL     1      -4.721   1.771  -1.993  1.00  0.00    -0.394 OA
ATOM     28  H3  UNL     1      -5.404   1.402  -2.540  1.00  0.00     0.210 HD
ENDBRANCH   3  27
BRANCH  14  29
HETATM   29  C16 UNL     1       5.251  -0.659   0.345  1.00  0.00     0.185 C 
HETATM   30  O5  UNL     1       6.047  -1.492   0.862  1.00  0.00    -0.290 OA
BRANCH  29  31
HETATM   31  C17 UNL     1       5.791   0.519  -0.339  1.00  0.00     0.054 C 
HETATM   32  C18 UNL     1       5.359   0.531  -1.787  1.00  0.00     0.018 C 
HETATM   33  C19 UNL     1       5.219   1.765   0.346  1.00  0.00     0.018 C 
ENDBRANCH  29  31
ENDBRANCH  14  29
TORSDOF 5
