REMARK  5 active torsions:
REMARK  status: ('A' for Active; 'I' for Inactive)
REMARK    1  A    between atoms: C5_6  and  C6_7 
REMARK    2  A    between atoms: C6_7  and  O2_9 
REMARK    3  A    between atoms: O2_9  and  C7_10 
REMARK    4  A    between atoms: C11_14  and  N2_15 
REMARK    5  A    between atoms: N2_15  and  C12_17 
ROOT
HETATM    1  N1  UNL     1      10.498   0.070   1.475  1.00  0.00    -0.190 NA
HETATM    2  C1  UNL     1       9.344   0.098   1.330  1.00  0.00     0.117 C 
HETATM    3  C2  UNL     1       7.932   0.149   1.149  1.00  0.00     0.113 A 
HETATM    4  C3  UNL     1       7.218  -0.971   0.752  1.00  0.00     0.042 A 
HETATM    5  C4  UNL     1       5.846  -0.898   0.582  1.00  0.00     0.022 A 
HETATM    6  C5  UNL     1       5.156   0.276   0.799  1.00  0.00     0.055 A 
HETATM    7  C22 UNL     1       5.905   1.360   1.190  1.00  0.00     0.106 A 
HETATM    8  N4  UNL     1       7.239   1.281   1.354  1.00  0.00    -0.356 N 
ATOM      9  H4  UNL     1       7.745   2.117   1.647  1.00  0.00     0.166 HD
ENDROOT
BRANCH   6  10
HETATM   10  C6  UNL     1       3.724   0.408   0.636  1.00  0.00     0.300 C 
HETATM   11  O1  UNL     1       3.190   1.522   0.858  1.00  0.00    -0.259 OA
BRANCH  10  12
HETATM   12  O2  UNL     1       2.890  -0.622   0.247  1.00  0.00    -0.275 OA
BRANCH  12  13
HETATM   13  C7  UNL     1       1.516  -0.489   0.093  1.00  0.00     0.081 A 
HETATM   14  C8  UNL     1       0.645  -0.719   1.141  1.00  0.00     0.038 A 
HETATM   15  C9  UNL     1      -0.733  -0.580   0.963  1.00  0.00     0.019 A 
HETATM   16  C10 UNL     1      -1.222  -0.207  -0.275  1.00  0.00     0.018 A 
HETATM   17  C11 UNL     1      -2.579  -0.063  -0.470  1.00  0.00     0.046 A 
HETATM   18  C20 UNL     1      -0.363   0.033  -1.353  1.00  0.00     0.047 A 
HETATM   19  C18 UNL     1      -3.070   0.312  -1.718  1.00  0.00     0.047 A 
HETATM   20  C19 UNL     1      -2.153   0.528  -2.724  1.00  0.00     0.090 A 
HETATM   21  N3  UNL     1      -0.826   0.395  -2.559  1.00  0.00    -0.365 N 
ATOM     22  H3  UNL     1      -0.185   0.566  -3.334  1.00  0.00     0.165 HD
HETATM   23  C21 UNL     1       0.994  -0.123  -1.111  1.00  0.00     0.067 A 
BRANCH  17  24
HETATM   24  N2  UNL     1      -3.356  -0.288   0.535  1.00  0.00    -0.355 N 
ATOM     25  H2  UNL     1      -2.941  -0.560   1.426  1.00  0.00     0.166 HD
BRANCH  24  26
HETATM   26  C12 UNL     1      -4.773  -0.170   0.446  1.00  0.00     0.032 A 
HETATM   27  C13 UNL     1      -5.358   0.989   0.948  1.00  0.00     0.031 A 
HETATM   28  C14 UNL     1      -6.742   1.085   0.851  1.00  0.00     0.021 A 
HETATM   29  C15 UNL     1      -7.495   0.085   0.288  1.00  0.00     0.011 A 
HETATM   30 BR1  UNL     1      -9.399   0.219   0.155  1.00  0.00    -0.051 Br
HETATM   31  C16 UNL     1      -6.911  -1.060  -0.207  1.00  0.00     0.021 A 
HETATM   32  C17 UNL     1      -5.536  -1.168  -0.117  1.00  0.00     0.031 A 
ENDBRANCH  24  26
ENDBRANCH  17  24
ENDBRANCH  12  13
ENDBRANCH  10  12
ENDBRANCH   6  10
TORSDOF 5
