REMARK  5 active torsions:
REMARK  status: ('A' for Active; 'I' for Inactive)
REMARK    1  A    between atoms: O1_1  and  N1_3 
REMARK    2  A    between atoms: C7_11  and  O3_12 
REMARK    3  A    between atoms: O3_12  and  C8_13 
REMARK    4  A    between atoms: C11_16  and  N2_17 
REMARK    5  A    between atoms: N2_17  and  C12_19 
ROOT
HETATM    1  C8  UNL     1      -0.656  -0.060   0.029  1.00  0.00     0.076 A 
HETATM    2  C9  UNL     1      -1.396   0.328   1.112  1.00  0.00     0.039 A 
HETATM    3  C10 UNL     1      -2.694  -0.106   1.227  1.00  0.00     0.033 A 
HETATM    4  C11 UNL     1      -3.252  -0.926   0.263  1.00  0.00     0.049 A 
HETATM    5  C16 UNL     1      -2.535  -1.337  -0.842  1.00  0.00     0.033 A 
HETATM    6  C17 UNL     1      -1.235  -0.876  -0.915  1.00  0.00     0.039 A 
ENDROOT
BRANCH   1   7
HETATM    7  O3  UNL     1       0.655   0.320  -0.180  1.00  0.00    -0.308 OA
BRANCH   7   8
HETATM    8  C7  UNL     1       1.752  -0.370   0.267  1.00  0.00     0.110 A 
HETATM    9  C6  UNL     1       3.000   0.150  -0.029  1.00  0.00     0.121 A 
HETATM   10  O2  UNL     1       3.380   1.227  -0.686  1.00  0.00    -0.305 OA
HETATM   11  C21 UNL     1       4.149  -0.515   0.405  1.00  0.00     0.014 A 
HETATM   12  C4  UNL     1       4.705   1.299  -0.705  1.00  0.00     0.105 A 
HETATM   13  C3  UNL     1       5.232   0.220  -0.028  1.00  0.00     0.014 A 
HETATM   14  C5  UNL     1       5.559   2.229  -1.262  1.00  0.00     0.160 A 
HETATM   15  C2  UNL     1       6.604   0.123   0.059  1.00  0.00     0.035 A 
HETATM   16  C1  UNL     1       7.436   1.078  -0.514  1.00  0.00     0.123 A 
HETATM   17  N1  UNL     1       6.897   2.122  -1.169  1.00  0.00    -0.244 N 
HETATM   18  C20 UNL     1       4.090  -1.689   1.128  1.00  0.00     0.015 A 
HETATM   19  C19 UNL     1       2.839  -2.196   1.416  1.00  0.00     0.004 A 
HETATM   20  C18 UNL     1       1.691  -1.542   0.990  1.00  0.00     0.040 A 
BRANCH  17  21
HETATM   21  O1  UNL     1       7.731   3.057  -1.730  1.00  0.00    -0.284 OA
ATOM     22  H1  UNL     1       7.350   3.794  -2.193  1.00  0.00     0.245 HD
ENDBRANCH  17  21
ENDBRANCH   7   8
ENDBRANCH   1   7
BRANCH   4  23
HETATM   23  N2  UNL     1      -4.601  -1.360   0.410  1.00  0.00    -0.192 N 
ATOM     24  H2  UNL     1      -4.807  -2.320   0.688  1.00  0.00     0.184 HD
BRANCH  23  25
HETATM   25  C12 UNL     1      -5.560  -0.525   0.188  1.00  0.00     0.682 A 
HETATM   26  N3  UNL     1      -5.298   0.745  -0.179  1.00  0.00    -0.200 N 
HETATM   27  C13 UNL     1      -6.302   1.625  -0.412  1.00  0.00     0.126 A 
ATOM     28  H3  UNL     1      -4.330   1.048  -0.283  1.00  0.00     0.183 HD
HETATM   29  C14 UNL     1      -7.615   1.204  -0.269  1.00  0.00     0.042 A 
HETATM   30 BR1  UNL     1      -9.076   2.377  -0.579  1.00  0.00    -0.048 Br
HETATM   31  C15 UNL     1      -7.862  -0.085   0.102  1.00  0.00     0.126 A 
HETATM   32  N4  UNL     1      -6.840  -0.931   0.326  1.00  0.00    -0.200 N 
ATOM     33  H4  UNL     1      -7.035  -1.893   0.604  1.00  0.00     0.183 HD
ENDBRANCH  23  25
ENDBRANCH   4  23
TORSDOF 5
