REMARK  12 active torsions:
REMARK  status: ('A' for Active; 'I' for Inactive)
REMARK    1  A    between atoms: C2_2  and  N1_4 
REMARK    2  A    between atoms: N1_4  and  C4_6 
REMARK    3  A    between atoms: C8_10  and  O1_11 
REMARK    4  A    between atoms: O1_11  and  C9_12 
REMARK    5  A    between atoms: C12_16  and  O3_17 
REMARK    6  A    between atoms: C13_19  and  O4_20 
REMARK    7  A    between atoms: C14_22  and  N2_23 
REMARK    8  A    between atoms: C15_27  and  O5_28 
REMARK    9  A    between atoms: O5_28  and  C16_29 
REMARK   10  A    between atoms: C19_32  and  C20_33 
REMARK   11  A    between atoms: C20_33  and  N3_34 
REMARK   12  A    between atoms: C21_39  and  O7_40 
ROOT
HETATM    1  C4  UNL     1      -1.667  -2.431   0.394  1.00  0.00     0.108 C 
HETATM    2  C5  UNL     1      -0.341  -2.767  -0.190  1.00  0.00     0.034 C 
HETATM    3  C6  UNL     1       0.148  -1.757  -1.207  1.00  0.00     0.015 C 
HETATM    4  C7  UNL     1      -0.679  -1.842  -2.474  1.00  0.00     0.012 C 
HETATM    5  C8  UNL     1       0.229  -0.359  -0.671  1.00  0.00     0.160 C 
HETATM    6  C15 UNL     1      -0.846  -0.039   0.343  1.00  0.00     0.184 C 
HETATM    7  C21 UNL     1      -2.032  -0.979   0.230  1.00  0.00     0.172 C 
ENDROOT
BRANCH   5   8
HETATM    8  O1  UNL     1       1.510  -0.182  -0.107  1.00  0.00    -0.351 OA
BRANCH   8   9
HETATM    9  C9  UNL     1       2.253   0.754  -0.776  1.00  0.00     0.293 C 
HETATM   10  O2  UNL     1       2.643   1.845  -0.060  1.00  0.00    -0.351 OA
HETATM   11  C10 UNL     1       3.555   1.676   0.931  1.00  0.00     0.152 C 
HETATM   12  C11 UNL     1       2.865   1.500   2.295  1.00  0.00     0.042 C 
HETATM   13  C12 UNL     1       4.619   0.664   0.726  1.00  0.00     0.177 C 
HETATM   14  C13 UNL     1       4.482  -0.242  -0.427  1.00  0.00     0.184 C 
HETATM   15  C14 UNL     1       3.473   0.183  -1.458  1.00  0.00     0.269 C 
BRANCH  13  16
HETATM   16  O3  UNL     1       5.913   1.237   0.672  1.00  0.00    -0.390 OA
ATOM     17  H3  UNL     1       6.595   0.589   0.541  1.00  0.00     0.210 HD
ENDBRANCH  13  16
BRANCH  14  18
HETATM   18  O4  UNL     1       5.699  -0.423  -1.104  1.00  0.00    -0.391 OA
ATOM     19  H4  UNL     1       5.611  -1.007  -1.848  1.00  0.00     0.210 HD
ENDBRANCH  14  18
BRANCH  15  20
HETATM   20  N2  UNL     1       4.068   1.262  -2.233  1.00  0.00    -0.068 N 
ATOM     21  H23 UNL     1       3.413   1.699  -2.882  1.00  0.00     0.275 HD
ATOM     22  H22 UNL     1       4.271   2.092  -1.676  1.00  0.00     0.275 HD
ATOM     23  H21 UNL     1       4.892   0.876  -2.694  1.00  0.00     0.275 HD
ENDBRANCH  15  20
ENDBRANCH   8   9
ENDBRANCH   5   8
BRANCH   6  24
HETATM   24  O5  UNL     1      -1.377   1.223   0.134  1.00  0.00    -0.351 OA
BRANCH  24  25
HETATM   25  C16 UNL     1      -1.242   2.110   1.142  1.00  0.00     0.261 C 
HETATM   26  C17 UNL     1      -2.480   2.760   1.644  1.00  0.00     0.063 C 
HETATM   27  C18 UNL     1      -2.595   3.995   0.795  1.00  0.00     0.038 C 
HETATM   28  C19 UNL     1      -1.199   4.185   0.304  1.00  0.00     0.150 C 
HETATM   29  O6  UNL     1      -0.406   3.147   0.673  1.00  0.00    -0.354 OA
BRANCH  28  30
HETATM   30  C20 UNL     1      -1.282   4.318  -1.224  1.00  0.00     0.261 C 
BRANCH  30  31
HETATM   31  N3  UNL     1      -2.134   5.432  -1.568  1.00  0.00    -0.077 N 
ATOM     32  H33 UNL     1      -3.056   5.358  -1.138  1.00  0.00     0.274 HD
ATOM     33  H32 UNL     1      -1.833   6.299  -1.122  1.00  0.00     0.274 HD
ATOM     34  H31 UNL     1      -2.189   5.520  -2.583  1.00  0.00     0.274 HD
ENDBRANCH  30  31
ENDBRANCH  28  30
ENDBRANCH  24  25
ENDBRANCH   6  24
BRANCH   7  35
HETATM   35  O7  UNL     1      -2.927  -0.671   1.252  1.00  0.00    -0.391 OA
ATOM     36  H7  UNL     1      -3.157   0.245   1.149  1.00  0.00     0.210 HD
ENDBRANCH   7  35
BRANCH   1  37
HETATM   37  N1  UNL     1      -2.779  -3.191  -0.139  1.00  0.00    -0.411 N 
ATOM     38  H1  UNL     1      -3.546  -2.752  -0.649  1.00  0.00     0.154 HD
BRANCH  37  39
HETATM   39  C2  UNL     1      -2.726  -4.594   0.099  1.00  0.00     0.068 C 
HETATM   40  C1  UNL     1      -2.771  -4.829   1.614  1.00  0.00     0.031 C 
HETATM   41  C3  UNL     1      -4.036  -5.197  -0.420  1.00  0.00     0.031 C 
ENDBRANCH  37  39
ENDBRANCH   1  37
TORSDOF 12
