REMARK  3 active torsions:
REMARK  status: ('A' for Active; 'I' for Inactive)
REMARK    1  A    between atoms: S1_2  and  N1_5 
REMARK    2  A    between atoms: C32_39  and  O5_40 
REMARK    3  A    between atoms: C36_45  and  O6_46 
ROOT
HETATM    1  N1  UNL     1       5.419  -0.241  -0.788  1.00  0.00    -0.307 N 
HETATM    2  C2  UNL     1       4.927   1.069  -0.551  1.00  0.00     0.161 C 
HETATM    3  C3  UNL     1       5.937   2.100  -1.049  1.00  0.00     0.196 C 
HETATM    4  O3  UNL     1       5.264   3.116  -1.687  1.00  0.00    -0.349 OA
HETATM    5  C4  UNL     1       4.400   4.139  -1.364  1.00  0.00     0.071 A 
HETATM    6  C5  UNL     1       4.787   5.342  -1.994  1.00  0.00     0.037 A 
HETATM    7  C6  UNL     1       4.115   6.531  -1.859  1.00  0.00     0.005 A 
HETATM    8  C7  UNL     1       3.001   6.478  -1.044  1.00  0.00     0.037 A 
HETATM    9  C8  UNL     1       2.586   5.324  -0.410  1.00  0.00     0.078 A 
HETATM   10  C9  UNL     1       3.283   4.138  -0.562  1.00  0.00     0.074 A 
HETATM   11  O4  UNL     1       1.428   5.524   0.359  1.00  0.00    -0.311 OA
HETATM   12  C10 UNL     1       0.149   4.950   0.300  1.00  0.00     0.076 A 
HETATM   13  C11 UNL     1      -0.026   3.624   0.504  1.00  0.00     0.038 A 
HETATM   14  C12 UNL     1      -1.331   3.083   0.428  1.00  0.00     0.015 A 
HETATM   15  C13 UNL     1      -2.470   3.836   0.156  1.00  0.00    -0.026 A 
HETATM   16  C14 UNL     1      -2.235   5.185  -0.040  1.00  0.00     0.015 A 
HETATM   17  C15 UNL     1      -0.937   5.733   0.031  1.00  0.00     0.038 A 
HETATM   18  C16 UNL     1      -3.825   3.109   0.126  1.00  0.00    -0.026 A 
HETATM   19  C17 UNL     1      -4.595   3.036   1.270  1.00  0.00     0.013 A 
HETATM   20  C18 UNL     1      -5.766   2.253   1.437  1.00  0.00     0.010 A 
HETATM   21  C19 UNL     1      -6.209   1.483   0.390  1.00  0.00    -0.040 A 
HETATM   22  C20 UNL     1      -5.483   1.533  -0.782  1.00  0.00     0.010 A 
HETATM   23  C21 UNL     1      -4.320   2.330  -0.897  1.00  0.00     0.013 A 
HETATM   24  C22 UNL     1      -7.304   0.419   0.612  1.00  0.00     0.166 C 
HETATM   25  N2  UNL     1      -6.651  -0.945   0.524  1.00  0.00    -0.361 N 
HETATM   26  C23 UNL     1      -7.220  -1.921  -0.225  1.00  0.00     0.091 A 
HETATM   27  C24 UNL     1      -6.357  -2.968  -0.219  1.00  0.00     0.031 A 
HETATM   28  C25 UNL     1      -5.229  -2.599   0.565  1.00  0.00    -0.006 A 
HETATM   29  C26 UNL     1      -5.479  -1.316   1.012  1.00  0.00     0.103 A 
HETATM   30  C27 UNL     1      -4.027  -3.501   0.690  1.00  0.00     0.009 A 
HETATM   31  C28 UNL     1      -2.699  -3.259   0.454  1.00  0.00     0.027 A 
HETATM   32  C29 UNL     1      -1.751  -4.235   0.577  1.00  0.00    -0.025 A 
HETATM   33  C30 UNL     1      -2.218  -5.522   0.970  1.00  0.00     0.015 A 
HETATM   34  C31 UNL     1      -3.516  -5.839   1.223  1.00  0.00     0.038 A 
HETATM   35  C32 UNL     1      -4.405  -4.806   1.074  1.00  0.00     0.076 A 
HETATM   36  C33 UNL     1      -0.262  -4.225   0.308  1.00  0.00    -0.023 A 
HETATM   37  C34 UNL     1       0.162  -5.388  -0.409  1.00  0.00     0.015 A 
HETATM   38  C35 UNL     1       1.428  -5.665  -0.800  1.00  0.00     0.040 A 
HETATM   39  C36 UNL     1       2.369  -4.715  -0.460  1.00  0.00     0.099 A 
HETATM   40  C37 UNL     1       2.038  -3.558   0.235  1.00  0.00     0.102 A 
HETATM   41  C38 UNL     1       0.732  -3.335   0.607  1.00  0.00     0.052 A 
HETATM   42  O7  UNL     1       3.157  -2.765   0.448  1.00  0.00    -0.347 OA
HETATM   43  C39 UNL     1       3.528  -1.457   0.152  1.00  0.00     0.196 C 
HETATM   44  C40 UNL     1       4.455  -1.269  -0.991  1.00  0.00     0.161 C 
ENDROOT
BRANCH   1  45
HETATM   45  S1  UNL     1       6.842  -0.679   0.009  1.00  0.00     0.224 S 
HETATM   46  C1  UNL     1       6.544  -1.957   1.198  1.00  0.00     0.186 C 
HETATM   47  O1  UNL     1       7.814  -1.250  -1.015  1.00  0.00    -0.206 OA
HETATM   48  O2  UNL     1       7.559   0.489   0.631  1.00  0.00    -0.206 OA
ENDBRANCH   1  45
BRANCH  39  49
HETATM   49  O6  UNL     1       3.690  -5.035  -0.877  1.00  0.00    -0.358 OA
ATOM     50  H6  UNL     1       4.338  -4.381  -0.643  1.00  0.00     0.217 HD
ENDBRANCH  39  49
BRANCH  35  51
HETATM   51  O5  UNL     1      -5.750  -5.138   1.333  1.00  0.00    -0.360 OA
ATOM     52  H5  UNL     1      -6.004  -6.016   1.591  1.00  0.00     0.217 HD
ENDBRANCH  35  51
TORSDOF 3
