REMARK  8 active torsions:
REMARK  status: ('A' for Active; 'I' for Inactive)
REMARK    1  A    between atoms: N1_2  and  C2_5 
REMARK    2  A    between atoms: C2_5  and  C3_6 
REMARK    3  A    between atoms: C3_6  and  C4_7 
REMARK    4  A    between atoms: C3_6  and  N4_18 
REMARK    5  A    between atoms: C4_7  and  N2_8 
REMARK    6  A    between atoms: N2_8  and  C5_10 
REMARK    7  A    between atoms: N4_18  and  C10_20 
REMARK    8  A    between atoms: C10_20  and  C11_21 
ROOT
HETATM    1  C3  UNL     1       0.093  -0.088   0.786  1.00  0.00     0.124 C 
ENDROOT
BRANCH   1   2
HETATM    2  C2  UNL     1      -0.152  -1.489   1.236  1.00  0.00     0.258 C 
BRANCH   2   3
HETATM    3  N1  UNL     1      -0.313  -2.459   0.200  1.00  0.00    -0.077 N 
HETATM    4  C1  UNL     1      -0.550  -3.785   0.686  1.00  0.00     0.267 C 
ATOM      5  H12 UNL     1       0.486  -2.445  -0.434  1.00  0.00     0.276 HD
ATOM      6  H11 UNL     1      -1.049  -2.176  -0.447  1.00  0.00     0.276 HD
ENDBRANCH   2   3
ENDBRANCH   1   2
BRANCH   1   7
HETATM    7  C4  UNL     1      -1.031   0.431  -0.069  1.00  0.00     0.146 C 
BRANCH   7   8
HETATM    8  N2  UNL     1      -2.261   0.407   0.694  1.00  0.00    -0.388 N 
ATOM      9  H2  UNL     1      -2.246   0.076   1.659  1.00  0.00     0.159 HD
BRANCH   8  10
HETATM   10  C5  UNL     1      -3.501   0.840   0.117  1.00  0.00     0.034 A 
HETATM   11  C6  UNL     1      -4.661   0.837   0.852  1.00  0.00     0.046 A 
HETATM   12  C7  UNL     1      -5.874   1.245   0.329  1.00  0.00     0.093 A 
HETATM   13  N3  UNL     1      -5.920   1.661  -0.955  1.00  0.00    -0.334 N 
HETATM   14  C8  UNL     1      -4.790   1.669  -1.689  1.00  0.00     0.247 A 
ATOM     15  H3  UNL     1      -6.802   1.966  -1.366  1.00  0.00     0.168 HD
HETATM   16  O1  UNL     1      -4.805   2.054  -2.893  1.00  0.00    -0.268 OA
HETATM   17  C9  UNL     1      -3.562   1.266  -1.188  1.00  0.00     0.103 A 
ENDBRANCH   8  10
ENDBRANCH   7   8
ENDBRANCH   1   7
BRANCH   1  18
HETATM   18  N4  UNL     1       1.396   0.101   0.301  1.00  0.00    -0.389 N 
ATOM     19  H4  UNL     1       2.023   0.749   0.778  1.00  0.00     0.159 HD
BRANCH  18  20
HETATM   20  C10 UNL     1       1.847  -0.594  -0.836  1.00  0.00     0.114 C 
BRANCH  20  21
HETATM   21  C11 UNL     1       3.255  -0.142  -1.136  1.00  0.00     0.064 A 
HETATM   22  C12 UNL     1       3.956   0.829  -0.466  1.00  0.00     0.122 A 
HETATM   23  N5  UNL     1       5.184   0.950  -1.028  1.00  0.00    -0.355 N 
HETATM   24  C13 UNL     1       6.217   1.886  -0.584  1.00  0.00     0.156 C 
HETATM   25  C14 UNL     1       5.227   0.063  -2.026  1.00  0.00     0.182 A 
HETATM   26  N6  UNL     1       4.063  -0.604  -2.101  1.00  0.00    -0.350 N 
ATOM     27  H6  UNL     1       3.834  -1.335  -2.775  1.00  0.00     0.166 HD
ENDBRANCH  20  21
ENDBRANCH  18  20
ENDBRANCH   1  18
TORSDOF 8
