REMARK  8 active torsions:
REMARK  status: ('A' for Active; 'I' for Inactive)
REMARK    1  A    between atoms: C1_2  and  C2_4 
REMARK    2  A    between atoms: C2_4  and  N2_5 
REMARK    3  A    between atoms: N2_5  and  C3_7 
REMARK    4  A    between atoms: C3_7  and  C4_8 
REMARK    5  A    between atoms: C4_8  and  C5_9 
REMARK    6  A    between atoms: C8_12  and  N3_13 
REMARK    7  A    between atoms: N3_13  and  C9_15 
REMARK    8  A    between atoms: C9_15  and  C10_16 
ROOT
HETATM    1  C5  UNL     1      -0.185   0.715   0.399  1.00  0.00    -0.057 A 
HETATM    2  C6  UNL     1       0.629   0.078  -0.511  1.00  0.00     0.009 A 
HETATM    3  C7  UNL     1       1.875  -0.415  -0.201  1.00  0.00     0.029 A 
HETATM    4  C8  UNL     1       2.350  -0.273   1.079  1.00  0.00     0.028 A 
HETATM    5  C11 UNL     1       1.556   0.361   2.016  1.00  0.00     0.029 A 
HETATM    6  C12 UNL     1       0.309   0.853   1.703  1.00  0.00     0.009 A 
ENDROOT
BRANCH   4   7
HETATM    7  N3  UNL     1       3.625  -0.743   1.451  1.00  0.00    -0.383 N 
ATOM      8  H3  UNL     1       3.858  -0.710   2.443  1.00  0.00     0.160 HD
BRANCH   7   9
HETATM    9  C9  UNL     1       4.622  -1.262   0.568  1.00  0.00     0.198 C 
BRANCH   9  10
HETATM   10  C10 UNL     1       5.096  -0.259  -0.420  1.00  0.00     0.124 A 
HETATM   11  N4  UNL     1       6.039  -0.575  -1.348  1.00  0.00    -0.272 N 
HETATM   12  N5  UNL     1       6.278   0.493  -2.090  1.00  0.00    -0.007 NA
ATOM     13  H4  UNL     1       6.487  -1.485  -1.454  1.00  0.00     0.185 HD
HETATM   14  N6  UNL     1       5.500   1.466  -1.641  1.00  0.00    -0.007 NA
HETATM   15  N7  UNL     1       4.784   1.012  -0.629  1.00  0.00    -0.272 N 
ATOM     16  H7  UNL     1       4.102   1.551  -0.095  1.00  0.00     0.185 HD
ENDBRANCH   9  10
ENDBRANCH   7   9
ENDBRANCH   4   7
BRANCH   1  17
HETATM   17  C4  UNL     1      -1.515   1.241   0.036  1.00  0.00     0.057 C 
BRANCH  17  18
HETATM   18  C3  UNL     1      -2.638   0.255   0.216  1.00  0.00     0.118 C 
BRANCH  18  19
HETATM   19  N2  UNL     1      -3.855   0.920  -0.172  1.00  0.00    -0.413 N 
ATOM     20  H2  UNL     1      -3.867   1.886  -0.500  1.00  0.00     0.153 HD
BRANCH  19  21
HETATM   21  C2  UNL     1      -5.043   0.136  -0.066  1.00  0.00     0.213 C 
BRANCH  21  22
HETATM   22  C1  UNL     1      -5.159  -0.976  -1.012  1.00  0.00     0.248 C 
HETATM   23  N1  UNL     1      -6.301  -1.817  -0.987  1.00  0.00    -0.061 NA
HETATM   24  O1  UNL     1      -4.262  -1.209  -1.860  1.00  0.00    -0.275 OA
ENDBRANCH  21  22
ENDBRANCH  19  21
ENDBRANCH  18  19
ENDBRANCH  17  18
ENDBRANCH   1  17
TORSDOF 8
