REMARK  4 active torsions:
REMARK  status: ('A' for Active; 'I' for Inactive)
REMARK    1  A    between atoms: C2_2  and  C3_3 
REMARK    2  A    between atoms: C6_8  and  O1_9 
REMARK    3  A    between atoms: C10_17  and  O5_18 
REMARK    4  A    between atoms: C10_17  and  C11_20 
ROOT
HETATM    1  C3  UNL     1       1.764  -0.243  -0.399  1.00  0.00    -0.004 A 
HETATM    2  C4  UNL     1       1.917  -1.507   0.124  1.00  0.00     0.044 A 
HETATM    3 BR1  UNL     1       3.609  -2.254   0.577  1.00  0.00    -0.049 Br
HETATM    4  C5  UNL     1       0.800  -2.283   0.336  1.00  0.00     0.086 A 
HETATM    5 CL1  UNL     1       0.928  -3.919   1.004  1.00  0.00    -0.080 Cl
HETATM    6  C6  UNL     1      -0.433  -1.752   0.011  1.00  0.00     0.103 A 
HETATM    7  C7  UNL     1      -0.624  -0.493  -0.512  1.00  0.00     0.073 A 
HETATM    8  C8  UNL     1       0.509   0.269  -0.718  1.00  0.00     0.103 A 
HETATM    9  O2  UNL     1       0.354   1.540  -1.252  1.00  0.00    -0.254 OA
HETATM   10  C9  UNL     1      -0.871   2.088  -1.595  1.00  0.00     0.414 A 
HETATM   11  O3  UNL     1      -0.993   3.228  -2.069  1.00  0.00    -0.229 OA
HETATM   12  O4  UNL     1      -1.984   1.298  -1.383  1.00  0.00    -0.255 OA
HETATM   13  C10 UNL     1      -1.998   0.024  -0.802  1.00  0.00     0.207 A 
ENDROOT
BRANCH  13  14
HETATM   14  O5  UNL     1      -2.642  -0.850  -1.671  1.00  0.00    -0.361 OA
ATOM     15  H5  UNL     1      -3.514  -0.522  -1.855  1.00  0.00     0.213 HD
ENDBRANCH  13  14
BRANCH  13  16
HETATM   16  C11 UNL     1      -2.824   0.132   0.478  1.00  0.00     0.070 C 
HETATM   17  C12 UNL     1      -2.165   1.071   1.460  1.00  0.00     0.011 C 
ENDBRANCH  13  16
BRANCH   6  18
HETATM   18  O1  UNL     1      -1.527  -2.573   0.241  1.00  0.00    -0.358 OA
ATOM     19  H1  UNL     1      -2.375  -2.208   0.017  1.00  0.00     0.217 HD
ENDBRANCH   6  18
BRANCH   1  20
HETATM   20  C2  UNL     1       2.950   0.610  -0.632  1.00  0.00     0.038 C 
HETATM   21  C1  UNL     1       3.493   1.204   0.643  1.00  0.00     0.010 C 
ENDBRANCH   1  20
TORSDOF 4
