REMARK  14 active torsions:
REMARK  status: ('A' for Active; 'I' for Inactive)
REMARK    1  A    between atoms: C2_2  and  N1_4 
REMARK    2  A    between atoms: C8_9  and  N2_10 
REMARK    3  A    between atoms: C13_17  and  O1_18 
REMARK    4  A    between atoms: O1_18  and  C14_19 
REMARK    5  A    between atoms: C14_19  and  C15_20 
REMARK    6  A    between atoms: C15_20  and  O2_21 
REMARK    7  A    between atoms: C18_29  and  N6_30 
REMARK    8  A    between atoms: N6_30  and  C19_31 
REMARK    9  A    between atoms: N6_30  and  C21_35 
REMARK   10  A    between atoms: C19_31  and  C20_32 
REMARK   11  A    between atoms: C20_32  and  O3_33 
REMARK   12  A    between atoms: C21_35  and  C22_36 
REMARK   13  A    between atoms: C22_36  and  O4_37 
REMARK   14  A    between atoms: C23_41  and  N8_42 
ROOT
HETATM    1  N1  UNL     1       0.060   0.452  -1.939  1.00  0.00    -0.314 N 
HETATM    2  C4  UNL     1       0.667  -0.359  -1.099  1.00  0.00     0.121 A 
HETATM    3  C5  UNL     1       2.059  -0.748  -1.144  1.00  0.00     0.011 A 
HETATM    4  C6  UNL     1       2.762  -1.368  -2.118  1.00  0.00     0.017 A 
HETATM    5  C7  UNL     1       4.125  -1.546  -2.064  1.00  0.00     0.033 A 
HETATM    6  C8  UNL     1       4.849  -1.077  -0.968  1.00  0.00     0.064 A 
HETATM    7  C13 UNL     1       4.155  -0.448   0.025  1.00  0.00     0.096 A 
HETATM    8  C16 UNL     1       2.812  -0.288  -0.048  1.00  0.00     0.054 A 
HETATM    9  N4  UNL     1       0.005  -0.799   0.017  1.00  0.00    -0.326 N 
ATOM     10  H4  UNL     1       0.483  -1.426   0.664  1.00  0.00     0.169 HD
HETATM   11  C17 UNL     1      -1.253  -0.427   0.280  1.00  0.00     0.140 A 
HETATM   12  N5  UNL     1      -1.866  -0.904   1.404  1.00  0.00    -0.175 N 
ATOM     13  H5  UNL     1      -1.369  -1.532   2.036  1.00  0.00     0.186 HD
HETATM   14  C18 UNL     1      -3.135  -0.535   1.668  1.00  0.00     0.683 A 
HETATM   15  N7  UNL     1      -3.752   0.276   0.838  1.00  0.00    -0.176 N 
ATOM     16  H7  UNL     1      -4.712   0.546   1.052  1.00  0.00     0.186 HD
HETATM   17  C23 UNL     1      -3.167   0.787  -0.318  1.00  0.00     0.137 A 
HETATM   18  C29 UNL     1      -1.879   0.422  -0.604  1.00  0.00     0.097 A 
HETATM   19  C30 UNL     1      -1.248   0.908  -1.761  1.00  0.00     0.121 A 
HETATM   20  N10 UNL     1      -1.707   1.730  -2.486  1.00  0.00    -0.384 N 
ATOM     21 1H10 UNL     1      -2.662   2.063  -2.356  1.00  0.00     0.157 HD
ATOM     22 2H10 UNL     1      -1.249   2.083  -3.326  1.00  0.00     0.157 HD
ENDROOT
BRANCH   1  23
HETATM   23  C2  UNL     1       0.734   0.947  -3.119  1.00  0.00     0.085 C 
HETATM   24  C1  UNL     1       0.706   2.461  -3.231  1.00  0.00     0.032 C 
HETATM   25  C3  UNL     1       0.176   0.262  -4.337  1.00  0.00     0.032 C 
ENDBRANCH   1  23
BRANCH   7  26
HETATM   26  O1  UNL     1       4.898   0.036   1.135  1.00  0.00    -0.347 OA
BRANCH  26  27
HETATM   27  C14 UNL     1       4.110   0.690   2.127  1.00  0.00     0.201 C 
BRANCH  27  28
HETATM   28  C15 UNL     1       4.942   1.252   3.251  1.00  0.00     0.190 C 
BRANCH  28  29
HETATM   29  O2  UNL     1       5.673   0.285   3.923  1.00  0.00    -0.399 OA
ATOM     30  H2  UNL     1       6.197   0.639   4.631  1.00  0.00     0.209 HD
ENDBRANCH  28  29
ENDBRANCH  27  28
ENDBRANCH  26  27
ENDBRANCH   7  26
BRANCH  17  31
HETATM   31  N8  UNL     1      -3.978   1.606  -1.125  1.00  0.00    -0.360 N 
HETATM   32  C24 UNL     1      -4.704   1.028  -2.238  1.00  0.00     0.144 C 
HETATM   33  C25 UNL     1      -6.200   1.197  -1.976  1.00  0.00     0.141 C 
HETATM   34  N9  UNL     1      -6.527   2.308  -1.166  1.00  0.00    -0.394 N 
HETATM   35  C26 UNL     1      -7.348   2.046  -0.047  1.00  0.00     0.148 C 
HETATM   36  C27 UNL     1      -5.637   3.393  -1.085  1.00  0.00     0.077 C 
HETATM   37  C28 UNL     1      -4.188   3.001  -0.841  1.00  0.00     0.168 C 
ENDBRANCH  17  31
BRANCH   6  38
HETATM   38  N2  UNL     1       6.273  -1.225  -0.911  1.00  0.00    -0.376 N 
HETATM   39  C9  UNL     1       6.981  -1.661   0.266  1.00  0.00     0.142 C 
HETATM   40  C10 UNL     1       8.050  -2.643  -0.135  1.00  0.00     0.133 C 
HETATM   41  N3  UNL     1       8.903  -2.173  -1.188  1.00  0.00    -0.418 N 
HETATM   42  C11 UNL     1       8.481  -0.956  -1.827  1.00  0.00     0.133 C 
ATOM     43  H3  UNL     1       9.751  -2.668  -1.465  1.00  0.00     0.153 HD
HETATM   44  C12 UNL     1       7.000  -0.925  -2.095  1.00  0.00     0.142 C 
ENDBRANCH   6  38
BRANCH  14  45
HETATM   45  N6  UNL     1      -3.785  -1.102   2.850  1.00  0.00    -0.213 N 
BRANCH  45  46
HETATM   46  C19 UNL     1      -4.172  -0.330   3.983  1.00  0.00     0.167 C 
BRANCH  46  47
HETATM   47  C20 UNL     1      -5.671  -0.242   4.104  1.00  0.00     0.184 C 
BRANCH  47  48
HETATM   48  O3  UNL     1      -6.295  -1.478   4.248  1.00  0.00    -0.399 OA
ATOM     49  H3  UNL     1      -7.240  -1.423   4.324  1.00  0.00     0.209 HD
ENDBRANCH  47  48
ENDBRANCH  46  47
ENDBRANCH  45  46
BRANCH  45  50
HETATM   50  C21 UNL     1      -3.994  -2.552   2.784  1.00  0.00     0.167 C 
BRANCH  50  51
HETATM   51  C22 UNL     1      -3.070  -3.172   3.823  1.00  0.00     0.184 C 
BRANCH  51  52
HETATM   52  O4  UNL     1      -3.244  -4.562   3.775  1.00  0.00    -0.399 OA
ATOM     53  H4  UNL     1      -2.667  -4.949   4.423  1.00  0.00     0.209 HD
ENDBRANCH  51  52
ENDBRANCH  50  51
ENDBRANCH  45  50
ENDBRANCH  14  45
TORSDOF 14
