REMARK  16 active torsions:
REMARK  status: ('A' for Active; 'I' for Inactive)
REMARK    1  A    between atoms: O1_2  and  C2_3 
REMARK    2  A    between atoms: C2_3  and  O2_4 
REMARK    3  A    between atoms: O2_4  and  C3_5 
REMARK    4  A    between atoms: C3_5  and  C4_6 
REMARK    5  A    between atoms: C3_5  and  C22_36 
REMARK    6  A    between atoms: C5_7  and  C6_8 
REMARK    7  A    between atoms: C7_9  and  O3_10 
REMARK    8  A    between atoms: C9_13  and  O4_14 
REMARK    9  A    between atoms: C10_16  and  C11_17 
REMARK   10  A    between atoms: C11_17  and  C12_18 
REMARK   11  A    between atoms: C12_18  and  C13_20 
REMARK   12  A    between atoms: C13_20  and  O6_21 
REMARK   13  A    between atoms: O6_21  and  C14_22 
REMARK   14  A    between atoms: C15_23  and  O7_24 
REMARK   15  A    between atoms: C17_27  and  C18_28 
REMARK   16  A    between atoms: C22_36  and  O10_39 
ROOT
HETATM    1  C6  UNL     1      -1.039  -0.832   0.349  1.00  0.00     0.043 C 
HETATM    2  C7  UNL     1      -0.383  -1.182   1.662  1.00  0.00     0.128 C 
HETATM    3  C8  UNL     1       0.222  -2.541   1.503  1.00  0.00     0.064 C 
HETATM    4  C9  UNL     1      -0.287  -3.083   0.202  1.00  0.00     0.125 C 
HETATM    5  C10 UNL     1      -0.904  -1.991  -0.582  1.00  0.00     0.031 C 
ENDROOT
BRANCH   5   6
HETATM    6  C11 UNL     1      -0.190  -1.647  -1.861  1.00  0.00     0.088 C 
BRANCH   6   7
HETATM    7  C12 UNL     1       1.181  -1.168  -1.720  1.00  0.00     0.150 C 
HETATM    8  O5  UNL     1       1.993  -1.837  -1.117  1.00  0.00    -0.296 OA
BRANCH   7   9
HETATM    9  C13 UNL     1       1.643   0.123  -2.284  1.00  0.00     0.248 C 
BRANCH   9  10
HETATM   10  O6  UNL     1       2.963   0.412  -2.090  1.00  0.00    -0.360 OA
BRANCH  10  11
HETATM   11  C14 UNL     1       3.388   0.483  -0.774  1.00  0.00     0.239 C 
HETATM   12  C15 UNL     1       3.844   1.915  -0.456  1.00  0.00     0.164 C 
HETATM   13  C16 UNL     1       4.173   1.938   1.029  1.00  0.00     0.068 C 
HETATM   14  C17 UNL     1       4.589   0.573   1.514  1.00  0.00     0.178 C 
HETATM   15  N1  UNL     1       5.277  -0.190   0.511  1.00  0.00    -0.232 NA
HETATM   16  C19 UNL     1       6.588   0.251   0.189  1.00  0.00     0.110 A 
HETATM   17  N2  UNL     1       4.547  -0.376  -0.649  1.00  0.00    -0.218 NA
HETATM   18  C20 UNL     1       6.727   0.281  -1.297  1.00  0.00     0.032 A 
HETATM   19  C21 UNL     1       5.389  -0.172  -1.787  1.00  0.00     0.112 A 
BRANCH  12  20
HETATM   20  O7  UNL     1       2.788   2.795  -0.660  1.00  0.00    -0.392 OA
ATOM     21  H7  UNL     1       3.070   3.681  -0.463  1.00  0.00     0.210 HD
ENDBRANCH  12  20
BRANCH  14  22
HETATM   22  C18 UNL     1       5.395   0.721   2.732  1.00  0.00     0.193 C 
HETATM   23  O8  UNL     1       5.024   1.389   3.737  1.00  0.00    -0.647 OA
HETATM   24  O9  UNL     1       6.642   0.108   2.828  1.00  0.00    -0.647 OA
ENDBRANCH  14  22
ENDBRANCH  10  11
ENDBRANCH   9  10
ENDBRANCH   7   9
ENDBRANCH   6   7
ENDBRANCH   5   6
BRANCH   1  25
HETATM   25  C5  UNL     1      -2.473  -0.572   0.651  1.00  0.00    -0.020 C 
HETATM   26  C4  UNL     1      -3.075   0.574   0.370  1.00  0.00     0.004 C 
BRANCH  26  27
HETATM   27  C3  UNL     1      -4.535   0.781   0.701  1.00  0.00     0.180 C 
BRANCH  27  28
HETATM   28  O2  UNL     1      -5.226  -0.429   0.536  1.00  0.00    -0.355 OA
BRANCH  28  29
HETATM   29  C2  UNL     1      -5.812  -0.761   1.735  1.00  0.00     0.338 C 
BRANCH  29  30
HETATM   30  O1  UNL     1      -6.524  -1.930   1.722  1.00  0.00    -0.372 OA
HETATM   31  C1  UNL     1      -7.567  -1.958   0.833  1.00  0.00     0.204 C 
ENDBRANCH  29  30
ENDBRANCH  28  29
ENDBRANCH  27  28
BRANCH  27  32
HETATM   32  C22 UNL     1      -5.073   1.850  -0.212  1.00  0.00     0.080 C 
HETATM   33  C23 UNL     1      -4.346   3.141   0.080  1.00  0.00     0.048 C 
HETATM   34  C24 UNL     1      -4.898   1.515  -1.677  1.00  0.00     0.048 C 
BRANCH  32  35
HETATM   35  O10 UNL     1      -6.430   2.089   0.045  1.00  0.00    -0.388 OA
ATOM     36  H10 UNL     1      -6.770   2.764  -0.531  1.00  0.00     0.210 HD
ENDBRANCH  32  35
ENDBRANCH  27  32
ENDBRANCH  26  27
ENDBRANCH   1  25
BRANCH   4  37
HETATM   37  O4  UNL     1      -1.290  -4.028   0.533  1.00  0.00    -0.395 OA
ATOM     38  H4  UNL     1      -1.613  -4.372  -0.292  1.00  0.00     0.210 HD
ENDBRANCH   4  37
BRANCH   2  39
HETATM   39  O3  UNL     1       0.547  -0.195   1.981  1.00  0.00    -0.395 OA
ATOM     40  H3  UNL     1       0.960  -0.415   2.808  1.00  0.00     0.210 HD
ENDBRANCH   2  39
TORSDOF 16
