REMARK  17 active torsions:
REMARK  status: ('A' for Active; 'I' for Inactive)
REMARK    1  A    between atoms: C2_2  and  C3_3 
REMARK    2  A    between atoms: C3_3  and  O1_4 
REMARK    3  A    between atoms: C3_3  and  C23_37 
REMARK    4  A    between atoms: O1_4  and  C4_5 
REMARK    5  A    between atoms: C5_6  and  O2_7 
REMARK    6  A    between atoms: O2_7  and  C6_8 
REMARK    7  A    between atoms: C6_8  and  C7_9 
REMARK    8  A    between atoms: C13_16  and  C14_17 
REMARK    9  A    between atoms: C14_17  and  O4_18 
REMARK   10  A    between atoms: C16_20  and  O5_21 
REMARK   11  A    between atoms: C17_23  and  O6_24 
REMARK   12  A    between atoms: O6_24  and  C18_25 
REMARK   13  A    between atoms: C19_27  and  C20_28 
REMARK   14  A    between atoms: C20_28  and  O8_29 
REMARK   15  A    between atoms: C21_31  and  O9_32 
REMARK   16  A    between atoms: C22_34  and  O10_35 
REMARK   17  A    between atoms: C23_37  and  N1_39 
ROOT
HETATM    1  C4  UNL     1      -0.639   0.256   0.348  1.00  0.00     0.209 C 
HETATM    2  C5  UNL     1      -1.441  -0.853  -0.365  1.00  0.00     0.292 C 
HETATM    3  O3  UNL     1      -2.057  -1.554   0.643  1.00  0.00    -0.348 OA
HETATM    4  C13 UNL     1      -1.162  -2.232   1.411  1.00  0.00     0.179 C 
HETATM    5  C16 UNL     1       0.258  -1.884   1.299  1.00  0.00     0.181 C 
HETATM    6  C17 UNL     1       0.568  -0.474   0.879  1.00  0.00     0.190 C 
ENDROOT
BRANCH   6   7
HETATM    7  O6  UNL     1       1.488  -0.536  -0.163  1.00  0.00    -0.348 OA
BRANCH   7   8
HETATM    8  C18 UNL     1       2.730  -0.010   0.102  1.00  0.00     0.292 C 
HETATM    9  O7  UNL     1       3.120   0.991  -0.742  1.00  0.00    -0.348 OA
HETATM   10  C19 UNL     1       4.514   1.035  -0.582  1.00  0.00     0.179 C 
HETATM   11  C21 UNL     1       4.897  -0.423  -0.784  1.00  0.00     0.182 C 
HETATM   12  C22 UNL     1       3.727  -1.116  -0.098  1.00  0.00     0.204 C 
BRANCH  10  13
HETATM   13  C20 UNL     1       5.171   1.873  -1.647  1.00  0.00     0.198 C 
BRANCH  13  14
HETATM   14  O8  UNL     1       4.622   3.176  -1.541  1.00  0.00    -0.398 OA
ATOM     15  H8  UNL     1       5.036   3.705  -2.213  1.00  0.00     0.209 HD
ENDBRANCH  13  14
ENDBRANCH  10  13
BRANCH  11  16
HETATM   16  O9  UNL     1       4.836  -0.727  -2.143  1.00  0.00    -0.390 OA
ATOM     17  H9  UNL     1       5.075  -1.638  -2.269  1.00  0.00     0.210 HD
ENDBRANCH  11  16
BRANCH  12  18
HETATM   18  O10 UNL     1       4.196  -1.657   1.099  1.00  0.00    -0.388 OA
ATOM     19  H10 UNL     1       4.826  -2.356   0.973  1.00  0.00     0.210 HD
ENDBRANCH  12  18
ENDBRANCH   7   8
ENDBRANCH   6   7
BRANCH   1  20
HETATM   20  O1  UNL     1      -0.345   1.184  -0.593  1.00  0.00    -0.367 OA
BRANCH  20  21
HETATM   21  C3  UNL     1      -0.891   2.403  -0.561  1.00  0.00     0.166 C 
BRANCH  21  22
HETATM   22  C2  UNL     1      -1.621   2.752  -1.781  1.00  0.00    -0.003 C 
HETATM   23  C1  UNL     1      -2.948   2.688  -1.883  1.00  0.00     0.009 C 
ENDBRANCH  21  22
BRANCH  21  24
HETATM   24  C23 UNL     1      -0.025   3.567  -0.128  1.00  0.00     0.104 C 
HETATM   25  C24 UNL     1      -0.905   4.787  -0.177  1.00  0.00     0.035 C 
BRANCH  24  26
HETATM   26  N1  UNL     1       0.433   3.386   1.227  1.00  0.00    -0.419 N 
HETATM   27  C25 UNL     1       0.478   4.567   2.022  1.00  0.00     0.140 C 
ATOM     28  H1  UNL     1       0.706   2.474   1.592  1.00  0.00     0.153 HD
ENDBRANCH  24  26
ENDBRANCH  21  24
ENDBRANCH  20  21
ENDBRANCH   1  20
BRANCH   5  29
HETATM   29  O5  UNL     1       0.919  -2.121   2.504  1.00  0.00    -0.390 OA
ATOM     30  H5  UNL     1       1.839  -1.896   2.431  1.00  0.00     0.210 HD
ENDBRANCH   5  29
BRANCH   2  31
HETATM   31  O2  UNL     1      -0.603  -1.618  -1.154  1.00  0.00    -0.354 OA
BRANCH  31  32
HETATM   32  C6  UNL     1      -1.135  -1.685  -2.472  1.00  0.00     0.209 C 
BRANCH  32  33
HETATM   33  C7  UNL     1      -2.455  -2.368  -2.376  1.00  0.00    -0.035 A 
HETATM   34  C8  UNL     1      -2.454  -3.695  -1.965  1.00  0.00     0.009 A 
HETATM   35  C9  UNL     1      -3.631  -4.374  -1.845  1.00  0.00     0.001 A 
HETATM   36  C10 UNL     1      -4.852  -3.760  -2.128  1.00  0.00     0.000 A 
HETATM   37  C11 UNL     1      -4.856  -2.436  -2.537  1.00  0.00     0.001 A 
HETATM   38  C12 UNL     1      -3.673  -1.763  -2.656  1.00  0.00     0.009 A 
ENDBRANCH  32  33
ENDBRANCH  31  32
ENDBRANCH   2  31
BRANCH   4  39
HETATM   39  C14 UNL     1      -1.698  -2.143   2.848  1.00  0.00     0.201 C 
BRANCH  39  40
HETATM   40  O4  UNL     1      -0.887  -2.819   3.715  1.00  0.00    -0.393 OA
HETATM   41  C15 UNL     1      -1.292  -2.784   5.023  1.00  0.00     0.201 C 
ENDBRANCH  39  40
ENDBRANCH   4  39
TORSDOF 17
