REMARK  16 active torsions:
REMARK  status: ('A' for Active; 'I' for Inactive)
REMARK    1  A    between atoms: C2_2  and  O2_4 
REMARK    2  A    between atoms: O2_4  and  C3_5 
REMARK    3  A    between atoms: C3_5  and  C4_6 
REMARK    4  A    between atoms: C3_5  and  C12_25 
REMARK    5  A    between atoms: C4_6  and  O3_8 
REMARK    6  A    between atoms: O3_8  and  C6_9 
REMARK    7  A    between atoms: C6_9  and  N1_10 
REMARK    8  A    between atoms: N1_10  and  C7_11 
REMARK    9  A    between atoms: N1_10  and  C9_15 
REMARK   10  A    between atoms: C7_11  and  C8_12 
REMARK   11  A    between atoms: C9_15  and  O6_16 
REMARK   12  A    between atoms: C10_18  and  N2_20 
REMARK   13  A    between atoms: C12_25  and  O7_27 
REMARK   14  A    between atoms: C12_25  and  C14_29 
REMARK   15  A    between atoms: C14_29  and  C16_31 
REMARK   16  A    between atoms: C21_39  and  O11_41 
ROOT
HETATM    1  C3  UNL     1       0.108  -0.756  -0.228  1.00  0.00     0.194 C 
ENDROOT
BRANCH   1   2
HETATM    2  O2  UNL     1       0.110  -2.117  -0.134  1.00  0.00    -0.311 OA
BRANCH   2   3
HETATM    3  C2  UNL     1       0.683  -3.065  -0.923  1.00  0.00     0.255 C 
HETATM    4  C1  UNL     1       0.579  -4.505  -0.666  1.00  0.00     0.126 C 
HETATM    5  O1  UNL     1       1.299  -2.613  -1.872  1.00  0.00    -0.266 OA
ENDBRANCH   2   3
ENDBRANCH   1   2
BRANCH   1   6
HETATM    6  C4  UNL     1       0.948   0.026   0.726  1.00  0.00     0.152 C 
HETATM    7  C5  UNL     1       0.576  -0.003   2.167  1.00  0.00     0.042 C 
BRANCH   6   8
HETATM    8  O3  UNL     1       2.278  -0.354   0.505  1.00  0.00    -0.364 OA
BRANCH   8   9
HETATM    9  C6  UNL     1       3.064   0.664   0.003  1.00  0.00     0.301 C 
BRANCH   9  10
HETATM   10  N1  UNL     1       4.407   0.157  -0.180  1.00  0.00    -0.308 N 
BRANCH  10  11
HETATM   11  C7  UNL     1       4.581  -0.944  -1.062  1.00  0.00     0.179 C 
BRANCH  11  12
HETATM   12  C8  UNL     1       5.913  -1.471  -1.263  1.00  0.00     0.215 C 
HETATM   13  O4  UNL     1       6.910  -1.000  -0.695  1.00  0.00    -0.643 OA
HETATM   14  O5  UNL     1       6.100  -2.545  -2.120  1.00  0.00    -0.643 OA
ENDBRANCH  11  12
ENDBRANCH  10  11
BRANCH  10  15
HETATM   15  C9  UNL     1       5.464   0.754   0.502  1.00  0.00     0.168 C 
HETATM   16  C10 UNL     1       6.035   1.839   0.026  1.00  0.00     0.072 C 
HETATM   17  C11 UNL     1       7.166   2.532   0.696  1.00  0.00     0.074 C 
BRANCH  15  18
HETATM   18  O6  UNL     1       5.928   0.221   1.684  1.00  0.00    -0.344 OA
ATOM     19  H6  UNL     1       6.649   0.628   2.149  1.00  0.00     0.219 HD
ENDBRANCH  15  18
BRANCH  16  20
HETATM   20  N2  UNL     1       5.576   2.421  -1.202  1.00  0.00    -0.307 N 
HETATM   21  N3  UNL     1       6.356   2.441  -2.188  1.00  0.00    -0.345 N 
ATOM     22  H32 UNL     1       7.293   2.047  -2.100  1.00  0.00     0.176 HD
ATOM     23  H31 UNL     1       6.030   2.855  -3.061  1.00  0.00     0.176 HD
ATOM     24  H2  UNL     1       4.636   2.811  -1.274  1.00  0.00     0.186 HD
ENDBRANCH  16  20
ENDBRANCH  10  15
ENDBRANCH   9  10
ENDBRANCH   8   9
ENDBRANCH   6   8
ENDBRANCH   1   6
BRANCH   1  25
HETATM   25  C12 UNL     1      -1.214  -0.128  -0.600  1.00  0.00     0.089 C 
HETATM   26  C13 UNL     1      -1.634  -0.526  -2.023  1.00  0.00     0.049 C 
BRANCH  25  27
HETATM   27  O7  UNL     1      -1.090   1.263  -0.696  1.00  0.00    -0.387 OA
ATOM     28  H7  UNL     1      -1.922   1.658  -0.930  1.00  0.00     0.210 HD
ENDBRANCH  25  27
BRANCH  25  29
HETATM   29  C14 UNL     1      -2.276  -0.562   0.356  1.00  0.00     0.051 C 
HETATM   30  C15 UNL     1      -2.520  -2.042   0.431  1.00  0.00     0.016 C 
BRANCH  29  31
HETATM   31  C16 UNL     1      -3.618   0.121   0.183  1.00  0.00     0.176 C 
HETATM   32  O8  UNL     1      -4.116  -0.058  -1.066  1.00  0.00    -0.346 OA
HETATM   33  C17 UNL     1      -5.089   0.801  -1.468  1.00  0.00     0.166 C 
HETATM   34  C18 UNL     1      -6.464   0.512  -0.910  1.00  0.00     0.079 C 
HETATM   35  C19 UNL     1      -5.235   0.594  -2.994  1.00  0.00     0.079 C 
HETATM   36  O9  UNL     1      -4.753   2.163  -1.284  1.00  0.00    -0.282 OA
HETATM   37  C20 UNL     1      -3.927   2.493  -0.228  1.00  0.00     0.298 C 
HETATM   38  O10 UNL     1      -3.418   3.635  -0.156  1.00  0.00    -0.262 OA
HETATM   39  C21 UNL     1      -3.666   1.463   0.805  1.00  0.00     0.168 C 
HETATM   40  C22 UNL     1      -4.825   1.583   1.814  1.00  0.00     0.060 C 
BRANCH  39  41
HETATM   41  O11 UNL     1      -2.531   1.780   1.582  1.00  0.00    -0.377 OA
ATOM     42  H11 UNL     1      -2.562   2.641   1.981  1.00  0.00     0.211 HD
ENDBRANCH  39  41
ENDBRANCH  29  31
ENDBRANCH  25  29
ENDBRANCH   1  25
TORSDOF 16
