REMARK  2 active torsions:
REMARK  status: ('A' for Active; 'I' for Inactive)
REMARK    1  A    between atoms: C2_2  and  C3_3 
REMARK    2  A    between atoms: N1_7  and  N2_9 
ROOT
HETATM    1  N2  UNL     1      -0.463  -0.563   0.898  1.00  0.00    -0.289 N 
ATOM      2  H2  UNL     1      -0.202  -0.818   1.850  1.00  0.00     0.188 HD
HETATM    3  C7  UNL     1      -1.644  -0.128   0.640  1.00  0.00     0.097 C 
HETATM    4  N3  UNL     1      -2.649   0.026   1.636  1.00  0.00    -0.365 N 
ATOM      5  H3  UNL     1      -2.666  -0.584   2.453  1.00  0.00     0.162 HD
HETATM    6  C8  UNL     1      -3.649   1.064   1.471  1.00  0.00     0.145 C 
HETATM    7  C9  UNL     1      -4.801   0.456   0.702  1.00  0.00     0.036 C 
HETATM    8  C10 UNL     1      -4.491   0.479  -0.781  1.00  0.00     0.004 C 
HETATM    9  C11 UNL     1      -3.311  -0.374  -1.144  1.00  0.00     0.013 C 
HETATM   10  C12 UNL     1      -1.999   0.235  -0.753  1.00  0.00     0.064 C 
HETATM   11  C13 UNL     1      -2.027   1.749  -0.918  1.00  0.00     0.088 C 
HETATM   12  S1  UNL     1      -2.894   2.425   0.513  1.00  0.00    -0.143 SA
ENDROOT
BRANCH   1  13
HETATM   13  N1  UNL     1       0.455  -0.681  -0.141  1.00  0.00    -0.308 N 
HETATM   14  C6  UNL     1       1.727  -0.726   0.066  1.00  0.00     0.004 C 
HETATM   15  C5  UNL     1       2.377  -0.659   1.409  1.00  0.00     0.054 C 
HETATM   16  C14 UNL     1       2.743  -0.851  -0.999  1.00  0.00     0.062 C 
HETATM   17  C4  UNL     1       3.810  -0.281   1.018  1.00  0.00     0.014 C 
HETATM   18  C3  UNL     1       4.004  -1.123  -0.216  1.00  0.00     0.013 C 
ATOM     19  H1  UNL     1       0.110  -0.734  -1.099  1.00  0.00     0.186 HD
BRANCH  18  20
HETATM   20  C2  UNL     1       5.227  -0.783  -0.960  1.00  0.00    -0.032 C 
HETATM   21  C1  UNL     1       6.084   0.103  -0.527  1.00  0.00     0.007 C 
ENDBRANCH  18  20
ENDBRANCH   1  13
TORSDOF 2
