REMARK  9 active torsions:
REMARK  status: ('A' for Active; 'I' for Inactive)
REMARK    1  A    between atoms: C2_2  and  C3_3 
REMARK    2  A    between atoms: C7_8  and  O2_9 
REMARK    3  A    between atoms: O2_9  and  C8_10 
REMARK    4  A    between atoms: C8_10  and  C9_11 
REMARK    5  A    between atoms: C9_11  and  O3_12 
REMARK    6  A    between atoms: C9_11  and  C10_14 
REMARK    7  A    between atoms: C10_14  and  N1_15 
REMARK    8  A    between atoms: N3_28  and  C20_29 
REMARK    9  A    between atoms: C20_29  and  C21_30 
ROOT
HETATM    1  C3  UNL     1      -3.352  -1.264  -0.563  1.00  0.00     0.015 A 
HETATM    2  C4  UNL     1      -2.073  -1.646  -0.340  1.00  0.00     0.081 A 
HETATM    3  C5  UNL     1      -1.058  -0.729  -0.317  1.00  0.00     0.189 A 
HETATM    4  O1  UNL     1       0.131  -1.090  -0.110  1.00  0.00    -0.287 OA
HETATM    5  C6  UNL     1      -1.360   0.598  -0.530  1.00  0.00     0.077 A 
HETATM    6  C7  UNL     1      -0.357   1.541  -0.546  1.00  0.00     0.104 A 
HETATM    7  C16 UNL     1      -0.643   2.895  -0.800  1.00  0.00     0.071 A 
HETATM    8 BR1  UNL     1       0.799   4.126  -0.801  1.00  0.00    -0.046 Br
HETATM    9  C17 UNL     1      -1.924   3.256  -1.029  1.00  0.00     0.090 A 
HETATM   10  N2  UNL     1      -2.270   4.615  -1.287  1.00  0.00    -0.099 NA
HETATM   11  C18 UNL     1      -2.978   2.314  -1.018  1.00  0.00     0.087 A 
HETATM   12 CL1  UNL     1      -4.552   2.907  -1.455  1.00  0.00    -0.080 Cl
HETATM   13  C19 UNL     1      -2.715   1.005  -0.769  1.00  0.00     0.075 A 
HETATM   14  N3  UNL     1      -3.672   0.043  -0.771  1.00  0.00    -0.348 N 
ENDROOT
BRANCH   6  15
HETATM   15  O2  UNL     1       0.980   1.242  -0.318  1.00  0.00    -0.346 OA
BRANCH  15  16
HETATM   16  C8  UNL     1       1.652   1.317   0.901  1.00  0.00     0.209 C 
BRANCH  16  17
HETATM   17  C9  UNL     1       3.136   1.036   0.823  1.00  0.00     0.170 C 
BRANCH  17  18
HETATM   18  O3  UNL     1       3.651   1.125   2.110  1.00  0.00    -0.392 OA
ATOM     19  H3  UNL     1       4.583   0.948   2.061  1.00  0.00     0.210 HD
ENDBRANCH  17  18
BRANCH  17  20
HETATM   20  C10 UNL     1       3.504  -0.259   0.187  1.00  0.00     0.306 C 
BRANCH  20  21
HETATM   21  N1  UNL     1       4.916  -0.395   0.068  1.00  0.00     0.091 N 
HETATM   22  C11 UNL     1       5.209  -1.640  -0.673  1.00  0.00     0.272 C 
HETATM   23  C12 UNL     1       6.597  -1.397  -1.265  1.00  0.00     0.030 C 
HETATM   24  C13 UNL     1       7.529  -1.094  -0.130  1.00  0.00     0.003 C 
HETATM   25  C14 UNL     1       6.877  -1.283   1.219  1.00  0.00     0.030 C 
HETATM   26  C15 UNL     1       5.618  -0.421   1.322  1.00  0.00     0.272 C 
ENDBRANCH  20  21
ENDBRANCH  17  20
ENDBRANCH  16  17
ENDBRANCH  15  16
ENDBRANCH   6  15
BRANCH  14  27
HETATM   27  C20 UNL     1      -5.057   0.350  -0.876  1.00  0.00     0.134 C 
BRANCH  27  28
HETATM   28  C21 UNL     1      -5.567   0.755   0.493  1.00  0.00     0.004 A 
HETATM   29  C22 UNL     1      -7.000   1.149   0.682  1.00  0.00     0.007 A 
HETATM   30  C23 UNL     1      -6.554  -0.096   1.279  1.00  0.00     0.007 A 
ENDBRANCH  27  28
ENDBRANCH  14  27
BRANCH   1  31
HETATM   31  C2  UNL     1      -4.371  -2.308  -0.693  1.00  0.00     0.053 C 
HETATM   32  C1  UNL     1      -3.689  -3.712  -0.667  1.00  0.00     0.011 C 
ENDBRANCH   1  31
TORSDOF 9
