REMARK  10 active torsions:
REMARK  status: ('A' for Active; 'I' for Inactive)
REMARK       I    between atoms: C1_2  and  N1_3 
REMARK    1  A    between atoms: C1_2  and  C6_17 
REMARK    2  A    between atoms: N1_3  and  N2_5 
REMARK    3  A    between atoms: N2_5  and  C2_7 
REMARK    4  A    between atoms: C7_20  and  C8_21 
REMARK    5  A    between atoms: C8_21  and  O4_22 
REMARK    6  A    between atoms: C8_21  and  O5_24 
REMARK    7  A    between atoms: C10_29  and  C11_30 
REMARK    8  A    between atoms: C11_30  and  O8_31 
REMARK    9  A    between atoms: C13_37  and  O9_38 
REMARK   10  A    between atoms: C14_40  and  O10_41 
ROOT
HETATM    1  C6  UNL     1      -0.560   1.161  -0.117  1.00  0.00     0.121 A 
HETATM    2  N5  UNL     1      -0.489   2.515  -0.387  1.00  0.00    -0.331 N 
ATOM      3  H5  UNL     1       0.385   3.015  -0.224  1.00  0.00     0.168 HD
HETATM    4  C7  UNL     1      -1.535   3.171  -0.853  1.00  0.00     0.183 A 
HETATM    5  O6  UNL     1      -2.634   2.507  -1.050  1.00  0.00    -0.256 OA
HETATM    6  C9  UNL     1      -2.761   1.198  -0.808  1.00  0.00     0.303 A 
HETATM    7  O7  UNL     1      -3.885   0.700  -1.048  1.00  0.00    -0.259 OA
HETATM    8  C10 UNL     1      -1.701   0.443  -0.317  1.00  0.00     0.115 A 
ENDROOT
BRANCH   1   9
HETATM    9  C1  UNL     1       0.675   0.603   0.345  1.00  0.00     0.287 C 
HETATM   10  O1  UNL     1       1.604   0.447  -0.479  1.00  0.00    -0.264 OA
HETATM   11  N1  UNL     1       0.893   0.233   1.671  1.00  0.00    -0.263 N 
ATOM     12  H1  UNL     1       0.118   0.390   2.315  1.00  0.00     0.190 HD
BRANCH  11  13
HETATM   13  N2  UNL     1       2.031  -0.319   2.214  1.00  0.00    -0.282 N 
ATOM     14  H2  UNL     1       1.973  -0.773   3.125  1.00  0.00     0.188 HD
BRANCH  13  15
HETATM   15  C2  UNL     1       3.268  -0.277   1.555  1.00  0.00     0.129 A 
HETATM   16  C3  UNL     1       3.687  -1.351   0.818  1.00  0.00     0.124 A 
HETATM   17  C4  UNL     1       4.898  -1.291   0.182  1.00  0.00     0.252 A 
HETATM   18  O2  UNL     1       5.291  -2.291  -0.506  1.00  0.00    -0.268 OA
HETATM   19  N3  UNL     1       5.657  -0.197   0.283  1.00  0.00    -0.275 N 
HETATM   20  C5  UNL     1       5.236   0.852   1.009  1.00  0.00     0.328 A 
ATOM     21  H3  UNL     1       6.559  -0.158  -0.192  1.00  0.00     0.173 HD
HETATM   22  O3  UNL     1       5.968   1.877   1.092  1.00  0.00    -0.247 OA
HETATM   23  N4  UNL     1       4.047   0.804   1.638  1.00  0.00    -0.293 N 
ATOM     24  H4  UNL     1       3.736   1.606   2.187  1.00  0.00     0.172 HD
ENDBRANCH  13  15
ENDBRANCH  11  13
ENDBRANCH   1   9
BRANCH   8  25
HETATM   25  C11 UNL     1      -1.816  -0.958  -0.074  1.00  0.00     0.289 C 
HETATM   26  N6  UNL     1      -0.965  -1.850  -0.846  1.00  0.00    -0.033 N 
HETATM   27  C12 UNL     1      -1.424  -3.179  -0.427  1.00  0.00     0.270 C 
ATOM     28  H62 UNL     1      -0.981  -1.690  -1.853  1.00  0.00     0.281 HD
ATOM     29  H61 UNL     1       0.036  -1.689  -0.734  1.00  0.00     0.281 HD
HETATM   30  C13 UNL     1      -2.781  -3.036   0.171  1.00  0.00     0.177 C 
HETATM   31  C14 UNL     1      -3.152  -1.623  -0.395  1.00  0.00     0.217 C 
BRANCH  25  32
HETATM   32  O8  UNL     1      -1.580  -1.357   1.268  1.00  0.00    -0.359 OA
ATOM     33  H8  UNL     1      -1.657  -2.290   1.430  1.00  0.00     0.213 HD
ENDBRANCH  25  32
BRANCH  30  34
HETATM   34  O9  UNL     1      -3.701  -3.963  -0.260  1.00  0.00    -0.391 OA
ATOM     35  H9  UNL     1      -4.566  -3.872   0.121  1.00  0.00     0.210 HD
ENDBRANCH  30  34
BRANCH  31  36
HETATM   36  O10 UNL     1      -3.342  -1.870  -1.737  1.00  0.00    -0.388 OA
ATOM     37  H10 UNL     1      -4.173  -2.284  -1.937  1.00  0.00     0.210 HD
ENDBRANCH  31  36
ENDBRANCH   8  25
BRANCH   4  38
HETATM   38  C8  UNL     1      -1.478   4.651  -1.155  1.00  0.00     0.331 C 
BRANCH  38  39
HETATM   39  O4  UNL     1      -0.290   4.878  -1.844  1.00  0.00    -0.364 OA
ATOM     40  H4  UNL     1      -0.254   5.808  -2.034  1.00  0.00     0.213 HD
ENDBRANCH  38  39
BRANCH  38  41
HETATM   41  O5  UNL     1      -2.517   4.930  -2.028  1.00  0.00    -0.364 OA
ATOM     42  H5  UNL     1      -2.481   5.860  -2.218  1.00  0.00     0.213 HD
ENDBRANCH  38  41
ENDBRANCH   4  38
TORSDOF 10
