REMARK  3 active torsions:
REMARK  status: ('A' for Active; 'I' for Inactive)
REMARK    1  A    between atoms: C1_2  and  C2_4 
REMARK    2  A    between atoms: C3_5  and  C4_6 
REMARK    3  A    between atoms: C13_20  and  O2_21 
ROOT
HETATM    1  C4  UNL     1       0.975  -0.902  -0.312  1.00  0.00    -0.009 C 
HETATM    2  C5  UNL     1       0.195  -1.965  -0.415  1.00  0.00    -0.014 C 
HETATM    3  C6  UNL     1      -1.186  -1.594  -0.843  1.00  0.00     0.040 C 
HETATM    4  C7  UNL     1      -1.294  -0.211  -0.221  1.00  0.00     0.001 C 
HETATM    5  C8  UNL     1      -2.245   0.606  -1.018  1.00  0.00     0.032 C 
HETATM    6  C9  UNL     1      -3.646   0.311  -0.528  1.00  0.00     0.114 C 
HETATM    7  N2  UNL     1      -3.773   0.581   0.874  1.00  0.00    -0.421 N 
ATOM      8  H2  UNL     1      -4.460   1.241   1.238  1.00  0.00     0.153 HD
HETATM    9  C10 UNL     1      -2.888  -0.123   1.719  1.00  0.00     0.114 C 
HETATM   10  C11 UNL     1      -1.466  -0.201   1.244  1.00  0.00     0.032 C 
HETATM   11  C12 UNL     1       0.142   0.279  -0.577  1.00  0.00     0.213 C 
HETATM   12  F1  UNL     1       0.401   1.317   0.322  1.00  0.00    -0.243 F 
ENDROOT
BRANCH   1  13
HETATM   13  C3  UNL     1       2.422  -0.980   0.106  1.00  0.00     0.039 A 
HETATM   14  C2  UNL     1       3.374  -0.029  -0.010  1.00  0.00     0.088 A 
HETATM   15  C13 UNL     1       4.592  -0.234   0.597  1.00  0.00     0.130 A 
HETATM   16  S2  UNL     1       4.805  -1.680   1.443  1.00  0.00    -0.026 SA
HETATM   17  S1  UNL     1       2.920  -2.373   1.036  1.00  0.00    -0.049 SA
BRANCH  14  18
HETATM   18  C1  UNL     1       3.287   1.186  -0.900  1.00  0.00     0.269 C 
HETATM   19  N1  UNL     1       3.882   2.379  -0.467  1.00  0.00    -0.057 NA
HETATM   20  O1  UNL     1       2.715   1.191  -2.000  1.00  0.00    -0.271 OA
ENDBRANCH  14  18
BRANCH  15  21
HETATM   21  O2  UNL     1       5.587   0.604   0.565  1.00  0.00    -0.353 OA
ATOM     22  H2  UNL     1       6.428   0.462   0.984  1.00  0.00     0.218 HD
ENDBRANCH  15  21
ENDBRANCH   1  13
TORSDOF 3
