REMARK  1 active torsions:
REMARK  status: ('A' for Active; 'I' for Inactive)
REMARK    1  A    between atoms: C5_6  and  C6_7 
ROOT
HETATM    1  C1  UNL     1      -1.810  -0.228  -1.717  1.00  0.00     0.025 C 
HETATM    2  C2  UNL     1      -1.417   0.446  -0.442  1.00  0.00     0.037 C 
HETATM    3  C3  UNL     1      -1.882   1.868  -0.469  1.00  0.00     0.025 C 
HETATM    4  C4  UNL     1       0.065   0.348  -0.182  1.00  0.00     0.004 A 
HETATM    5  S1  UNL     1       1.570   1.096  -0.440  1.00  0.00    -0.085 SA
HETATM    6  C5  UNL     1       2.583  -0.020   0.383  1.00  0.00     0.104 A 
HETATM    7  C7  UNL     1       1.698  -0.947   0.835  1.00  0.00     0.065 A 
HETATM    8 CL1  UNL     1       2.316  -2.340   1.776  1.00  0.00    -0.082 Cl
HETATM    9  C8  UNL     1       0.386  -0.756   0.541  1.00  0.00    -0.016 A 
HETATM   10  C9  UNL     1      -0.938  -1.455   0.793  1.00  0.00     0.103 C 
HETATM   11  C10 UNL     1      -1.956  -0.334   0.739  1.00  0.00     0.194 C 
HETATM   12  F1  UNL     1      -1.934   0.431   1.887  1.00  0.00    -0.224 F 
HETATM   13 CL2  UNL     1      -3.558  -0.987   0.381  1.00  0.00    -0.081 Cl
ENDROOT
BRANCH   6  14
HETATM   14  C6  UNL     1       4.053   0.039   0.545  1.00  0.00     0.218 C 
HETATM   15  O1  UNL     1       4.606  -0.859   1.173  1.00  0.00    -0.643 OA
HETATM   16  O2  UNL     1       4.724   1.093  -0.014  1.00  0.00    -0.643 OA
ENDBRANCH   6  14
TORSDOF 1
