REMARK  3 active torsions:
REMARK  status: ('A' for Active; 'I' for Inactive)
REMARK    1  A    between atoms: C2_2  and  C4_4 
REMARK    2  A    between atoms: C4_4  and  C5_5 
REMARK    3  A    between atoms: C9_15  and  N4_16 
ROOT
HETATM    1  C4  UNL     1      -1.494   0.302  -0.426  1.00  0.00     0.080 C 
HETATM    2  C8  UNL     1      -0.544   0.847  -1.448  1.00  0.00     0.089 C 
HETATM    3  N3  UNL     1       0.788   0.543  -1.187  1.00  0.00    -0.348 N 
ATOM      4  H3  UNL     1       1.519   1.047  -1.689  1.00  0.00     0.167 HD
HETATM    5  C9  UNL     1       1.119  -0.345  -0.340  1.00  0.00     0.143 C 
HETATM    6  S1  UNL     1      -0.424  -0.982   0.313  1.00  0.00    -0.073 SA
ENDROOT
BRANCH   1   7
HETATM    7  C2  UNL     1      -2.683  -0.393  -1.044  1.00  0.00     0.006 C 
HETATM    8  C1  UNL     1      -2.290  -1.457  -2.029  1.00  0.00     0.012 C 
HETATM    9  C3  UNL     1      -3.448  -1.081   0.059  1.00  0.00     0.012 C 
ENDBRANCH   1   7
BRANCH   1  10
HETATM   10  C5  UNL     1      -1.922   1.322   0.523  1.00  0.00     0.000 A 
HETATM   11  C6  UNL     1      -2.129   2.662   0.303  1.00  0.00     0.117 A 
HETATM   12  N1  UNL     1      -2.504   3.274   1.467  1.00  0.00    -0.312 N 
HETATM   13  N2  UNL     1      -2.530   2.342   2.379  1.00  0.00    -0.312 N 
ATOM     14  H1  UNL     1      -2.720   4.262   1.596  1.00  0.00     0.186 HD
HETATM   15  C7  UNL     1      -2.185   1.138   1.859  1.00  0.00     0.117 A 
ATOM     16  H2  UNL     1      -2.778   2.498   3.356  1.00  0.00     0.186 HD
ENDBRANCH   1  10
BRANCH   5  17
HETATM   17  N4  UNL     1       2.428  -0.747   0.022  1.00  0.00    -0.362 N 
HETATM   18  C10 UNL     1       3.607  -0.800  -0.860  1.00  0.00     0.125 C 
HETATM   19  C11 UNL     1       4.501   0.163  -0.051  1.00  0.00     0.021 C 
HETATM   20  C12 UNL     1       4.289  -0.387   1.350  1.00  0.00     0.021 C 
HETATM   21  C13 UNL     1       2.955  -1.161   1.292  1.00  0.00     0.125 C 
ENDBRANCH   5  17
TORSDOF 3
