REMARK  6 active torsions:
REMARK  status: ('A' for Active; 'I' for Inactive)
REMARK    1  A    between atoms: C3_5  and  C4_6 
REMARK    2  A    between atoms: C8_11  and  O1_12 
REMARK    3  A    between atoms: O1_12  and  C9_13 
REMARK    4  A    between atoms: C9_13  and  C10_14 
REMARK    5  A    between atoms: C10_14  and  N2_15 
REMARK    6  A    between atoms: C20_30  and  C21_31 
ROOT
HETATM    1  C4  UNL     1      -0.056   0.182  -0.645  1.00  0.00     0.001 A 
HETATM    2  C5  UNL     1      -0.003   0.225  -2.020  1.00  0.00     0.017 A 
HETATM    3  C6  UNL     1       1.184   0.659  -2.623  1.00  0.00     0.046 A 
HETATM    4  C7  UNL     1       2.292   1.040  -1.879  1.00  0.00     0.151 A 
HETATM    5  F1  UNL     1       3.379   1.443  -2.577  1.00  0.00    -0.203 F 
HETATM    6  C8  UNL     1       2.231   0.994  -0.509  1.00  0.00     0.129 A 
HETATM    7  C13 UNL     1       1.050   0.563   0.095  1.00  0.00     0.092 A 
HETATM    8  C14 UNL     1       0.940   0.496   1.535  1.00  0.00     0.103 C 
HETATM    9  N3  UNL     1       0.841   0.442   2.695  1.00  0.00    -0.191 NA
ENDROOT
BRANCH   1  10
HETATM   10  C3  UNL     1      -1.285  -0.273  -0.006  1.00  0.00     0.014 A 
HETATM   11  C2  UNL     1      -2.260   0.723   0.463  1.00  0.00     0.044 A 
HETATM   12  N1  UNL     1      -1.995   1.972   0.299  1.00  0.00    -0.395 N 
HETATM   13  C20 UNL     1      -3.477   0.192   1.096  1.00  0.00     0.167 A 
HETATM   14  C1  UNL     1      -2.827   3.071   0.696  1.00  0.00     0.146 C 
ATOM     15  H1  UNL     1      -1.111   2.202  -0.156  1.00  0.00     0.159 HD
HETATM   16  N5  UNL     1      -3.481  -1.242   1.159  1.00  0.00    -0.361 N 
HETATM   17  C19 UNL     1      -2.600  -2.045   0.740  1.00  0.00     0.113 A 
ATOM     18  H5  UNL     1      -4.298  -1.666   1.597  1.00  0.00     0.162 HD
HETATM   19  C15 UNL     1      -1.462  -1.573   0.136  1.00  0.00     0.021 A 
HETATM   20  N4  UNL     1      -2.740  -3.398   0.861  1.00  0.00    -0.352 N 
HETATM   21  C16 UNL     1      -0.503  -2.485  -0.326  1.00  0.00     0.017 A 
HETATM   22  C17 UNL     1      -0.660  -3.847  -0.197  1.00  0.00     0.018 A 
HETATM   23  C18 UNL     1      -1.819  -4.264   0.417  1.00  0.00     0.089 A 
ATOM     24  H4  UNL     1      -3.580  -3.765   1.308  1.00  0.00     0.166 HD
BRANCH  13  25
HETATM   25  C21 UNL     1      -4.736   0.582   0.367  1.00  0.00    -0.030 A 
HETATM   26  C22 UNL     1      -4.793   0.741  -0.996  1.00  0.00     0.009 A 
HETATM   27  C23 UNL     1      -5.963   1.094  -1.650  1.00  0.00     0.001 A 
HETATM   28  C24 UNL     1      -7.119   1.297  -0.940  1.00  0.00     0.000 A 
HETATM   29  C25 UNL     1      -7.087   1.142   0.435  1.00  0.00     0.001 A 
HETATM   30  C26 UNL     1      -5.907   0.790   1.065  1.00  0.00     0.009 A 
ENDBRANCH  13  25
ENDBRANCH   1  10
BRANCH   6  31
HETATM   31  O1  UNL     1       3.313   1.364   0.238  1.00  0.00    -0.345 OA
BRANCH  31  32
HETATM   32  C9  UNL     1       4.348   0.557   0.704  1.00  0.00     0.206 C 
BRANCH  32  33
HETATM   33  C10 UNL     1       5.124  -0.132  -0.382  1.00  0.00     0.297 C 
BRANCH  33  34
HETATM   34  N2  UNL     1       6.173  -0.950   0.204  1.00  0.00     0.082 N 
HETATM   35  C11 UNL     1       7.203  -0.134   0.825  1.00  0.00     0.309 C 
HETATM   36  C12 UNL     1       6.833  -1.693  -0.871  1.00  0.00     0.309 C 
ENDBRANCH  33  34
ENDBRANCH  32  33
ENDBRANCH  31  32
ENDBRANCH   6  31
TORSDOF 6
