REMARK  3 active torsions:
REMARK  status: ('A' for Active; 'I' for Inactive)
REMARK    1  A    between atoms: C5_6  and  O2_7 
REMARK    2  A    between atoms: C6_11  and  C8_13 
REMARK    3  A    between atoms: C8_13  and  O5_14 
ROOT
HETATM    1  C1  UNL     1      -2.469  -0.872   0.594  1.00  0.00     0.078 C 
HETATM    2  C2  UNL     1      -1.676  -0.531  -0.638  1.00  0.00     0.158 C 
HETATM    3  C3  UNL     1      -2.326  -1.109  -1.846  1.00  0.00     0.078 C 
HETATM    4  O1  UNL     1      -1.585   0.874  -0.683  1.00  0.00    -0.343 OA
HETATM    5  C4  UNL     1      -0.599   1.176   0.266  1.00  0.00     0.215 C 
HETATM    6  C5  UNL     1       0.335   2.172  -0.374  1.00  0.00     0.326 C 
HETATM    7  O3  UNL     1       1.625   2.102   0.083  1.00  0.00    -0.204 OA
HETATM    8  O4  UNL     1       1.813   1.320   1.098  1.00  0.00    -0.222 OA
HETATM    9  C6  UNL     1       1.549  -0.007   0.715  1.00  0.00     0.142 C 
HETATM   10  C7  UNL     1       2.072  -0.927   1.824  1.00  0.00     0.054 C 
HETATM   11  C9  UNL     1       0.086  -0.146   0.540  1.00  0.00     0.198 C 
HETATM   12  O6  UNL     1      -0.322  -0.920  -0.512  1.00  0.00    -0.345 OA
ENDROOT
BRANCH   9  13
HETATM   13  C8  UNL     1       2.365  -0.282  -0.509  1.00  0.00     0.207 C 
BRANCH  13  14
HETATM   14  O5  UNL     1       2.196  -1.569  -0.997  1.00  0.00    -0.398 OA
ATOM     15  H5  UNL     1       2.714  -1.744  -1.774  1.00  0.00     0.209 HD
ENDBRANCH  13  14
ENDBRANCH   9  13
BRANCH   6  16
HETATM   16  O2  UNL     1      -0.180   3.460  -0.240  1.00  0.00    -0.366 OA
ATOM     17  H2  UNL     1       0.408   4.087  -0.643  1.00  0.00     0.212 HD
ENDBRANCH   6  16
TORSDOF 3
