REMARK  11 active torsions:
REMARK  status: ('A' for Active; 'I' for Inactive)
REMARK    1  A    between atoms: C2_2  and  C4_4 
REMARK    2  A    between atoms: C4_4  and  C5_5 
REMARK    3  A    between atoms: C5_5  and  N1_6 
REMARK    4  A    between atoms: C5_5  and  C11_15 
REMARK       I    between atoms: N1_6  and  C6_8 
REMARK    5  A    between atoms: C6_8  and  O2_10 
REMARK    6  A    between atoms: O2_10  and  C7_11 
REMARK       I    between atoms: C11_15  and  N2_17 
REMARK    7  A    between atoms: N2_17  and  C12_19 
REMARK    8  A    between atoms: C12_19  and  C13_20 
REMARK    9  A    between atoms: C12_19  and  C19_30 
REMARK       I    between atoms: C13_20  and  N3_22 
REMARK   10  A    between atoms: N3_22  and  C14_24 
REMARK       I    between atoms: C19_30  and  N4_32 
REMARK   11  A    between atoms: N4_32  and  C20_34 
ROOT
HETATM    1  C20 UNL     1      -2.218   3.163   1.908  1.00  0.00     0.122 A 
HETATM    2  C21 UNL     1      -0.959   3.606   2.505  1.00  0.00     0.091 C 
HETATM    3  N5  UNL     1       0.040   3.975   2.988  1.00  0.00    -0.195 NA
HETATM    4  C22 UNL     1      -3.474   3.850   2.384  1.00  0.00     0.050 A 
HETATM    5  C23 UNL     1      -2.981   4.140   1.003  1.00  0.00     0.050 A 
ENDROOT
BRANCH   1   6
HETATM    6  N4  UNL     1      -2.311   1.738   1.593  1.00  0.00    -0.337 N 
HETATM    7  C19 UNL     1      -1.380   1.198   0.698  1.00  0.00     0.251 C 
HETATM    8  O6  UNL     1      -0.470   1.908   0.169  1.00  0.00    -0.271 OA
ATOM      9  H4  UNL     1      -3.034   1.154   2.014  1.00  0.00     0.164 HD
BRANCH   7  10
HETATM   10  C12 UNL     1      -1.397  -0.266   0.304  1.00  0.00     0.269 C 
BRANCH  10  11
HETATM   11  N2  UNL     1      -0.205  -0.436  -0.560  1.00  0.00    -0.338 N 
HETATM   12  C11 UNL     1       0.946  -1.089  -0.047  1.00  0.00     0.241 C 
HETATM   13  O3  UNL     1       0.917  -1.515   1.136  1.00  0.00    -0.271 OA
ATOM     14  H2  UNL     1      -0.212  -0.086  -1.518  1.00  0.00     0.163 HD
BRANCH  12  15
HETATM   15  C5  UNL     1       2.176  -1.287  -0.828  1.00  0.00     0.179 C 
BRANCH  15  16
HETATM   16  C4  UNL     1       2.375  -2.638  -1.403  1.00  0.00     0.038 C 
BRANCH  16  17
HETATM   17  C2  UNL     1       1.448  -3.143  -2.424  1.00  0.00    -0.020 C 
HETATM   18  C1  UNL     1       1.346  -2.304  -3.673  1.00  0.00     0.009 C 
HETATM   19  C3  UNL     1       0.074  -3.514  -1.951  1.00  0.00     0.009 C 
ENDBRANCH  16  17
ENDBRANCH  15  16
BRANCH  15  20
HETATM   20  N1  UNL     1       3.278  -1.100   0.160  1.00  0.00    -0.324 N 
HETATM   21  C6  UNL     1       4.154  -0.013   0.024  1.00  0.00     0.362 C 
HETATM   22  O1  UNL     1       4.001   0.797  -0.931  1.00  0.00    -0.238 OA
ATOM     23  H1  UNL     1       3.394  -1.759   0.930  1.00  0.00     0.165 HD
BRANCH  21  24
HETATM   24  O2  UNL     1       5.186   0.199   0.909  1.00  0.00    -0.294 OA
BRANCH  24  25
HETATM   25  C7  UNL     1       6.096   1.272   0.830  1.00  0.00     0.061 C 
HETATM   26  C8  UNL     1       5.393   2.610   0.926  1.00  0.00     0.046 C 
HETATM   27  C9  UNL     1       7.112   1.190   1.942  1.00  0.00     0.046 C 
HETATM   28  C10 UNL     1       6.830   1.150  -0.506  1.00  0.00     0.046 C 
ENDBRANCH  24  25
ENDBRANCH  21  24
ENDBRANCH  15  20
ENDBRANCH  12  15
ENDBRANCH  10  11
BRANCH  10  29
HETATM   29  C13 UNL     1      -2.578  -0.567  -0.512  1.00  0.00     0.250 C 
HETATM   30  O4  UNL     1      -2.467  -0.732  -1.746  1.00  0.00    -0.271 OA
HETATM   31  N3  UNL     1      -3.857  -0.683   0.067  1.00  0.00    -0.347 N 
ATOM     32  H3  UNL     1      -3.967  -0.558   1.073  1.00  0.00     0.163 HD
BRANCH  31  33
HETATM   33  C14 UNL     1      -5.040  -0.983  -0.763  1.00  0.00     0.154 C 
HETATM   34  C15 UNL     1      -6.090   0.032  -0.430  1.00  0.00     0.033 C 
HETATM   35  C16 UNL     1      -6.741  -0.476   0.846  1.00  0.00     0.010 C 
HETATM   36  C17 UNL     1      -6.383  -1.950   0.948  1.00  0.00     0.080 C 
HETATM   37  C18 UNL     1      -5.609  -2.258  -0.267  1.00  0.00     0.149 C 
HETATM   38  O5  UNL     1      -5.458  -3.351  -0.775  1.00  0.00    -0.296 OA
ENDBRANCH  31  33
ENDBRANCH  10  29
ENDBRANCH   7  10
ENDBRANCH   1   6
TORSDOF 11
