REMARK  1 active torsions:
REMARK  status: ('A' for Active; 'I' for Inactive)
REMARK    1  A    between atoms: N2_3  and  C2_5 
ROOT
HETATM    1  C2  UNL     1      -0.582  -0.195   0.097  1.00  0.00     0.310 A 
HETATM    2  C3  UNL     1      -1.782   0.640   0.083  1.00  0.00     0.289 A 
HETATM    3  N3  UNL     1      -1.871  -0.846  -0.017  1.00  0.00    -0.049 N 
ATOM      4  H31 UNL     1      -2.360  -1.578   0.497  1.00  0.00     0.279 HD
ATOM      5  H32 UNL     1      -2.295  -1.504  -0.672  1.00  0.00     0.279 HD
ENDROOT
BRANCH   1   6
HETATM    6  N2  UNL     1       0.285  -0.137  -1.031  1.00  0.00    -0.359 N 
HETATM    7  C1  UNL     1       1.556  -0.040  -0.846  1.00  0.00     0.186 C 
HETATM    8  N1  UNL     1       2.163   0.015   0.423  1.00  0.00    -0.097 NA
ATOM      9  H2  UNL     1      -0.097  -0.172  -1.976  1.00  0.00     0.162 HD
ENDBRANCH   1   6
TORSDOF 1
