REMARK  10 active torsions:
REMARK  status: ('A' for Active; 'I' for Inactive)
REMARK       I    between atoms: C2_2  and  N1_4 
REMARK    1  A    between atoms: N1_4  and  C3_6 
REMARK    2  A    between atoms: C3_6  and  C4_7 
REMARK    3  A    between atoms: C3_6  and  C6_11 
REMARK    4  A    between atoms: C4_7  and  O2_9 
REMARK    5  A    between atoms: C6_11  and  O3_12 
REMARK    6  A    between atoms: C6_11  and  C7_14 
REMARK    7  A    between atoms: C7_14  and  N2_15 
REMARK    8  A    between atoms: C7_14  and  C9_19 
REMARK    9  A    between atoms: N2_15  and  C8_17 
REMARK   10  A    between atoms: C9_19  and  C11_21 
ROOT
HETATM    1  C6  UNL     1      -0.358  -0.503  -0.001  1.00  0.00     0.166 C 
ENDROOT
BRANCH   1   2
HETATM    2  C3  UNL     1      -1.376  -0.502  -1.101  1.00  0.00     0.143 C 
BRANCH   2   3
HETATM    3  N1  UNL     1      -2.588   0.211  -0.854  1.00  0.00    -0.352 N 
HETATM    4  C2  UNL     1      -3.185   1.168  -1.705  1.00  0.00     0.214 C 
HETATM    5  C1  UNL     1      -4.447   1.822  -1.306  1.00  0.00     0.117 C 
HETATM    6  O1  UNL     1      -2.722   1.528  -2.815  1.00  0.00    -0.274 OA
ATOM      7  H1  UNL     1      -3.070   0.010   0.022  1.00  0.00     0.163 HD
ENDBRANCH   2   3
BRANCH   2   8
HETATM    8  C4  UNL     1      -1.584  -1.941  -1.515  1.00  0.00     0.139 C 
HETATM    9  C5  UNL     1      -2.255  -2.795  -0.503  1.00  0.00     0.041 C 
BRANCH   8  10
HETATM   10  O2  UNL     1      -2.333  -2.029  -2.692  1.00  0.00    -0.394 OA
ATOM     11  H2  UNL     1      -2.464  -2.933  -2.952  1.00  0.00     0.210 HD
ENDBRANCH   8  10
ENDBRANCH   2   8
ENDBRANCH   1   2
BRANCH   1  12
HETATM   12  O3  UNL     1      -0.842  -1.045   1.185  1.00  0.00    -0.391 OA
ATOM     13  H3  UNL     1      -0.197  -1.046   1.882  1.00  0.00     0.210 HD
ENDBRANCH   1  12
BRANCH   1  14
HETATM   14  C7  UNL     1       0.375   0.757   0.140  1.00  0.00     0.118 C 
BRANCH  14  15
HETATM   15  N2  UNL     1      -0.386   1.858   0.735  1.00  0.00    -0.361 N 
ATOM     16  H2  UNL     1      -0.879   1.708   1.615  1.00  0.00     0.162 HD
BRANCH  15  17
HETATM   17  C8  UNL     1      -0.449   3.118   0.113  1.00  0.00     0.348 C 
HETATM   18  O4  UNL     1       0.128   3.384  -0.968  1.00  0.00    -0.284 OA
ENDBRANCH  15  17
ENDBRANCH  14  15
BRANCH  14  19
HETATM   19  C9  UNL     1       1.719   0.701   0.818  1.00  0.00     0.011 C 
HETATM   20  C10 UNL     1       1.710   0.172   2.213  1.00  0.00     0.012 C 
BRANCH  19  21
HETATM   21  C11 UNL     1       2.817   0.246  -0.061  1.00  0.00    -0.009 C 
HETATM   22  C12 UNL     1       4.190   0.205   0.605  1.00  0.00     0.005 C 
HETATM   23  C13 UNL     1       4.484  -0.979  -0.327  1.00  0.00     0.001 C 
HETATM   24  C14 UNL     1       2.963  -1.171  -0.455  1.00  0.00     0.005 C 
ENDBRANCH  19  21
ENDBRANCH  14  19
ENDBRANCH   1  14
TORSDOF 10
