REMARK  11 active torsions:
REMARK  status: ('A' for Active; 'I' for Inactive)
REMARK    1  A    between atoms: C2_2  and  C3_3 
REMARK    2  A    between atoms: C3_3  and  C4_4 
REMARK    3  A    between atoms: C4_4  and  C5_5 
REMARK    4  A    between atoms: C5_5  and  C6_6 
REMARK    5  A    between atoms: C6_6  and  O1_7 
REMARK    6  A    between atoms: O1_7  and  N1_8 
REMARK    7  A    between atoms: N2_10  and  C7_12 
REMARK    8  A    between atoms: C7_12  and  C8_13 
REMARK    9  A    between atoms: C9_14  and  N3_15 
REMARK   10  A    between atoms: C11_23  and  O2_24 
REMARK   11  A    between atoms: C12_26  and  O3_27 
ROOT
HETATM    1  C8  UNL     1      -2.413   0.391   0.804  1.00  0.00     0.088 C 
HETATM    2  C9  UNL     1      -3.902   0.468   0.933  1.00  0.00     0.297 C 
HETATM    3  N6  UNL     1      -4.229  -0.468   1.984  1.00  0.00    -0.025 N 
ATOM      4  H61 UNL     1      -5.121  -0.938   1.830  1.00  0.00     0.282 HD
ATOM      5  H62 UNL     1      -4.467  -0.007   2.862  1.00  0.00     0.282 HD
HETATM    6  C11 UNL     1      -3.138  -1.383   2.118  1.00  0.00     0.350 C 
HETATM    7  C12 UNL     1      -2.195  -1.123   0.943  1.00  0.00     0.183 C 
ENDROOT
BRANCH   1   8
HETATM    8  C7  UNL     1      -1.891   0.863  -0.522  1.00  0.00     0.152 C 
BRANCH   8   9
HETATM    9  N2  UNL     1      -0.449   0.723  -0.478  1.00  0.00    -0.316 N 
HETATM   10  N1  UNL     1       0.203  -0.167  -1.059  1.00  0.00    -0.212 N 
ATOM     11  H1  UNL     1      -0.280  -0.870  -1.619  1.00  0.00     0.215 HD
ATOM     12  H2  UNL     1       0.073   1.406   0.071  1.00  0.00     0.182 HD
BRANCH  10  13
HETATM   13  O1  UNL     1       1.558  -0.201  -0.947  1.00  0.00    -0.265 OA
BRANCH  13  14
HETATM   14  C6  UNL     1       2.361   0.650  -1.775  1.00  0.00     0.203 C 
BRANCH  14  15
HETATM   15  C5  UNL     1       3.806   0.345  -1.379  1.00  0.00     0.029 C 
BRANCH  15  16
HETATM   16  C4  UNL     1       3.950   0.668   0.093  1.00  0.00     0.002 C 
BRANCH  16  17
HETATM   17  C3  UNL     1       5.340   0.399   0.558  1.00  0.00    -0.000 C 
BRANCH  17  18
HETATM   18  C2  UNL     1       5.789  -1.023   0.400  1.00  0.00    -0.005 C 
HETATM   19  C1  UNL     1       7.216  -1.107   0.925  1.00  0.00     0.005 C 
ENDBRANCH  17  18
ENDBRANCH  16  17
ENDBRANCH  15  16
ENDBRANCH  14  15
ENDBRANCH  13  14
ENDBRANCH  10  13
ENDBRANCH   8   9
ENDBRANCH   1   8
BRANCH   2  20
HETATM   20  N3  UNL     1      -4.584   0.068  -0.267  1.00  0.00    -0.339 N 
HETATM   21  C10 UNL     1      -5.202   0.861  -1.050  1.00  0.00     0.198 C 
HETATM   22  N4  UNL     1      -5.270   2.254  -0.794  1.00  0.00    -0.067 NA
HETATM   23  N5  UNL     1      -5.836   0.347  -2.201  1.00  0.00    -0.067 NA
ATOM     24  H3  UNL     1      -4.573  -0.923  -0.510  1.00  0.00     0.163 HD
ENDBRANCH   2  20
BRANCH   7  25
HETATM   25  O3  UNL     1      -2.666  -1.738  -0.217  1.00  0.00    -0.391 OA
ATOM     26  H3  UNL     1      -2.531  -2.674  -0.131  1.00  0.00     0.210 HD
ENDBRANCH   7  25
BRANCH   6  27
HETATM   27  O2  UNL     1      -3.515  -2.705   2.192  1.00  0.00    -0.368 OA
ATOM     28  H2  UNL     1      -2.790  -3.313   2.281  1.00  0.00     0.212 HD
ENDBRANCH   6  27
TORSDOF 11
