REMARK  8 active torsions:
REMARK  status: ('A' for Active; 'I' for Inactive)
REMARK    1  A    between atoms: N1_1  and  C1_5 
REMARK    2  A    between atoms: N2_10  and  C6_11 
REMARK    3  A    between atoms: C6_11  and  C7_12 
REMARK    4  A    between atoms: C9_14  and  O1_15 
REMARK    5  A    between atoms: O1_15  and  C10_16 
REMARK    6  A    between atoms: C18_29  and  C19_30 
REMARK    7  A    between atoms: C19_30  and  O2_31 
REMARK    8  A    between atoms: C19_30  and  O3_33 
ROOT
HETATM    1  C7  UNL     1       0.027  -1.377  -0.571  1.00  0.00    -0.030 A 
HETATM    2  C8  UNL     1       0.886  -0.838   0.353  1.00  0.00     0.049 A 
HETATM    3  C9  UNL     1       2.273  -1.075   0.311  1.00  0.00     0.115 A 
HETATM    4  C16 UNL     1       2.768  -1.872  -0.688  1.00  0.00     0.150 A 
HETATM    5  F5  UNL     1       4.103  -2.152  -0.800  1.00  0.00    -0.203 F 
HETATM    6  C17 UNL     1       1.887  -2.414  -1.621  1.00  0.00     0.057 A 
HETATM    7  C18 UNL     1       0.537  -2.179  -1.575  1.00  0.00     0.006 A 
ENDROOT
BRANCH   1   8
HETATM    8  C6  UNL     1      -1.391  -1.175  -0.525  1.00  0.00     0.143 C 
BRANCH   8   9
HETATM    9  N2  UNL     1      -1.778  -0.276   0.514  1.00  0.00    -0.248 NA
HETATM   10  C5  UNL     1      -1.360   1.133   0.216  1.00  0.00     0.104 C 
HETATM   11  C4  UNL     1      -2.555   2.004  -0.139  1.00  0.00     0.015 C 
HETATM   12  C3  UNL     1      -3.604   2.256   0.823  1.00  0.00     0.004 C 
HETATM   13  C2  UNL     1      -4.834   1.365   0.915  1.00  0.00     0.046 C 
HETATM   14  C1  UNL     1      -4.427  -0.112   1.239  1.00  0.00     0.265 C 
HETATM   15  C20 UNL     1      -3.081  -0.256   0.893  1.00  0.00    -0.064 C 
BRANCH  14  16
HETATM   16  N1  UNL     1      -4.808  -0.304   2.655  1.00  0.00    -0.064 N 
ATOM     17  H13 UNL     1      -4.407   0.386   3.290  1.00  0.00     0.275 HD
ATOM     18  H12 UNL     1      -5.785  -0.089   2.855  1.00  0.00     0.275 HD
ATOM     19  H11 UNL     1      -4.543  -1.266   2.866  1.00  0.00     0.275 HD
ENDBRANCH  14  16
ENDBRANCH   8   9
ENDBRANCH   1   8
BRANCH   7  20
HETATM   20  C19 UNL     1      -0.346  -2.757  -2.554  1.00  0.00     0.289 C 
BRANCH  20  21
HETATM   21  O2  UNL     1       0.015  -4.115  -2.722  1.00  0.00    -0.367 OA
ATOM     22  H2  UNL     1      -0.568  -4.496  -3.368  1.00  0.00     0.213 HD
ENDBRANCH  20  21
BRANCH  20  23
HETATM   23  O3  UNL     1      -0.160  -2.170  -3.826  1.00  0.00    -0.367 OA
ATOM     24  H3  UNL     1      -0.743  -2.551  -4.472  1.00  0.00     0.213 HD
ENDBRANCH  20  23
ENDBRANCH   7  20
BRANCH   3  25
HETATM   25  O1  UNL     1       3.137  -0.528   1.247  1.00  0.00    -0.304 OA
BRANCH  25  26
HETATM   26  C10 UNL     1       4.175   0.313   0.975  1.00  0.00     0.121 A 
HETATM   27  C11 UNL     1       5.475  -0.005   1.294  1.00  0.00     0.086 A 
HETATM   28  C12 UNL     1       6.497   0.864   1.006  1.00  0.00     0.160 A 
HETATM   29  F1  UNL     1       7.793   0.602   1.298  1.00  0.00    -0.203 F 
HETATM   30  C13 UNL     1       6.242   2.078   0.388  1.00  0.00     0.196 A 
HETATM   31  F2  UNL     1       7.249   2.933   0.105  1.00  0.00    -0.199 F 
HETATM   32  C14 UNL     1       4.953   2.392   0.072  1.00  0.00     0.199 A 
HETATM   33  F3  UNL     1       4.723   3.584  -0.532  1.00  0.00    -0.199 F 
HETATM   34  C15 UNL     1       3.927   1.520   0.361  1.00  0.00     0.191 A 
HETATM   35  F4  UNL     1       2.651   1.896   0.017  1.00  0.00    -0.200 F 
ENDBRANCH  25  26
ENDBRANCH   3  25
TORSDOF 8
