REMARK  1 active torsions:
REMARK  status: ('A' for Active; 'I' for Inactive)
REMARK    1  A    between atoms: N1_7  and  C7_8 
ROOT
HETATM    1  C1  UNL     1      -2.467  -1.089  -0.059  1.00  0.00     0.114 C 
HETATM    2  C2  UNL     1      -2.034  -0.569   1.286  1.00  0.00     0.025 C 
HETATM    3  C3  UNL     1      -1.069   0.593   1.009  1.00  0.00     0.017 C 
HETATM    4  C4  UNL     1      -1.583   1.286  -0.203  1.00  0.00     0.033 C 
HETATM    5  C5  UNL     1      -1.162   0.437  -1.410  1.00  0.00     0.105 C 
HETATM    6  C6  UNL     1       0.371   0.553  -1.397  1.00  0.00     0.297 C 
HETATM    7  N1  UNL     1       0.797  -0.309  -0.324  1.00  0.00     0.095 N 
HETATM    8  C10 UNL     1       0.305   0.076   0.962  1.00  0.00     0.277 C 
HETATM    9  N2  UNL     1      -1.482  -0.925  -1.087  1.00  0.00    -0.415 N 
ATOM     10  H2  UNL     1      -1.041  -1.717  -1.555  1.00  0.00     0.153 HD
ENDROOT
BRANCH   7  11
HETATM   11  C7  UNL     1       2.189  -0.592  -0.351  1.00  0.00     0.223 A 
HETATM   12  C8  UNL     1       3.215   0.496  -0.190  1.00  0.00     0.038 A 
HETATM   13  C9  UNL     1       3.069  -0.576   0.823  1.00  0.00     0.038 A 
ENDBRANCH   7  11
TORSDOF 1
