REMARK  10 active torsions:
REMARK  status: ('A' for Active; 'I' for Inactive)
REMARK    1  A    between atoms: N1_1  and  C1_4 
REMARK    2  A    between atoms: C3_8  and  C4_9 
REMARK    3  A    between atoms: C4_9  and  N3_10 
REMARK    4  A    between atoms: N3_10  and  C5_12 
REMARK    5  A    between atoms: N4_14  and  C7_15 
REMARK    6  A    between atoms: C7_15  and  C8_16 
REMARK    7  A    between atoms: C8_16  and  O1_17 
REMARK    8  A    between atoms: N5_19  and  O2_20 
REMARK    9  A    between atoms: C9_22  and  N6_23 
REMARK   10  A    between atoms: N6_23  and  N7_25 
ROOT
HETATM    1  C5  UNL     1      -0.333   0.785   0.068  1.00  0.00     0.134 A 
HETATM    2  C6  UNL     1      -1.101  -0.322   0.333  1.00  0.00     0.162 A 
HETATM    3  N4  UNL     1      -2.441  -0.259   0.505  1.00  0.00    -0.257 N 
HETATM    4  N5  UNL     1      -3.023   0.929   0.412  1.00  0.00     0.019 N 
HETATM    5  C9  UNL     1      -2.281   2.030   0.151  1.00  0.00     0.740 A 
HETATM    6  N8  UNL     1      -0.948   1.978  -0.022  1.00  0.00    -0.171 N 
ATOM      7  H8  UNL     1      -0.415   2.825  -0.217  1.00  0.00     0.186 HD
ENDROOT
BRANCH   1   8
HETATM    8  N3  UNL     1       1.098   0.686  -0.112  1.00  0.00    -0.370 N 
ATOM      9  H3  UNL     1       1.656   1.516  -0.309  1.00  0.00     0.161 HD
BRANCH   8  10
HETATM   10  C4  UNL     1       1.722  -0.616  -0.007  1.00  0.00     0.162 C 
BRANCH  10  11
HETATM   11  C3  UNL     1       3.173  -0.452  -0.228  1.00  0.00    -0.009 A 
HETATM   12  C2  UNL     1       3.681  -0.547  -1.501  1.00  0.00     0.116 A 
HETATM   13  N2  UNL     1       5.023  -0.392  -1.680  1.00  0.00    -0.202 N 
HETATM   14  C1  UNL     1       5.876  -0.152  -0.675  1.00  0.00     0.675 A 
ATOM     15  H2  UNL     1       5.397  -0.462  -2.626  1.00  0.00     0.183 HD
HETATM   16  N9  UNL     1       5.384  -0.059   0.569  1.00  0.00    -0.202 N 
HETATM   17  C10 UNL     1       4.049  -0.206   0.803  1.00  0.00     0.116 A 
ATOM     18  H9  UNL     1       6.016   0.124   1.349  1.00  0.00     0.183 HD
BRANCH  14  19
HETATM   19  N1  UNL     1       7.158  -0.011  -0.894  1.00  0.00    -0.234 N 
ATOM     20  H12 UNL     1       7.532  -0.082  -1.840  1.00  0.00     0.174 HD
ATOM     21  H11 UNL     1       7.807   0.172  -0.129  1.00  0.00     0.174 HD
ENDBRANCH  14  19
ENDBRANCH  10  11
ENDBRANCH   8  10
ENDBRANCH   1   8
BRANCH   3  22
HETATM   22  C7  UNL     1      -3.154  -1.474   0.778  1.00  0.00     0.177 C 
BRANCH  22  23
HETATM   23  C8  UNL     1      -3.635  -2.178  -0.460  1.00  0.00     0.185 C 
BRANCH  23  24
HETATM   24  O1  UNL     1      -4.308  -3.336  -0.043  1.00  0.00    -0.399 OA
ATOM     25  H1  UNL     1      -4.612  -3.781  -0.825  1.00  0.00     0.209 HD
ENDBRANCH  23  24
ENDBRANCH  22  23
ENDBRANCH   3  22
BRANCH   5  26
HETATM   26  N6  UNL     1      -2.885   3.175   0.067  1.00  0.00    -0.135 N 
ATOM     27  H6  UNL     1      -2.339   4.014  -0.129  1.00  0.00     0.205 HD
BRANCH  26  28
HETATM   28  N7  UNL     1      -4.266   3.282   0.239  1.00  0.00    -0.331 N 
ATOM     29  H72 UNL     1      -4.796   2.433   0.434  1.00  0.00     0.177 HD
ATOM     30  H71 UNL     1      -4.741   4.182   0.173  1.00  0.00     0.177 HD
ENDBRANCH  26  28
ENDBRANCH   5  26
BRANCH   4  31
HETATM   31  O2  UNL     1      -4.380   1.031   0.581  1.00  0.00    -0.254 OA
ATOM     32  H2  UNL     1      -4.797   1.882   0.514  1.00  0.00     0.247 HD
ENDBRANCH   4  31
TORSDOF 10
