REMARK  3 active torsions:
REMARK  status: ('A' for Active; 'I' for Inactive)
REMARK    1  A    between atoms: C4_5  and  N2_6 
REMARK    2  A    between atoms: C7_9  and  C8_10 
REMARK       I    between atoms: C8_10  and  N3_12 
REMARK    3  A    between atoms: N3_12  and  C9_14 
ROOT
HETATM    1  N2  UNL     1       2.085  -0.968  -0.407  1.00  0.00     0.093 N 
HETATM    2  C5  UNL     1       1.085  -1.338   0.578  1.00  0.00     0.273 C 
HETATM    3  C6  UNL     1      -0.185  -1.785  -0.113  1.00  0.00     0.044 C 
HETATM    4  C7  UNL     1      -0.406  -0.820  -1.269  1.00  0.00     0.081 C 
HETATM    5  C16 UNL     1       0.272   0.488  -0.945  1.00  0.00     0.044 C 
HETATM    6  C17 UNL     1       1.790   0.276  -1.052  1.00  0.00     0.273 C 
ENDROOT
BRANCH   4   7
HETATM    7  C8  UNL     1      -1.829  -0.631  -1.561  1.00  0.00     0.222 C 
HETATM    8  O1  UNL     1      -2.293  -0.915  -2.691  1.00  0.00    -0.273 OA
HETATM    9  N3  UNL     1      -2.743  -0.123  -0.589  1.00  0.00    -0.356 N 
ATOM     10  H3  UNL     1      -2.394   0.116   0.339  1.00  0.00     0.162 HD
BRANCH   9  11
HETATM   11  C9  UNL     1      -4.151   0.064  -0.879  1.00  0.00     0.088 C 
HETATM   12  C10 UNL     1      -4.503   1.520  -0.627  1.00  0.00     0.030 C 
HETATM   13  C11 UNL     1      -5.453   1.528   0.545  1.00  0.00    -0.012 C 
HETATM   14  C12 UNL     1      -6.776   1.017   0.062  1.00  0.00     0.005 C 
HETATM   15  C15 UNL     1      -4.944   0.291   1.307  1.00  0.00     0.011 C 
HETATM   16  C13 UNL     1      -6.456  -0.437  -0.317  1.00  0.00     0.007 C 
HETATM   17  C14 UNL     1      -5.025  -0.661   0.115  1.00  0.00     0.009 C 
ENDBRANCH   9  11
ENDBRANCH   4   7
BRANCH   1  18
HETATM   18  C4  UNL     1       3.421  -1.030   0.156  1.00  0.00     0.226 C 
HETATM   19  C3  UNL     1       3.650  -0.089   1.271  1.00  0.00     0.066 C 
HETATM   20  C2  UNL     1       4.800   0.829   1.199  1.00  0.00     0.274 C 
HETATM   21  N1  UNL     1       5.544   0.859  -0.019  1.00  0.00     0.084 N 
HETATM   22  C1  UNL     1       6.876   1.412   0.281  1.00  0.00     0.309 C 
HETATM   23  C19 UNL     1       5.766  -0.468  -0.529  1.00  0.00     0.274 C 
HETATM   24  C18 UNL     1       4.423  -1.007  -0.953  1.00  0.00     0.066 C 
ENDBRANCH   1  18
TORSDOF 3
