REMARK  6 active torsions:
REMARK  status: ('A' for Active; 'I' for Inactive)
REMARK    1  A    between atoms: C2_2  and  O1_3 
REMARK    2  A    between atoms: C2_2  and  C3_5 
REMARK    3  A    between atoms: C2_2  and  C5_11 
REMARK    4  A    between atoms: C3_5  and  O2_6 
REMARK    5  A    between atoms: O2_6  and  S1_7 
REMARK    6  A    between atoms: C22_29  and  O6_30 
ROOT
HETATM    1  C5  UNL     1       2.710  -0.656  -0.874  1.00  0.00     0.030 C 
HETATM    2  C6  UNL     1       1.903  -0.496  -2.145  1.00  0.00     0.009 C 
HETATM    3  C7  UNL     1       0.657  -1.259  -1.816  1.00  0.00     0.006 C 
HETATM    4  C8  UNL     1       0.582  -1.339  -0.289  1.00  0.00    -0.001 C 
HETATM    5  C9  UNL     1      -0.756  -0.877   0.120  1.00  0.00    -0.005 C 
HETATM    6  C10 UNL     1      -1.221  -1.327   1.470  1.00  0.00     0.006 C 
HETATM    7  C11 UNL     1      -2.744  -1.237   1.425  1.00  0.00     0.007 C 
HETATM    8  C12 UNL     1      -3.267   0.071   0.930  1.00  0.00     0.012 C 
HETATM    9  C13 UNL     1      -2.224   1.102   0.639  1.00  0.00    -0.035 C 
HETATM   10  C14 UNL     1      -1.875   1.843   1.941  1.00  0.00     0.016 C 
HETATM   11  C15 UNL     1      -2.793   2.214  -0.227  1.00  0.00     0.010 C 
HETATM   12  C16 UNL     1      -3.408   1.776  -1.501  1.00  0.00     0.002 C 
HETATM   13  C17 UNL     1      -3.900   0.376  -1.493  1.00  0.00     0.020 C 
HETATM   14  C18 UNL     1      -4.360  -0.034  -0.110  1.00  0.00     0.051 C 
HETATM   15  C19 UNL     1      -5.609   0.676   0.263  1.00  0.00     0.138 C 
HETATM   16  O5  UNL     1      -5.719   1.500   1.125  1.00  0.00    -0.297 OA
HETATM   17  C20 UNL     1      -6.691   0.188  -0.614  1.00  0.00     0.081 C 
HETATM   18  C21 UNL     1      -6.325  -1.242  -0.833  1.00  0.00     0.040 C 
HETATM   19  C22 UNL     1      -4.906  -1.442  -0.279  1.00  0.00     0.135 C 
HETATM   20  C23 UNL     1      -0.987   0.598  -0.061  1.00  0.00    -0.002 C 
HETATM   21  C24 UNL     1       0.226   1.430   0.215  1.00  0.00     0.006 C 
HETATM   22  C25 UNL     1       1.382   0.702   0.821  1.00  0.00     0.010 C 
HETATM   23  C26 UNL     1       1.771  -0.572   0.238  1.00  0.00    -0.034 C 
HETATM   24  C27 UNL     1       2.325  -1.463   1.369  1.00  0.00     0.016 C 
ENDROOT
BRANCH   1  25
HETATM   25  C2  UNL     1       3.943   0.110  -0.970  1.00  0.00     0.081 C 
HETATM   26  C1  UNL     1       3.873   1.577  -1.174  1.00  0.00     0.048 C 
BRANCH  25  27
HETATM   27  O1  UNL     1       4.601  -0.401  -2.131  1.00  0.00    -0.388 OA
ATOM     28  H1  UNL     1       4.646  -1.341  -2.000  1.00  0.00     0.210 HD
ENDBRANCH  25  27
BRANCH  25  29
HETATM   29  C3  UNL     1       4.945  -0.144   0.147  1.00  0.00     0.227 C 
BRANCH  29  30
HETATM   30  O2  UNL     1       6.113   0.571  -0.213  1.00  0.00    -0.273 OA
BRANCH  30  31
HETATM   31  S1  UNL     1       7.320   0.393   0.923  1.00  0.00     0.261 S 
HETATM   32  C4  UNL     1       8.755  -0.253   0.095  1.00  0.00     0.194 C 
HETATM   33  O3  UNL     1       7.730   1.699   1.543  1.00  0.00    -0.199 OA
HETATM   34  O4  UNL     1       6.937  -0.549   2.017  1.00  0.00    -0.199 OA
ENDBRANCH  30  31
ENDBRANCH  29  30
ENDBRANCH  25  29
ENDBRANCH   1  25
BRANCH  19  35
HETATM   35  O6  UNL     1      -4.224  -2.119  -1.291  1.00  0.00    -0.394 OA
ATOM     36  H6  UNL     1      -4.565  -2.999  -1.397  1.00  0.00     0.210 HD
ENDBRANCH  19  35
TORSDOF 6
