REMARK  8 active torsions:
REMARK  status: ('A' for Active; 'I' for Inactive)
REMARK    1  A    between atoms: C4_8  and  C5_9 
REMARK    2  A    between atoms: C7_11  and  C8_12 
REMARK    3  A    between atoms: C13_17  and  C14_18 
REMARK    4  A    between atoms: C14_18  and  N3_19 
REMARK    5  A    between atoms: C17_22  and  O1_23 
REMARK    6  A    between atoms: C17_22  and  C18_25 
REMARK    7  A    between atoms: C18_25  and  C19_26 
REMARK    8  A    between atoms: C25_32  and  N4_33 
ROOT
HETATM    1  C5  UNL     1      -3.254   0.409  -0.275  1.00  0.00     0.027 A 
HETATM    2  C6  UNL     1      -2.884   1.603  -0.957  1.00  0.00     0.024 A 
HETATM    3  C7  UNL     1      -1.598   1.858  -1.349  1.00  0.00    -0.049 A 
HETATM    4  C12 UNL     1      -0.647   0.910  -1.063  1.00  0.00     0.019 A 
HETATM    5  C13 UNL     1      -0.991  -0.270  -0.394  1.00  0.00    -0.002 A 
HETATM    6  C25 UNL     1      -2.298  -0.508  -0.004  1.00  0.00     0.051 A 
ENDROOT
BRANCH   5   7
HETATM    7  C14 UNL     1       0.062  -1.284  -0.166  1.00  0.00     0.313 C 
BRANCH   7   8
HETATM    8  N3  UNL     1       1.376  -0.809  -0.612  1.00  0.00     0.092 N 
HETATM    9  C15 UNL     1       2.242  -2.018  -0.509  1.00  0.00     0.276 C 
HETATM   10  C16 UNL     1       3.573  -1.657  -1.057  1.00  0.00     0.068 C 
HETATM   11  C17 UNL     1       4.159  -0.357  -0.616  1.00  0.00     0.064 C 
HETATM   12  C23 UNL     1       3.299   0.475   0.263  1.00  0.00     0.068 C 
HETATM   13  C24 UNL     1       1.913  -0.003   0.486  1.00  0.00     0.276 C 
BRANCH  11  14
HETATM   14  O1  UNL     1       4.533   0.365  -1.748  1.00  0.00    -0.389 OA
ATOM     15  H1  UNL     1       4.906   1.192  -1.467  1.00  0.00     0.210 HD
ENDBRANCH  11  14
BRANCH  11  16
HETATM   16  C18 UNL     1       5.475  -0.669   0.111  1.00  0.00     0.065 C 
BRANCH  16  17
HETATM   17  C19 UNL     1       6.177   0.517   0.595  1.00  0.00    -0.022 C 
HETATM   18  C20 UNL     1       7.425   0.855   0.262  1.00  0.00    -0.091 C 
HETATM   19  C21 UNL     1       8.053   2.096   0.818  1.00  0.00     0.042 C 
HETATM   20  C22 UNL     1       8.192  -0.021  -0.661  1.00  0.00     0.042 C 
ENDBRANCH  16  17
ENDBRANCH  11  16
ENDBRANCH   7   8
ENDBRANCH   5   7
BRANCH   6  21
HETATM   21  N4  UNL     1      -2.595  -1.715   0.713  1.00  0.00    -0.377 N 
HETATM   22  C26 UNL     1      -2.512  -1.784   2.147  1.00  0.00     0.126 C 
HETATM   23  C27 UNL     1      -3.399  -2.915   2.555  1.00  0.00     0.058 C 
HETATM   24  C28 UNL     1      -3.336  -3.833   1.369  1.00  0.00     0.189 C 
HETATM   25  F1  UNL     1      -2.386  -4.846   1.570  1.00  0.00    -0.248 F 
HETATM   26  C29 UNL     1      -2.968  -2.983   0.191  1.00  0.00     0.160 C 
ENDBRANCH   6  21
BRANCH   3  27
HETATM   27  C8  UNL     1      -1.301   3.131  -2.074  1.00  0.00    -0.024 C 
HETATM   28  C9  UNL     1      -1.980   4.277  -1.344  1.00  0.00     0.019 C 
HETATM   29  C10 UNL     1       0.175   3.387  -2.168  1.00  0.00     0.019 C 
HETATM   30  C11 UNL     1      -1.925   3.006  -3.448  1.00  0.00     0.019 C 
ENDBRANCH   3  27
BRANCH   1  31
HETATM   31  C4  UNL     1      -4.647   0.241   0.065  1.00  0.00     0.107 A 
HETATM   32  C3  UNL     1      -5.653   1.214  -0.099  1.00  0.00     0.130 A 
HETATM   33  N2  UNL     1      -6.807   0.699   0.322  1.00  0.00    -0.330 N 
HETATM   34  C2  UNL     1      -6.535  -0.580   0.747  1.00  0.00     0.224 A 
ATOM     35  H2  UNL     1      -7.715   1.163   0.328  1.00  0.00     0.168 HD
HETATM   36  N1  UNL     1      -7.436  -1.366   1.219  1.00  0.00    -0.360 N 
HETATM   37  O2  UNL     1      -5.258  -0.764   0.563  1.00  0.00    -0.277 OA
HETATM   38  C1  UNL     1      -7.300  -2.693   1.685  1.00  0.00     0.150 C 
ATOM     39  H1  UNL     1      -8.379  -0.979   1.263  1.00  0.00     0.162 HD
ENDBRANCH   1  31
TORSDOF 8
