REMARK  11 active torsions:
REMARK  status: ('A' for Active; 'I' for Inactive)
REMARK    1  A    between atoms: C2_2  and  C4_4 
REMARK    2  A    between atoms: C4_4  and  C5_5 
REMARK    3  A    between atoms: C10_10  and  O1_11 
REMARK    4  A    between atoms: C11_13  and  C12_14 
REMARK    5  A    between atoms: C13_15  and  C14_16 
REMARK    6  A    between atoms: C14_16  and  O3_18 
REMARK    7  A    between atoms: O3_18  and  C15_19 
REMARK    8  A    between atoms: C15_19  and  C16_20 
REMARK    9  A    between atoms: C16_20  and  C17_21 
REMARK   10  A    between atoms: C18_22  and  C19_23 
REMARK   11  A    between atoms: C26_32  and  O4_33 
ROOT
HETATM    1  C5  UNL     1       5.540  -0.165  -0.347  1.00  0.00     0.164 C 
HETATM    2  C6  UNL     1       4.802   1.150  -0.221  1.00  0.00     0.038 C 
HETATM    3  C7  UNL     1       3.528   0.841   0.578  1.00  0.00     0.047 C 
HETATM    4  C8  UNL     1       2.888  -0.348  -0.084  1.00  0.00     0.125 C 
HETATM    5  C9  UNL     1       2.880  -1.575   0.786  1.00  0.00     0.076 C 
HETATM    6  C10 UNL     1       1.790  -2.399   0.140  1.00  0.00     0.131 C 
HETATM    7  C11 UNL     1       0.679  -1.368  -0.044  1.00  0.00     0.069 C 
HETATM    8  C26 UNL     1       1.445  -0.084  -0.348  1.00  0.00     0.166 C 
HETATM    9  O5  UNL     1       3.560  -0.564  -1.288  1.00  0.00    -0.227 OA
HETATM   10  O6  UNL     1       4.772  -1.037  -1.082  1.00  0.00    -0.234 OA
ENDROOT
BRANCH   7  11
HETATM   11  C12 UNL     1      -0.009  -1.253   1.237  1.00  0.00    -0.011 C 
HETATM   12  C13 UNL     1      -1.273  -1.323   1.506  1.00  0.00     0.079 C 
BRANCH  12  13
HETATM   13  C14 UNL     1      -2.310  -1.543   0.515  1.00  0.00     0.282 C 
HETATM   14  O2  UNL     1      -3.517  -1.586   0.965  1.00  0.00    -0.260 OA
BRANCH  13  15
HETATM   15  O3  UNL     1      -2.170  -1.704  -0.792  1.00  0.00    -0.317 OA
BRANCH  15  16
HETATM   16  C15 UNL     1      -2.905  -1.895  -1.895  1.00  0.00     0.191 C 
BRANCH  16  17
HETATM   17  C16 UNL     1      -3.761  -0.844  -2.432  1.00  0.00     0.121 C 
BRANCH  17  18
HETATM   18  C17 UNL     1      -4.843  -0.405  -1.603  1.00  0.00    -0.099 C 
HETATM   19  C18 UNL     1      -5.799  -0.006  -0.940  1.00  0.00    -0.063 C 
BRANCH  19  20
HETATM   20  C19 UNL     1      -6.908   0.482  -0.176  1.00  0.00     0.061 A 
HETATM   21  C20 UNL     1      -7.635  -0.430   0.553  1.00  0.00     0.054 A 
HETATM   22 CL1  UNL     1      -7.235  -2.144   0.562  1.00  0.00    -0.083 Cl
HETATM   23  C21 UNL     1      -8.709   0.025   1.296  1.00  0.00     0.026 A 
HETATM   24  C22 UNL     1      -9.072   1.353   1.330  1.00  0.00     0.010 A 
HETATM   25  C23 UNL     1      -8.356   2.263   0.609  1.00  0.00    -0.039 A 
HETATM   26  C24 UNL     1      -8.667   3.711   0.580  1.00  0.00     0.050 C 
HETATM   27  C25 UNL     1      -7.287   1.804  -0.129  1.00  0.00     0.060 A 
HETATM   28 CL2  UNL     1      -6.344   2.962  -1.070  1.00  0.00    -0.082 Cl
ENDBRANCH  19  20
ENDBRANCH  17  18
ENDBRANCH  16  17
ENDBRANCH  15  16
ENDBRANCH  13  15
ENDBRANCH  12  13
ENDBRANCH   7  11
BRANCH   6  29
HETATM   29  O1  UNL     1       1.381  -3.366   1.053  1.00  0.00    -0.395 OA
ATOM     30  H1  UNL     1       0.696  -3.884   0.647  1.00  0.00     0.210 HD
ENDBRANCH   6  29
BRANCH   8  31
HETATM   31  O4  UNL     1       0.927   0.909   0.471  1.00  0.00    -0.392 OA
ATOM     32  H4  UNL     1       0.007   1.077   0.303  1.00  0.00     0.210 HD
ENDBRANCH   8  31
BRANCH   1  33
HETATM   33  C4  UNL     1       6.919   0.035  -0.943  1.00  0.00     0.068 C 
BRANCH  33  34
HETATM   34  C2  UNL     1       7.753   0.930  -0.110  1.00  0.00    -0.091 C 
HETATM   35  C1  UNL     1       8.215   2.049  -0.629  1.00  0.00     0.014 C 
HETATM   36  C3  UNL     1       8.067   0.579   1.289  1.00  0.00     0.042 C 
ENDBRANCH  33  34
ENDBRANCH   1  33
TORSDOF 11
