REMARK  6 active torsions:
REMARK  status: ('A' for Active; 'I' for Inactive)
REMARK    1  A    between atoms: C4_4  and  C5_5 
REMARK    2  A    between atoms: C8_8  and  C9_9 
REMARK    3  A    between atoms: C9_9  and  O1_10 
REMARK    4  A    between atoms: C9_9  and  C10_12 
REMARK    5  A    between atoms: C10_12  and  N1_13 
REMARK    6  A    between atoms: N1_13  and  C11_16 
ROOT
HETATM    1  C1  UNL     1      -4.876   2.411  -1.021  1.00  0.00     0.051 C 
HETATM    2  C2  UNL     1      -3.546   1.800  -0.628  1.00  0.00    -0.021 A 
HETATM    3  C3  UNL     1      -3.472   0.430  -0.352  1.00  0.00     0.022 A 
HETATM    4  C4  UNL     1      -2.343  -0.229   0.028  1.00  0.00    -0.023 A 
HETATM    5  C8  UNL     1      -1.140   0.574   0.139  1.00  0.00     0.007 A 
HETATM    6  C15 UNL     1      -1.203   1.906  -0.121  1.00  0.00     0.082 A 
HETATM    7 CL1  UNL     1       0.149   3.006   0.060  1.00  0.00    -0.080 Cl
HETATM    8  C16 UNL     1      -2.398   2.532  -0.507  1.00  0.00     0.144 A 
HETATM    9  F1  UNL     1      -2.480   3.841  -0.768  1.00  0.00    -0.204 F 
ENDROOT
BRANCH   5  10
HETATM   10  C9  UNL     1       0.003  -0.116   0.628  1.00  0.00     0.179 C 
BRANCH  10  11
HETATM   11  O1  UNL     1       0.242   0.603   1.920  1.00  0.00    -0.389 OA
ATOM     12  H1  UNL     1       1.006   0.142   2.247  1.00  0.00     0.210 HD
ENDBRANCH  10  11
BRANCH  10  13
HETATM   13  C10 UNL     1       1.330  -0.159   0.043  1.00  0.00     0.269 C 
BRANCH  13  14
HETATM   14  N1  UNL     1       2.242   0.814  -0.320  1.00  0.00    -0.065 N 
ATOM     15  H12 UNL     1       1.959   1.333  -1.151  1.00  0.00     0.278 HD
ATOM     16  H11 UNL     1       2.263   1.601   0.329  1.00  0.00     0.278 HD
BRANCH  14  17
HETATM   17  C11 UNL     1       3.588   0.144  -0.475  1.00  0.00     0.115 C 
HETATM   18  C12 UNL     1       3.536  -0.930  -1.510  1.00  0.00     0.045 C 
HETATM   19  C13 UNL     1       4.517   1.230  -0.930  1.00  0.00     0.045 C 
HETATM   20  C14 UNL     1       4.009  -0.358   0.890  1.00  0.00     0.045 C 
ENDBRANCH  14  17
ENDBRANCH  13  14
ENDBRANCH  10  13
ENDBRANCH   5  10
BRANCH   4  21
HETATM   21  C5  UNL     1      -2.275  -1.651   0.440  1.00  0.00    -0.077 C 
HETATM   22  C6  UNL     1      -1.670  -2.613  -0.521  1.00  0.00     0.044 C 
HETATM   23  C7  UNL     1      -2.331  -1.956   1.882  1.00  0.00     0.044 C 
ENDBRANCH   4  21
TORSDOF 6
