REMARK  6 active torsions:
REMARK  status: ('A' for Active; 'I' for Inactive)
REMARK    1  A    between atoms: C1_4  and  N2_5 
REMARK    2  A    between atoms: C1_4  and  C2_10 
REMARK    3  A    between atoms: N2_5  and  N3_7 
REMARK    4  A    between atoms: C3_11  and  C4_12 
REMARK    5  A    between atoms: C6_21  and  N7_22 
REMARK    6  A    between atoms: N8_24  and  N9_26 
ROOT
HETATM    1  C2  UNL     1      -0.119  -0.135  -0.187  1.00  0.00     0.076 A 
HETATM    2  C3  UNL     1      -1.297  -0.792  -0.040  1.00  0.00     0.129 A 
HETATM    3  N5  UNL     1      -1.338  -2.164   0.255  1.00  0.00    -0.292 N 
ATOM      4  H5  UNL     1      -2.247  -2.614   0.359  1.00  0.00     0.187 HD
HETATM    5  N6  UNL     1      -0.266  -2.886   0.401  1.00  0.00    -0.264 N 
ATOM      6  H6  UNL     1      -0.326  -3.881   0.616  1.00  0.00     0.190 HD
HETATM    7  C5  UNL     1       0.926  -2.274   0.258  1.00  0.00     0.289 A 
HETATM    8  O2  UNL     1       2.016  -2.927   0.385  1.00  0.00    -0.264 OA
HETATM    9  C6  UNL     1       1.037  -0.943  -0.027  1.00  0.00     0.135 A 
ENDROOT
BRANCH   1  10
HETATM   10  C1  UNL     1       0.026   1.281  -0.324  1.00  0.00     0.128 C 
HETATM   11  N1  UNL     1       1.303   1.672  -0.494  1.00  0.00    -0.384 N 
ATOM     12  H12 UNL     1       1.406   2.682  -0.592  1.00  0.00     0.157 HD
ATOM     13  H11 UNL     1       1.967   0.901  -0.558  1.00  0.00     0.157 HD
BRANCH  10  14
HETATM   14  N2  UNL     1      -0.884   2.338  -0.236  1.00  0.00    -0.292 N 
ATOM     15  H2  UNL     1      -1.228   2.813  -1.071  1.00  0.00     0.188 HD
BRANCH  14  16
HETATM   16  N3  UNL     1      -1.313   2.726   1.067  1.00  0.00    -0.344 N 
ATOM     17  H32 UNL     1      -0.960   2.241   1.892  1.00  0.00     0.176 HD
ATOM     18  H31 UNL     1      -1.977   3.497   1.131  1.00  0.00     0.176 HD
ENDBRANCH  14  16
ENDBRANCH  10  14
ENDBRANCH   1  10
BRANCH   2  19
HETATM   19  C4  UNL     1      -2.577  -0.203  -0.332  1.00  0.00     0.283 C 
HETATM   20  N4  UNL     1      -3.697  -0.626   0.476  1.00  0.00    -0.056 NA
HETATM   21  O1  UNL     1      -2.806   0.618  -1.196  1.00  0.00    -0.269 OA
ENDBRANCH   2  19
BRANCH   9  22
HETATM   22  N7  UNL     1       2.308  -0.348  -0.169  1.00  0.00    -0.281 N 
HETATM   23  N8  UNL     1       3.337  -0.985  -0.560  1.00  0.00    -0.249 N 
ATOM     24  H8  UNL     1       3.234  -1.975  -0.781  1.00  0.00     0.207 HD
ATOM     25  H7  UNL     1       2.407   0.643   0.053  1.00  0.00     0.188 HD
BRANCH  23  26
HETATM   26  N9  UNL     1       4.584  -0.415  -0.703  1.00  0.00    -0.331 N 
ATOM     27  H92 UNL     1       4.669   0.576  -0.478  1.00  0.00     0.178 HD
ATOM     28  H91 UNL     1       5.409  -0.926  -1.017  1.00  0.00     0.178 HD
ENDBRANCH  23  26
ENDBRANCH   9  22
TORSDOF 6
