REMARK  7 active torsions:
REMARK  status: ('A' for Active; 'I' for Inactive)
REMARK    1  A    between atoms: N1_1  and  N2_4 
REMARK    2  A    between atoms: N3_6  and  C1_8 
REMARK    3  A    between atoms: C1_8  and  C2_9 
REMARK    4  A    between atoms: C2_9  and  N4_10 
REMARK    5  A    between atoms: C5_18  and  N8_19 
REMARK    6  A    between atoms: C6_24  and  C7_25 
REMARK       I    between atoms: C7_25  and  N10_27 
REMARK    7  A    between atoms: N10_27  and  N11_29 
ROOT
HETATM    1  N4  UNL     1       0.664  -0.541  -0.202  1.00  0.00    -0.314 N 
HETATM    2  C3  UNL     1       1.130  -1.800  -0.491  1.00  0.00     0.197 A 
HETATM    3  N5  UNL     1       2.455  -2.148  -0.908  1.00  0.00    -0.063 NA
HETATM    4  N6  UNL     1       0.173  -2.695  -0.350  1.00  0.00    -0.314 N 
ATOM      5  H6  UNL     1       0.266  -3.699  -0.504  1.00  0.00     0.170 HD
HETATM    6  C4  UNL     1      -0.950  -2.055   0.033  1.00  0.00     0.153 A 
HETATM    7  N7  UNL     1      -2.196  -2.489   0.284  1.00  0.00    -0.174 N 
ATOM      8  H7  UNL     1      -2.426  -3.481   0.219  1.00  0.00     0.186 HD
HETATM    9  C5  UNL     1      -3.127  -1.591   0.621  1.00  0.00     0.678 A 
HETATM   10  N9  UNL     1      -2.870  -0.298   0.715  1.00  0.00    -0.184 N 
ATOM     11  H9  UNL     1      -3.621   0.342   0.975  1.00  0.00     0.184 HD
HETATM   12  C6  UNL     1      -1.614   0.205   0.471  1.00  0.00     0.149 A 
HETATM   13  C8  UNL     1      -0.626  -0.688   0.123  1.00  0.00     0.115 A 
ENDROOT
BRANCH   1  14
HETATM   14  C2  UNL     1       1.461   0.642  -0.291  1.00  0.00     0.153 C 
BRANCH  14  15
HETATM   15  C1  UNL     1       2.315   0.921   0.930  1.00  0.00     0.161 C 
BRANCH  15  16
HETATM   16  N3  UNL     1       3.274  -0.098   1.228  1.00  0.00    -0.321 N 
HETATM   17  N2  UNL     1       4.498   0.142   1.168  1.00  0.00    -0.254 N 
ATOM     18  H2  UNL     1       4.713   0.549   2.078  1.00  0.00     0.207 HD
ATOM     19  H3  UNL     1       2.955  -1.030   1.492  1.00  0.00     0.181 HD
BRANCH  17  20
HETATM   20  N1  UNL     1       5.591   0.142   0.574  1.00  0.00    -0.331 N 
ATOM     21  H12 UNL     1       5.337  -0.269  -0.324  1.00  0.00     0.178 HD
ATOM     22  H11 UNL     1       6.591   0.338   0.525  1.00  0.00     0.178 HD
ENDBRANCH  17  20
ENDBRANCH  15  16
ENDBRANCH  14  15
ENDBRANCH   1  14
BRANCH  12  23
HETATM   23  C7  UNL     1      -1.422   1.634   0.529  1.00  0.00     0.289 C 
HETATM   24  O1  UNL     1      -0.862   2.179   1.483  1.00  0.00    -0.264 OA
HETATM   25  N10 UNL     1      -1.897   2.433  -0.547  1.00  0.00    -0.271 N 
ATOM     26  H10 UNL     1      -2.363   1.999  -1.344  1.00  0.00     0.189 HD
BRANCH  25  27
HETATM   27  N11 UNL     1      -1.720   3.812  -0.502  1.00  0.00    -0.342 N 
ATOM     28 2H11 UNL     1      -1.252   4.230   0.302  1.00  0.00     0.176 HD
ATOM     29 1H11 UNL     1      -2.061   4.385  -1.274  1.00  0.00     0.176 HD
ENDBRANCH  25  27
ENDBRANCH  12  23
BRANCH   9  30
HETATM   30  N8  UNL     1      -4.323  -2.024   0.860  1.00  0.00    -0.234 N 
ATOM     31  H82 UNL     1      -4.521  -3.022   0.787  1.00  0.00     0.174 HD
ATOM     32  H81 UNL     1      -5.033  -1.339   1.117  1.00  0.00     0.174 HD
ENDBRANCH   9  30
TORSDOF 7
