REMARK  8 active torsions:
REMARK  status: ('A' for Active; 'I' for Inactive)
REMARK    1  A    between atoms: C2_2  and  C4_4 
REMARK    2  A    between atoms: C4_4  and  C5_6 
REMARK    3  A    between atoms: C5_6  and  C6_7 
REMARK    4  A    between atoms: C6_7  and  C7_8 
REMARK    5  A    between atoms: C7_8  and  C9_10 
REMARK    6  A    between atoms: C10_11  and  O2_12 
REMARK    7  A    between atoms: C21_24  and  O3_25 
REMARK    8  A    between atoms: C22_27  and  C24_29 
ROOT
HETATM    1  C9  UNL     1       2.144  -0.665  -1.400  1.00  0.00     0.026 C 
HETATM    2  C10 UNL     1       2.227   0.825  -1.132  1.00  0.00     0.123 C 
HETATM    3  C11 UNL     1       1.042   1.160  -0.263  1.00  0.00     0.038 C 
HETATM    4  C12 UNL     1       0.358  -0.168   0.102  1.00  0.00     0.001 C 
HETATM    5  C13 UNL     1      -1.088   0.052   0.368  1.00  0.00    -0.005 C 
HETATM    6  C14 UNL     1      -1.468   1.462   0.053  1.00  0.00     0.006 C 
HETATM    7  C15 UNL     1      -2.884   1.668   0.634  1.00  0.00     0.007 C 
HETATM    8  C16 UNL     1      -3.881   0.875  -0.131  1.00  0.00     0.013 C 
HETATM    9  C17 UNL     1      -3.484  -0.574  -0.162  1.00  0.00    -0.035 C 
HETATM   10  C18 UNL     1      -4.091  -1.352  -1.335  1.00  0.00     0.016 C 
HETATM   11  C19 UNL     1      -3.980  -1.296   1.066  1.00  0.00     0.012 C 
HETATM   12  C20 UNL     1      -4.534  -0.518   2.172  1.00  0.00     0.034 C 
HETATM   13  C21 UNL     1      -5.313   0.712   1.871  1.00  0.00     0.135 C 
HETATM   14  C22 UNL     1      -5.244   1.123   0.413  1.00  0.00     0.084 C 
HETATM   15  C23 UNL     1      -6.332   0.245  -0.251  1.00  0.00     0.027 C 
HETATM   16  C25 UNL     1      -2.005  -0.816  -0.410  1.00  0.00    -0.002 C 
HETATM   17  C26 UNL     1      -1.609  -0.741  -1.840  1.00  0.00     0.006 C 
HETATM   18  C27 UNL     1      -0.180  -0.460  -2.153  1.00  0.00     0.010 C 
HETATM   19  C28 UNL     1       0.753  -1.007  -1.043  1.00  0.00    -0.034 C 
HETATM   20  C29 UNL     1       0.459  -2.467  -1.040  1.00  0.00     0.016 C 
ENDROOT
BRANCH   1  21
HETATM   21  C7  UNL     1       3.296  -1.280  -0.783  1.00  0.00    -0.011 C 
HETATM   22  C8  UNL     1       3.501  -2.721  -0.639  1.00  0.00     0.010 C 
BRANCH  21  23
HETATM   23  C6  UNL     1       4.532  -0.682  -1.439  1.00  0.00     0.012 C 
BRANCH  23  24
HETATM   24  C5  UNL     1       5.799  -0.841  -0.706  1.00  0.00     0.079 C 
BRANCH  24  25
HETATM   25  C4  UNL     1       5.884  -0.246   0.633  1.00  0.00     0.130 C 
HETATM   26  O1  UNL     1       5.474  -0.900   1.576  1.00  0.00    -0.298 OA
BRANCH  25  27
HETATM   27  C2  UNL     1       6.436   1.102   0.920  1.00  0.00     0.047 C 
HETATM   28  C1  UNL     1       7.870   1.253   0.505  1.00  0.00     0.017 C 
HETATM   29  C3  UNL     1       6.287   1.440   2.370  1.00  0.00     0.017 C 
ENDBRANCH  25  27
ENDBRANCH  24  25
ENDBRANCH  23  24
ENDBRANCH  21  23
ENDBRANCH   1  21
BRANCH   2  30
HETATM   30  O2  UNL     1       2.347   1.596  -2.253  1.00  0.00    -0.395 OA
ATOM     31  H2  UNL     1       2.399   2.530  -2.085  1.00  0.00     0.210 HD
ENDBRANCH   2  30
BRANCH  14  32
HETATM   32  C24 UNL     1      -5.730   2.503   0.161  1.00  0.00     0.397 C 
HETATM   33  F1  UNL     1      -5.079   3.565   0.656  1.00  0.00    -0.170 F 
HETATM   34  F2  UNL     1      -5.933   2.615  -1.237  1.00  0.00    -0.170 F 
HETATM   35  F3  UNL     1      -7.053   2.692   0.622  1.00  0.00    -0.170 F 
ENDBRANCH  14  32
BRANCH  13  36
HETATM   36  O3  UNL     1      -4.911   1.696   2.761  1.00  0.00    -0.394 OA
ATOM     37  H3  UNL     1      -5.409   2.482   2.569  1.00  0.00     0.210 HD
ENDBRANCH  13  36
TORSDOF 8
