REMARK  11 active torsions:
REMARK  status: ('A' for Active; 'I' for Inactive)
REMARK    1  A    between atoms: C4_4  and  N1_5 
REMARK    2  A    between atoms: N1_5  and  C5_7 
REMARK    3  A    between atoms: C5_7  and  C6_8 
REMARK    4  A    between atoms: C6_8  and  N2_9 
REMARK    5  A    between atoms: N2_9  and  C7_12 
REMARK    6  A    between atoms: C7_12  and  C8_13 
REMARK    7  A    between atoms: C8_13  and  O1_14 
REMARK    8  A    between atoms: C9_18  and  N4_19 
REMARK    9  A    between atoms: N4_19  and  C10_21 
REMARK   10  A    between atoms: C10_21  and  C11_22 
REMARK   11  A    between atoms: C11_22  and  C12_23 
ROOT
HETATM    1  C1  UNL     1       0.941  -1.523   3.108  1.00  0.00     0.069 C 
HETATM    2  C2  UNL     1       0.756  -1.193   1.691  1.00  0.00     0.026 A 
HETATM    3  C3  UNL     1       1.863  -1.019   0.883  1.00  0.00     0.073 A 
HETATM    4  C4  UNL     1       1.680  -0.709  -0.438  1.00  0.00     0.118 A 
HETATM    5  N3  UNL     1       0.436  -0.581  -0.918  1.00  0.00    -0.177 N 
ATOM      6  H3  UNL     1       0.313  -0.350  -1.904  1.00  0.00     0.185 HD
HETATM    7  C9  UNL     1      -0.678  -0.747  -0.139  1.00  0.00     0.679 A 
HETATM    8  N5  UNL     1      -0.486  -1.050   1.150  1.00  0.00    -0.196 N 
ATOM      9  H5  UNL     1      -1.300  -1.179   1.750  1.00  0.00     0.184 HD
ENDROOT
BRANCH   4  10
HETATM   10  N1  UNL     1       2.655  -0.525  -1.265  1.00  0.00    -0.374 N 
ATOM     11  H1  UNL     1       2.406  -0.298  -2.228  1.00  0.00     0.161 HD
BRANCH  10  12
HETATM   12  C5  UNL     1       4.051  -0.609  -0.961  1.00  0.00     0.148 C 
BRANCH  12  13
HETATM   13  C6  UNL     1       4.759   0.335  -1.934  1.00  0.00     0.251 C 
BRANCH  13  14
HETATM   14  N2  UNL     1       6.164   0.304  -1.712  1.00  0.00    -0.072 N 
ATOM     15  H22 UNL     1       6.540  -0.641  -1.796  1.00  0.00     0.277 HD
ATOM     16  H21 UNL     1       6.678   0.742  -2.477  1.00  0.00     0.277 HD
BRANCH  14  17
HETATM   17  C7  UNL     1       6.492   0.899  -0.437  1.00  0.00     0.258 C 
BRANCH  17  18
HETATM   18  C8  UNL     1       8.029   0.860  -0.357  1.00  0.00     0.191 C 
BRANCH  18  19
HETATM   19  O1  UNL     1       8.380  -0.476  -0.438  1.00  0.00    -0.399 OA
ATOM     20  H1  UNL     1       9.328  -0.500  -0.389  1.00  0.00     0.209 HD
ENDBRANCH  18  19
ENDBRANCH  17  18
ENDBRANCH  14  17
ENDBRANCH  13  14
ENDBRANCH  12  13
ENDBRANCH  10  12
ENDBRANCH   4  10
BRANCH   7  21
HETATM   21  N4  UNL     1      -1.825  -0.606  -0.689  1.00  0.00    -0.226 N 
ATOM     22  H4  UNL     1      -1.793  -0.376  -1.682  1.00  0.00     0.177 HD
BRANCH  21  23
HETATM   23  C10 UNL     1      -3.125  -0.715  -0.154  1.00  0.00     0.138 C 
BRANCH  23  24
HETATM   24  C11 UNL     1      -3.837   0.619  -0.037  1.00  0.00     0.025 C 
BRANCH  24  25
HETATM   25  C12 UNL     1      -5.222   0.396   0.554  1.00  0.00    -0.013 C 
HETATM   26  C13 UNL     1      -5.917   1.716   0.691  1.00  0.00     0.005 C 
HETATM   27  C14 UNL     1      -6.682   1.876  -0.601  1.00  0.00     0.000 C 
HETATM   28  C15 UNL     1      -7.150   0.450  -0.865  1.00  0.00     0.000 C 
HETATM   29  C16 UNL     1      -6.071  -0.430  -0.332  1.00  0.00     0.005 C 
ENDBRANCH  24  25
ENDBRANCH  23  24
ENDBRANCH  21  23
ENDBRANCH   7  21
TORSDOF 11
