REMARK  5 active torsions:
REMARK  status: ('A' for Active; 'I' for Inactive)
REMARK    1  A    between atoms: C2_2  and  N1_3 
REMARK    2  A    between atoms: C2_2  and  C3_6 
REMARK    3  A    between atoms: C4_7  and  O1_8 
REMARK    4  A    between atoms: C5_12  and  N3_13 
REMARK    5  A    between atoms: N3_13  and  C6_15 
ROOT
HETATM    1  C3  UNL     1      -1.826  -0.185   0.101  1.00  0.00     0.105 A 
HETATM    2  C4  UNL     1      -0.803  -0.111   1.010  1.00  0.00     0.173 A 
HETATM    3  N2  UNL     1       0.494  -0.035   0.642  1.00  0.00    -0.169 N 
ATOM      4  H2  UNL     1       1.221   0.018   1.356  1.00  0.00     0.186 HD
HETATM    5  C5  UNL     1       0.832  -0.029  -0.650  1.00  0.00     0.691 A 
HETATM    6  N7  UNL     1      -0.118  -0.099  -1.581  1.00  0.00    -0.151 N 
HETATM    7  C7  UNL     1       0.291  -0.090  -2.986  1.00  0.00     0.179 C 
HETATM    8  C8  UNL     1      -1.432  -0.177  -1.235  1.00  0.00     0.278 A 
HETATM    9  O2  UNL     1      -2.266  -0.239  -2.146  1.00  0.00    -0.266 OA
ENDROOT
BRANCH   5  10
HETATM   10  N3  UNL     1       2.095   0.046  -0.938  1.00  0.00    -0.167 N 
ATOM     11  H3  UNL     1       2.378   0.052  -1.918  1.00  0.00     0.186 HD
BRANCH  10  12
HETATM   12  C6  UNL     1       3.098   0.120   0.067  1.00  0.00     0.193 C 
HETATM   13  N4  UNL     1       3.612   1.110   0.666  1.00  0.00    -0.266 N 
HETATM   14  N5  UNL     1       4.566   0.907   1.597  1.00  0.00    -0.233 N 
ATOM     15  H4  UNL     1       3.306   2.057   0.445  1.00  0.00     0.190 HD
HETATM   16  N6  UNL     1       5.232  -0.320   1.553  1.00  0.00    -0.043 NA
ATOM     17  H5  UNL     1       4.790   1.614   2.298  1.00  0.00     0.204 HD
HETATM   18  S1  UNL     1       3.947  -1.300   0.775  1.00  0.00     0.040 SA
ENDBRANCH  10  12
ENDBRANCH   5  10
BRANCH   2  19
HETATM   19  O1  UNL     1      -1.085  -0.112   2.369  1.00  0.00    -0.345 OA
ATOM     20  H1  UNL     1      -0.376  -0.061   2.999  1.00  0.00     0.219 HD
ENDBRANCH   2  19
BRANCH   1  21
HETATM   21  C2  UNL     1      -3.228  -0.268   0.481  1.00  0.00     0.019 C 
HETATM   22  C1  UNL     1      -4.258  -0.344  -0.611  1.00  0.00     0.068 C 
BRANCH  21  23
HETATM   23  N1  UNL     1      -3.630  -0.278   1.664  1.00  0.00    -0.402 N 
ATOM     24  H12 UNL     1      -4.613  -0.336   1.930  1.00  0.00     0.156 HD
ATOM     25  H11 UNL     1      -2.931  -0.226   2.405  1.00  0.00     0.156 HD
ENDBRANCH  21  23
ENDBRANCH   1  21
TORSDOF 5
