REMARK  10 active torsions:
REMARK  status: ('A' for Active; 'I' for Inactive)
REMARK    1  A    between atoms: C2_2  and  O1_3 
REMARK    2  A    between atoms: O1_3  and  C3_4 
REMARK    3  A    between atoms: C3_4  and  O3_6 
REMARK    4  A    between atoms: O3_6  and  C4_7 
REMARK    5  A    between atoms: C5_8  and  C6_9 
REMARK    6  A    between atoms: N1_23  and  C18_24 
REMARK    7  A    between atoms: C18_24  and  C19_25 
REMARK    8  A    between atoms: C19_25  and  N2_26 
REMARK    9  A    between atoms: N2_26  and  C20_27 
REMARK   10  A    between atoms: N2_26  and  C22_29 
ROOT
HETATM    1  C6  UNL     1       1.949  -1.042  -1.570  1.00  0.00     0.107 C 
HETATM    2  C7  UNL     1       3.020  -0.863  -2.666  1.00  0.00     0.053 C 
HETATM    3  O4  UNL     1       2.237  -2.232  -0.865  1.00  0.00    -0.335 OA
HETATM    4  C8  UNL     1       1.464  -3.252  -1.406  1.00  0.00     0.181 C 
HETATM    5  C9  UNL     1       2.403  -3.886  -2.462  1.00  0.00     0.084 C 
HETATM    6  C10 UNL     1       1.122  -4.297  -0.408  1.00  0.00     0.041 C 
HETATM    7  C11 UNL     1       0.049  -4.615   0.245  1.00  0.00     0.009 C 
HETATM    8  C12 UNL     1      -1.342  -4.107   0.320  1.00  0.00    -0.049 C 
HETATM    9  C13 UNL     1      -2.025  -3.806  -0.951  1.00  0.00    -0.017 C 
HETATM   10  C14 UNL     1      -1.948  -2.493  -1.585  1.00  0.00     0.053 C 
HETATM   11  C15 UNL     1      -1.213  -1.417  -0.841  1.00  0.00     0.093 C 
HETATM   12  C16 UNL     1      -0.526  -0.474  -1.710  1.00  0.00     0.061 C 
HETATM   13  C17 UNL     1       0.670  -1.292  -2.266  1.00  0.00     0.165 C 
HETATM   14  O5  UNL     1       0.498  -2.651  -2.092  1.00  0.00    -0.343 OA
HETATM   15  N1  UNL     1      -2.105  -1.039   0.222  1.00  0.00    -0.345 N 
HETATM   16  C24 UNL     1      -2.375  -1.985   1.274  1.00  0.00     0.228 C 
HETATM   17  O6  UNL     1      -3.299  -1.645   2.062  1.00  0.00    -0.273 OA
HETATM   18  C25 UNL     1      -1.690  -3.307   1.535  1.00  0.00     0.106 C 
HETATM   19  C26 UNL     1      -0.455  -3.072   2.396  1.00  0.00     0.025 C 
ENDROOT
BRANCH   1  20
HETATM   20  C5  UNL     1       2.029   0.116  -0.686  1.00  0.00     0.038 C 
HETATM   21  C4  UNL     1       2.242   1.370  -0.968  1.00  0.00     0.147 C 
BRANCH  21  22
HETATM   22  O3  UNL     1       2.287   2.360   0.036  1.00  0.00    -0.268 OA
BRANCH  22  23
HETATM   23  C3  UNL     1       3.514   2.622   0.642  1.00  0.00     0.410 C 
HETATM   24  O2  UNL     1       4.503   1.953   0.247  1.00  0.00    -0.229 OA
BRANCH  23  25
HETATM   25  O1  UNL     1       3.723   3.547   1.633  1.00  0.00    -0.298 OA
BRANCH  25  26
HETATM   26  C2  UNL     1       5.016   3.748   2.201  1.00  0.00     0.176 C 
HETATM   27  C1  UNL     1       5.009   4.799   3.266  1.00  0.00     0.034 C 
ENDBRANCH  25  26
ENDBRANCH  23  25
ENDBRANCH  22  23
ENDBRANCH  21  22
ENDBRANCH   1  20
BRANCH  15  28
HETATM   28  C18 UNL     1      -2.762   0.221   0.244  1.00  0.00     0.156 C 
BRANCH  28  29
HETATM   29  C19 UNL     1      -2.067   1.302   1.020  1.00  0.00     0.292 C 
BRANCH  29  30
HETATM   30  N2  UNL     1      -2.960   2.523   0.890  1.00  0.00     0.089 N 
BRANCH  30  31
HETATM   31  C20 UNL     1      -2.398   3.419   1.932  1.00  0.00     0.268 C 
HETATM   32  C21 UNL     1      -3.332   4.567   2.143  1.00  0.00     0.037 C 
ENDBRANCH  30  31
BRANCH  30  33
HETATM   33  C22 UNL     1      -2.569   3.102  -0.426  1.00  0.00     0.268 C 
HETATM   34  C23 UNL     1      -3.592   4.116  -0.837  1.00  0.00     0.037 C 
ENDBRANCH  30  33
ENDBRANCH  29  30
ENDBRANCH  28  29
ENDBRANCH  15  28
TORSDOF 10
