REMARK  4 active torsions:
REMARK  status: ('A' for Active; 'I' for Inactive)
REMARK    1  A    between atoms: C3_6  and  S1_7 
REMARK    2  A    between atoms: S1_7  and  C4_8 
REMARK    3  A    between atoms: C4_8  and  C5_9 
REMARK    4  A    between atoms: C8_13  and  C9_14 
ROOT
HETATM    1  C5  UNL     1      -0.622  -0.526   0.870  1.00  0.00     0.021 A 
HETATM    2  C6  UNL     1      -1.127  -0.396   2.147  1.00  0.00     0.052 A 
HETATM    3  C7  UNL     1      -2.478  -0.180   1.971  1.00  0.00     0.065 A 
HETATM    4 CL1  UNL     1      -3.618   0.056   3.279  1.00  0.00    -0.082 Cl
HETATM    5  C8  UNL     1      -2.773  -0.182   0.622  1.00  0.00     0.088 A 
HETATM    6  N2  UNL     1      -1.625  -0.395  -0.016  1.00  0.00    -0.355 N 
ATOM      7  H2  UNL     1      -1.521  -0.451  -1.029  1.00  0.00     0.166 HD
ENDROOT
BRANCH   1   8
HETATM    8  C4  UNL     1       0.809  -0.773   0.562  1.00  0.00     0.136 C 
BRANCH   8   9
HETATM    9  S1  UNL     1       1.641   0.837   0.380  1.00  0.00    -0.117 SA
BRANCH   9  10
HETATM   10  C3  UNL     1       3.382   0.555   0.006  1.00  0.00     0.084 A 
HETATM   11  C2  UNL     1       3.800   0.445  -1.297  1.00  0.00     0.117 A 
HETATM   12  N1  UNL     1       5.080   0.239  -1.568  1.00  0.00    -0.317 N 
HETATM   13  C1  UNL     1       5.976   0.136  -0.570  1.00  0.00     0.327 A 
ATOM     14  H1  UNL     1       5.387   0.158  -2.537  1.00  0.00     0.170 HD
HETATM   15  O1  UNL     1       7.196  -0.059  -0.793  1.00  0.00    -0.247 OA
HETATM   16  N3  UNL     1       5.581   0.242   0.717  1.00  0.00    -0.274 N 
HETATM   17  C13 UNL     1       4.291   0.452   1.032  1.00  0.00     0.267 A 
ATOM     18  H3  UNL     1       6.273   0.161   1.462  1.00  0.00     0.173 HD
HETATM   19  O3  UNL     1       3.917   0.552   2.240  1.00  0.00    -0.267 OA
ENDBRANCH   9  10
ENDBRANCH   8   9
ENDBRANCH   1   8
BRANCH   5  20
HETATM   20  C9  UNL     1      -4.117   0.016   0.040  1.00  0.00     0.107 A 
HETATM   21  C10 UNL     1      -4.436   0.019  -1.283  1.00  0.00     0.067 A 
HETATM   22  C11 UNL     1      -5.801   0.241  -1.342  1.00  0.00     0.082 A 
HETATM   23 CL2  UNL     1      -6.825   0.356  -2.763  1.00  0.00    -0.080 Cl
HETATM   24  C12 UNL     1      -6.251   0.364  -0.043  1.00  0.00     0.167 A 
HETATM   25 CL3  UNL     1      -7.880   0.652   0.520  1.00  0.00    -0.055 Cl
HETATM   26  O2  UNL     1      -5.216   0.223   0.724  1.00  0.00    -0.294 OA
ENDBRANCH   5  20
TORSDOF 4
