REMARK  5 active torsions:
REMARK  status: ('A' for Active; 'I' for Inactive)
REMARK    1  A    between atoms: N1_1  and  C1_4 
REMARK    2  A    between atoms: C4_9  and  C5_10 
REMARK    3  A    between atoms: C8_13  and  N3_14 
REMARK       I    between atoms: N3_14  and  C9_16 
REMARK    4  A    between atoms: C9_16  and  C10_18 
REMARK    5  A    between atoms: C10_18  and  C11_19 
ROOT
HETATM    1  C5  UNL     1      -0.794   0.755   0.712  1.00  0.00     0.019 C 
HETATM    2  C6  UNL     1      -0.282  -0.676   0.924  1.00  0.00     0.011 C 
HETATM    3  C7  UNL     1       1.158  -0.531   1.360  1.00  0.00     0.026 C 
HETATM    4  C8  UNL     1       1.939   0.014   0.184  1.00  0.00     0.084 C 
HETATM    5  C12 UNL     1       1.363   1.312  -0.322  1.00  0.00     0.026 C 
HETATM    6  C13 UNL     1      -0.113   1.266  -0.530  1.00  0.00     0.011 C 
ENDROOT
BRANCH   1   7
HETATM    7  C4  UNL     1      -2.258   0.658   0.569  1.00  0.00    -0.052 A 
HETATM    8  C3  UNL     1      -2.876  -0.058  -0.406  1.00  0.00     0.040 A 
HETATM    9  C2  UNL     1      -4.260  -0.141  -0.529  1.00  0.00     0.070 A 
HETATM   10  N2  UNL     1      -5.097  -0.760  -1.375  1.00  0.00    -0.320 N 
HETATM   11  C16 UNL     1      -5.027   0.544   0.393  1.00  0.00     0.106 A 
HETATM   12  C1  UNL     1      -6.350  -0.475  -0.998  1.00  0.00     0.223 A 
ATOM     13  H2  UNL     1      -4.827  -1.345  -2.166  1.00  0.00     0.169 HD
HETATM   14  O2  UNL     1      -6.281   0.300   0.052  1.00  0.00    -0.277 OA
HETATM   15  C15 UNL     1      -4.432   1.291   1.409  1.00  0.00     0.040 A 
HETATM   16  C14 UNL     1      -3.044   1.333   1.477  1.00  0.00     0.010 A 
BRANCH  12  17
HETATM   17  N1  UNL     1      -7.463  -0.858  -1.526  1.00  0.00    -0.365 N 
ATOM     18  H12 UNL     1      -7.517  -1.463  -2.346  1.00  0.00     0.159 HD
ATOM     19  H11 UNL     1      -8.417  -0.641  -1.239  1.00  0.00     0.159 HD
ENDBRANCH  12  17
ENDBRANCH   1   7
BRANCH   4  20
HETATM   20  N3  UNL     1       3.331   0.150   0.517  1.00  0.00    -0.356 N 
HETATM   21  C9  UNL     1       4.326  -0.591  -0.159  1.00  0.00     0.222 C 
HETATM   22  O1  UNL     1       4.009  -1.385  -1.067  1.00  0.00    -0.273 OA
ATOM     23  H3  UNL     1       3.606   0.795   1.257  1.00  0.00     0.162 HD
BRANCH  21  24
HETATM   24  C10 UNL     1       5.751  -0.442   0.192  1.00  0.00     0.161 C 
BRANCH  24  25
HETATM   25  C11 UNL     1       6.629  -1.346  -0.677  1.00  0.00     0.196 C 
HETATM   26 CL1  UNL     1       8.339  -1.149  -0.235  1.00  0.00    -0.083 Cl
HETATM   27 CL2  UNL     1       6.211  -3.065  -0.382  1.00  0.00    -0.083 Cl
HETATM   28 CL3  UNL     1       6.398  -0.908  -2.377  1.00  0.00    -0.083 Cl
ENDBRANCH  24  25
ENDBRANCH  21  24
ENDBRANCH   4  20
TORSDOF 5
