REMARK  7 active torsions:
REMARK  status: ('A' for Active; 'I' for Inactive)
REMARK    1  A    between atoms: N1_1  and  C1_4 
REMARK    2  A    between atoms: C5_13  and  C6_14 
REMARK       I    between atoms: C6_14  and  N4_16 
REMARK    3  A    between atoms: N4_16  and  C7_18 
REMARK    4  A    between atoms: C11_22  and  C12_23 
REMARK    5  A    between atoms: C12_23  and  N5_24 
REMARK    6  A    between atoms: N5_24  and  C13_26 
REMARK    7  A    between atoms: C16_29  and  N6_30 
ROOT
HETATM    1  C7  UNL     1      -1.081  -1.699   0.493  1.00  0.00     0.084 C 
HETATM    2  C8  UNL     1      -1.320  -1.669   1.960  1.00  0.00     0.025 C 
HETATM    3  C9  UNL     1      -0.696  -0.508   2.680  1.00  0.00     0.002 C 
HETATM    4  C10 UNL     1       0.741  -0.305   2.263  1.00  0.00     0.006 C 
HETATM    5  C11 UNL     1       0.650   0.098   0.785  1.00  0.00     0.005 C 
HETATM    6  C19 UNL     1       0.194  -1.083   0.021  1.00  0.00     0.031 C 
ENDROOT
BRANCH   1   7
HETATM    7  N4  UNL     1      -2.198  -1.074  -0.189  1.00  0.00    -0.356 N 
HETATM    8  C6  UNL     1      -3.065  -1.735  -1.065  1.00  0.00     0.226 C 
HETATM    9  O2  UNL     1      -2.841  -2.978  -1.267  1.00  0.00    -0.273 OA
ATOM     10  H4  UNL     1      -2.363  -0.082  -0.018  1.00  0.00     0.162 HD
BRANCH   8  11
HETATM   11  C5  UNL     1      -4.198  -1.127  -1.764  1.00  0.00     0.118 C 
HETATM   12  C3  UNL     1      -5.177  -0.575  -0.794  1.00  0.00     0.047 A 
HETATM   13  C2  UNL     1      -5.744   0.557  -1.337  1.00  0.00     0.039 A 
HETATM   14  C4  UNL     1      -5.587  -0.965   0.461  1.00  0.00     0.268 A 
HETATM   15  N2  UNL     1      -6.672   1.230  -0.619  1.00  0.00    -0.195 N 
HETATM   16  C21 UNL     1      -5.162   0.806  -2.701  1.00  0.00     0.059 C 
HETATM   17  C1  UNL     1      -7.053   0.817   0.615  1.00  0.00     0.679 A 
ATOM     18  H2  UNL     1      -7.096   2.069  -1.016  1.00  0.00     0.184 HD
HETATM   19  N3  UNL     1      -6.518  -0.272   1.157  1.00  0.00    -0.156 N 
ATOM     20  H3  UNL     1      -6.805  -0.582   2.085  1.00  0.00     0.187 HD
HETATM   21  C20 UNL     1      -3.822   0.104  -2.572  1.00  0.00     0.025 C 
HETATM   22  O1  UNL     1      -5.114  -1.995   1.032  1.00  0.00    -0.267 OA
BRANCH  17  23
HETATM   23  N1  UNL     1      -7.938   1.454   1.308  1.00  0.00    -0.234 N 
ATOM     24  H12 UNL     1      -8.349   2.290   0.892  1.00  0.00     0.174 HD
ATOM     25  H11 UNL     1      -8.225   1.143   2.236  1.00  0.00     0.174 HD
ENDBRANCH  17  23
ENDBRANCH   8  11
ENDBRANCH   1   7
BRANCH   5  26
HETATM   26  C12 UNL     1       1.974   0.638   0.378  1.00  0.00     0.118 C 
BRANCH  26  27
HETATM   27  N5  UNL     1       3.025  -0.302   0.537  1.00  0.00    -0.417 N 
ATOM     28  H5  UNL     1       2.846  -1.249   0.872  1.00  0.00     0.153 HD
BRANCH  27  29
HETATM   29  C13 UNL     1       4.337   0.132   0.209  1.00  0.00     0.076 C 
HETATM   30  C14 UNL     1       4.425   0.486  -1.244  1.00  0.00     0.027 C 
HETATM   31  C15 UNL     1       5.804   0.879  -1.680  1.00  0.00     0.035 C 
HETATM   32  C16 UNL     1       6.800   1.012  -0.581  1.00  0.00     0.183 C 
HETATM   33  C17 UNL     1       6.298   1.440   0.738  1.00  0.00     0.035 C 
HETATM   34  C18 UNL     1       4.826   1.341   0.967  1.00  0.00     0.027 C 
BRANCH  32  35
HETATM   35  N6  UNL     1       7.515  -0.264  -0.429  1.00  0.00    -0.075 N 
ATOM     36  H63 UNL     1       6.881  -1.050  -0.287  1.00  0.00     0.274 HD
ATOM     37  H62 UNL     1       7.939  -0.579  -1.302  1.00  0.00     0.274 HD
ATOM     38  H61 UNL     1       8.197  -0.173   0.324  1.00  0.00     0.274 HD
ENDBRANCH  32  35
ENDBRANCH  27  29
ENDBRANCH  26  27
ENDBRANCH   5  26
TORSDOF 7
