REMARK  18 active torsions:
REMARK  status: ('A' for Active; 'I' for Inactive)
REMARK    1  A    between atoms: O1_2  and  C2_3 
REMARK    2  A    between atoms: C2_3  and  C3_5 
REMARK    3  A    between atoms: N1_7  and  C5_8 
REMARK    4  A    between atoms: C5_8  and  C6_9 
REMARK    5  A    between atoms: C6_9  and  O3_10 
REMARK    6  A    between atoms: C6_9  and  N2_12 
REMARK    7  A    between atoms: N2_12  and  C7_13 
REMARK    8  A    between atoms: N2_12  and  C9_17 
REMARK    9  A    between atoms: C7_13  and  C8_14 
REMARK   10  A    between atoms: C8_14  and  O4_15 
REMARK   11  A    between atoms: C9_17  and  C10_18 
REMARK   12  A    between atoms: C10_18  and  N3_19 
REMARK   13  A    between atoms: N4_22  and  C13_23 
REMARK   14  A    between atoms: C13_23  and  C14_24 
REMARK   15  A    between atoms: N6_28  and  C16_29 
REMARK   16  A    between atoms: C16_29  and  C17_30 
REMARK   17  A    between atoms: C17_30  and  C18_31 
REMARK   18  A    between atoms: C18_31  and  N7_32 
ROOT
HETATM    1  N3  UNL     1       2.375  -1.577  -1.262  1.00  0.00     0.096 N 
HETATM    2  C11 UNL     1       1.432  -1.901  -2.323  1.00  0.00     0.292 C 
HETATM    3  C12 UNL     1       0.511  -0.783  -2.623  1.00  0.00     0.152 C 
HETATM    4  N4  UNL     1      -0.114  -0.150  -1.481  1.00  0.00    -0.386 N 
HETATM    5  C26 UNL     1       0.681  -0.007  -0.329  1.00  0.00     0.088 C 
HETATM    6  C27 UNL     1       1.719  -1.048  -0.126  1.00  0.00     0.317 C 
ENDROOT
BRANCH   1   7
HETATM    7  C10 UNL     1       3.424  -0.761  -1.837  1.00  0.00     0.292 C 
BRANCH   7   8
HETATM    8  C9  UNL     1       4.494  -0.420  -0.876  1.00  0.00     0.149 C 
BRANCH   8   9
HETATM    9  N2  UNL     1       5.538   0.404  -1.495  1.00  0.00    -0.383 N 
BRANCH   9  10
HETATM   10  C6  UNL     1       6.293  -0.246  -2.449  1.00  0.00     0.235 C 
BRANCH  10  11
HETATM   11  C5  UNL     1       7.271  -1.293  -2.217  1.00  0.00     0.203 C 
BRANCH  11  12
HETATM   12  N1  UNL     1       8.528  -0.996  -1.574  1.00  0.00    -0.282 N 
HETATM   13  C4  UNL     1       8.855  -1.093  -0.276  1.00  0.00     0.149 A 
HETATM   14  C3  UNL     1      10.159  -0.713  -0.085  1.00  0.00     0.141 A 
HETATM   15  N10 UNL     1      10.593  -0.388  -1.310  1.00  0.00    -0.279 N 
HETATM   16  N9  UNL     1       9.637  -0.553  -2.185  1.00  0.00    -0.240 N 
ATOM     17  H10 UNL     1      11.534  -0.059  -1.528  1.00  0.00     0.189 HD
ATOM     18  H9  UNL     1       9.721  -0.372  -3.185  1.00  0.00     0.208 HD
BRANCH  14  19
HETATM   19  C2  UNL     1      10.933  -0.672   1.158  1.00  0.00     0.312 C 
HETATM   20  O2  UNL     1      12.127  -0.288   1.141  1.00  0.00    -0.258 OA
BRANCH  19  21
HETATM   21  O1  UNL     1      10.384  -1.048   2.368  1.00  0.00    -0.321 OA
HETATM   22  C1  UNL     1      11.045  -1.047   3.603  1.00  0.00     0.213 C 
ENDBRANCH  19  21
ENDBRANCH  14  19
ENDBRANCH  11  12
ENDBRANCH  10  11
BRANCH  10  23
HETATM   23  O3  UNL     1       6.921   0.738  -3.265  1.00  0.00    -0.375 OA
ATOM     24  H3  UNL     1       6.281   1.423  -3.417  1.00  0.00     0.212 HD
ENDBRANCH  10  23
ENDBRANCH   9  10
BRANCH   9  25
HETATM   25  C7  UNL     1       6.101   1.252  -0.514  1.00  0.00     0.145 C 
BRANCH  25  26
HETATM   26  C8  UNL     1       6.735   2.523  -1.022  1.00  0.00     0.183 C 
BRANCH  26  27
HETATM   27  O4  UNL     1       7.247   3.271   0.067  1.00  0.00    -0.399 OA
ATOM     28  H4  UNL     1       7.646   4.071  -0.253  1.00  0.00     0.209 HD
ENDBRANCH  26  27
ENDBRANCH  25  26
ENDBRANCH   9  25
ENDBRANCH   8   9
ENDBRANCH   7   8
ENDBRANCH   1   7
BRANCH   4  29
HETATM   29  C13 UNL     1      -1.475  -0.505  -1.337  1.00  0.00     0.163 C 
BRANCH  29  30
HETATM   30  C14 UNL     1      -2.205   0.261  -0.323  1.00  0.00    -0.006 A 
HETATM   31  C15 UNL     1      -1.974   1.518   0.165  1.00  0.00     0.117 A 
HETATM   32  N5  UNL     1      -2.907   1.850   1.065  1.00  0.00    -0.309 N 
HETATM   33  N6  UNL     1      -3.722   0.824   1.152  1.00  0.00    -0.303 N 
ATOM     34  H5  UNL     1      -2.972   2.727   1.582  1.00  0.00     0.186 HD
HETATM   35  C25 UNL     1      -3.352  -0.164   0.342  1.00  0.00     0.120 A 
BRANCH  33  36
HETATM   36  C16 UNL     1      -4.909   0.807   2.020  1.00  0.00     0.150 C 
BRANCH  36  37
HETATM   37  C17 UNL     1      -6.023   1.345   1.128  1.00  0.00     0.052 C 
BRANCH  37  38
HETATM   38  C18 UNL     1      -7.302   1.345   1.911  1.00  0.00     0.274 C 
BRANCH  38  39
HETATM   39  N7  UNL     1      -7.715   0.033   2.335  1.00  0.00     0.090 N 
HETATM   40  C19 UNL     1      -8.904   0.054   3.138  1.00  0.00     0.274 C 
HETATM   41  C20 UNL     1     -10.095  -0.630   2.566  1.00  0.00     0.060 C 
HETATM   42  C21 UNL     1     -10.554  -0.029   1.278  1.00  0.00     0.273 C 
HETATM   43  N8  UNL     1      -9.975  -0.822   0.206  1.00  0.00     0.086 N 
HETATM   44  C22 UNL     1     -10.575  -0.324  -1.044  1.00  0.00     0.309 C 
HETATM   45  C23 UNL     1      -8.552  -0.552   0.072  1.00  0.00     0.302 C 
HETATM   46  C24 UNL     1      -7.757  -0.928   1.270  1.00  0.00     0.302 C 
ENDBRANCH  38  39
ENDBRANCH  37  38
ENDBRANCH  36  37
ENDBRANCH  33  36
ENDBRANCH  29  30
ENDBRANCH   4  29
TORSDOF 18
