REMARK  18 active torsions:
REMARK  status: ('A' for Active; 'I' for Inactive)
REMARK    1  A    between atoms: C2_2  and  C3_3 
REMARK    2  A    between atoms: C3_3  and  N1_4 
REMARK       I    between atoms: N1_4  and  C4_5 
REMARK    3  A    between atoms: N1_4  and  C23_45 
REMARK    4  A    between atoms: C4_5  and  C5_7 
REMARK    5  A    between atoms: C5_7  and  N2_8 
REMARK    6  A    between atoms: C6_13  and  C7_14 
REMARK    7  A    between atoms: C7_14  and  C8_15 
REMARK    8  A    between atoms: C7_14  and  N7_28 
REMARK    9  A    between atoms: C8_15  and  O2_16 
REMARK   10  A    between atoms: C8_15  and  N5_18 
REMARK   11  A    between atoms: N6_21  and  C11_22 
REMARK   12  A    between atoms: C11_22  and  C12_23 
REMARK   13  A    between atoms: C12_23  and  O3_24 
REMARK   14  A    between atoms: N9_32  and  C16_33 
REMARK   15  A    between atoms: C16_33  and  C17_34 
REMARK   16  A    between atoms: C23_45  and  C24_46 
REMARK   17  A    between atoms: C23_45  and  C26_48 
REMARK   18  A    between atoms: C26_48  and  O5_49 
ROOT
HETATM    1  C7  UNL     1       1.213  -0.094   1.118  1.00  0.00     0.257 C 
ENDROOT
BRANCH   1   2
HETATM    2  C6  UNL     1       0.167   0.722   0.500  1.00  0.00     0.146 A 
HETATM    3  N4  UNL     1      -0.011   2.045   0.622  1.00  0.00    -0.270 N 
HETATM    4  N3  UNL     1      -1.059   2.369  -0.093  1.00  0.00    -0.224 N 
ATOM      5  H4  UNL     1       0.565   2.683   1.172  1.00  0.00     0.190 HD
HETATM    6  N2  UNL     1      -1.583   1.293  -0.689  1.00  0.00    -0.209 N 
ATOM      7  H3  UNL     1      -1.427   3.316  -0.183  1.00  0.00     0.210 HD
HETATM    8  N11 UNL     1      -0.824   0.286  -0.319  1.00  0.00    -0.267 N 
ATOM      9  H11 UNL     1      -0.960  -0.683  -0.606  1.00  0.00     0.190 HD
BRANCH   6  10
HETATM   10  C5  UNL     1      -2.737   1.317  -1.587  1.00  0.00     0.274 C 
BRANCH  10  11
HETATM   11  C4  UNL     1      -4.007   1.205  -0.808  1.00  0.00     0.245 C 
HETATM   12  N1  UNL     1      -5.026   0.276  -1.012  1.00  0.00    -0.315 N 
HETATM   13  O1  UNL     1      -4.094   2.072   0.103  1.00  0.00    -0.271 OA
BRANCH  12  14
HETATM   14  C3  UNL     1      -4.776  -0.689  -2.110  1.00  0.00     0.158 C 
BRANCH  14  15
HETATM   15  C2  UNL     1      -4.074  -1.890  -1.741  1.00  0.00    -0.017 C 
HETATM   16  C1  UNL     1      -3.629  -2.183  -0.546  1.00  0.00     0.008 C 
ENDBRANCH  14  15
ENDBRANCH  12  14
BRANCH  12  17
HETATM   17  C23 UNL     1      -6.252   0.231  -0.317  1.00  0.00     0.034 C 
BRANCH  17  18
HETATM   18  C24 UNL     1      -6.368  -0.094   1.106  1.00  0.00    -0.004 C 
HETATM   19  C25 UNL     1      -5.741   0.706   2.162  1.00  0.00     0.038 C 
ENDBRANCH  17  18
BRANCH  17  20
HETATM   20  C26 UNL     1      -7.239   1.343  -0.742  1.00  0.00     0.220 C 
BRANCH  20  21
HETATM   21  O5  UNL     1      -6.777   2.605  -0.532  1.00  0.00    -0.395 OA
ATOM     22  H5  UNL     1      -7.383   3.288  -0.793  1.00  0.00     0.209 HD
ENDBRANCH  20  21
ENDBRANCH  17  20
ENDBRANCH  12  17
ENDBRANCH  10  11
ENDBRANCH   6  10
ENDBRANCH   1   2
BRANCH   1  23
HETATM   23  C8  UNL     1       2.344   0.682   1.670  1.00  0.00     0.147 C 
BRANCH  23  24
HETATM   24  O2  UNL     1       2.486   0.517   2.961  1.00  0.00    -0.347 OA
ATOM     25  H2  UNL     1       3.213   1.016   3.316  1.00  0.00     0.219 HD
ENDBRANCH  23  24
BRANCH  23  26
HETATM   26  N5  UNL     1       3.232   1.527   1.007  1.00  0.00    -0.360 N 
HETATM   27  C9  UNL     1       3.253   1.828  -0.376  1.00  0.00     0.155 C 
HETATM   28  C10 UNL     1       3.512   3.338  -0.557  1.00  0.00     0.292 C 
HETATM   29  N6  UNL     1       4.823   3.679  -0.027  1.00  0.00     0.093 N 
HETATM   30  C13 UNL     1       5.327   2.687   0.869  1.00  0.00     0.292 C 
HETATM   31  C14 UNL     1       4.268   2.189   1.822  1.00  0.00     0.155 C 
BRANCH  29  32
HETATM   32  C11 UNL     1       4.743   4.985   0.576  1.00  0.00     0.298 C 
BRANCH  32  33
HETATM   33  C12 UNL     1       6.038   5.534   1.079  1.00  0.00     0.194 C 
BRANCH  33  34
HETATM   34  O3  UNL     1       5.769   6.803   1.628  1.00  0.00    -0.399 OA
ATOM     35  H3  UNL     1       6.593   7.152   1.948  1.00  0.00     0.209 HD
ENDBRANCH  33  34
ENDBRANCH  32  33
ENDBRANCH  29  32
ENDBRANCH  23  26
ENDBRANCH   1  23
BRANCH   1  36
HETATM   36  N7  UNL     1       1.764  -1.145   0.261  1.00  0.00    -0.221 N 
HETATM   37  N8  UNL     1       2.954  -1.275  -0.268  1.00  0.00    -0.289 N 
HETATM   38  C15 UNL     1       3.059  -2.404  -0.992  1.00  0.00     0.204 A 
ATOM     39  H8  UNL     1       3.710  -0.602  -0.146  1.00  0.00     0.188 HD
HETATM   40  N9  UNL     1       1.869  -3.015  -0.913  1.00  0.00    -0.289 N 
HETATM   41  C22 UNL     1       1.093  -2.251  -0.155  1.00  0.00     0.345 A 
HETATM   42  O4  UNL     1      -0.094  -2.535   0.127  1.00  0.00    -0.245 OA
BRANCH  40  43
HETATM   43  C16 UNL     1       1.618  -4.278  -1.583  1.00  0.00     0.173 C 
BRANCH  43  44
HETATM   44  C17 UNL     1       1.943  -5.438  -0.757  1.00  0.00    -0.037 A 
HETATM   45  C18 UNL     1       1.011  -6.002   0.067  1.00  0.00     0.026 A 
HETATM   46  C19 UNL     1       1.260  -7.098   0.867  1.00  0.00     0.088 A 
HETATM   47  N10 UNL     1       2.478  -7.631   0.829  1.00  0.00    -0.375 N 
HETATM   48  C20 UNL     1       3.423  -7.094   0.022  1.00  0.00     0.088 A 
ATOM     49  H10 UNL     1       2.699  -8.442   1.406  1.00  0.00     0.164 HD
HETATM   50  C21 UNL     1       3.209  -6.001  -0.788  1.00  0.00     0.026 A 
ENDBRANCH  43  44
ENDBRANCH  40  43
ENDBRANCH   1  36
TORSDOF 18
