REMARK  10 active torsions:
REMARK  status: ('A' for Active; 'I' for Inactive)
REMARK    1  A    between atoms: N1_1  and  C1_5 
REMARK    2  A    between atoms: C1_5  and  C2_6 
REMARK    3  A    between atoms: C2_6  and  N2_7 
REMARK    4  A    between atoms: N3_10  and  C5_11 
REMARK    5  A    between atoms: C6_14  and  N5_15 
REMARK       I    between atoms: N5_15  and  C7_17 
REMARK    6  A    between atoms: C7_17  and  C8_19 
REMARK    7  A    between atoms: C8_19  and  N6_20 
REMARK    8  A    between atoms: C8_19  and  C9_24 
REMARK    9  A    between atoms: C9_24  and  O2_25 
REMARK   10  A    between atoms: C10_29  and  N8_30 
ROOT
HETATM    1  C5  UNL     1       0.172   0.237   0.428  1.00  0.00     0.710 A 
HETATM    2  N4  UNL     1      -0.560   1.252   0.885  1.00  0.00    -0.021 N 
ATOM      3  H4  UNL     1      -0.103   2.135   1.114  1.00  0.00     0.203 HD
HETATM    4  C6  UNL     1      -1.895   1.134   1.051  1.00  0.00     0.714 A 
HETATM    5  N7  UNL     1      -2.462  -0.039   0.739  1.00  0.00    -0.021 N 
ATOM      6  H7  UNL     1      -3.470  -0.133   0.862  1.00  0.00     0.203 HD
HETATM    7  C10 UNL     1      -1.769  -1.114   0.267  1.00  0.00     0.716 A 
HETATM    8  N12 UNL     1      -0.458  -0.935   0.125  1.00  0.00    -0.021 N 
ATOM      9  H12 UNL     1       0.103  -1.711  -0.227  1.00  0.00     0.203 HD
ENDROOT
BRANCH   1  10
HETATM   10  N3  UNL     1       1.597   0.355   0.268  1.00  0.00    -0.207 N 
HETATM   11  C4  UNL     1       2.480   0.052   1.402  1.00  0.00     0.186 C 
HETATM   12  C3  UNL     1       3.378  -1.073   0.939  1.00  0.00     0.083 C 
HETATM   13  N2  UNL     1       4.037  -0.821  -0.278  1.00  0.00    -0.369 N 
HETATM   14  C17 UNL     1       3.351  -0.168  -1.300  1.00  0.00     0.083 C 
HETATM   15  C16 UNL     1       2.245   0.760  -0.946  1.00  0.00     0.186 C 
BRANCH  13  16
HETATM   16  C2  UNL     1       5.448  -0.851  -0.282  1.00  0.00     0.154 C 
BRANCH  16  17
HETATM   17  C1  UNL     1       6.068   0.284   0.498  1.00  0.00     0.249 C 
BRANCH  17  18
HETATM   18  N1  UNL     1       7.507   0.154   0.434  1.00  0.00    -0.078 N 
ATOM     19  H13 UNL     1       7.832  -0.760   0.749  1.00  0.00     0.274 HD
ATOM     20  H12 UNL     1       7.853   0.103  -0.524  1.00  0.00     0.274 HD
ATOM     21  H11 UNL     1       7.926   0.921   0.961  1.00  0.00     0.274 HD
ENDBRANCH  17  18
ENDBRANCH  16  17
ENDBRANCH  13  16
ENDBRANCH   1  10
BRANCH   4  22
HETATM   22  N5  UNL     1      -2.631   2.106   1.502  1.00  0.00    -0.157 N 
HETATM   23  C7  UNL     1      -2.186   3.374   1.875  1.00  0.00     0.268 C 
HETATM   24  O1  UNL     1      -2.241   3.813   3.066  1.00  0.00    -0.270 OA
ATOM     25  H5  UNL     1      -3.631   1.924   1.592  1.00  0.00     0.187 HD
BRANCH  23  26
HETATM   26  C8  UNL     1      -1.613   4.280   0.843  1.00  0.00     0.298 C 
BRANCH  26  27
HETATM   27  N6  UNL     1      -1.215   5.548   1.427  1.00  0.00    -0.064 N 
ATOM     28  H63 UNL     1      -1.985   5.989   1.929  1.00  0.00     0.275 HD
ATOM     29  H62 UNL     1      -0.575   5.417   2.210  1.00  0.00     0.275 HD
ATOM     30  H61 UNL     1      -0.822   6.169   0.720  1.00  0.00     0.275 HD
ENDBRANCH  26  27
BRANCH  26  31
HETATM   31  C9  UNL     1      -2.597   4.534  -0.281  1.00  0.00     0.206 C 
BRANCH  31  32
HETATM   32  O2  UNL     1      -3.733   5.177   0.168  1.00  0.00    -0.398 OA
ATOM     33  H2  UNL     1      -4.350   5.336  -0.537  1.00  0.00     0.209 HD
ENDBRANCH  31  32
ENDBRANCH  26  31
ENDBRANCH  23  26
ENDBRANCH   4  22
BRANCH   7  34
HETATM   34  N8  UNL     1      -2.495  -2.305  -0.031  1.00  0.00    -0.150 N 
HETATM   35  C11 UNL     1      -3.972  -2.235   0.075  1.00  0.00     0.178 C 
HETATM   36  C12 UNL     1      -4.654  -3.399  -0.554  1.00  0.00     0.139 A 
HETATM   37  C13 UNL     1      -5.783  -3.142  -1.493  1.00  0.00     0.133 A 
HETATM   38  N9  UNL     1      -3.810  -3.851  -1.686  1.00  0.00    -0.252 N 
HETATM   39  C14 UNL     1      -4.838  -3.500  -2.601  1.00  0.00     0.240 A 
HETATM   40  O3  UNL     1      -4.921  -3.493  -3.871  1.00  0.00    -0.272 OA
HETATM   41  N10 UNL     1      -2.560  -4.339  -1.238  1.00  0.00    -0.268 N 
HETATM   42  C15 UNL     1      -1.918  -3.541  -0.403  1.00  0.00     0.224 C 
ATOM     43  H10 UNL     1      -2.183  -5.238  -1.537  1.00  0.00     0.190 HD
HETATM   44  N11 UNL     1      -0.682  -3.918   0.149  1.00  0.00    -0.061 NA
ENDBRANCH   7  34
TORSDOF 10
