REMARK  5 active torsions:
REMARK  status: ('A' for Active; 'I' for Inactive)
REMARK    1  A    between atoms: O1_1  and  C1_3 
REMARK    2  A    between atoms: C1_3  and  C2_4 
REMARK    3  A    between atoms: C2_4  and  O2_5 
REMARK    4  A    between atoms: C2_4  and  C3_8 
REMARK    5  A    between atoms: C3_8  and  N1_9 
ROOT
HETATM    1  N1  UNL     1      -0.829   0.194   0.016  1.00  0.00    -0.347 N 
HETATM    2  C4  UNL     1      -1.100   0.938   1.099  1.00  0.00     0.093 A 
HETATM    3  C5  UNL     1      -2.025   0.498   2.023  1.00  0.00     0.036 A 
HETATM    4  C6  UNL     1      -2.672  -0.704   1.839  1.00  0.00     0.015 A 
HETATM    5 BR2  UNL     1      -3.942  -1.273   3.141  1.00  0.00    -0.051 Br
HETATM    6  C7  UNL     1      -2.394  -1.470   0.726  1.00  0.00     0.056 A 
HETATM    7  C8  UNL     1      -1.457  -0.976  -0.166  1.00  0.00     0.083 A 
HETATM    8 BR3  UNL     1      -1.121  -2.087  -1.707  1.00  0.00    -0.031 Br
ENDROOT
BRANCH   1   9
HETATM    9  C3  UNL     1       0.133   0.652  -0.929  1.00  0.00     0.181 C 
BRANCH   9  10
HETATM   10  C2  UNL     1       1.546   0.246  -0.643  1.00  0.00     0.152 C 
HETATM   11 BR1  UNL     1       2.166   0.961   1.054  1.00  0.00    -0.051 Br
BRANCH  10  12
HETATM   12  C1  UNL     1       2.491   0.777  -1.701  1.00  0.00     0.215 C 
BRANCH  12  13
HETATM   13  O1  UNL     1       2.257   0.240  -2.953  1.00  0.00    -0.397 OA
ATOM     14  H1  UNL     1       2.850   0.573  -3.617  1.00  0.00     0.209 HD
ENDBRANCH  12  13
ENDBRANCH  10  12
BRANCH  10  15
HETATM   15  O2  UNL     1       1.721  -1.131  -0.576  1.00  0.00    -0.375 OA
ATOM     16  H2  UNL     1       1.128  -1.464   0.088  1.00  0.00     0.211 HD
ENDBRANCH  10  15
ENDBRANCH   9  10
ENDBRANCH   1   9
TORSDOF 5
