REMARK  5 active torsions:
REMARK  status: ('A' for Active; 'I' for Inactive)
REMARK    1  A    between atoms: N2_5  and  C4_6 
REMARK    2  A    between atoms: C4_6  and  C5_7 
REMARK    3  A    between atoms: C5_7  and  N3_8 
REMARK    4  A    between atoms: C5_7  and  C9_13 
REMARK    5  A    between atoms: N3_8  and  C6_10 
ROOT
HETATM    1  C5  UNL     1      -0.986   0.086   0.319  1.00  0.00     0.134 C 
ENDROOT
BRANCH   1   2
HETATM    2  C4  UNL     1       0.059   0.286  -0.757  1.00  0.00     0.299 C 
BRANCH   2   3
HETATM    3  N2  UNL     1       1.211  -0.519  -0.435  1.00  0.00     0.093 N 
HETATM    4  C3  UNL     1       1.948  -0.117   0.709  1.00  0.00     0.302 C 
HETATM    5  C2  UNL     1       3.132  -1.068   0.850  1.00  0.00     0.302 C 
HETATM    6  N1  UNL     1       4.105  -0.667  -0.129  1.00  0.00     0.087 N 
HETATM    7  C1  UNL     1       4.932   0.369   0.453  1.00  0.00     0.310 C 
HETATM    8  C14 UNL     1       3.474  -0.159  -1.330  1.00  0.00     0.302 C 
HETATM    9  C13 UNL     1       2.096  -0.741  -1.538  1.00  0.00     0.302 C 
ENDBRANCH   2   3
ENDBRANCH   1   2
BRANCH   1  10
HETATM   10  N3  UNL     1      -1.371  -1.287   0.396  1.00  0.00    -0.409 N 
ATOM     11  H3  UNL     1      -1.203  -1.831   1.242  1.00  0.00     0.154 HD
BRANCH  10  12
HETATM   12  C6  UNL     1      -1.990  -1.872  -0.730  1.00  0.00     0.077 A 
HETATM   13  C7  UNL     1      -2.309  -3.374  -0.502  1.00  0.00     0.027 A 
HETATM   14  C8  UNL     1      -3.416  -2.353  -0.651  1.00  0.00     0.027 A 
ENDBRANCH  10  12
ENDBRANCH   1  10
BRANCH   1  15
HETATM   15  C9  UNL     1      -2.142   1.023   0.095  1.00  0.00     0.145 C 
HETATM   16  C10 UNL     1      -1.700   2.441   0.104  1.00  0.00     0.036 C 
HETATM   17  C11 UNL     1      -2.568   3.091   1.154  1.00  0.00     0.029 C 
HETATM   18  C12 UNL     1      -3.668   2.080   1.312  1.00  0.00     0.168 C 
HETATM   19  O1  UNL     1      -3.026   0.853   1.157  1.00  0.00    -0.384 OA
ENDBRANCH   1  15
TORSDOF 5
