REMARK  1 active torsions:
REMARK  status: ('A' for Active; 'I' for Inactive)
REMARK    1  A    between atoms: C19_26  and  O7_27 
ROOT
HETATM    1  C1  UNL     1       5.348  -0.361   0.741  1.00  0.00     0.046 C 
HETATM    2  C2  UNL     1       4.358   0.577   0.148  1.00  0.00     0.060 C 
HETATM    3  C3  UNL     1       5.061   1.755  -0.502  1.00  0.00     0.046 C 
HETATM    4  O1  UNL     1       3.343   1.033   0.959  1.00  0.00    -0.371 OA
HETATM    5  C4  UNL     1       2.335   0.779  -0.003  1.00  0.00     0.169 C 
HETATM    6  C5  UNL     1       3.319  -0.093  -0.715  1.00  0.00     0.052 C 
HETATM    7  C6  UNL     1       3.002  -1.482  -0.246  1.00  0.00     0.013 C 
HETATM    8  C7  UNL     1       2.067  -1.356   0.936  1.00  0.00     0.047 C 
HETATM    9  C8  UNL     1       1.304  -0.119   0.631  1.00  0.00     0.140 C 
HETATM   10  O2  UNL     1       0.221  -0.377  -0.173  1.00  0.00    -0.333 OA
HETATM   11  C9  UNL     1      -0.881   0.244   0.363  1.00  0.00     0.200 C 
HETATM   12  C10 UNL     1      -1.240   1.401  -0.530  1.00  0.00     0.072 C 
HETATM   13  C11 UNL     1      -2.554   2.034  -0.184  1.00  0.00     0.006 C 
HETATM   14  C12 UNL     1      -3.268   1.397   0.945  1.00  0.00     0.012 C 
HETATM   15  C13 UNL     1      -3.305  -0.103   0.913  1.00  0.00     0.076 C 
HETATM   16  C14 UNL     1      -4.554  -0.645   0.264  1.00  0.00     0.151 C 
HETATM   17  C15 UNL     1      -5.016   0.188  -0.905  1.00  0.00     0.065 C 
HETATM   18 CL1  UNL     1      -5.904  -0.700   1.439  1.00  0.00    -0.087 Cl
HETATM   19  O3  UNL     1      -4.364  -1.966  -0.219  1.00  0.00    -0.270 OA
HETATM   20  C16 UNL     1      -3.298  -2.129  -1.123  1.00  0.00     0.409 C 
HETATM   21  O4  UNL     1      -3.313  -3.021  -2.016  1.00  0.00    -0.229 OA
HETATM   22  O5  UNL     1      -2.240  -1.240  -0.957  1.00  0.00    -0.281 OA
HETATM   23  C17 UNL     1      -2.062  -0.729   0.374  1.00  0.00     0.133 C 
HETATM   24  C18 UNL     1      -1.659  -1.919   1.221  1.00  0.00     0.053 C 
HETATM   25  O6  UNL     1      -0.605   0.594   1.656  1.00  0.00    -0.319 OA
HETATM   26  C19 UNL     1       0.759   0.589   1.838  1.00  0.00     0.297 C 
ENDROOT
BRANCH  26  27
HETATM   27  O7  UNL     1       1.159   0.029   3.038  1.00  0.00    -0.368 OA
ATOM     28  H7  UNL     1       0.814   0.477   3.802  1.00  0.00     0.212 HD
ENDBRANCH  26  27
TORSDOF 1
