REMARK  1 active torsions:
REMARK  status: ('A' for Active; 'I' for Inactive)
REMARK    1  A    between atoms: C5_5  and  O1_6 
ROOT
HETATM    1  C1  UNL     1      -4.902  -0.294   2.292  1.00  0.00     0.045 C 
HETATM    2  C2  UNL     1      -4.747  -0.446   0.771  1.00  0.00     0.060 C 
HETATM    3  C3  UNL     1      -6.181  -0.480   0.231  1.00  0.00     0.045 C 
HETATM    4  C4  UNL     1      -4.101   0.782   0.263  1.00  0.00     0.075 C 
HETATM    5  C5  UNL     1      -2.630   0.758   0.148  1.00  0.00     0.065 C 
HETATM    6  C6  UNL     1      -1.898   1.077   1.429  1.00  0.00     0.043 C 
HETATM    7  C7  UNL     1      -0.435   1.198   1.215  1.00  0.00     0.071 C 
HETATM    8  C8  UNL     1       0.167   0.128   0.357  1.00  0.00     0.164 C 
HETATM    9  C9  UNL     1      -0.651  -0.240  -0.835  1.00  0.00     0.076 C 
HETATM   10  C10 UNL     1      -2.056  -0.522  -0.386  1.00  0.00     0.030 C 
HETATM   11  C11 UNL     1      -2.945  -1.061  -1.452  1.00  0.00     0.073 C 
HETATM   12  C12 UNL     1      -3.947  -1.993  -0.757  1.00  0.00     0.308 C 
HETATM   13  F1  UNL     1      -3.325  -3.249  -0.761  1.00  0.00    -0.220 F 
HETATM   14  O2  UNL     1      -4.082  -1.617   0.551  1.00  0.00    -0.346 OA
HETATM   15  O3  UNL     1       1.429   0.518  -0.090  1.00  0.00    -0.353 OA
HETATM   16  C13 UNL     1       1.493   1.821  -0.504  1.00  0.00     0.197 C 
HETATM   17  C14 UNL     1       2.623   1.913  -1.538  1.00  0.00     0.194 C 
HETATM   18  O4  UNL     1       3.842   1.967  -0.869  1.00  0.00    -0.387 OA
HETATM   19  C15 UNL     1       4.697   1.074  -1.527  1.00  0.00     0.193 C 
HETATM   20  C16 UNL     1       5.960   0.972  -0.699  1.00  0.00     0.193 C 
HETATM   21  O5  UNL     1       5.590   0.495   0.556  1.00  0.00    -0.387 OA
HETATM   22  C17 UNL     1       6.102  -0.763   0.802  1.00  0.00     0.193 C 
HETATM   23  C18 UNL     1       4.985  -1.799   0.654  1.00  0.00     0.193 C 
HETATM   24  O6  UNL     1       3.932  -1.422   1.452  1.00  0.00    -0.387 OA
HETATM   25  C19 UNL     1       2.682  -1.769   0.900  1.00  0.00     0.194 C 
HETATM   26  C20 UNL     1       1.641  -1.019   1.662  1.00  0.00     0.197 C 
HETATM   27  O7  UNL     1       0.384  -1.052   1.102  1.00  0.00    -0.353 OA
ENDROOT
BRANCH   5  28
HETATM   28  O1  UNL     1      -2.265   1.772  -0.770  1.00  0.00    -0.389 OA
ATOM     29  H1  UNL     1      -1.318   1.757  -0.844  1.00  0.00     0.210 HD
ENDBRANCH   5  28
TORSDOF 1
