REMARK  5 active torsions:
REMARK  status: ('A' for Active; 'I' for Inactive)
REMARK    1  A    between atoms: N1_2  and  C2_4 
REMARK    2  A    between atoms: C3_7  and  N3_8 
REMARK    3  A    between atoms: N3_8  and  C4_10 
REMARK    4  A    between atoms: C7_13  and  N4_14 
REMARK    5  A    between atoms: C16_25  and  C17_26 
ROOT
HETATM    1  C2  UNL     1       3.831   0.157  -0.575  1.00  0.00     0.124 A 
HETATM    2  N2  UNL     1       2.521  -0.171  -0.381  1.00  0.00    -0.176 N 
ATOM      3  H2  UNL     1       1.782   0.361  -0.840  1.00  0.00     0.186 HD
HETATM    4  C3  UNL     1       2.218  -1.203   0.422  1.00  0.00     0.679 A 
HETATM    5  N5  UNL     1       3.192  -1.901   1.024  1.00  0.00    -0.201 N 
ATOM      6  H5  UNL     1       2.940  -2.682   1.630  1.00  0.00     0.183 HD
HETATM    7  C15 UNL     1       4.507  -1.597   0.849  1.00  0.00     0.117 A 
HETATM    8  C16 UNL     1       4.842  -0.542   0.029  1.00  0.00     0.005 A 
ENDROOT
BRANCH   4   9
HETATM    9  N3  UNL     1       1.012  -1.514   0.613  1.00  0.00    -0.221 N 
ATOM     10  H3  UNL     1       0.877  -2.310   1.236  1.00  0.00     0.178 HD
BRANCH   9  11
HETATM   11  C4  UNL     1      -0.185  -0.953   0.116  1.00  0.00     0.099 C 
HETATM   12  C5  UNL     1      -0.592   0.348   0.719  1.00  0.00     0.027 C 
HETATM   13  C6  UNL     1      -1.725   0.846  -0.186  1.00  0.00     0.038 C 
HETATM   14  C7  UNL     1      -2.941  -0.025   0.016  1.00  0.00     0.223 C 
HETATM   15  C13 UNL     1      -2.673  -1.469   0.100  1.00  0.00     0.038 C 
HETATM   16  C14 UNL     1      -1.305  -1.934   0.361  1.00  0.00     0.027 C 
BRANCH  14  17
HETATM   17  N4  UNL     1      -3.967   0.311  -0.953  1.00  0.00     0.093 N 
HETATM   18  C8  UNL     1      -4.459   1.660  -0.837  1.00  0.00     0.273 C 
HETATM   19  C9  UNL     1      -5.401   1.687   0.344  1.00  0.00     0.036 C 
HETATM   20  C10 UNL     1      -5.722   0.237   0.628  1.00  0.00     0.011 C 
HETATM   21  C11 UNL     1      -7.226   0.075   0.669  1.00  0.00     0.011 C 
HETATM   22  C12 UNL     1      -5.171  -0.454  -0.589  1.00  0.00     0.277 C 
ENDBRANCH  14  17
ENDBRANCH   9  11
ENDBRANCH   4   9
BRANCH   1  23
HETATM   23  N1  UNL     1       4.100   1.133  -1.336  1.00  0.00    -0.380 N 
HETATM   24  C1  UNL     1       3.050   1.878  -1.980  1.00  0.00     0.147 C 
ATOM     25  H1  UNL     1       5.073   1.394  -1.495  1.00  0.00     0.160 HD
ENDBRANCH   1  23
BRANCH   8  26
HETATM   26  C17 UNL     1       6.250  -0.137  -0.219  1.00  0.00     0.016 C 
HETATM   27  C18 UNL     1       7.162  -1.098   0.552  1.00  0.00     0.015 C 
HETATM   28  C19 UNL     1       6.570   1.240   0.317  1.00  0.00     0.015 C 
ENDBRANCH   8  26
TORSDOF 5
