REMARK  9 active torsions:
REMARK  status: ('A' for Active; 'I' for Inactive)
REMARK    1  A    between atoms: C2_2  and  O1_3 
REMARK    2  A    between atoms: O1_3  and  C3_4 
REMARK       I    between atoms: C3_4  and  N1_6 
REMARK    3  A    between atoms: N1_6  and  C4_8 
REMARK    4  A    between atoms: C4_8  and  C6_10 
REMARK       I    between atoms: C6_10  and  N2_12 
REMARK    5  A    between atoms: N2_12  and  C7_14 
REMARK    6  A    between atoms: C7_14  and  C9_16 
REMARK       I    between atoms: C9_16  and  N3_18 
REMARK    7  A    between atoms: N3_18  and  C10_20 
REMARK    8  A    between atoms: C10_20  and  C12_22 
REMARK    9  A    between atoms: C12_22  and  N4_23 
ROOT
HETATM    1  C7  UNL     1       0.363   1.440  -0.245  1.00  0.00     0.172 C 
HETATM    2  C8  UNL     1       0.445   2.949  -0.324  1.00  0.00     0.042 C 
ENDROOT
BRANCH   1   3
HETATM    3  N2  UNL     1       1.407   0.906  -1.090  1.00  0.00    -0.346 N 
HETATM    4  C6  UNL     1       2.483   0.154  -0.561  1.00  0.00     0.240 C 
HETATM    5  O3  UNL     1       2.542  -0.060   0.681  1.00  0.00    -0.271 OA
ATOM      6  H2  UNL     1       1.367   1.076  -2.095  1.00  0.00     0.163 HD
BRANCH   4   7
HETATM    7  C4  UNL     1       3.550  -0.394  -1.419  1.00  0.00     0.174 C 
HETATM    8  C5  UNL     1       2.969  -1.327  -2.485  1.00  0.00     0.042 C 
BRANCH   7   9
HETATM    9  N1  UNL     1       4.519  -1.116  -0.643  1.00  0.00    -0.324 N 
HETATM   10  C3  UNL     1       5.896  -0.766  -0.629  1.00  0.00     0.361 C 
HETATM   11  O2  UNL     1       6.317   0.211  -1.315  1.00  0.00    -0.238 OA
ATOM     12  H1  UNL     1       4.207  -1.909  -0.082  1.00  0.00     0.165 HD
BRANCH  10  13
HETATM   13  O1  UNL     1       6.817  -1.472   0.124  1.00  0.00    -0.304 OA
BRANCH  13  14
HETATM   14  C2  UNL     1       8.173  -1.076   0.097  1.00  0.00     0.176 C 
HETATM   15  C1  UNL     1       8.281   0.351   0.589  1.00  0.00     0.034 C 
ENDBRANCH  13  14
ENDBRANCH  10  13
ENDBRANCH   7   9
ENDBRANCH   4   7
ENDBRANCH   1   3
BRANCH   1  16
HETATM   16  C9  UNL     1      -0.965   0.951  -0.668  1.00  0.00     0.240 C 
HETATM   17  O4  UNL     1      -1.011   0.181  -1.666  1.00  0.00    -0.271 OA
HETATM   18  N3  UNL     1      -2.163   1.335   0.027  1.00  0.00    -0.353 N 
ATOM     19  H3  UNL     1      -2.093   1.960   0.830  1.00  0.00     0.163 HD
BRANCH  18  20
HETATM   20  C10 UNL     1      -3.466   0.857  -0.385  1.00  0.00     0.119 C 
HETATM   21  C11 UNL     1      -4.274   2.036  -0.846  1.00  0.00     0.035 C 
BRANCH  20  22
HETATM   22  C12 UNL     1      -4.108   0.118   0.763  1.00  0.00     0.178 A 
HETATM   23  C15 UNL     1      -5.537  -0.287   0.550  1.00  0.00     0.044 A 
HETATM   24  C16 UNL     1      -6.033   0.682   1.591  1.00  0.00     0.005 A 
HETATM   25  C17 UNL     1      -4.565   0.993   1.898  1.00  0.00     0.044 A 
BRANCH  22  26
HETATM   26  N4  UNL     1      -3.290  -1.011   1.154  1.00  0.00     0.091 N 
HETATM   27  C13 UNL     1      -3.718  -1.626   2.389  1.00  0.00     0.310 C 
HETATM   28  C14 UNL     1      -3.275  -2.040   0.125  1.00  0.00     0.310 C 
ENDBRANCH  22  26
ENDBRANCH  20  22
ENDBRANCH  18  20
ENDBRANCH   1  16
TORSDOF 9
