REMARK  8 active torsions:
REMARK  status: ('A' for Active; 'I' for Inactive)
REMARK    1  A    between atoms: N1_2  and  C3_4 
REMARK    2  A    between atoms: C3_4  and  C4_5 
REMARK    3  A    between atoms: C4_5  and  N2_6 
REMARK    4  A    between atoms: N2_6  and  C5_8 
REMARK    5  A    between atoms: C6_11  and  N4_12 
REMARK    6  A    between atoms: N4_12  and  C7_14 
REMARK    7  A    between atoms: C10_19  and  N6_20 
REMARK    8  A    between atoms: N6_20  and  C11_22 
ROOT
HETATM    1  C5  UNL     1      -1.663   0.016   0.883  1.00  0.00     0.707 A 
HETATM    2  N3  UNL     1      -1.521   1.320   0.541  1.00  0.00    -0.022 N 
ATOM      3  H3  UNL     1      -2.362   1.888   0.440  1.00  0.00     0.203 HD
HETATM    4  C6  UNL     1      -0.346   1.896   0.331  1.00  0.00     0.707 A 
HETATM    5  N5  UNL     1       0.772   1.150   0.463  1.00  0.00    -0.021 N 
ATOM      6  H5  UNL     1       1.688   1.571   0.305  1.00  0.00     0.203 HD
HETATM    7  C10 UNL     1       0.679  -0.144   0.801  1.00  0.00     0.707 A 
HETATM    8  N8  UNL     1      -0.551  -0.700   1.009  1.00  0.00    -0.022 N 
ATOM      9  H8  UNL     1      -0.617  -1.685   1.266  1.00  0.00     0.203 HD
ENDROOT
BRANCH   7  10
HETATM   10  N6  UNL     1       1.736  -0.870   0.932  1.00  0.00    -0.220 N 
ATOM     11  H6  UNL     1       1.616  -1.850   1.190  1.00  0.00     0.178 HD
BRANCH  10  12
HETATM   12  C11 UNL     1       3.065  -0.384   0.737  1.00  0.00     0.102 C 
HETATM   13  C12 UNL     1       3.461  -0.285  -0.723  1.00  0.00     0.056 C 
HETATM   14  C13 UNL     1       4.766   0.503  -0.758  1.00  0.00     0.274 C 
HETATM   15  N7  UNL     1       5.783  -0.243  -0.084  1.00  0.00     0.084 N 
HETATM   16  C14 UNL     1       6.773  -0.651  -1.094  1.00  0.00     0.309 C 
HETATM   17  C15 UNL     1       5.331  -1.435   0.560  1.00  0.00     0.274 C 
HETATM   18  C16 UNL     1       4.108  -1.264   1.404  1.00  0.00     0.056 C 
ENDBRANCH  10  12
ENDBRANCH   7  10
BRANCH   4  19
HETATM   19  N4  UNL     1      -0.224   3.157  -0.000  1.00  0.00    -0.220 N 
ATOM     20  H4  UNL     1       0.692   3.578  -0.157  1.00  0.00     0.178 HD
BRANCH  19  21
HETATM   21  C7  UNL     1      -1.439   3.927  -0.134  1.00  0.00     0.099 A 
HETATM   22  C8  UNL     1      -2.119   3.762  -1.495  1.00  0.00     0.028 A 
HETATM   23  C9  UNL     1      -1.565   5.049  -1.070  1.00  0.00     0.028 A 
ENDBRANCH  19  21
ENDBRANCH   4  19
BRANCH   1  24
HETATM   24  N2  UNL     1      -2.849  -0.413   1.057  1.00  0.00    -0.223 N 
ATOM     25  H2  UNL     1      -3.601   0.263   0.924  1.00  0.00     0.177 HD
BRANCH  24  26
HETATM   26  C4  UNL     1      -3.241  -1.738   1.418  1.00  0.00     0.168 C 
BRANCH  26  27
HETATM   27  C3  UNL     1      -3.818  -2.394   0.161  1.00  0.00     0.291 C 
BRANCH  27  28
HETATM   28  N1  UNL     1      -4.958  -1.614  -0.282  1.00  0.00     0.081 N 
HETATM   29  C1  UNL     1      -5.525  -2.208  -1.468  1.00  0.00     0.309 C 
HETATM   30  C2  UNL     1      -5.937  -1.455   0.782  1.00  0.00     0.309 C 
ENDBRANCH  27  28
ENDBRANCH  26  27
ENDBRANCH  24  26
ENDBRANCH   1  24
TORSDOF 8
