REMARK  5 active torsions:
REMARK  status: ('A' for Active; 'I' for Inactive)
REMARK    1  A    between atoms: C2_2  and  C3_3 
REMARK    2  A    between atoms: C2_2  and  C4_6 
REMARK    3  A    between atoms: C2_2  and  N1_21 
REMARK    4  A    between atoms: C8_10  and  C9_11 
REMARK    5  A    between atoms: C18_24  and  C19_26 
ROOT
HETATM    1  C1  UNL     1       0.393  -0.906   1.807  1.00  0.00     0.051 C 
HETATM    2  C2  UNL     1       0.727   0.080   0.638  1.00  0.00     0.124 C 
ENDROOT
BRANCH   2   3
HETATM    3  C3  UNL     1       0.412   1.390   1.171  1.00  0.00     0.203 C 
HETATM    4  O1  UNL     1       1.372   2.190   1.466  1.00  0.00    -0.646 OA
HETATM    5  O2  UNL     1      -0.831   1.922   1.414  1.00  0.00    -0.646 OA
ENDBRANCH   2   3
BRANCH   2   6
HETATM    6  C4  UNL     1      -0.217  -0.389  -0.454  1.00  0.00     0.051 A 
HETATM    7  C5  UNL     1      -0.059   0.430  -1.651  1.00  0.00    -0.019 A 
HETATM    8  C6  UNL     1      -1.018   1.038  -2.298  1.00  0.00    -0.003 A 
HETATM    9  C7  UNL     1      -2.373   0.916  -1.830  1.00  0.00     0.003 A 
HETATM   10  C8  UNL     1      -2.638   0.192  -0.759  1.00  0.00    -0.075 A 
HETATM   11  C15 UNL     1      -1.623  -0.554   0.023  1.00  0.00     0.046 A 
BRANCH  10  12
HETATM   12  C9  UNL     1      -4.072   0.101  -0.313  1.00  0.00     0.017 C 
HETATM   13  C10 UNL     1      -4.662  -1.257  -0.497  1.00  0.00     0.015 C 
HETATM   14  C11 UNL     1      -5.831  -1.391   0.466  1.00  0.00     0.083 C 
HETATM   15  C12 UNL     1      -6.598  -0.107   0.572  1.00  0.00     0.273 C 
HETATM   16  F1  UNL     1      -7.721  -0.384   1.357  1.00  0.00    -0.203 F 
HETATM   17  F2  UNL     1      -7.076   0.225  -0.673  1.00  0.00    -0.203 F 
HETATM   18  C13 UNL     1      -5.760   0.979   1.199  1.00  0.00     0.242 C 
HETATM   19  F3  UNL     1      -5.972   2.150   0.487  1.00  0.00    -0.243 F 
HETATM   20  C14 UNL     1      -4.266   0.646   1.088  1.00  0.00     0.052 C 
ENDBRANCH  10  12
ENDBRANCH   2   6
BRANCH   2  21
HETATM   21  N1  UNL     1       2.052  -0.075   0.243  1.00  0.00    -0.374 N 
HETATM   22  C16 UNL     1       2.475  -1.347  -0.275  1.00  0.00     0.127 C 
HETATM   23  C17 UNL     1       3.962  -1.512   0.070  1.00  0.00     0.072 C 
HETATM   24  C18 UNL     1       4.721  -0.600  -0.844  1.00  0.00     0.174 C 
HETATM   25  F4  UNL     1       4.948  -1.336  -2.024  1.00  0.00    -0.234 F 
HETATM   26  C22 UNL     1       3.869   0.549  -1.238  1.00  0.00     0.097 C 
HETATM   27  C23 UNL     1       2.853   0.991  -0.196  1.00  0.00     0.063 C 
BRANCH  24  28
HETATM   28  C19 UNL     1       6.046  -0.192  -0.333  1.00  0.00     0.165 A 
HETATM   29  N2  UNL     1       6.924  -0.994   0.274  1.00  0.00    -0.344 N 
HETATM   30  C20 UNL     1       8.012  -0.249   0.591  1.00  0.00     0.135 A 
ATOM     31  H2  UNL     1       6.799  -1.988   0.465  1.00  0.00     0.167 HD
HETATM   32  C21 UNL     1       7.724   1.028   0.136  1.00  0.00     0.139 A 
HETATM   33 BR1  UNL     1       8.919   2.502   0.318  1.00  0.00    -0.021 Br
HETATM   34  O3  UNL     1       6.518   1.025  -0.421  1.00  0.00    -0.285 OA
ENDBRANCH  24  28
ENDBRANCH   2  21
TORSDOF 5
