REMARK  5 active torsions:
REMARK  status: ('A' for Active; 'I' for Inactive)
REMARK    1  A    between atoms: C2_2  and  C3_3 
REMARK    2  A    between atoms: C3_3  and  C4_4 
REMARK    3  A    between atoms: C4_4  and  C5_5 
REMARK    4  A    between atoms: C17_20  and  O3_21 
REMARK    5  A    between atoms: C22_29  and  C23_30 
ROOT
HETATM    1  C5  UNL     1      -1.644  -0.619   0.517  1.00  0.00    -0.006 C 
HETATM    2  C6  UNL     1      -2.591  -0.680   1.635  1.00  0.00     0.020 C 
HETATM    3  C7  UNL     1      -3.140  -2.085   1.919  1.00  0.00     0.079 C 
HETATM    4  C8  UNL     1      -3.005  -3.065   0.820  1.00  0.00     0.129 C 
HETATM    5  O1  UNL     1      -3.764  -3.955   0.584  1.00  0.00    -0.298 OA
HETATM    6  C9  UNL     1      -1.791  -2.944  -0.105  1.00  0.00     0.111 C 
HETATM    7  C10 UNL     1      -0.979  -1.960   0.602  1.00  0.00     0.139 C 
HETATM    8  O2  UNL     1       0.317  -1.772   0.373  1.00  0.00    -0.361 OA
HETATM    9  C11 UNL     1       0.661  -0.643   1.193  1.00  0.00     0.142 C 
HETATM   10 BR1  UNL     1       0.232  -1.220   3.015  1.00  0.00    -0.053 Br
HETATM   11  C12 UNL     1      -0.385   0.246   0.604  1.00  0.00     0.044 C 
HETATM   12  C13 UNL     1      -0.018   0.430  -0.854  1.00  0.00     0.010 C 
HETATM   13  C14 UNL     1       1.275   1.115  -1.144  1.00  0.00     0.008 C 
HETATM   14  C15 UNL     1       1.642   1.897   0.039  1.00  0.00     0.017 C 
HETATM   15  C16 UNL     1       2.423   3.141  -0.409  1.00  0.00     0.013 C 
HETATM   16  C17 UNL     1       2.642   0.986   0.784  1.00  0.00     0.088 C 
HETATM   17  C18 UNL     1       3.871   1.045  -0.039  1.00  0.00     0.120 C 
HETATM   18  C19 UNL     1       4.551  -0.217  -0.379  1.00  0.00     0.163 C 
HETATM   19  O4  UNL     1       5.554  -0.141  -1.065  1.00  0.00    -0.295 OA
HETATM   20  C20 UNL     1       4.091  -1.529   0.057  1.00  0.00     0.240 C 
HETATM   21  F1  UNL     1       4.976  -2.185   0.928  1.00  0.00    -0.241 F 
HETATM   22  C21 UNL     1       2.703  -1.516   0.422  1.00  0.00     0.071 C 
HETATM   23  C22 UNL     1       2.100  -0.327   1.186  1.00  0.00     0.133 C 
ENDROOT
BRANCH   1  24
HETATM   24  C4  UNL     1      -2.432  -0.360  -0.712  1.00  0.00     0.012 C 
BRANCH  24  25
HETATM   25  C3  UNL     1      -3.249   0.896  -0.754  1.00  0.00     0.000 C 
BRANCH  25  26
HETATM   26  C2  UNL     1      -3.971   1.042  -2.121  1.00  0.00    -0.005 C 
HETATM   27  C1  UNL     1      -4.754   2.325  -2.053  1.00  0.00     0.005 C 
ENDBRANCH  25  26
ENDBRANCH  24  25
ENDBRANCH   1  24
BRANCH  23  28
HETATM   28  C23 UNL     1       2.739  -0.492   2.591  1.00  0.00     0.402 C 
HETATM   29  F2  UNL     1       2.158   0.351   3.543  1.00  0.00    -0.170 F 
HETATM   30  F3  UNL     1       2.815  -1.796   2.985  1.00  0.00    -0.170 F 
HETATM   31  F4  UNL     1       4.042  -0.030   2.638  1.00  0.00    -0.170 F 
ENDBRANCH  23  28
BRANCH  16  32
HETATM   32  O3  UNL     1       2.856   1.873   1.885  1.00  0.00    -0.388 OA
ATOM     33  H3  UNL     1       3.471   1.313   2.343  1.00  0.00     0.210 HD
ENDBRANCH  16  32
TORSDOF 5
