REMARK  5 active torsions:
REMARK  status: ('A' for Active; 'I' for Inactive)
REMARK    1  A    between atoms: S1_2  and  N1_5 
REMARK    2  A    between atoms: C3_10  and  N3_11 
REMARK    3  A    between atoms: N4_13  and  C4_15 
REMARK    4  A    between atoms: C6_21  and  O3_22 
REMARK    5  A    between atoms: C7_24  and  O4_25 
ROOT
HETATM    1  N1  UNL     1      -2.985  -1.474   0.057  1.00  0.00    -0.266 N 
ATOM      2  H1  UNL     1      -2.582  -2.396   0.223  1.00  0.00     0.180 HD
HETATM    3  C2  UNL     1      -2.117  -0.569  -0.013  1.00  0.00     0.186 A 
HETATM    4  N2  UNL     1      -0.795  -0.932   0.139  1.00  0.00    -0.319 N 
ATOM      5  H2  UNL     1      -0.560  -1.911   0.302  1.00  0.00     0.169 HD
HETATM    6  C3  UNL     1       0.180  -0.028   0.077  1.00  0.00     0.173 A 
HETATM    7  C7  UNL     1      -0.174   1.288  -0.145  1.00  0.00     0.189 A 
HETATM    8  N7  UNL     1      -1.445   1.669  -0.296  1.00  0.00    -0.298 N 
ATOM      9  H7  UNL     1      -1.668   2.651  -0.459  1.00  0.00     0.171 HD
HETATM   10  C8  UNL     1      -2.439   0.749  -0.233  1.00  0.00     0.292 A 
HETATM   11  O5  UNL     1      -3.648   1.148  -0.382  1.00  0.00    -0.264 OA
ENDROOT
BRANCH   6  12
HETATM   12  N3  UNL     1       1.562  -0.364   0.229  1.00  0.00    -0.280 N 
HETATM   13  N4  UNL     1       2.481   0.362  -0.264  1.00  0.00    -0.280 N 
ATOM     14  H4  UNL     1       2.233   1.205  -0.782  1.00  0.00     0.188 HD
ATOM     15  H3  UNL     1       1.816  -1.206   0.745  1.00  0.00     0.188 HD
BRANCH  13  16
HETATM   16  C4  UNL     1       3.868   0.010  -0.101  1.00  0.00     0.173 A 
HETATM   17  N5  UNL     1       4.399  -0.739   0.873  1.00  0.00    -0.334 N 
HETATM   18  C5  UNL     1       5.720  -0.838   0.676  1.00  0.00     0.184 A 
ATOM     19  H5  UNL     1       3.881  -1.166   1.641  1.00  0.00     0.168 HD
HETATM   20  N6  UNL     1       6.049  -0.151  -0.431  1.00  0.00    -0.330 N 
HETATM   21  C6  UNL     1       4.914   0.375  -0.917  1.00  0.00     0.187 A 
ATOM     22  H6  UNL     1       6.984  -0.049  -0.827  1.00  0.00     0.168 HD
BRANCH  21  23
HETATM   23  O3  UNL     1       4.834   1.159  -2.060  1.00  0.00    -0.343 OA
ATOM     24  H3  UNL     1       5.556   1.411  -2.623  1.00  0.00     0.219 HD
ENDBRANCH  21  23
ENDBRANCH  13  16
ENDBRANCH   6  12
BRANCH   7  25
HETATM   25  O4  UNL     1       0.851   2.230  -0.209  1.00  0.00    -0.343 OA
ATOM     26  H4  UNL     1       0.607   3.135  -0.362  1.00  0.00     0.219 HD
ENDBRANCH   7  25
BRANCH   1  27
HETATM   27  S1  UNL     1      -4.655  -1.508  -0.061  1.00  0.00     0.228 S 
HETATM   28  C1  UNL     1      -5.516  -0.655   1.223  1.00  0.00     0.186 C 
HETATM   29  O1  UNL     1      -5.137  -2.971  -0.002  1.00  0.00    -0.206 OA
HETATM   30  O2  UNL     1      -5.159  -1.008  -1.413  1.00  0.00    -0.206 OA
ENDBRANCH   1  27
TORSDOF 5
