REMARK  0 active torsions:
REMARK  status: ('A' for Active; 'I' for Inactive)
ROOT
HETATM    1  N1  UNL     1      -5.439   0.404  -0.817  1.00  0.00    -0.384 N 
ATOM      2  H11 UNL     1      -5.906  -0.375  -1.282  1.00  0.00     0.157 HD
ATOM      3  H12 UNL     1      -6.037   1.197  -0.584  1.00  0.00     0.157 HD
HETATM    4  C1  UNL     1      -4.194   0.376  -0.551  1.00  0.00     0.127 A 
HETATM    5  N2  UNL     1      -3.552   1.447   0.088  1.00  0.00    -0.176 N 
ATOM      6  H2  UNL     1      -4.100   2.266   0.352  1.00  0.00     0.186 HD
HETATM    7  C2  UNL     1      -2.158   1.425   0.379  1.00  0.00     0.692 A 
HETATM    8  N3  UNL     1      -1.923   2.461   1.143  1.00  0.00    -0.155 N 
ATOM      9  H3  UNL     1      -2.722   3.051   1.374  1.00  0.00     0.187 HD
HETATM   10  C3  UNL     1      -0.667   2.846   1.683  1.00  0.00     0.270 C 
HETATM   11  O1  UNL     1      -0.515   3.371   2.784  1.00  0.00    -0.267 OA
HETATM   12  C4  UNL     1       0.601   2.640   0.927  1.00  0.00     0.043 A 
HETATM   13  C5  UNL     1       1.390   3.766   1.009  1.00  0.00     0.018 A 
HETATM   14  C6  UNL     1       2.526   3.820   0.220  1.00  0.00     0.001 A 
HETATM   15  C7  UNL     1       2.814   2.774  -0.596  1.00  0.00     0.001 A 
HETATM   16  C8  UNL     1       1.980   1.644  -0.643  1.00  0.00     0.013 A 
HETATM   17  C9  UNL     1       0.819   1.537   0.143  1.00  0.00     0.015 A 
HETATM   18  C10 UNL     1       0.136   0.165   0.076  1.00  0.00     0.224 C 
HETATM   19  N4  UNL     1       0.642  -0.269   1.402  1.00  0.00    -0.351 N 
ATOM     20  H4  UNL     1       0.217  -0.086   2.311  1.00  0.00     0.163 HD
HETATM   21  C11 UNL     1       1.824  -0.982   1.152  1.00  0.00     0.044 A 
HETATM   22  C12 UNL     1       2.755  -1.547   2.011  1.00  0.00     0.030 A 
HETATM   23  C13 UNL     1       3.861  -2.237   1.583  1.00  0.00     0.002 A 
HETATM   24  C14 UNL     1       4.074  -2.385   0.235  1.00  0.00     0.001 A 
HETATM   25  C15 UNL     1       3.167  -1.834  -0.637  1.00  0.00     0.017 A 
HETATM   26  C16 UNL     1       2.055  -1.139  -0.189  1.00  0.00     0.041 A 
HETATM   27  C17 UNL     1       0.934  -0.472  -0.942  1.00  0.00     0.216 C 
HETATM   28  O2  UNL     1       0.896  -0.577  -2.205  1.00  0.00    -0.287 OA
HETATM   29  N5  UNL     1      -1.267   0.327   0.047  1.00  0.00    -0.142 N 
HETATM   30  C18 UNL     1      -1.974  -0.764  -0.594  1.00  0.00     0.069 A 
HETATM   31  C19 UNL     1      -1.340  -1.955  -0.850  1.00  0.00     0.031 A 
HETATM   32  C20 UNL     1      -1.951  -3.104  -1.383  1.00  0.00     0.002 A 
HETATM   33  C21 UNL     1      -3.283  -3.064  -1.673  1.00  0.00     0.001 A 
HETATM   34  C22 UNL     1      -3.953  -1.895  -1.418  1.00  0.00     0.017 A 
HETATM   35  C23 UNL     1      -3.339  -0.757  -0.884  1.00  0.00     0.036 A 
ENDROOT
TORSDOF 0
