REMARK  12 active torsions:
REMARK  status: ('A' for Active; 'I' for Inactive)
REMARK    1  A    between atoms: C2_4  and  N2_5 
REMARK    2  A    between atoms: C2_4  and  C16_33 
REMARK    3  A    between atoms: N2_5  and  N3_7 
REMARK    4  A    between atoms: N3_7  and  C3_9 
REMARK    5  A    between atoms: C6_12  and  S1_13 
REMARK    6  A    between atoms: S1_13  and  N4_15 
REMARK    7  A    between atoms: N4_15  and  N5_17 
REMARK       I    between atoms: N5_17  and  C7_19 
REMARK    8  A    between atoms: C7_19  and  C8_21 
REMARK    9  A    between atoms: C16_33  and  C17_38 
REMARK   10  A    between atoms: N9_34  and  O4_36 
REMARK   11  A    between atoms: N10_40  and  O5_42 
REMARK   12  A    between atoms: O5_42  and  C19_43 
ROOT
HETATM    1  C3  UNL     1       1.690  -1.613   0.669  1.00  0.00     0.048 A 
HETATM    2  C4  UNL     1       0.973  -2.747   0.451  1.00  0.00     0.032 A 
HETATM    3  C5  UNL     1      -0.399  -2.652   0.178  1.00  0.00     0.025 A 
HETATM    4  C6  UNL     1      -1.015  -1.428   0.133  1.00  0.00     0.053 A 
HETATM    5  C14 UNL     1      -0.247  -0.288   0.364  1.00  0.00     0.025 A 
HETATM    6  C15 UNL     1       1.099  -0.361   0.633  1.00  0.00     0.032 A 
ENDROOT
BRANCH   1   7
HETATM    7  N3  UNL     1       3.106  -1.620   0.950  1.00  0.00    -0.299 N 
ATOM      8  H3  UNL     1       3.514  -2.288   1.604  1.00  0.00     0.187 HD
BRANCH   7   9
HETATM    9  N2  UNL     1       3.893  -0.677   0.291  1.00  0.00    -0.283 N 
ATOM     10  H2  UNL     1       3.436  -0.078  -0.397  1.00  0.00     0.188 HD
BRANCH   9  11
HETATM   11  C2  UNL     1       5.302  -0.487   0.510  1.00  0.00     0.146 C 
HETATM   12  N1  UNL     1       5.736   0.677   0.773  1.00  0.00    -0.378 N 
HETATM   13  C1  UNL     1       4.946   1.865   0.879  1.00  0.00     0.148 C 
ATOM     14  H1  UNL     1       6.740   0.774   0.922  1.00  0.00     0.160 HD
BRANCH  11  15
HETATM   15  C16 UNL     1       6.158  -1.670   0.381  1.00  0.00     0.123 C 
HETATM   16  N9  UNL     1       5.535  -2.759   0.135  1.00  0.00    -0.264 N 
ATOM     17  H9  UNL     1       4.522  -2.664   0.058  1.00  0.00     0.194 HD
BRANCH  16  18
HETATM   18  O4  UNL     1       5.994  -4.001  -0.038  1.00  0.00    -0.289 OA
ATOM     19  H4  UNL     1       5.531  -4.810  -0.221  1.00  0.00     0.244 HD
ENDBRANCH  16  18
BRANCH  15  20
HETATM   20  C17 UNL     1       7.631  -1.582   0.515  1.00  0.00     0.061 C 
HETATM   21  C18 UNL     1       8.342  -2.917   0.335  1.00  0.00     0.073 C 
HETATM   22  N10 UNL     1       8.332  -0.620   0.736  1.00  0.00    -0.260 N 
ATOM     23  H10 UNL     1       9.268  -1.025   0.744  1.00  0.00     0.194 HD
BRANCH  22  24
HETATM   24  O5  UNL     1       8.562   0.623   0.966  1.00  0.00    -0.200 OA
BRANCH  24  25
HETATM   25  C19 UNL     1       9.411   1.392   0.173  1.00  0.00     0.277 C 
HETATM   26  C20 UNL     1       9.672   2.826   0.439  1.00  0.00     0.128 C 
HETATM   27  O6  UNL     1       9.961   0.823  -0.797  1.00  0.00    -0.264 OA
ENDBRANCH  24  25
ENDBRANCH  22  24
ENDBRANCH  15  20
ENDBRANCH  11  15
ENDBRANCH   9  11
ENDBRANCH   7   9
ENDBRANCH   1   7
BRANCH   4  28
HETATM   28  S1  UNL     1      -2.713  -1.174  -0.220  1.00  0.00     0.165 S 
HETATM   29  O1  UNL     1      -3.608  -2.195   0.364  1.00  0.00    -0.229 OA
BRANCH  28  30
HETATM   30  N4  UNL     1      -3.099   0.220   0.355  1.00  0.00    -0.242 N 
ATOM     31  H4  UNL     1      -2.368   0.886   0.605  1.00  0.00     0.198 HD
BRANCH  30  32
HETATM   32  N5  UNL     1      -4.437   0.563   0.530  1.00  0.00    -0.258 N 
HETATM   33  C7  UNL     1      -5.376   0.541  -0.487  1.00  0.00     0.278 C 
HETATM   34  O2  UNL     1      -4.925   0.157  -1.638  1.00  0.00    -0.266 OA
ATOM     35  H5  UNL     1      -4.743   0.847   1.461  1.00  0.00     0.191 HD
BRANCH  33  36
HETATM   36  C8  UNL     1      -6.773   0.888  -0.431  1.00  0.00     0.126 A 
HETATM   37  C9  UNL     1      -7.551   0.755  -1.601  1.00  0.00     0.070 A 
HETATM   38  N6  UNL     1      -6.901   0.244  -2.780  1.00  0.00    -0.101 NA
HETATM   39  C10 UNL     1      -8.877   1.095  -1.619  1.00  0.00     0.073 A 
HETATM   40  C11 UNL     1      -9.446   1.571  -0.477  1.00  0.00     0.122 A 
HETATM   41  N7  UNL     1     -10.809   1.917  -0.506  1.00  0.00    -0.082 NA
HETATM   42  N8  UNL     1      -8.752   1.715   0.659  1.00  0.00    -0.306 N 
HETATM   43  C12 UNL     1      -9.351   2.233   1.879  1.00  0.00     0.161 C 
HETATM   44  C13 UNL     1      -7.431   1.376   0.676  1.00  0.00     0.266 A 
HETATM   45  O3  UNL     1      -6.792   1.520   1.763  1.00  0.00    -0.267 OA
ENDBRANCH  33  36
ENDBRANCH  30  32
ENDBRANCH  28  30
ENDBRANCH   4  28
TORSDOF 12
