REMARK  2 active torsions:
REMARK  status: ('A' for Active; 'I' for Inactive)
REMARK    1  A    between atoms: C1_2  and  C2_4 
REMARK    2  A    between atoms: C3_5  and  C4_7 
ROOT
HETATM    1  C2  UNL     1       1.789  -0.364   0.249  1.00  0.00     0.093 C 
HETATM    2  C3  UNL     1       1.011   0.314  -0.567  1.00  0.00     0.055 C 
HETATM    3 CL2  UNL     1       1.596   1.248  -1.923  1.00  0.00    -0.083 Cl
ENDROOT
BRANCH   2   4
HETATM    4  C4  UNL     1      -0.462   0.320  -0.373  1.00  0.00     0.026 A 
HETATM    5  C5  UNL     1      -1.190  -0.314   0.592  1.00  0.00     0.021 A 
HETATM    6  C6  UNL     1      -2.524  -0.161   0.569  1.00  0.00     0.008 A 
HETATM    7  C7  UNL     1      -3.050   0.619  -0.424  1.00  0.00     0.050 A 
HETATM    8  S1  UNL     1      -1.666   1.112  -1.287  1.00  0.00    -0.100 SA
ENDBRANCH   2   4
BRANCH   1   9
HETATM    9  C1  UNL     1       3.225  -0.447   0.164  1.00  0.00     0.243 C 
HETATM   10  O1  UNL     1       3.899  -1.111   0.977  1.00  0.00    -0.275 OA
HETATM   11 CL1  UNL     1       4.054   0.402  -1.108  1.00  0.00    -0.039 Cl
ENDBRANCH   1   9
TORSDOF 2
