REMARK  13 active torsions:
REMARK  status: ('A' for Active; 'I' for Inactive)
REMARK    1  A    between atoms: N1_1  and  C1_4 
REMARK    2  A    between atoms: C2_7  and  N3_8 
REMARK    3  A    between atoms: N5_18  and  C9_19 
REMARK    4  A    between atoms: C9_19  and  C10_20 
REMARK    5  A    between atoms: C10_20  and  O2_21 
REMARK    6  A    between atoms: C10_20  and  C11_23 
REMARK    7  A    between atoms: C11_23  and  O3_24 
REMARK    8  A    between atoms: C11_23  and  C12_26 
REMARK    9  A    between atoms: C12_26  and  O4_27 
REMARK   10  A    between atoms: O4_27  and  N6_28 
REMARK   11  A    between atoms: N6_28  and  C13_30 
REMARK   12  A    between atoms: C14_33  and  N8_34 
REMARK   13  A    between atoms: N8_34  and  N9_36 
ROOT
HETATM    1  C11 UNL     1       0.795  -0.429   1.208  1.00  0.00     0.174 C 
ENDROOT
BRANCH   1   2
HETATM    2  C10 UNL     1       0.485   1.009   1.238  1.00  0.00     0.167 C 
BRANCH   2   3
HETATM    3  C9  UNL     1      -0.417   1.615   0.252  1.00  0.00     0.165 C 
BRANCH   3   4
HETATM    4  N5  UNL     1      -1.824   1.397   0.386  1.00  0.00    -0.324 N 
HETATM    5  C8  UNL     1      -2.698   2.050   1.193  1.00  0.00     0.185 A 
HETATM    6  N4  UNL     1      -3.906   1.518   1.049  1.00  0.00    -0.346 N 
HETATM    7  C7  UNL     1      -3.846   0.523   0.160  1.00  0.00     0.123 A 
ATOM      8  H4  UNL     1      -4.747   1.821   1.540  1.00  0.00     0.167 HD
HETATM    9  C2  UNL     1      -4.796  -0.351  -0.370  1.00  0.00     0.150 A 
HETATM   10  C18 UNL     1      -2.532   0.458  -0.251  1.00  0.00     0.155 A 
HETATM   11  N2  UNL     1      -4.380  -1.234  -1.273  1.00  0.00    -0.175 N 
HETATM   12  C1  UNL     1      -3.114  -1.328  -1.698  1.00  0.00     0.679 A 
ATOM     13  H2  UNL     1      -5.067  -1.878  -1.665  1.00  0.00     0.186 HD
HETATM   14  N14 UNL     1      -2.205  -0.487  -1.187  1.00  0.00    -0.174 N 
ATOM     15  H14 UNL     1      -1.238  -0.553  -1.505  1.00  0.00     0.186 HD
BRANCH   9  16
HETATM   16  N3  UNL     1      -6.113  -0.229   0.093  1.00  0.00    -0.361 N 
HETATM   17  C3  UNL     1      -6.815   1.019  -0.093  1.00  0.00     0.150 C 
HETATM   18  C4  UNL     1      -8.034   0.716  -0.949  1.00  0.00     0.187 C 
HETATM   19  O1  UNL     1      -8.402  -0.605  -0.907  1.00  0.00    -0.388 OA
HETATM   20  C5  UNL     1      -8.275  -1.196   0.336  1.00  0.00     0.187 C 
HETATM   21  C6  UNL     1      -6.808  -1.307   0.755  1.00  0.00     0.150 C 
ENDBRANCH   9  16
BRANCH  12  22
HETATM   22  N1  UNL     1      -2.777  -2.225  -2.593  1.00  0.00    -0.234 N 
ATOM     23  H12 UNL     1      -3.469  -2.865  -2.982  1.00  0.00     0.174 HD
ATOM     24  H11 UNL     1      -1.812  -2.297  -2.917  1.00  0.00     0.174 HD
ENDBRANCH  12  22
ENDBRANCH   3   4
ENDBRANCH   2   3
BRANCH   2  25
HETATM   25  O2  UNL     1       0.172   1.458   2.557  1.00  0.00    -0.391 OA
ATOM     26  H2  UNL     1       0.756   1.066   3.195  1.00  0.00     0.210 HD
ENDBRANCH   2  25
ENDBRANCH   1   2
BRANCH   1  27
HETATM   27  O3  UNL     1      -0.194  -1.310   1.565  1.00  0.00    -0.391 OA
ATOM     28  H3  UNL     1       0.006  -2.238   1.546  1.00  0.00     0.210 HD
ENDBRANCH   1  27
BRANCH   1  29
HETATM   29  C12 UNL     1       1.527  -0.904  -0.019  1.00  0.00     0.235 C 
BRANCH  29  30
HETATM   30  O4  UNL     1       2.520   0.050  -0.353  1.00  0.00    -0.276 OA
BRANCH  30  31
HETATM   31  N6  UNL     1       3.364  -0.087  -1.425  1.00  0.00    -0.248 N 
ATOM     32  H6  UNL     1       2.958  -0.174  -2.357  1.00  0.00     0.196 HD
BRANCH  31  33
HETATM   33  C13 UNL     1       4.646  -0.111  -1.308  1.00  0.00     0.171 A 
HETATM   34  N7  UNL     1       5.414  -0.246  -2.378  1.00  0.00    -0.171 N 
HETATM   35  C14 UNL     1       6.766  -0.278  -2.313  1.00  0.00     0.699 A 
ATOM     36  H7  UNL     1       4.968  -0.330  -3.291  1.00  0.00     0.186 HD
HETATM   37  N10 UNL     1       7.352  -0.168  -1.108  1.00  0.00    -0.173 N 
HETATM   38  C15 UNL     1       6.594  -0.028   0.011  1.00  0.00     0.154 A 
ATOM     39  H10 UNL     1       8.369  -0.190  -1.034  1.00  0.00     0.186 HD
HETATM   40  N11 UNL     1       6.898   0.101   1.323  1.00  0.00    -0.314 N 
HETATM   41  C17 UNL     1       5.212   0.005  -0.045  1.00  0.00     0.126 A 
HETATM   42  C16 UNL     1       5.760   0.210   2.048  1.00  0.00     0.194 A 
ATOM     43  H11 UNL     1       7.842   0.114   1.708  1.00  0.00     0.170 HD
HETATM   44  N12 UNL     1       5.697   0.361   3.462  1.00  0.00    -0.063 NA
HETATM   45  N13 UNL     1       4.718   0.150   1.198  1.00  0.00    -0.324 N 
ATOM     46  H13 UNL     1       3.731   0.205   1.451  1.00  0.00     0.169 HD
BRANCH  35  47
HETATM   47  N8  UNL     1       7.537  -0.425  -3.493  1.00  0.00    -0.138 N 
ATOM     48  H8  UNL     1       7.069  -0.507  -4.395  1.00  0.00     0.205 HD
BRANCH  47  49
HETATM   49  N9  UNL     1       8.915  -0.458  -3.433  1.00  0.00    -0.331 N 
ATOM     50  H92 UNL     1       9.368  -0.375  -2.523  1.00  0.00     0.177 HD
ATOM     51  H91 UNL     1       9.470  -0.564  -4.282  1.00  0.00     0.177 HD
ENDBRANCH  47  49
ENDBRANCH  35  47
ENDBRANCH  31  33
ENDBRANCH  30  31
ENDBRANCH  29  30
ENDBRANCH   1  29
TORSDOF 13
