REMARK  16 active torsions:
REMARK  status: ('A' for Active; 'I' for Inactive)
REMARK    1  A    between atoms: C2_2  and  O1_3 
REMARK    2  A    between atoms: O1_3  and  C3_4 
REMARK    3  A    between atoms: C4_6  and  S1_7 
REMARK    4  A    between atoms: C6_9  and  O3_10 
REMARK    5  A    between atoms: C8_12  and  O4_13 
REMARK    6  A    between atoms: C9_15  and  O5_16 
REMARK    7  A    between atoms: O5_16  and  C10_17 
REMARK    8  A    between atoms: C11_18  and  O6_19 
REMARK    9  A    between atoms: O6_19  and  C12_20 
REMARK   10  A    between atoms: C14_22  and  O7_23 
REMARK   11  A    between atoms: C15_25  and  O8_26 
REMARK   12  A    between atoms: C17_31  and  C18_32 
REMARK   13  A    between atoms: C18_32  and  O11_33 
REMARK   14  A    between atoms: C19_35  and  O12_36 
REMARK   15  A    between atoms: O12_36  and  C20_37 
REMARK   16  A    between atoms: C23_40  and  O13_41 
ROOT
HETATM    1  C10 UNL     1       0.712  -0.233   0.351  1.00  0.00     0.208 C 
HETATM    2  C11 UNL     1       1.609  -0.498  -0.836  1.00  0.00     0.295 C 
HETATM    3  O10 UNL     1       1.556  -1.775  -1.289  1.00  0.00    -0.348 OA
HETATM    4  C17 UNL     1       1.704  -2.778  -0.388  1.00  0.00     0.179 C 
HETATM    5  C19 UNL     1       1.262  -2.525   1.014  1.00  0.00     0.184 C 
HETATM    6  C23 UNL     1       1.366  -1.112   1.440  1.00  0.00     0.183 C 
ENDROOT
BRANCH   1   7
HETATM    7  O5  UNL     1      -0.572  -0.653   0.116  1.00  0.00    -0.365 OA
BRANCH   7   8
HETATM    8  C9  UNL     1      -1.587   0.193   0.417  1.00  0.00     0.208 C 
HETATM    9  C3  UNL     1      -2.463   0.640  -0.721  1.00  0.00     0.292 C 
HETATM   10  O2  UNL     1      -3.691  -0.003  -0.743  1.00  0.00    -0.340 OA
HETATM   11  C4  UNL     1      -4.458   0.149   0.398  1.00  0.00     0.217 C 
HETATM   12  C6  UNL     1      -3.696   0.644   1.576  1.00  0.00     0.191 C 
HETATM   13  C8  UNL     1      -2.418  -0.243   1.609  1.00  0.00     0.184 C 
BRANCH   9  14
HETATM   14  O1  UNL     1      -1.893   0.403  -1.983  1.00  0.00    -0.359 OA
BRANCH  14  15
HETATM   15  C2  UNL     1      -1.805   1.561  -2.756  1.00  0.00     0.166 C 
HETATM   16  C1  UNL     1      -3.151   2.185  -3.011  1.00  0.00     0.033 C 
ENDBRANCH  14  15
ENDBRANCH   9  14
BRANCH  11  17
HETATM   17  S1  UNL     1      -5.989   1.056   0.079  1.00  0.00    -0.139 SA
HETATM   18  C5  UNL     1      -6.956   1.088   1.609  1.00  0.00     0.092 C 
ENDBRANCH  11  17
BRANCH  12  19
HETATM   19  O3  UNL     1      -3.358   1.962   1.598  1.00  0.00    -0.385 OA
HETATM   20  C7  UNL     1      -3.653   2.688   2.711  1.00  0.00     0.202 C 
ENDBRANCH  12  19
BRANCH  13  21
HETATM   21  O4  UNL     1      -1.790   0.069   2.811  1.00  0.00    -0.390 OA
ATOM     22  H4  UNL     1      -1.010  -0.473   2.831  1.00  0.00     0.210 HD
ENDBRANCH  13  21
ENDBRANCH   7   8
ENDBRANCH   1   7
BRANCH   2  23
HETATM   23  O6  UNL     1       1.498   0.395  -1.869  1.00  0.00    -0.329 OA
BRANCH  23  24
HETATM   24  C12 UNL     1       2.626   1.153  -2.101  1.00  0.00     0.265 C 
HETATM   25  C13 UNL     1       2.385   2.635  -1.945  1.00  0.00     0.095 C 
HETATM   26  C14 UNL     1       3.708   3.323  -2.259  1.00  0.00     0.153 C 
HETATM   27  C15 UNL     1       3.967   3.097  -3.731  1.00  0.00     0.170 C 
HETATM   28  C16 UNL     1       3.098   1.963  -4.220  1.00  0.00     0.205 C 
HETATM   29  O9  UNL     1       3.099   0.883  -3.359  1.00  0.00    -0.358 OA
BRANCH  26  30
HETATM   30  O7  UNL     1       3.668   4.652  -1.912  1.00  0.00    -0.393 OA
ATOM     31  H7  UNL     1       4.493   5.081  -2.108  1.00  0.00     0.210 HD
ENDBRANCH  26  30
BRANCH  27  32
HETATM   32  O8  UNL     1       3.654   4.271  -4.398  1.00  0.00    -0.391 OA
ATOM     33  H8  UNL     1       3.817   4.129  -5.323  1.00  0.00     0.210 HD
ENDBRANCH  27  32
ENDBRANCH  23  24
ENDBRANCH   2  23
BRANCH   6  34
HETATM   34  O13 UNL     1       2.699  -0.733   1.538  1.00  0.00    -0.390 OA
ATOM     35  H13 UNL     1       3.101  -1.274   2.208  1.00  0.00     0.210 HD
ENDBRANCH   6  34
BRANCH   5  36
HETATM   36  O12 UNL     1       1.916  -3.399   1.909  1.00  0.00    -0.376 OA
BRANCH  36  37
HETATM   37  C20 UNL     1       1.018  -4.243   2.498  1.00  0.00     0.114 C 
HETATM   38  C21 UNL     1       1.351  -5.705   2.298  1.00  0.00     0.039 C 
HETATM   39  C22 UNL     1       1.059  -3.973   3.998  1.00  0.00     0.039 C 
ENDBRANCH  36  37
ENDBRANCH   5  36
BRANCH   4  40
HETATM   40  C18 UNL     1       3.207  -3.110  -0.335  1.00  0.00     0.198 C 
BRANCH  40  41
HETATM   41  O11 UNL     1       3.518  -3.503  -1.658  1.00  0.00    -0.398 OA
ATOM     42  H11 UNL     1       4.445  -3.708  -1.625  1.00  0.00     0.209 HD
ENDBRANCH  40  41
ENDBRANCH   4  40
TORSDOF 16
