REMARK  8 active torsions:
REMARK  status: ('A' for Active; 'I' for Inactive)
REMARK    1  A    between atoms: O1_2  and  C2_3 
REMARK    2  A    between atoms: N1_5  and  C4_6 
REMARK    3  A    between atoms: C4_6  and  C5_7 
REMARK    4  A    between atoms: C5_7  and  S1_8 
REMARK    5  A    between atoms: S1_8  and  C6_9 
REMARK    6  A    between atoms: C7_14  and  C8_15 
REMARK    7  A    between atoms: C10_17  and  O2_18 
REMARK    8  A    between atoms: N4_20  and  C11_21 
ROOT
HETATM    1  C6  UNL     1      -1.602  -1.183  -2.224  1.00  0.00     0.203 A 
HETATM    2  N2  UNL     1      -1.064  -2.334  -1.762  1.00  0.00    -0.272 N 
ATOM      3  H2  UNL     1      -1.502  -3.255  -1.761  1.00  0.00     0.189 HD
HETATM    4  N3  UNL     1       0.142  -2.032  -1.311  1.00  0.00    -0.277 N 
ATOM      5  H3  UNL     1       0.794  -2.700  -0.899  1.00  0.00     0.189 HD
HETATM    6  C7  UNL     1       0.387  -0.721  -1.473  1.00  0.00     0.177 A 
HETATM    7  O3  UNL     1      -0.711  -0.254  -2.034  1.00  0.00    -0.267 OA
ENDROOT
BRANCH   6   8
HETATM    8  C8  UNL     1       1.591   0.010  -1.109  1.00  0.00     0.043 A 
HETATM    9  C9  UNL     1       1.833   1.355  -1.266  1.00  0.00     0.074 A 
HETATM   10  C10 UNL     1       3.103   1.665  -0.797  1.00  0.00     0.143 A 
HETATM   11  N4  UNL     1       3.633   0.505  -0.353  1.00  0.00    -0.326 N 
HETATM   12  C17 UNL     1       2.728  -0.504  -0.537  1.00  0.00     0.025 A 
HETATM   13  C18 UNL     1       2.959  -1.933  -0.168  1.00  0.00     0.069 C 
BRANCH  10  14
HETATM   14  O2  UNL     1       3.700   2.936  -0.792  1.00  0.00    -0.346 OA
ATOM     15  H2  UNL     1       4.569   3.148  -0.471  1.00  0.00     0.219 HD
ENDBRANCH  10  14
BRANCH  11  16
HETATM   16  C11 UNL     1       4.941   0.324   0.227  1.00  0.00     0.092 C 
HETATM   17  C12 UNL     1       5.362   1.495   1.066  1.00  0.00     0.026 C 
HETATM   18  C13 UNL     1       6.602   1.032   1.847  1.00  0.00     0.002 C 
HETATM   19  C14 UNL     1       7.732   0.854   0.847  1.00  0.00     0.000 C 
HETATM   20  C15 UNL     1       7.235   0.926  -0.587  1.00  0.00     0.002 C 
HETATM   21  C16 UNL     1       6.015   0.071  -0.798  1.00  0.00     0.026 C 
ENDBRANCH  11  16
ENDBRANCH   6   8
BRANCH   1  22
HETATM   22  S1  UNL     1      -3.244  -0.996  -2.959  1.00  0.00    -0.083 SA
BRANCH  22  23
HETATM   23  C5  UNL     1      -4.422  -0.622  -1.601  1.00  0.00     0.102 C 
BRANCH  23  24
HETATM   24  C4  UNL     1      -4.448  -1.885  -0.743  1.00  0.00     0.127 C 
BRANCH  24  25
HETATM   25  N1  UNL     1      -5.341  -1.696   0.348  1.00  0.00    -0.405 N 
HETATM   26  C3  UNL     1      -4.936  -0.740   1.322  1.00  0.00     0.177 C 
HETATM   27  C2  UNL     1      -6.025   0.297   1.475  1.00  0.00     0.276 C 
HETATM   28  O4  UNL     1      -7.247  -0.235   1.848  1.00  0.00    -0.358 OA
HETATM   29  C20 UNL     1      -7.624  -1.362   1.167  1.00  0.00     0.190 C 
HETATM   30  C19 UNL     1      -6.722  -1.693   0.001  1.00  0.00     0.143 C 
BRANCH  27  31
HETATM   31  O1  UNL     1      -5.640   1.191   2.471  1.00  0.00    -0.364 OA
HETATM   32  C1  UNL     1      -5.514   2.470   1.929  1.00  0.00     0.204 C 
ENDBRANCH  27  31
ENDBRANCH  24  25
ENDBRANCH  23  24
ENDBRANCH  22  23
ENDBRANCH   1  22
TORSDOF 8
