REMARK  6 active torsions:
REMARK  status: ('A' for Active; 'I' for Inactive)
REMARK    1  A    between atoms: C2_2  and  C3_3 
REMARK    2  A    between atoms: C3_3  and  C4_4 
REMARK    3  A    between atoms: C7_12  and  N3_13 
REMARK    4  A    between atoms: C8_15  and  C9_16 
REMARK    5  A    between atoms: C9_16  and  O1_17 
REMARK    6  A    between atoms: C11_21  and  N5_22 
ROOT
HETATM    1  C4  UNL     1      -2.264  -0.700  -0.065  1.00  0.00     0.225 C 
HETATM    2  N1  UNL     1      -1.946  -1.307   1.239  1.00  0.00    -0.061 N 
ATOM      3  H11 UNL     1      -2.576  -2.048   1.548  1.00  0.00     0.278 HD
ATOM      4  H12 UNL     1      -2.107  -0.715   2.054  1.00  0.00     0.278 HD
HETATM    5  C5  UNL     1      -0.548  -1.711   1.007  1.00  0.00     0.291 C 
HETATM    6  C6  UNL     1      -0.023  -0.438   0.385  1.00  0.00     0.064 A 
HETATM    7  N2  UNL     1       1.174   0.142   0.356  1.00  0.00    -0.193 N 
ATOM      8  H2  UNL     1       1.947  -0.320   0.835  1.00  0.00     0.184 HD
HETATM    9  C7  UNL     1       1.416   1.303  -0.271  1.00  0.00     0.683 A 
HETATM   10  N4  UNL     1       0.331   1.898  -0.910  1.00  0.00    -0.176 N 
ATOM     11  H4  UNL     1       0.473   2.782  -1.398  1.00  0.00     0.186 HD
HETATM   12  C11 UNL     1      -0.876   1.358  -0.907  1.00  0.00     0.125 A 
HETATM   13  C12 UNL     1      -1.097   0.163  -0.255  1.00  0.00     0.041 A 
ENDROOT
BRANCH   9  14
HETATM   14  N3  UNL     1       2.516   1.843  -0.325  1.00  0.00    -0.203 N 
HETATM   15  C8  UNL     1       3.818   1.784   0.020  1.00  0.00     0.105 C 
ATOM     16  H3  UNL     1       2.393   2.704  -0.858  1.00  0.00     0.183 HD
BRANCH  15  17
HETATM   17  C9  UNL     1       4.469   0.498   0.447  1.00  0.00     0.212 C 
BRANCH  17  18
HETATM   18  O1  UNL     1       4.433  -0.507  -0.470  1.00  0.00    -0.391 OA
HETATM   19  C10 UNL     1       5.072  -0.252  -1.668  1.00  0.00     0.201 C 
ENDBRANCH  17  18
ENDBRANCH  15  17
ENDBRANCH   9  14
BRANCH  12  20
HETATM   20  N5  UNL     1      -1.847   1.974  -1.534  1.00  0.00    -0.385 N 
ATOM     21  H52 UNL     1      -1.684   2.858  -2.016  1.00  0.00     0.157 HD
ATOM     22  H51 UNL     1      -2.778   1.557  -1.532  1.00  0.00     0.157 HD
ENDBRANCH  12  20
BRANCH   1  23
HETATM   23  C3  UNL     1      -3.597  -0.049  -0.103  1.00  0.00     0.037 C 
BRANCH  23  24
HETATM   24  C2  UNL     1      -4.666  -1.071   0.179  1.00  0.00    -0.002 C 
HETATM   25  C1  UNL     1      -4.600  -1.737   1.501  1.00  0.00     0.005 C 
ENDBRANCH  23  24
ENDBRANCH   1  23
TORSDOF 6
