REMARK  4 active torsions:
REMARK  status: ('A' for Active; 'I' for Inactive)
REMARK    1  A    between atoms: C2_2  and  C3_5 
REMARK    2  A    between atoms: C9_11  and  C10_12 
REMARK       I    between atoms: C10_12  and  N1_14 
REMARK       I    between atoms: C11_16  and  N3_18 
REMARK       I    between atoms: N3_18  and  C12_20 
REMARK    3  A    between atoms: C12_20  and  C13_22 
REMARK    4  A    between atoms: C13_22  and  C14_23 
ROOT
HETATM    1  C10 UNL     1      -0.154   0.610   0.842  1.00  0.00     0.229 C 
HETATM    2  O1  UNL     1      -0.339   0.475   2.071  1.00  0.00    -0.273 OA
HETATM    3  N1  UNL     1       1.175   0.877   0.423  1.00  0.00    -0.301 N 
ATOM      4  H1  UNL     1       1.395   1.755  -0.047  1.00  0.00     0.171 HD
HETATM    5  C11 UNL     1       2.105   0.008   0.637  1.00  0.00     0.197 C 
HETATM    6  N2  UNL     1       1.740  -1.198   1.297  1.00  0.00    -0.063 NA
HETATM    7  N3  UNL     1       3.453   0.245   0.228  1.00  0.00    -0.301 N 
ATOM      8  H3  UNL     1       3.716   1.109  -0.246  1.00  0.00     0.171 HD
HETATM    9  C12 UNL     1       4.411  -0.759   0.502  1.00  0.00     0.234 C 
HETATM   10  O2  UNL     1       4.115  -1.833   1.083  1.00  0.00    -0.273 OA
ENDROOT
BRANCH   1  11
HETATM   11  C9  UNL     1      -1.183   0.517  -0.190  1.00  0.00     0.092 C 
HETATM   12  C3  UNL     1      -2.568   0.229   0.255  1.00  0.00     0.034 C 
HETATM   13  C4  UNL     1      -2.887   1.000   1.514  1.00  0.00     0.022 C 
HETATM   14  C5  UNL     1      -3.500   0.772  -0.816  1.00  0.00     0.016 C 
HETATM   15  C6  UNL     1      -2.894   0.726  -2.191  1.00  0.00     0.001 C 
HETATM   16  C7  UNL     1      -1.675   1.617  -2.309  1.00  0.00     0.001 C 
HETATM   17  C8  UNL     1      -1.214   1.887  -0.893  1.00  0.00     0.015 C 
BRANCH  12  18
HETATM   18  C2  UNL     1      -2.850  -1.233   0.524  1.00  0.00     0.248 C 
HETATM   19  C1  UNL     1      -4.290  -1.473   0.894  1.00  0.00     0.091 C 
HETATM   20  F1  UNL     1      -2.082  -1.761   1.536  1.00  0.00    -0.206 F 
HETATM   21  F2  UNL     1      -2.583  -1.952  -0.625  1.00  0.00    -0.206 F 
ENDBRANCH  12  18
ENDBRANCH   1  11
BRANCH   9  22
HETATM   22  C13 UNL     1       5.818  -0.487   0.063  1.00  0.00     0.216 C 
BRANCH  22  23
HETATM   23  C14 UNL     1       6.735  -1.581   0.389  1.00  0.00     0.181 C 
HETATM   24  O3  UNL     1       6.354  -2.615   0.969  1.00  0.00    -0.648 OA
HETATM   25  O4  UNL     1       8.072  -1.414   0.015  1.00  0.00    -0.648 OA
ENDBRANCH  22  23
ENDBRANCH   9  22
TORSDOF 4
