REMARK  4 active torsions:
REMARK  status: ('A' for Active; 'I' for Inactive)
REMARK       I    between atoms: C1_2  and  N3_12 
REMARK    1  A    between atoms: N2_3  and  C2_5 
REMARK    2  A    between atoms: C2_5  and  C3_6 
REMARK    3  A    between atoms: N3_12  and  C9_14 
REMARK    4  A    between atoms: C9_14  and  C10_15 
ROOT
HETATM    1  N1  UNL     1       0.372  -2.290  -0.277  1.00  0.00    -0.064 NA
HETATM    2  C1  UNL     1      -0.022  -0.972  -0.595  1.00  0.00     0.184 C 
HETATM    3  N2  UNL     1       0.801  -0.196  -1.190  1.00  0.00    -0.364 N 
ATOM      4  H2  UNL     1       0.517   0.756  -1.420  1.00  0.00     0.162 HD
HETATM    5  N3  UNL     1      -1.311  -0.490  -0.270  1.00  0.00    -0.364 N 
ATOM      6  H3  UNL     1      -1.505  -0.159   0.675  1.00  0.00     0.162 HD
ENDROOT
BRANCH   3   7
HETATM    7  C2  UNL     1       2.132  -0.649  -1.543  1.00  0.00     0.126 C 
BRANCH   7   8
HETATM    8  C3  UNL     1       2.999  -0.480  -0.316  1.00  0.00     0.003 C 
HETATM    9  C4  UNL     1       3.004   0.971   0.063  1.00  0.00     0.006 C 
HETATM   10  C5  UNL     1       4.445   1.441   0.094  1.00  0.00     0.000 C 
HETATM   11  C6  UNL     1       5.238   0.610   1.060  1.00  0.00     0.000 C 
HETATM   12  C7  UNL     1       5.142  -0.868   0.775  1.00  0.00     0.000 C 
HETATM   13  C8  UNL     1       4.396  -1.019  -0.539  1.00  0.00     0.006 C 
ENDBRANCH   7   8
ENDBRANCH   3   7
BRANCH   5  14
HETATM   14  C9  UNL     1      -2.354  -0.464  -1.267  1.00  0.00     0.127 C 
BRANCH  14  15
HETATM   15  C10 UNL     1      -3.630   0.082  -0.713  1.00  0.00     0.013 C 
HETATM   16  C11 UNL     1      -4.146  -0.732   0.438  1.00  0.00     0.051 C 
HETATM   17  C12 UNL     1      -5.395  -0.168   1.005  1.00  0.00     0.060 C 
HETATM   18  N4  UNL     1      -5.697   1.165   0.757  1.00  0.00    -0.382 N 
HETATM   19  C13 UNL     1      -4.745   2.049   0.262  1.00  0.00     0.060 C 
ATOM     20  H4  UNL     1      -6.641   1.504   0.943  1.00  0.00     0.163 HD
HETATM   21  C14 UNL     1      -3.441   1.479  -0.194  1.00  0.00     0.051 C 
ENDBRANCH  14  15
ENDBRANCH   5  14
TORSDOF 4
