REMARK  6 active torsions:
REMARK  status: ('A' for Active; 'I' for Inactive)
REMARK    1  A    between atoms: C2_2  and  N3_21 
REMARK    2  A    between atoms: N1_3  and  C3_5 
REMARK    3  A    between atoms: C3_5  and  C4_6 
REMARK    4  A    between atoms: C7_9  and  C8_10 
REMARK    5  A    between atoms: C9_11  and  C10_12 
REMARK    6  A    between atoms: C17_23  and  C18_25 
ROOT
HETATM    1  C3  UNL     1       1.064   1.697  -2.379  1.00  0.00     0.160 C 
ENDROOT
BRANCH   1   2
HETATM    2  N1  UNL     1       2.194   1.362  -1.543  1.00  0.00    -0.376 N 
HETATM    3  C2  UNL     1       3.253   0.906  -2.085  1.00  0.00     0.074 C 
HETATM    4  C1  UNL     1       3.321   0.724  -3.546  1.00  0.00     0.089 C 
ATOM      5  H1  UNL     1       2.144   1.489  -0.532  1.00  0.00     0.161 HD
BRANCH   3   6
HETATM    6  N3  UNL     1       4.360   0.576  -1.275  1.00  0.00    -0.333 N 
HETATM    7  C17 UNL     1       4.178  -0.058  -0.174  1.00  0.00     0.144 C 
HETATM    8  N4  UNL     1       2.867  -0.419   0.214  1.00  0.00    -0.080 NA
ATOM      9  H3  UNL     1       5.302   0.840  -1.563  1.00  0.00     0.168 HD
BRANCH   7  10
HETATM   10  C18 UNL     1       5.300  -0.405   0.670  1.00  0.00     0.073 A 
HETATM   11  C19 UNL     1       5.114  -1.086   1.855  1.00  0.00     0.033 A 
HETATM   12  C20 UNL     1       6.215  -1.402   2.640  1.00  0.00     0.004 A 
HETATM   13  C21 UNL     1       7.472  -1.025   2.213  1.00  0.00     0.017 A 
HETATM   14  C22 UNL     1       7.635  -0.347   1.029  1.00  0.00     0.088 A 
HETATM   15  N5  UNL     1       6.560  -0.060   0.302  1.00  0.00    -0.363 N 
ATOM     16  H5  UNL     1       6.688   0.444  -0.575  1.00  0.00     0.165 HD
ENDBRANCH   7  10
ENDBRANCH   3   6
ENDBRANCH   1   2
BRANCH   1  17
HETATM   17  C4  UNL     1      -0.212   1.336  -1.711  1.00  0.00    -0.025 A 
HETATM   18  C5  UNL     1      -0.780   0.092  -1.881  1.00  0.00     0.013 A 
HETATM   19  C6  UNL     1      -1.983  -0.237  -1.246  1.00  0.00     0.039 A 
HETATM   20  C7  UNL     1      -2.599   0.699  -0.444  1.00  0.00     0.086 A 
HETATM   21  N2  UNL     1      -2.032   1.899  -0.292  1.00  0.00    -0.358 N 
HETATM   22  C16 UNL     1      -0.859   2.244  -0.901  1.00  0.00     0.097 A 
ATOM     23  H2  UNL     1      -2.494   2.586   0.304  1.00  0.00     0.166 HD
BRANCH  20  24
HETATM   24  C8  UNL     1      -3.840   0.340   0.203  1.00  0.00    -0.043 C 
HETATM   25  C9  UNL     1      -4.888   0.030   0.728  1.00  0.00    -0.060 C 
BRANCH  25  26
HETATM   26  C10 UNL     1      -6.140  -0.351   1.334  1.00  0.00     0.018 A 
HETATM   27  C11 UNL     1      -6.337  -0.266   2.697  1.00  0.00     0.020 A 
HETATM   28  C12 UNL     1      -7.526  -0.625   3.297  1.00  0.00     0.001 A 
HETATM   29  C13 UNL     1      -8.571  -1.090   2.521  1.00  0.00     0.000 A 
HETATM   30  C14 UNL     1      -8.395  -1.183   1.152  1.00  0.00     0.001 A 
HETATM   31  C15 UNL     1      -7.194  -0.818   0.566  1.00  0.00     0.020 A 
ENDBRANCH  25  26
ENDBRANCH  20  24
ENDBRANCH   1  17
TORSDOF 6
