REMARK  4 active torsions:
REMARK  status: ('A' for Active; 'I' for Inactive)
REMARK    1  A    between atoms: C1_2  and  C2_3 
REMARK       I    between atoms: C1_2  and  N1_7 
REMARK    2  A    between atoms: C2_3  and  C3_4 
REMARK    3  A    between atoms: N1_7  and  C6_9 
REMARK    4  A    between atoms: C6_9  and  C7_10 
ROOT
HETATM    1  O1  UNL     1       1.549   1.249  -0.898  1.00  0.00    -0.274 OA
HETATM    2  C1  UNL     1       1.441   0.164  -0.294  1.00  0.00     0.217 C 
HETATM    3  N1  UNL     1       0.178  -0.458  -0.236  1.00  0.00    -0.361 N 
ATOM      4  H1  UNL     1       0.078  -1.346   0.256  1.00  0.00     0.162 HD
ENDROOT
BRANCH   3   5
HETATM    5  C6  UNL     1      -0.974   0.140  -0.860  1.00  0.00     0.127 C 
BRANCH   5   6
HETATM    6  C7  UNL     1      -2.223  -0.659  -0.696  1.00  0.00     0.008 C 
HETATM    7  C8  UNL     1      -3.342   0.107  -1.410  1.00  0.00     0.007 C 
HETATM    8  C9  UNL     1      -3.782   1.091  -0.344  1.00  0.00     0.005 C 
HETATM    9  C10 UNL     1      -3.741   0.280   0.936  1.00  0.00    -0.010 A 
HETATM   10  C11 UNL     1      -2.478   0.317   1.697  1.00  0.00     0.010 A 
HETATM   11  C12 UNL     1      -2.680  -0.790   0.721  1.00  0.00    -0.004 A 
ENDBRANCH   5   6
ENDBRANCH   3   5
BRANCH   2  12
HETATM   12  C2  UNL     1       2.611  -0.447   0.343  1.00  0.00     0.107 C 
BRANCH  12  13
HETATM   13  C3  UNL     1       3.872   0.333   0.193  1.00  0.00    -0.006 A 
HETATM   14  C4  UNL     1       5.080  -0.315   0.859  1.00  0.00     0.005 A 
HETATM   15  C5  UNL     1       5.013  -0.122  -0.607  1.00  0.00     0.005 A 
ENDBRANCH  12  13
ENDBRANCH   2  12
TORSDOF 4
