REMARK  8 active torsions:
REMARK  status: ('A' for Active; 'I' for Inactive)
REMARK    1  A    between atoms: C2_2  and  N1_3 
REMARK       I    between atoms: N1_3  and  C3_5 
REMARK    2  A    between atoms: C3_5  and  C4_7 
REMARK    3  A    between atoms: C5_8  and  O2_9 
REMARK    4  A    between atoms: C6_13  and  N3_14 
REMARK    5  A    between atoms: N3_14  and  N4_16 
REMARK    6  A    between atoms: C7_19  and  N5_20 
REMARK    7  A    between atoms: N5_20  and  O3_22 
REMARK    8  A    between atoms: N6_24  and  O4_25 
ROOT
HETATM    1  C4  UNL     1      -0.010  -0.345   0.174  1.00  0.00     0.183 A 
HETATM    2  C5  UNL     1       0.759   0.540  -0.534  1.00  0.00     0.177 A 
HETATM    3  N2  UNL     1       2.116   0.554  -0.500  1.00  0.00    -0.317 N 
ATOM      4  H2  UNL     1       2.643   1.235  -1.047  1.00  0.00     0.169 HD
HETATM    5  C6  UNL     1       2.746  -0.338   0.261  1.00  0.00     0.170 A 
HETATM    6  C7  UNL     1       2.004  -1.234   0.980  1.00  0.00     0.199 A 
HETATM    7  N6  UNL     1       0.667  -1.237   0.937  1.00  0.00    -0.193 N 
ENDROOT
BRANCH   1   8
HETATM    8  C3  UNL     1      -1.443  -0.385   0.160  1.00  0.00     0.275 C 
HETATM    9  N1  UNL     1      -2.311   0.442  -0.556  1.00  0.00    -0.356 N 
ATOM     10  H1  UNL     1      -1.940   1.179  -1.155  1.00  0.00     0.162 HD
HETATM   11  O1  UNL     1      -1.995  -1.294   0.895  1.00  0.00    -0.266 OA
BRANCH   9  12
HETATM   12  C2  UNL     1      -3.775   0.241  -0.439  1.00  0.00     0.118 C 
HETATM   13  C1  UNL     1      -4.161   0.428   1.012  1.00  0.00     0.026 C 
ENDBRANCH   9  12
ENDBRANCH   1   8
BRANCH   2  14
HETATM   14  O2  UNL     1       0.170   1.512  -1.361  1.00  0.00    -0.344 OA
ATOM     15  H2  UNL     1       0.703   2.126  -1.852  1.00  0.00     0.219 HD
ENDBRANCH   2  14
BRANCH   7  16
HETATM   16  O4  UNL     1      -0.043  -2.158   1.678  1.00  0.00    -0.280 OA
ATOM     17  H4  UNL     1       0.432  -2.783   2.213  1.00  0.00     0.245 HD
ENDBRANCH   7  16
BRANCH   6  18
HETATM   18  N5  UNL     1       2.643  -2.226   1.825  1.00  0.00    -0.248 N 
ATOM     19  H5  UNL     1       2.354  -2.326   2.798  1.00  0.00     0.196 HD
BRANCH  18  20
HETATM   20  O3  UNL     1       3.545  -2.957   1.367  1.00  0.00    -0.288 OA
ATOM     21  H3  UNL     1       3.963  -3.606   1.920  1.00  0.00     0.244 HD
ENDBRANCH  18  20
ENDBRANCH   6  18
BRANCH   5  22
HETATM   22  N3  UNL     1       4.033  -0.381   0.340  1.00  0.00    -0.289 N 
ATOM     23  H3  UNL     1       4.499  -1.071   0.928  1.00  0.00     0.188 HD
BRANCH  22  24
HETATM   24  N4  UNL     1       4.764   0.537  -0.397  1.00  0.00    -0.344 N 
ATOM     25  H42 UNL     1       4.283   1.221  -0.981  1.00  0.00     0.176 HD
ATOM     26  H41 UNL     1       5.782   0.503  -0.335  1.00  0.00     0.176 HD
ENDBRANCH  22  24
ENDBRANCH   5  22
TORSDOF 8
