REMARK  19 active torsions:
REMARK  status: ('A' for Active; 'I' for Inactive)
REMARK    1  A    between atoms: C2_2  and  C3_3 
REMARK    2  A    between atoms: C3_3  and  C4_4 
REMARK    3  A    between atoms: C4_4  and  C5_5 
REMARK    4  A    between atoms: C5_5  and  N1_6 
REMARK       I    between atoms: N1_6  and  C6_7 
REMARK    5  A    between atoms: C6_7  and  C7_9 
REMARK    6  A    between atoms: C8_10  and  C9_11 
REMARK       I    between atoms: C9_11  and  N2_13 
REMARK    7  A    between atoms: C13_17  and  C14_18 
REMARK    8  A    between atoms: C14_18  and  C15_19 
REMARK    9  A    between atoms: C15_19  and  C16_20 
REMARK   10  A    between atoms: C16_20  and  C17_21 
REMARK   11  A    between atoms: C17_21  and  C18_22 
REMARK   12  A    between atoms: C18_22  and  N3_23 
REMARK   13  A    between atoms: N5_41  and  C31_42 
REMARK   14  A    between atoms: C31_42  and  C32_43 
REMARK   15  A    between atoms: C32_43  and  C33_44 
REMARK   16  A    between atoms: C33_44  and  N6_45 
REMARK   17  A    between atoms: N6_45  and  C34_47 
REMARK   18  A    between atoms: C34_47  and  O4_48 
REMARK   19  A    between atoms: N7_50  and  O5_52 
ROOT
HETATM    1  C7  UNL     1      -1.838  -0.085  -0.045  1.00  0.00     0.129 C 
HETATM    2  C8  UNL     1      -0.700   0.247  -1.036  1.00  0.00     0.232 C 
HETATM    3  N4  UNL     1       0.049   1.180  -0.239  1.00  0.00    -0.374 N 
ATOM      4  H4  UNL     1       0.527   0.904   0.619  1.00  0.00     0.160 HD
HETATM    5  C21 UNL     1       0.077   2.507  -0.728  1.00  0.00     0.016 C 
HETATM    6  C22 UNL     1      -0.398   2.752  -2.073  1.00  0.00    -0.014 A 
HETATM    7  C23 UNL     1       0.310   2.350  -3.215  1.00  0.00     0.016 A 
HETATM    8  C24 UNL     1      -0.089   2.530  -4.533  1.00  0.00     0.043 A 
HETATM    9  C25 UNL     1      -1.287   3.170  -4.749  1.00  0.00     0.116 A 
HETATM   10  F1  UNL     1      -1.661   3.326  -6.033  1.00  0.00    -0.206 F 
HETATM   11  C26 UNL     1      -2.011   3.574  -3.636  1.00  0.00     0.043 A 
HETATM   12  C27 UNL     1      -1.560   3.364  -2.320  1.00  0.00     0.016 A 
HETATM   13  C28 UNL     1      -0.325   3.505   0.329  1.00  0.00     0.067 C 
HETATM   14  C29 UNL     1      -0.642   2.814   1.652  1.00  0.00     0.109 C 
HETATM   15  C30 UNL     1      -1.817   1.945   1.619  1.00  0.00     0.224 C 
HETATM   16  O3  UNL     1      -2.571   2.154   2.603  1.00  0.00    -0.273 OA
HETATM   17  N5  UNL     1      -2.348   0.905   0.741  1.00  0.00    -0.313 N 
ENDROOT
BRANCH   2  18
HETATM   18  C9  UNL     1       0.138  -0.944  -1.212  1.00  0.00     0.248 C 
HETATM   19  O2  UNL     1      -0.505  -2.062  -1.206  1.00  0.00    -0.271 OA
HETATM   20  N2  UNL     1       1.547  -1.070  -1.375  1.00  0.00    -0.350 N 
HETATM   21  C10 UNL     1       2.156  -2.013  -2.314  1.00  0.00     0.126 C 
HETATM   22  C20 UNL     1       2.583  -0.591  -0.434  1.00  0.00     0.130 C 
HETATM   23  C11 UNL     1       3.039  -1.140  -3.177  1.00  0.00     0.020 C 
HETATM   24  C12 UNL     1       3.676   0.028  -2.592  1.00  0.00     0.008 C 
HETATM   25  C13 UNL     1       3.519   0.296  -1.120  1.00  0.00     0.004 C 
BRANCH  25  26
HETATM   26  C14 UNL     1       4.901   0.414  -0.516  1.00  0.00     0.006 C 
BRANCH  26  27
HETATM   27  C15 UNL     1       5.784  -0.801  -0.595  1.00  0.00     0.000 C 
BRANCH  27  28
HETATM   28  C16 UNL     1       7.224  -0.252  -0.519  1.00  0.00     0.002 C 
BRANCH  28  29
HETATM   29  C17 UNL     1       8.209  -1.306  -0.175  1.00  0.00     0.019 C 
BRANCH  29  30
HETATM   30  C18 UNL     1       8.077  -1.602   1.351  1.00  0.00     0.113 C 
BRANCH  30  31
HETATM   31  N3  UNL     1       8.503  -0.424   2.045  1.00  0.00    -0.425 N 
HETATM   32  C19 UNL     1       8.451  -0.504   3.443  1.00  0.00     0.139 C 
ATOM     33  H3  UNL     1       8.821   0.413   1.557  1.00  0.00     0.152 HD
ENDBRANCH  30  31
ENDBRANCH  29  30
ENDBRANCH  28  29
ENDBRANCH  27  28
ENDBRANCH  26  27
ENDBRANCH  25  26
ENDBRANCH   2  18
BRANCH   1  34
HETATM   34  C6  UNL     1      -2.714  -1.116  -0.655  1.00  0.00     0.340 C 
HETATM   35  N1  UNL     1      -2.820  -2.343   0.227  1.00  0.00    -0.383 NA
HETATM   36  O1  UNL     1      -3.257  -1.132  -1.651  1.00  0.00    -0.250 OA
BRANCH  35  37
HETATM   37  C5  UNL     1      -2.915  -3.369   0.953  1.00  0.00     0.159 C 
BRANCH  37  38
HETATM   38  C4  UNL     1      -4.325  -3.881   1.340  1.00  0.00     0.059 C 
BRANCH  38  39
HETATM   39  C3  UNL     1      -4.246  -5.366   1.653  1.00  0.00     0.006 C 
BRANCH  39  40
HETATM   40  C2  UNL     1      -5.537  -5.956   1.225  1.00  0.00    -0.004 C 
HETATM   41  C1  UNL     1      -5.501  -7.426   1.319  1.00  0.00     0.005 C 
ENDBRANCH  39  40
ENDBRANCH  38  39
ENDBRANCH  37  38
ENDBRANCH  35  37
ENDBRANCH   1  34
BRANCH  17  42
HETATM   42  C31 UNL     1      -3.797   0.989   1.001  1.00  0.00     0.134 C 
BRANCH  42  43
HETATM   43  C32 UNL     1      -4.237   2.381   0.464  1.00  0.00     0.040 C 
BRANCH  43  44
HETATM   44  C33 UNL     1      -5.566   2.691   1.032  1.00  0.00     0.125 C 
BRANCH  44  45
HETATM   45  N6  UNL     1      -5.751   4.138   0.993  1.00  0.00    -0.355 N 
ATOM     46  H6  UNL     1      -5.676   4.700   0.145  1.00  0.00     0.163 HD
BRANCH  45  47
HETATM   47  C34 UNL     1      -6.057   4.687   2.318  1.00  0.00     0.237 C 
HETATM   48  N7  UNL     1      -5.049   5.020   3.092  1.00  0.00    -0.233 N 
ATOM     49  H7  UNL     1      -4.104   4.879   2.736  1.00  0.00     0.198 HD
BRANCH  47  50
HETATM   50  O4  UNL     1      -7.335   4.843   2.728  1.00  0.00    -0.331 OA
ATOM     51  H4  UNL     1      -7.533   5.199   3.586  1.00  0.00     0.221 HD
ENDBRANCH  47  50
BRANCH  48  52
HETATM   52  O5  UNL     1      -5.191   5.542   4.342  1.00  0.00    -0.287 OA
ATOM     53  H5  UNL     1      -4.462   5.783   4.902  1.00  0.00     0.244 HD
ENDBRANCH  48  52
ENDBRANCH  45  47
ENDBRANCH  44  45
ENDBRANCH  43  44
ENDBRANCH  42  43
ENDBRANCH  17  42
TORSDOF 19
