REMARK  6 active torsions:
REMARK  status: ('A' for Active; 'I' for Inactive)
REMARK    1  A    between atoms: C2_2  and  C3_3 
REMARK    2  A    between atoms: C4_4  and  C5_5 
REMARK    3  A    between atoms: C5_5  and  N1_6 
REMARK    4  A    between atoms: N1_6  and  C6_8 
REMARK    5  A    between atoms: C6_8  and  C7_9 
REMARK    6  A    between atoms: N2_13  and  C11_14 
ROOT
HETATM    1  N1  UNL     1       0.328   1.111  -0.226  1.00  0.00    -0.382 N 
ATOM      2  H1  UNL     1       0.903   1.847  -0.637  1.00  0.00     0.164 HD
ENDROOT
BRANCH   1   3
HETATM    3  C5  UNL     1      -0.808   1.495   0.462  1.00  0.00     0.067 C 
BRANCH   3   4
HETATM    4  C4  UNL     1      -2.200   1.259  -0.015  1.00  0.00     0.047 C 
HETATM    5  C3  UNL     1      -2.604  -0.147  -0.180  1.00  0.00     0.092 C 
HETATM    6  N3  UNL     1      -3.505  -0.636   0.782  1.00  0.00    -0.383 N 
HETATM    7  C18 UNL     1      -4.288   0.151   1.591  1.00  0.00     0.084 C 
HETATM    8  C21 UNL     1      -3.934  -1.969   0.760  1.00  0.00     0.059 C 
HETATM    9  C17 UNL     1      -4.394   1.596   1.231  1.00  0.00     0.026 C 
HETATM   10  C19 UNL     1      -5.630  -0.545   1.609  1.00  0.00     0.030 C 
HETATM   11  C16 UNL     1      -3.112   2.179   0.745  1.00  0.00     0.014 C 
HETATM   12  C20 UNL     1      -5.366  -1.997   1.278  1.00  0.00     0.046 C 
BRANCH   5  13
HETATM   13  C2  UNL     1      -3.018  -0.468  -1.612  1.00  0.00     0.021 C 
HETATM   14  C1  UNL     1      -4.159   0.312  -2.115  1.00  0.00     0.007 C 
ENDBRANCH   5  13
ENDBRANCH   3   4
ENDBRANCH   1   3
BRANCH   1  15
HETATM   15  C6  UNL     1       0.745  -0.206  -0.399  1.00  0.00     0.066 C 
BRANCH  15  16
HETATM   16  C7  UNL     1       2.140  -0.434  -0.921  1.00  0.00     0.052 C 
HETATM   17  C8  UNL     1       2.454   0.108  -2.262  1.00  0.00     0.013 C 
HETATM   18  C9  UNL     1       3.650  -0.730  -2.772  1.00  0.00     0.031 C 
HETATM   19  C10 UNL     1       4.481  -1.134  -1.557  1.00  0.00     0.273 C 
HETATM   20  N2  UNL     1       4.470   0.016  -0.674  1.00  0.00     0.093 N 
HETATM   21  C15 UNL     1       3.212   0.057   0.062  1.00  0.00     0.282 C 
BRANCH  20  22
HETATM   22  C11 UNL     1       5.613   0.067   0.173  1.00  0.00     0.223 C 
HETATM   23  C12 UNL     1       5.793  -0.999   1.208  1.00  0.00     0.036 C 
HETATM   24  C13 UNL     1       6.016   0.133   2.225  1.00  0.00     0.004 C 
HETATM   25  C14 UNL     1       5.597   1.163   1.188  1.00  0.00     0.036 C 
ENDBRANCH  20  22
ENDBRANCH  15  16
ENDBRANCH   1  15
TORSDOF 6
