REMARK  7 active torsions:
REMARK  status: ('A' for Active; 'I' for Inactive)
REMARK       I    between atoms: C2_2  and  N1_4 
REMARK    1  A    between atoms: C4_6  and  O2_7 
REMARK    2  A    between atoms: O2_7  and  C5_8 
REMARK    3  A    between atoms: C5_8  and  C6_9 
REMARK    4  A    between atoms: C6_9  and  C7_10 
REMARK    5  A    between atoms: C7_10  and  C8_11 
REMARK    6  A    between atoms: C19_22  and  C20_23 
REMARK    7  A    between atoms: C20_23  and  O3_24 
ROOT
HETATM    1  O2  UNL     1       1.233   0.263   0.168  1.00  0.00    -0.354 OA
ENDROOT
BRANCH   1   2
HETATM    2  C4  UNL     1       2.576  -0.159   0.261  1.00  0.00     0.062 C 
HETATM    3  C3  UNL     1       3.517   0.660   0.650  1.00  0.00     0.126 C 
HETATM    4  N1  UNL     1       4.903   0.296   0.767  1.00  0.00    -0.319 N 
HETATM    5  C2  UNL     1       5.819   1.344   1.008  1.00  0.00     0.220 C 
HETATM    6  C19 UNL     1       5.226  -1.088   0.632  1.00  0.00     0.116 C 
HETATM    7  C1  UNL     1       5.350   2.737   1.122  1.00  0.00     0.117 C 
HETATM    8  O1  UNL     1       7.032   1.116   1.129  1.00  0.00    -0.273 OA
HETATM    9  C18 UNL     1       4.337  -1.772  -0.398  1.00  0.00     0.034 C 
HETATM   10  C17 UNL     1       2.891  -1.561  -0.096  1.00  0.00     0.068 C 
BRANCH   6  11
HETATM   11  C20 UNL     1       6.636  -1.421   0.292  1.00  0.00     0.189 C 
BRANCH  11  12
HETATM   12  O3  UNL     1       7.069  -0.875  -0.907  1.00  0.00    -0.399 OA
ATOM     13  H3  UNL     1       7.969  -1.088  -1.124  1.00  0.00     0.209 HD
ENDBRANCH  11  12
ENDBRANCH   6  11
ENDBRANCH   1   2
BRANCH   1  14
HETATM   14  C5  UNL     1       0.799   1.028  -0.961  1.00  0.00     0.175 C 
BRANCH  14  15
HETATM   15  C6  UNL     1      -0.691   1.298  -0.718  1.00  0.00     0.027 C 
BRANCH  15  16
HETATM   16  C7  UNL     1      -1.372  -0.009  -0.632  1.00  0.00     0.007 C 
BRANCH  16  17
HETATM   17  C8  UNL     1      -2.866   0.098  -0.391  1.00  0.00    -0.014 C 
HETATM   18  C9  UNL     1      -3.575   0.858  -1.501  1.00  0.00     0.005 C 
HETATM   19  C10 UNL     1      -4.677   1.641  -0.887  1.00  0.00     0.000 C 
HETATM   20  C11 UNL     1      -5.870   0.794  -0.471  1.00  0.00     0.000 C 
HETATM   21  C12 UNL     1      -5.750   0.497   0.968  1.00  0.00     0.005 C 
HETATM   22  C13 UNL     1      -5.350  -0.839   1.419  1.00  0.00    -0.010 A 
HETATM   23  C14 UNL     1      -5.688  -2.093   0.690  1.00  0.00     0.010 A 
HETATM   24  C15 UNL     1      -4.236  -1.557   0.929  1.00  0.00    -0.010 A 
HETATM   25  C16 UNL     1      -3.529  -1.256  -0.310  1.00  0.00     0.009 C 
ENDBRANCH  16  17
ENDBRANCH  15  16
ENDBRANCH  14  15
ENDBRANCH   1  14
TORSDOF 7
