REMARK  5 active torsions:
REMARK  status: ('A' for Active; 'I' for Inactive)
REMARK    1  A    between atoms: N1_1  and  C1_4 
REMARK    2  A    between atoms: C2_7  and  N3_8 
REMARK    3  A    between atoms: N3_8  and  C3_10 
REMARK    4  A    between atoms: C3_10  and  C4_11 
REMARK    5  A    between atoms: C4_11  and  N4_12 
ROOT
HETATM    1  C1  UNL     1       4.509   0.930  -0.377  1.00  0.00     0.162 A 
HETATM    2  N2  UNL     1       3.244   0.482  -0.238  1.00  0.00    -0.170 N 
ATOM      3  H2  UNL     1       2.499   1.130  -0.494  1.00  0.00     0.186 HD
HETATM    4  C2  UNL     1       2.869  -0.714   0.197  1.00  0.00     0.683 A 
HETATM    5  N6  UNL     1       3.706  -1.717   0.584  1.00  0.00    -0.150 N 
ATOM      6  H6  UNL     1       3.276  -2.588   0.896  1.00  0.00     0.188 HD
HETATM    7  C9  UNL     1       5.036  -1.660   0.590  1.00  0.00     0.305 A 
HETATM    8  O1  UNL     1       5.701  -2.673   0.977  1.00  0.00    -0.259 OA
HETATM    9  S1  UNL     1       5.709  -0.194   0.062  1.00  0.00     0.008 SA
ENDROOT
BRANCH   4  10
HETATM   10  N3  UNL     1       1.631  -1.006   0.289  1.00  0.00    -0.224 N 
ATOM     11  H3  UNL     1       1.366  -1.932   0.626  1.00  0.00     0.177 HD
BRANCH  10  12
HETATM   12  C3  UNL     1       0.602  -0.079  -0.064  1.00  0.00     0.157 C 
BRANCH  12  13
HETATM   13  C4  UNL     1      -0.725  -0.455   0.600  1.00  0.00     0.137 C 
BRANCH  13  14
HETATM   14  N4  UNL     1      -1.743   0.458   0.214  1.00  0.00    -0.408 N 
HETATM   15  C5  UNL     1      -2.155   0.336  -1.130  1.00  0.00     0.136 C 
HETATM   16  C6  UNL     1      -3.344  -0.623  -1.140  1.00  0.00     0.133 C 
HETATM   17  N5  UNL     1      -4.429  -0.075  -0.405  1.00  0.00    -0.418 N 
HETATM   18  C7  UNL     1      -4.126   0.807   0.661  1.00  0.00     0.133 C 
ATOM     19  H5  UNL     1      -5.394  -0.309  -0.637  1.00  0.00     0.153 HD
HETATM   20  C8  UNL     1      -2.728   0.676   1.204  1.00  0.00     0.136 C 
ENDBRANCH  13  14
ENDBRANCH  12  13
ENDBRANCH  10  12
ENDBRANCH   4  10
BRANCH   1  21
HETATM   21  N1  UNL     1       4.757   2.139  -0.808  1.00  0.00    -0.379 N 
ATOM     22  H12 UNL     1       4.038   2.813  -1.071  1.00  0.00     0.158 HD
ATOM     23  H11 UNL     1       5.713   2.478  -0.913  1.00  0.00     0.158 HD
ENDBRANCH   1  21
TORSDOF 5
