REMARK  9 active torsions:
REMARK  status: ('A' for Active; 'I' for Inactive)
REMARK    1  A    between atoms: N1_1  and  C1_5 
REMARK    2  A    between atoms: C1_5  and  C2_6 
REMARK    3  A    between atoms: C2_6  and  C3_7 
REMARK    4  A    between atoms: C7_11  and  O1_12 
REMARK    5  A    between atoms: O1_12  and  C8_13 
REMARK    6  A    between atoms: N2_16  and  C11_17 
REMARK    7  A    between atoms: C14_20  and  N3_21 
REMARK    8  A    between atoms: N3_21  and  C15_23 
REMARK    9  A    between atoms: C18_26  and  O2_27 
ROOT
HETATM    1  C8  UNL     1       2.795   0.080  -0.337  1.00  0.00     0.132 C 
HETATM    2  C9  UNL     1       1.920   1.208  -0.851  1.00  0.00     0.062 C 
HETATM    3  C10 UNL     1       0.885   1.599   0.158  1.00  0.00     0.275 C 
HETATM    4  N2  UNL     1      -0.050   0.545   0.459  1.00  0.00     0.093 N 
HETATM    5  C23 UNL     1       0.735  -0.654   0.739  1.00  0.00     0.275 C 
HETATM    6  C24 UNL     1       2.191  -0.361   0.984  1.00  0.00     0.062 C 
ENDROOT
BRANCH   4   7
HETATM    7  C11 UNL     1      -0.932   0.217  -0.639  1.00  0.00     0.223 C 
HETATM    8  C12 UNL     1      -1.831   1.319  -1.083  1.00  0.00     0.041 C 
HETATM    9  C13 UNL     1      -3.272   1.166  -0.572  1.00  0.00     0.054 C 
HETATM   10  C14 UNL     1      -3.257   0.763   0.886  1.00  0.00    -0.014 C 
HETATM   11  C21 UNL     1      -2.631  -0.601   1.017  1.00  0.00     0.054 C 
HETATM   12  C22 UNL     1      -1.790  -0.950  -0.202  1.00  0.00     0.041 C 
BRANCH  10  13
HETATM   13  N3  UNL     1      -4.341   1.078   1.667  1.00  0.00    -0.370 N 
ATOM     14  H3  UNL     1      -4.147   1.698   2.454  1.00  0.00     0.165 HD
BRANCH  13  15
HETATM   15  C15 UNL     1      -5.651   0.679   1.542  1.00  0.00    -0.014 C 
HETATM   16  C16 UNL     1      -5.994  -0.788   1.646  1.00  0.00     0.055 C 
HETATM   17  C17 UNL     1      -7.528  -0.905   1.608  1.00  0.00     0.037 C 
HETATM   18  C18 UNL     1      -8.061  -0.535   0.248  1.00  0.00     0.118 C 
HETATM   19  C19 UNL     1      -7.007   0.237  -0.529  1.00  0.00     0.037 C 
HETATM   20  C20 UNL     1      -6.482   1.309   0.435  1.00  0.00     0.055 C 
BRANCH  18  21
HETATM   21  O2  UNL     1      -8.534  -1.630  -0.460  1.00  0.00    -0.396 OA
ATOM     22  H2  UNL     1      -8.870  -1.397  -1.317  1.00  0.00     0.210 HD
ENDBRANCH  18  21
ENDBRANCH  13  15
ENDBRANCH  10  13
ENDBRANCH   4   7
BRANCH   1  23
HETATM   23  O1  UNL     1       4.123   0.417  -0.244  1.00  0.00    -0.346 OA
BRANCH  23  24
HETATM   24  C7  UNL     1       5.149  -0.199  -0.892  1.00  0.00     0.069 A 
HETATM   25  C6  UNL     1       5.033  -1.267  -1.747  1.00  0.00     0.037 A 
HETATM   26  C5  UNL     1       6.179  -1.791  -2.337  1.00  0.00     0.003 A 
HETATM   27  C4  UNL     1       7.432  -1.282  -2.101  1.00  0.00     0.007 A 
HETATM   28  C3  UNL     1       7.566  -0.209  -1.245  1.00  0.00    -0.054 A 
HETATM   29  C25 UNL     1       6.439   0.306  -0.664  1.00  0.00     0.044 A 
BRANCH  28  30
HETATM   30  C2  UNL     1       8.928   0.372  -0.970  1.00  0.00     0.066 C 
BRANCH  30  31
HETATM   31  C1  UNL     1       9.492  -0.376   0.216  1.00  0.00     0.234 C 
BRANCH  31  32
HETATM   32  N1  UNL     1       8.623  -0.197   1.345  1.00  0.00    -0.079 N 
ATOM     33  H13 UNL     1       8.456   0.788   1.552  1.00  0.00     0.274 HD
ATOM     34  H12 UNL     1       7.661  -0.466   1.139  1.00  0.00     0.274 HD
ATOM     35  H11 UNL     1       9.004  -0.702   2.145  1.00  0.00     0.274 HD
ENDBRANCH  31  32
ENDBRANCH  30  31
ENDBRANCH  28  30
ENDBRANCH  23  24
ENDBRANCH   1  23
TORSDOF 9
