REMARK  10 active torsions:
REMARK  status: ('A' for Active; 'I' for Inactive)
REMARK    1  A    between atoms: C2_2  and  N1_4 
REMARK    2  A    between atoms: C2_2  and  C4_8 
REMARK    3  A    between atoms: N2_11  and  N3_12 
REMARK       I    between atoms: N3_12  and  C7_14 
REMARK    4  A    between atoms: C7_14  and  C8_16 
REMARK    5  A    between atoms: C8_16  and  C9_17 
REMARK    6  A    between atoms: C8_16  and  N4_24 
REMARK    7  A    between atoms: C9_17  and  C10_18 
REMARK    8  A    between atoms: N4_24  and  C16_27 
REMARK    9  A    between atoms: C16_27  and  C17_28 
REMARK   10  A    between atoms: C22_34  and  C23_35 
ROOT
HETATM    1  N3  UNL     1       0.736   0.383   0.287  1.00  0.00    -0.287 N 
ATOM      2  H3  UNL     1       1.042   1.213   0.795  1.00  0.00     0.184 HD
HETATM    3  C7  UNL     1       1.708  -0.507  -0.253  1.00  0.00     0.263 C 
HETATM    4  O1  UNL     1       1.326  -1.551  -0.866  1.00  0.00    -0.270 OA
ENDROOT
BRANCH   3   5
HETATM    5  C8  UNL     1       3.150  -0.274  -0.134  1.00  0.00     0.282 C 
BRANCH   5   6
HETATM    6  C9  UNL     1       3.701   0.778  -1.066  1.00  0.00     0.081 C 
BRANCH   6   7
HETATM    7  C10 UNL     1       3.122   2.120  -0.927  1.00  0.00    -0.056 A 
HETATM    8  C11 UNL     1       2.098   2.582  -1.730  1.00  0.00     0.007 A 
HETATM    9  C12 UNL     1       1.550   3.841  -1.604  1.00  0.00     0.001 A 
HETATM   10  C13 UNL     1       2.027   4.704  -0.635  1.00  0.00     0.000 A 
HETATM   11  C14 UNL     1       3.063   4.240   0.180  1.00  0.00     0.001 A 
HETATM   12  C15 UNL     1       3.603   2.973   0.041  1.00  0.00     0.007 A 
ENDBRANCH   6   7
ENDBRANCH   5   6
BRANCH   5  13
HETATM   13  N4  UNL     1       3.916  -1.494  -0.435  1.00  0.00    -0.058 N 
ATOM     14  H42 UNL     1       3.717  -1.848  -1.370  1.00  0.00     0.278 HD
ATOM     15  H41 UNL     1       4.910  -1.300  -0.557  1.00  0.00     0.278 HD
BRANCH  13  16
HETATM   16  C16 UNL     1       3.680  -2.501   0.590  1.00  0.00     0.279 C 
BRANCH  16  17
HETATM   17  C17 UNL     1       4.446  -3.755   0.249  1.00  0.00     0.008 A 
HETATM   18  C18 UNL     1       5.629  -3.864  -0.431  1.00  0.00     0.017 A 
HETATM   19  C19 UNL     1       6.124  -5.090  -0.617  1.00  0.00     0.008 A 
HETATM   20  C20 UNL     1       5.406  -6.145  -0.111  1.00  0.00     0.050 A 
HETATM   21  S1  UNL     1       4.062  -5.378   0.607  1.00  0.00    -0.105 SA
ENDBRANCH  16  17
ENDBRANCH  13  16
ENDBRANCH   5  13
ENDBRANCH   3   5
BRANCH   1  22
HETATM   22  N2  UNL     1      -0.624   0.136   0.132  1.00  0.00    -0.228 NA
HETATM   23  C6  UNL     1      -1.034  -0.930   0.981  1.00  0.00     0.114 C 
HETATM   24  C5  UNL     1      -2.545  -1.166   0.897  1.00  0.00     0.024 C 
HETATM   25  C4  UNL     1      -3.253   0.150   1.098  1.00  0.00     0.027 C 
HETATM   26  C22 UNL     1      -2.827   1.229   0.156  1.00  0.00     0.011 C 
HETATM   27  C21 UNL     1      -1.315   1.373   0.392  1.00  0.00     0.119 C 
BRANCH  25  28
HETATM   28  C2  UNL     1      -4.717  -0.007   1.281  1.00  0.00     0.120 C 
HETATM   29  C1  UNL     1      -5.441   1.303   1.500  1.00  0.00     0.046 C 
HETATM   30  C3  UNL     1      -5.378  -0.634   0.072  1.00  0.00     0.046 C 
BRANCH  28  31
HETATM   31  N1  UNL     1      -5.018  -0.861   2.411  1.00  0.00    -0.071 N 
ATOM     32  H13 UNL     1      -4.797  -0.428   3.308  1.00  0.00     0.275 HD
ATOM     33  H12 UNL     1      -6.019  -0.980   2.565  1.00  0.00     0.275 HD
ATOM     34  H11 UNL     1      -4.530  -1.744   2.263  1.00  0.00     0.275 HD
ENDBRANCH  28  31
ENDBRANCH  25  28
BRANCH  26  35
HETATM   35  C23 UNL     1      -3.194   1.140  -1.258  1.00  0.00    -0.009 A 
HETATM   36  C24 UNL     1      -2.846   0.118  -2.231  1.00  0.00     0.005 A 
HETATM   37  C25 UNL     1      -2.127   1.478  -2.309  1.00  0.00     0.005 A 
ENDBRANCH  26  35
ENDBRANCH   1  22
TORSDOF 10
