REMARK  10 active torsions:
REMARK  status: ('A' for Active; 'I' for Inactive)
REMARK    1  A    between atoms: C8_9  and  C9_10 
REMARK    2  A    between atoms: C9_10  and  O2_11 
REMARK    3  A    between atoms: C9_10  and  C10_13 
REMARK    4  A    between atoms: C10_13  and  O3_14 
REMARK    5  A    between atoms: C10_13  and  C11_16 
REMARK    6  A    between atoms: C11_16  and  C12_17 
REMARK    7  A    between atoms: C12_17  and  C13_18 
REMARK    8  A    between atoms: C12_17  and  C14_23 
REMARK    9  A    between atoms: C12_17  and  C20_29 
REMARK   10  A    between atoms: C13_18  and  N1_19 
ROOT
HETATM    1  C11 UNL     1      -1.555  -1.097  -0.351  1.00  0.00     0.055 C 
ENDROOT
BRANCH   1   2
HETATM    2  C10 UNL     1      -0.190  -0.805   0.108  1.00  0.00     0.153 C 
BRANCH   2   3
HETATM    3  C9  UNL     1       0.772  -1.804  -0.553  1.00  0.00     0.202 C 
BRANCH   3   4
HETATM    4  C8  UNL     1       2.168  -1.640  -0.049  1.00  0.00     0.302 C 
HETATM    5  O1  UNL     1       2.700  -0.387  -0.214  1.00  0.00    -0.336 OA
HETATM    6  C7  UNL     1       3.750  -0.264   0.667  1.00  0.00     0.154 C 
HETATM    7  C2  UNL     1       5.104  -0.377   0.022  1.00  0.00     0.026 C 
HETATM    8  C6  UNL     1       3.735   1.044   1.436  1.00  0.00     0.049 C 
HETATM    9  C26 UNL     1       3.526  -1.342   1.680  1.00  0.00     0.296 C 
HETATM   10  C1  UNL     1       5.365  -1.688  -0.628  1.00  0.00     0.014 C 
HETATM   11  C3  UNL     1       5.193   0.711  -1.030  1.00  0.00     0.008 C 
HETATM   12  C4  UNL     1       5.247   2.038  -0.301  1.00  0.00     0.001 C 
HETATM   13  C5  UNL     1       4.052   2.231   0.575  1.00  0.00     0.004 C 
HETATM   14  O4  UNL     1       2.299  -1.896   1.332  1.00  0.00    -0.284 OA
HETATM   15  O5  UNL     1       4.311  -1.638   2.618  1.00  0.00    -0.262 OA
ENDBRANCH   3   4
BRANCH   3  16
HETATM   16  O2  UNL     1       0.380  -3.118  -0.313  1.00  0.00    -0.388 OA
ATOM     17  H2  UNL     1      -0.508  -3.222  -0.634  1.00  0.00     0.210 HD
ENDBRANCH   3  16
ENDBRANCH   2   3
BRANCH   2  18
HETATM   18  O3  UNL     1       0.336   0.435  -0.224  1.00  0.00    -0.393 OA
ATOM     19  H3  UNL     1      -0.259   1.053   0.185  1.00  0.00     0.210 HD
ENDBRANCH   2  18
ENDBRANCH   1   2
BRANCH   1  20
HETATM   20  C12 UNL     1      -2.691  -0.260   0.167  1.00  0.00     0.040 C 
BRANCH  20  21
HETATM   21  C13 UNL     1      -2.700  -0.427   1.709  1.00  0.00     0.248 C 
BRANCH  21  22
HETATM   22  N1  UNL     1      -3.677   0.378   2.349  1.00  0.00    -0.078 N 
ATOM     23  H13 UNL     1      -3.567   1.358   2.090  1.00  0.00     0.274 HD
ATOM     24  H12 UNL     1      -4.603   0.205   1.959  1.00  0.00     0.274 HD
ATOM     25  H11 UNL     1      -3.683   0.268   3.363  1.00  0.00     0.274 HD
ENDBRANCH  21  22
ENDBRANCH  20  21
BRANCH  20  26
HETATM   26  C14 UNL     1      -3.912  -0.914  -0.387  1.00  0.00    -0.043 A 
HETATM   27  C15 UNL     1      -3.993  -1.155  -1.736  1.00  0.00     0.008 A 
HETATM   28  C16 UNL     1      -5.061  -1.773  -2.357  1.00  0.00     0.001 A 
HETATM   29  C17 UNL     1      -6.122  -2.183  -1.602  1.00  0.00     0.000 A 
HETATM   30  C18 UNL     1      -6.088  -1.965  -0.250  1.00  0.00     0.001 A 
HETATM   31  C19 UNL     1      -4.987  -1.334   0.351  1.00  0.00     0.008 A 
ENDBRANCH  20  26
BRANCH  20  32
HETATM   32  C20 UNL     1      -2.619   1.188  -0.040  1.00  0.00    -0.043 A 
HETATM   33  C21 UNL     1      -1.995   2.034   0.859  1.00  0.00     0.008 A 
HETATM   34  C22 UNL     1      -1.914   3.401   0.720  1.00  0.00     0.001 A 
HETATM   35  C23 UNL     1      -2.472   4.017  -0.363  1.00  0.00     0.000 A 
HETATM   36  C24 UNL     1      -3.104   3.217  -1.285  1.00  0.00     0.001 A 
HETATM   37  C25 UNL     1      -3.182   1.830  -1.136  1.00  0.00     0.008 A 
ENDBRANCH  20  32
ENDBRANCH   1  20
TORSDOF 10
