REMARK  16 active torsions:
REMARK  status: ('A' for Active; 'I' for Inactive)
REMARK    1  A    between atoms: O1_2  and  C2_3 
REMARK    2  A    between atoms: C2_3  and  C3_4 
REMARK    3  A    between atoms: C2_3  and  C15_41 
REMARK    4  A    between atoms: C3_4  and  O2_5 
REMARK    5  A    between atoms: O2_5  and  C4_6 
REMARK    6  A    between atoms: C4_6  and  C5_7 
REMARK    7  A    between atoms: C4_6  and  C6_10 
REMARK    8  A    between atoms: C9_13  and  O5_14 
REMARK    9  A    between atoms: C11_19  and  O6_20 
REMARK   10  A    between atoms: C12_22  and  O7_23 
REMARK   11  A    between atoms: C13_28  and  O8_29 
REMARK   12  A    between atoms: C14_36  and  N8_37 
REMARK   13  A    between atoms: N8_37  and  N9_38 
REMARK   14  A    between atoms: C15_41  and  O9_42 
REMARK   15  A    between atoms: C15_41  and  C16_44 
REMARK   16  A    between atoms: C16_44  and  O10_45 
ROOT
HETATM    1  C6  UNL     1      -0.586   1.181   0.553  1.00  0.00     0.072 A 
HETATM    2  C7  UNL     1      -1.505   0.149   0.567  1.00  0.00     0.038 A 
HETATM    3  C8  UNL     1      -2.842   0.350   0.274  1.00  0.00     0.080 A 
HETATM    4  C9  UNL     1      -3.201   1.671  -0.045  1.00  0.00     0.138 A 
HETATM    5  C10 UNL     1      -2.261   2.673  -0.052  1.00  0.00     0.152 A 
HETATM    6  N1  UNL     1      -2.407   4.010  -0.338  1.00  0.00    -0.317 N 
ATOM      7  H1  UNL     1      -3.286   4.460  -0.594  1.00  0.00     0.169 HD
HETATM    8  C11 UNL     1      -1.248   4.625  -0.233  1.00  0.00     0.194 A 
HETATM    9  C12 UNL     1      -0.304   3.645   0.137  1.00  0.00     0.201 A 
HETATM   10  N2  UNL     1      -0.966   2.485   0.234  1.00  0.00    -0.272 N 
HETATM   11  N3  UNL     1      -3.874  -0.596   0.268  1.00  0.00    -0.347 N 
ATOM     12  H3  UNL     1      -4.420  -0.591  -0.594  1.00  0.00     0.163 HD
HETATM   13  C13 UNL     1      -4.323  -1.566   1.215  1.00  0.00     0.335 C 
HETATM   14  N4  UNL     1      -3.710  -1.605   2.481  1.00  0.00    -0.076 NA
HETATM   15  N5  UNL     1      -3.265  -2.940   2.717  1.00  0.00    -0.013 NA
HETATM   16  N6  UNL     1      -2.039  -3.078   2.021  1.00  0.00    -0.015 NA
HETATM   17  N7  UNL     1      -1.463  -1.843   2.007  1.00  0.00    -0.296 N 
ATOM     18  H7  UNL     1      -1.337  -1.332   2.881  1.00  0.00     0.179 HD
HETATM   19  C14 UNL     1      -1.043  -1.271   0.800  1.00  0.00     0.247 C 
ENDROOT
BRANCH   1  20
HETATM   20  C4  UNL     1       0.827   1.033   0.940  1.00  0.00     0.273 C 
BRANCH  20  21
HETATM   21  O2  UNL     1       1.551   0.198   0.059  1.00  0.00    -0.366 OA
BRANCH  21  22
HETATM   22  C3  UNL     1       2.655   0.784  -0.480  1.00  0.00     0.204 C 
BRANCH  22  23
HETATM   23  C2  UNL     1       3.365  -0.180  -1.407  1.00  0.00     0.175 C 
BRANCH  23  24
HETATM   24  O1  UNL     1       3.787  -1.322  -0.798  1.00  0.00    -0.386 OA
HETATM   25  C1  UNL     1       3.278  -2.490  -1.299  1.00  0.00     0.202 C 
ENDBRANCH  23  24
BRANCH  23  26
HETATM   26  C15 UNL     1       4.484   0.582  -2.055  1.00  0.00     0.172 C 
BRANCH  26  27
HETATM   27  O9  UNL     1       4.016   1.752  -2.667  1.00  0.00    -0.391 OA
ATOM     28  H9  UNL     1       4.724   2.234  -3.077  1.00  0.00     0.210 HD
ENDBRANCH  26  27
BRANCH  26  29
HETATM   29  C16 UNL     1       5.243  -0.178  -3.095  1.00  0.00     0.198 C 
BRANCH  29  30
HETATM   30  O10 UNL     1       4.495  -0.526  -4.204  1.00  0.00    -0.398 OA
ATOM     31  H10 UNL     1       4.977  -1.009  -4.865  1.00  0.00     0.209 HD
ENDBRANCH  29  30
ENDBRANCH  26  29
ENDBRANCH  23  26
ENDBRANCH  22  23
ENDBRANCH  21  22
ENDBRANCH  20  21
BRANCH  20  32
HETATM   32  C5  UNL     1       0.984   0.386   2.269  1.00  0.00     0.209 C 
HETATM   33  O3  UNL     1       1.710  -0.566   2.566  1.00  0.00    -0.646 OA
HETATM   34  O4  UNL     1       0.202   0.947   3.290  1.00  0.00    -0.646 OA
ENDBRANCH  20  32
ENDBRANCH   1  20
BRANCH  19  35
HETATM   35  N8  UNL     1      -1.600  -2.014  -0.386  1.00  0.00    -0.117 NA
BRANCH  35  36
HETATM   36  N9  UNL     1      -1.219  -3.335  -0.372  1.00  0.00    -0.346 N 
ATOM     37  H92 UNL     1      -0.633  -3.745   0.356  1.00  0.00     0.172 HD
ATOM     38  H91 UNL     1      -1.596  -3.838  -1.175  1.00  0.00     0.172 HD
ENDBRANCH  35  36
ENDBRANCH  19  35
BRANCH   9  39
HETATM   39  O7  UNL     1       1.032   3.923   0.340  1.00  0.00    -0.343 OA
ATOM     40  H7  UNL     1       1.668   3.263   0.589  1.00  0.00     0.219 HD
ENDBRANCH   9  39
BRANCH   4  41
HETATM   41  O5  UNL     1      -4.501   2.019  -0.365  1.00  0.00    -0.355 OA
ATOM     42  H5  UNL     1      -4.744   2.912  -0.581  1.00  0.00     0.218 HD
ENDBRANCH   4  41
BRANCH   8  43
HETATM   43  O6  UNL     1      -0.959   5.958  -0.435  1.00  0.00    -0.343 OA
ATOM     44  H6  UNL     1      -0.122   6.402  -0.359  1.00  0.00     0.219 HD
ENDBRANCH   8  43
BRANCH  13  45
HETATM   45  O8  UNL     1      -5.735  -1.357   1.378  1.00  0.00    -0.362 OA
ATOM     46  H8  UNL     1      -6.034  -2.002   2.008  1.00  0.00     0.213 HD
ENDBRANCH  13  45
TORSDOF 16
