REMARK  7 active torsions:
REMARK  status: ('A' for Active; 'I' for Inactive)
REMARK       I    between atoms: N2_7  and  C6_9 
REMARK    1  A    between atoms: N4_11  and  N5_13 
REMARK    2  A    between atoms: N6_16  and  C7_17 
REMARK    3  A    between atoms: N6_16  and  C9_19 
REMARK    4  A    between atoms: C9_19  and  C10_20 
REMARK    5  A    between atoms: C10_20  and  C11_21 
REMARK    6  A    between atoms: C11_21  and  C12_22 
REMARK    7  A    between atoms: C12_22  and  N7_23 
ROOT
HETATM    1  C1  UNL     1      -0.578   0.180  -3.991  1.00  0.00     0.017 C 
HETATM    2  C2  UNL     1      -0.258  -0.502  -2.921  1.00  0.00    -0.045 C 
HETATM    3  C3  UNL     1      -0.643  -1.922  -2.727  1.00  0.00     0.160 C 
HETATM    4  N1  UNL     1      -1.043  -2.083  -1.365  1.00  0.00    -0.347 N 
HETATM    5  C4  UNL     1      -1.626  -3.379  -1.008  1.00  0.00     0.153 C 
HETATM    6  C5  UNL     1      -0.911  -1.077  -0.337  1.00  0.00     0.285 C 
HETATM    7  N2  UNL     1      -1.398  -1.379   0.771  1.00  0.00    -0.295 N 
ATOM      8  H2  UNL     1      -1.809  -2.312   0.731  1.00  0.00     0.171 HD
HETATM    9  C6  UNL     1      -1.553  -0.852   2.020  1.00  0.00     0.209 C 
HETATM   10  N3  UNL     1      -2.536   0.146   2.381  1.00  0.00    -0.062 NA
HETATM   11  N4  UNL     1      -0.804  -1.250   2.998  1.00  0.00    -0.280 N 
ATOM     12  H4  UNL     1      -0.090  -1.962   2.843  1.00  0.00     0.189 HD
HETATM   13  N6  UNL     1      -0.275   0.157  -0.568  1.00  0.00    -0.003 N 
HETATM   14  C13 UNL     1       0.534   0.092  -1.791  1.00  0.00     0.282 C 
ENDROOT
BRANCH  13  15
HETATM   15  C7  UNL     1      -1.157   1.293  -0.688  1.00  0.00     0.243 C 
HETATM   16  C8  UNL     1      -2.492   1.035  -1.264  1.00  0.00     0.035 C 
ENDBRANCH  13  15
BRANCH  13  17
HETATM   17  C9  UNL     1       0.681   0.513   0.495  1.00  0.00     0.248 C 
BRANCH  17  18
HETATM   18  C10 UNL     1       1.698   1.480  -0.068  1.00  0.00     0.030 C 
BRANCH  18  19
HETATM   19  C11 UNL     1       2.691   1.908   1.006  1.00  0.00     0.029 C 
BRANCH  19  20
HETATM   20  C12 UNL     1       3.459   0.737   1.573  1.00  0.00     0.229 C 
BRANCH  20  21
HETATM   21  N7  UNL     1       4.406   1.169   2.587  1.00  0.00    -0.079 N 
ATOM     22  H73 UNL     1       5.033   1.891   2.231  1.00  0.00     0.274 HD
ATOM     23  H72 UNL     1       3.948   1.708   3.322  1.00  0.00     0.274 HD
ATOM     24  H71 UNL     1       4.925   0.378   2.970  1.00  0.00     0.274 HD
ENDBRANCH  20  21
ENDBRANCH  19  20
ENDBRANCH  18  19
ENDBRANCH  17  18
ENDBRANCH  13  17
BRANCH  11  25
HETATM   25  N5  UNL     1      -0.982  -0.699   4.257  1.00  0.00    -0.343 N 
ATOM     26  H52 UNL     1      -1.700   0.012   4.395  1.00  0.00     0.176 HD
ATOM     27  H51 UNL     1      -0.392  -1.013   5.028  1.00  0.00     0.176 HD
ENDBRANCH  11  25
TORSDOF 7
