REMARK  15 active torsions:
REMARK  status: ('A' for Active; 'I' for Inactive)
REMARK    1  A    between atoms: C2_2  and  C3_4 
REMARK    2  A    between atoms: C3_4  and  C4_5 
REMARK    3  A    between atoms: C4_5  and  C5_6 
REMARK    4  A    between atoms: C5_6  and  C6_7 
REMARK       I    between atoms: N1_10  and  C7_12 
REMARK    5  A    between atoms: C7_12  and  C8_14 
REMARK    6  A    between atoms: C15_22  and  C16_23 
REMARK       I    between atoms: C16_23  and  N2_25 
REMARK    7  A    between atoms: N2_25  and  C17_27 
REMARK    8  A    between atoms: C17_27  and  C18_28 
REMARK    9  A    between atoms: C18_28  and  C19_29 
REMARK   10  A    between atoms: C19_29  and  C20_30 
REMARK   11  A    between atoms: C20_30  and  C21_31 
REMARK   12  A    between atoms: C21_31  and  C22_32 
REMARK   13  A    between atoms: C22_32  and  N3_33 
REMARK   14  A    between atoms: C28_39  and  C29_40 
REMARK       I    between atoms: C29_40  and  N4_42 
REMARK   15  A    between atoms: N4_42  and  C30_44 
ROOT
HETATM    1  C8  UNL     1      -3.933   0.389   1.566  1.00  0.00     0.108 C 
HETATM    2  C9  UNL     1      -3.127  -0.182   0.376  1.00  0.00     0.023 C 
HETATM    3  C10 UNL     1      -1.868   0.662   0.273  1.00  0.00     0.018 A 
HETATM    4  C11 UNL     1      -1.965   1.384   1.323  1.00  0.00     0.012 A 
HETATM    5  C12 UNL     1      -1.466   2.705   1.846  1.00  0.00     0.046 C 
HETATM    6  C13 UNL     1      -1.304   2.005   3.191  1.00  0.00     0.137 C 
HETATM    7  O5  UNL     1      -2.673   1.653   3.350  1.00  0.00    -0.378 OA
HETATM    8  C14 UNL     1      -2.820   0.744   2.409  1.00  0.00     0.145 C 
HETATM    9  C15 UNL     1      -0.452   0.870   2.654  1.00  0.00     0.126 C 
HETATM   10  C28 UNL     1      -0.731   0.586   1.234  1.00  0.00     0.071 A 
ENDROOT
BRANCH   9  11
HETATM   11  C16 UNL     1       0.951   1.354   2.783  1.00  0.00     0.225 C 
HETATM   12  O6  UNL     1       1.224   2.565   3.017  1.00  0.00    -0.273 OA
HETATM   13  N2  UNL     1       2.101   0.487   2.650  1.00  0.00    -0.361 N 
ATOM     14  H2  UNL     1       1.966  -0.507   2.463  1.00  0.00     0.162 HD
BRANCH  13  15
HETATM   15  C17 UNL     1       3.420   1.008   2.778  1.00  0.00     0.122 C 
BRANCH  15  16
HETATM   16  C18 UNL     1       4.562   0.110   2.632  1.00  0.00     0.020 C 
BRANCH  16  17
HETATM   17  C19 UNL     1       4.861  -0.543   1.337  1.00  0.00     0.002 C 
BRANCH  17  18
HETATM   18  C20 UNL     1       3.810  -1.394   0.760  1.00  0.00     0.002 C 
BRANCH  18  19
HETATM   19  C21 UNL     1       4.116  -2.149  -0.484  1.00  0.00     0.030 C 
BRANCH  19  20
HETATM   20  C22 UNL     1       4.474  -1.412  -1.706  1.00  0.00     0.272 C 
BRANCH  20  21
HETATM   21  N3  UNL     1       5.692  -0.667  -1.557  1.00  0.00     0.088 N 
HETATM   22  C23 UNL     1       6.857  -1.509  -1.457  1.00  0.00     0.272 C 
HETATM   23  C24 UNL     1       8.008  -0.647  -0.966  1.00  0.00     0.030 C 
HETATM   24  C25 UNL     1       8.224   0.513  -1.887  1.00  0.00     0.003 C 
HETATM   25  C26 UNL     1       6.944   1.277  -2.158  1.00  0.00     0.030 C 
HETATM   26  C27 UNL     1       5.906   0.267  -2.646  1.00  0.00     0.272 C 
ENDBRANCH  20  21
ENDBRANCH  19  20
ENDBRANCH  18  19
ENDBRANCH  17  18
ENDBRANCH  16  17
ENDBRANCH  15  16
ENDBRANCH  13  15
ENDBRANCH   9  11
BRANCH  10  27
HETATM   27  C29 UNL     1      -0.468  -0.862   1.026  1.00  0.00     0.246 C 
HETATM   28  O7  UNL     1      -0.624  -1.753   1.920  1.00  0.00    -0.272 OA
HETATM   29  N4  UNL     1      -0.015  -1.333  -0.233  1.00  0.00    -0.159 N 
ATOM     30  H4  UNL     1       0.366  -0.640  -0.877  1.00  0.00     0.187 HD
BRANCH  29  31
HETATM   31  C30 UNL     1      -0.040  -2.548  -0.636  1.00  0.00     0.684 A 
HETATM   32  N5  UNL     1      -0.534  -3.493   0.184  1.00  0.00    -0.202 N 
HETATM   33  C31 UNL     1      -0.595  -4.794  -0.179  1.00  0.00     0.107 A 
ATOM     34  H5  UNL     1      -0.872  -3.220   1.107  1.00  0.00     0.183 HD
HETATM   35  C32 UNL     1      -0.145  -5.182  -1.422  1.00  0.00     0.035 A 
HETATM   36  C33 UNL     1       0.363  -4.206  -2.265  1.00  0.00     0.107 A 
HETATM   37  N6  UNL     1       0.400  -2.923  -1.848  1.00  0.00    -0.202 N 
ATOM     38  H6  UNL     1       0.776  -2.213  -2.476  1.00  0.00     0.183 HD
ENDBRANCH  29  31
ENDBRANCH  10  27
BRANCH   1  39
HETATM   39  C7  UNL     1      -4.733   1.528   1.105  1.00  0.00     0.228 C 
HETATM   40  N1  UNL     1      -5.422   1.591  -0.104  1.00  0.00    -0.327 N 
HETATM   41  C3  UNL     1      -6.648   1.357  -0.289  1.00  0.00     0.058 C 
ATOM     42  H1  UNL     1      -4.878   1.854  -0.926  1.00  0.00     0.168 HD
HETATM   43  O4  UNL     1      -4.785   2.534   1.903  1.00  0.00    -0.273 OA
BRANCH  41  44
HETATM   44  C2  UNL     1      -7.534   0.974   0.787  1.00  0.00     0.168 C 
HETATM   45  C1  UNL     1      -8.981   0.671   0.593  1.00  0.00     0.098 C 
HETATM   46  O1  UNL     1      -7.056   0.887   1.961  1.00  0.00    -0.292 OA
ENDBRANCH  41  44
BRANCH  41  47
HETATM   47  C4  UNL     1      -7.253   1.505  -1.661  1.00  0.00     0.071 C 
BRANCH  47  48
HETATM   48  C5  UNL     1      -8.198   2.655  -1.772  1.00  0.00     0.119 C 
BRANCH  48  49
HETATM   49  C6  UNL     1      -8.763   2.753  -3.158  1.00  0.00     0.172 C 
HETATM   50  O2  UNL     1      -8.461   1.949  -4.067  1.00  0.00    -0.648 OA
HETATM   51  O3  UNL     1      -9.651   3.774  -3.426  1.00  0.00    -0.648 OA
ENDBRANCH  48  49
ENDBRANCH  47  48
ENDBRANCH  41  47
ENDBRANCH   1  39
TORSDOF 15
