REMARK  14 active torsions:
REMARK  status: ('A' for Active; 'I' for Inactive)
REMARK    1  A    between atoms: C2_2  and  C3_3 
REMARK    2  A    between atoms: C3_3  and  O1_4 
REMARK    3  A    between atoms: O1_4  and  N1_5 
REMARK    4  A    between atoms: C4_7  and  C5_8 
REMARK    5  A    between atoms: C4_7  and  C15_18 
REMARK    6  A    between atoms: C5_8  and  C6_9 
REMARK    7  A    between atoms: C15_18  and  C16_19 
REMARK    8  A    between atoms: C16_19  and  O2_21 
REMARK    9  A    between atoms: C16_19  and  C18_23 
REMARK   10  A    between atoms: C18_23  and  C19_24 
REMARK   11  A    between atoms: C19_24  and  C20_25 
REMARK   12  A    between atoms: C20_25  and  C23_28 
REMARK   13  A    between atoms: C23_28  and  O3_30 
REMARK   14  A    between atoms: C23_28  and  C25_32 
ROOT
HETATM    1  N1  UNL     1       1.477   2.092   0.528  1.00  0.00    -0.274 N 
ATOM      2  H1  UNL     1       0.834   2.883   0.558  1.00  0.00     0.193 HD
HETATM    3  C4  UNL     1       0.982   0.993   0.001  1.00  0.00     0.016 C 
ENDROOT
BRANCH   3   4
HETATM    4  C5  UNL     1       1.837  -0.187  -0.079  1.00  0.00     0.082 C 
BRANCH   4   5
HETATM    5  C6  UNL     1       3.222  -0.019   0.422  1.00  0.00    -0.014 C 
HETATM    6  C7  UNL     1       4.240  -0.059  -0.373  1.00  0.00    -0.061 C 
HETATM    7  C8  UNL     1       4.140  -0.262  -1.793  1.00  0.00     0.003 C 
HETATM    8  C14 UNL     1       5.627   0.101   0.211  1.00  0.00     0.047 C 
HETATM    9  C9  UNL     1       5.210  -0.536  -2.508  1.00  0.00    -0.025 C 
HETATM   10  C10 UNL     1       6.545  -0.652  -1.947  1.00  0.00     0.036 C 
HETATM   11  C11 UNL     1       6.519  -0.929  -0.472  1.00  0.00    -0.041 C 
HETATM   12  C12 UNL     1       5.982  -2.306  -0.208  1.00  0.00     0.015 C 
HETATM   13  C13 UNL     1       7.925  -0.773   0.076  1.00  0.00     0.015 C 
ENDBRANCH   4   5
ENDBRANCH   3   4
BRANCH   3  14
HETATM   14  C15 UNL     1      -0.402   1.011  -0.502  1.00  0.00     0.092 C 
BRANCH  14  15
HETATM   15  C16 UNL     1      -1.394   0.075   0.118  1.00  0.00     0.059 C 
HETATM   16  C17 UNL     1      -1.108  -1.373  -0.040  1.00  0.00     0.046 C 
BRANCH  15  17
HETATM   17  O2  UNL     1      -1.494   0.414   1.503  1.00  0.00    -0.390 OA
ATOM     18  H2  UNL     1      -2.123  -0.180   1.896  1.00  0.00     0.210 HD
ENDBRANCH  15  17
BRANCH  15  19
HETATM   19  C18 UNL     1      -2.739   0.446  -0.454  1.00  0.00     0.038 C 
BRANCH  19  20
HETATM   20  C19 UNL     1      -3.856  -0.361   0.079  1.00  0.00     0.014 C 
BRANCH  20  21
HETATM   21  C20 UNL     1      -5.169   0.105  -0.529  1.00  0.00    -0.017 C 
HETATM   22  C21 UNL     1      -5.434   1.561  -0.212  1.00  0.00     0.018 C 
HETATM   23  C22 UNL     1      -5.065  -0.047  -2.024  1.00  0.00     0.018 C 
BRANCH  21  24
HETATM   24  C23 UNL     1      -6.347  -0.671   0.005  1.00  0.00     0.061 C 
HETATM   25  C24 UNL     1      -6.436  -0.509   1.504  1.00  0.00     0.046 C 
BRANCH  24  26
HETATM   26  O3  UNL     1      -7.519  -0.084  -0.518  1.00  0.00    -0.389 OA
ATOM     27  H3  UNL     1      -8.261  -0.573  -0.182  1.00  0.00     0.210 HD
ENDBRANCH  24  26
BRANCH  24  28
HETATM   28  C25 UNL     1      -6.289  -2.080  -0.467  1.00  0.00     0.033 C 
HETATM   29  C26 UNL     1      -7.457  -2.911   0.039  1.00  0.00     0.008 C 
ENDBRANCH  24  28
ENDBRANCH  21  24
ENDBRANCH  20  21
ENDBRANCH  19  20
ENDBRANCH  15  19
ENDBRANCH  14  15
ENDBRANCH   3  14
BRANCH   1  30
HETATM   30  O1  UNL     1       2.675   2.329   1.023  1.00  0.00    -0.277 OA
BRANCH  30  31
HETATM   31  C3  UNL     1       2.988   3.179   2.110  1.00  0.00     0.228 C 
BRANCH  31  32
HETATM   32  C2  UNL     1       4.462   3.155   2.336  1.00  0.00    -0.009 C 
HETATM   33  C1  UNL     1       5.163   4.296   2.241  1.00  0.00     0.009 C 
ENDBRANCH  31  32
ENDBRANCH  30  31
ENDBRANCH   1  30
TORSDOF 14
