REMARK  4 active torsions:
REMARK  status: ('A' for Active; 'I' for Inactive)
REMARK    1  A    between atoms: C2_2  and  N1_5 
REMARK    2  A    between atoms: N1_5  and  C5_7 
REMARK    3  A    between atoms: C5_7  and  O1_11 
REMARK    4  A    between atoms: O1_11  and  N3_12 
ROOT
HETATM    1  C5  UNL     1      -0.715  -0.602   0.061  1.00  0.00     0.237 C 
HETATM    2  N2  UNL     1      -0.575  -1.744   0.622  1.00  0.00    -0.364 N 
ATOM      3  H21 UNL     1       0.223  -1.896   1.239  1.00  0.00     0.159 HD
ATOM      4  H22 UNL     1      -1.261  -2.477   0.442  1.00  0.00     0.159 HD
ENDROOT
BRANCH   1   5
HETATM    5  N1  UNL     1      -1.828  -0.390  -0.799  1.00  0.00    -0.347 N 
ATOM      6  H1  UNL     1      -1.699  -0.521  -1.802  1.00  0.00     0.163 HD
BRANCH   5   7
HETATM    7  C2  UNL     1      -3.124  -0.001  -0.321  1.00  0.00     0.022 C 
HETATM    8  C1  UNL     1      -4.063   0.135  -1.497  1.00  0.00     0.037 C 
HETATM    9  C3  UNL     1      -2.998   1.320   0.425  1.00  0.00     0.037 C 
HETATM   10  C4  UNL     1      -3.732  -0.993   0.634  1.00  0.00     0.037 C 
ENDBRANCH   5   7
ENDBRANCH   1   5
BRANCH   1  11
HETATM   11  O1  UNL     1       0.219   0.396   0.306  1.00  0.00    -0.202 OA
BRANCH  11  12
HETATM   12  N3  UNL     1       1.333   0.223   1.072  1.00  0.00    -0.266 N 
HETATM   13  C6  UNL     1       2.518   0.087   0.600  1.00  0.00     0.010 C 
HETATM   14  C7  UNL     1       3.021   0.075  -0.787  1.00  0.00     0.054 C 
HETATM   15  C10 UNL     1       3.720  -0.101   1.465  1.00  0.00     0.054 C 
HETATM   16  C8  UNL     1       4.334   0.819  -0.667  1.00  0.00     0.006 C 
HETATM   17  C9  UNL     1       4.910   0.259   0.613  1.00  0.00     0.006 C 
ATOM     18  H3  UNL     1       1.217   0.200   2.085  1.00  0.00     0.194 HD
ENDBRANCH  11  12
ENDBRANCH   1  11
TORSDOF 4
