REMARK  4 active torsions:
REMARK  status: ('A' for Active; 'I' for Inactive)
REMARK    1  A    between atoms: C2_2  and  N1_4 
REMARK    2  A    between atoms: N1_4  and  C4_6 
REMARK    3  A    between atoms: C4_6  and  C5_7 
REMARK    4  A    between atoms: C8_11  and  C9_12 
ROOT
HETATM    1  C5  UNL     1      -1.575   0.126  -0.260  1.00  0.00    -0.023 A 
HETATM    2  C6  UNL     1      -1.601   1.476  -0.374  1.00  0.00     0.017 A 
HETATM    3  C7  UNL     1      -2.731   2.124   0.084  1.00  0.00     0.051 A 
HETATM    4  S1  UNL     1      -3.762   0.863   0.657  1.00  0.00    -0.101 SA
HETATM    5  C8  UNL     1      -2.690  -0.475   0.299  1.00  0.00     0.044 A 
ENDROOT
BRANCH   1   6
HETATM    6  C4  UNL     1      -0.302  -0.614  -0.741  1.00  0.00     0.154 C 
BRANCH   6   7
HETATM    7  N1  UNL     1       0.698   0.123   0.076  1.00  0.00    -0.414 N 
ATOM      8  H1  UNL     1       0.385   0.540   0.953  1.00  0.00     0.153 HD
BRANCH   7   9
HETATM    9  C2  UNL     1       2.006   0.277  -0.272  1.00  0.00     0.068 C 
HETATM   10  C1  UNL     1       2.654   1.253   0.736  1.00  0.00     0.031 C 
HETATM   11  C3  UNL     1       2.952  -0.856  -0.513  1.00  0.00     0.031 C 
ENDBRANCH   7   9
ENDBRANCH   6   7
ENDBRANCH   1   6
BRANCH   5  12
HETATM   12  C9  UNL     1      -2.960  -1.912   0.624  1.00  0.00     0.223 C 
HETATM   13 CL1  UNL     1      -1.938  -2.535   1.900  1.00  0.00    -0.078 Cl
HETATM   14 CL2  UNL     1      -2.728  -2.859  -0.879  1.00  0.00    -0.078 Cl
HETATM   15 CL3  UNL     1      -4.637  -2.013   1.039  1.00  0.00    -0.078 Cl
ENDBRANCH   5  12
TORSDOF 4
