REMARK  6 active torsions:
REMARK  status: ('A' for Active; 'I' for Inactive)
REMARK    1  A    between atoms: C2_2  and  C3_3 
REMARK    2  A    between atoms: C3_3  and  C4_4 
REMARK    3  A    between atoms: C7_13  and  N3_14 
REMARK    4  A    between atoms: C10_17  and  N4_18 
REMARK    5  A    between atoms: N4_18  and  C11_20 
REMARK    6  A    between atoms: N6_28  and  C15_29 
ROOT
HETATM    1  N3  UNL     1       1.135  -1.016   0.440  1.00  0.00    -0.366 N 
HETATM    2  C8  UNL     1       0.549  -0.015  -0.476  1.00  0.00     0.126 C 
HETATM    3  C9  UNL     1      -0.833  -0.462  -0.964  1.00  0.00     0.045 C 
HETATM    4  C10 UNL     1      -1.743  -0.834   0.155  1.00  0.00     0.102 C 
HETATM    5  C18 UNL     1      -0.988  -0.553   1.433  1.00  0.00     0.045 C 
HETATM    6  C19 UNL     1       0.203  -1.548   1.389  1.00  0.00     0.126 C 
ENDROOT
BRANCH   1   7
HETATM    7  C7  UNL     1       2.491  -1.279   0.296  1.00  0.00     0.130 A 
HETATM    8  C6  UNL     1       3.077  -2.392   0.831  1.00  0.00     0.121 A 
HETATM    9  C5  UNL     1       4.461  -2.625   0.713  1.00  0.00     0.126 A 
HETATM   10 CL1  UNL     1       2.061  -3.547   1.653  1.00  0.00    -0.076 Cl
HETATM   11  N1  UNL     1       5.191  -1.708   0.052  1.00  0.00    -0.331 N 
HETATM   12  N2  UNL     1       4.963  -3.683   1.227  1.00  0.00    -0.384 N 
HETATM   13  C4  UNL     1       4.640  -0.606  -0.483  1.00  0.00     0.084 A 
ATOM     14  H1  UNL     1       6.196  -1.855  -0.046  1.00  0.00     0.168 HD
HETATM   15  N7  UNL     1       3.307  -0.397  -0.360  1.00  0.00    -0.331 N 
ATOM     16  H7  UNL     1       2.899   0.444  -0.769  1.00  0.00     0.168 HD
ATOM     17  H22 UNL     1       5.965  -3.852   1.142  1.00  0.00     0.157 HD
ATOM     18  H21 UNL     1       4.410  -4.378   1.728  1.00  0.00     0.157 HD
BRANCH  13  19
HETATM   19  C3  UNL     1       5.521   0.350  -1.193  1.00  0.00     0.076 C 
BRANCH  19  20
HETATM   20  C2  UNL     1       6.083   1.406  -0.263  1.00  0.00     0.003 C 
HETATM   21  C1  UNL     1       6.960   2.317  -1.110  1.00  0.00     0.005 C 
ENDBRANCH  19  20
ENDBRANCH  13  19
ENDBRANCH   1   7
BRANCH   4  22
HETATM   22  N4  UNL     1      -3.063  -0.377   0.076  1.00  0.00    -0.221 N 
ATOM     23  H4  UNL     1      -3.741  -1.139   0.073  1.00  0.00     0.178 HD
BRANCH  22  24
HETATM   24  C11 UNL     1      -3.604   0.747   0.008  1.00  0.00     0.683 A 
HETATM   25  N5  UNL     1      -2.875   1.872   0.000  1.00  0.00    -0.199 N 
HETATM   26  C12 UNL     1      -3.490   3.084  -0.084  1.00  0.00     0.154 A 
ATOM     27  H5  UNL     1      -1.858   1.820   0.057  1.00  0.00     0.183 HD
HETATM   28  C13 UNL     1      -4.858   3.155  -0.162  1.00  0.00     0.200 A 
HETATM   29  F1  UNL     1      -5.447   4.360  -0.248  1.00  0.00    -0.199 F 
HETATM   30  C14 UNL     1      -5.578   1.967  -0.150  1.00  0.00     0.302 A 
HETATM   31  O1  UNL     1      -6.851   2.046  -0.221  1.00  0.00    -0.264 OA
HETATM   32  N6  UNL     1      -4.968   0.770  -0.066  1.00  0.00    -0.140 N 
BRANCH  32  33
HETATM   33  C15 UNL     1      -5.791  -0.401  -0.061  1.00  0.00     0.111 A 
HETATM   34  C16 UNL     1      -5.651  -1.470   0.948  1.00  0.00     0.028 A 
HETATM   35  C17 UNL     1      -6.854  -0.571   0.984  1.00  0.00     0.028 A 
ENDBRANCH  32  33
ENDBRANCH  22  24
ENDBRANCH   4  22
TORSDOF 6
