REMARK  11 active torsions:
REMARK  status: ('A' for Active; 'I' for Inactive)
REMARK    1  A    between atoms: N2_4  and  C3_6 
REMARK    2  A    between atoms: C3_6  and  C4_7 
REMARK    3  A    between atoms: N5_10  and  O1_11 
REMARK    4  A    between atoms: C5_13  and  O2_14 
REMARK    5  A    between atoms: O2_14  and  C6_15 
REMARK    6  A    between atoms: C6_15  and  C7_17 
REMARK    7  A    between atoms: C7_17  and  C8_18 
REMARK    8  A    between atoms: C8_18  and  O4_19 
REMARK    9  A    between atoms: C8_18  and  C9_21 
REMARK   10  A    between atoms: C12_26  and  N7_27 
REMARK   11  A    between atoms: C13_32  and  N9_33 
ROOT
HETATM    1  C8  UNL     1       1.878   0.902  -0.066  1.00  0.00     0.178 C 
ENDROOT
BRANCH   1   2
HETATM    2  C7  UNL     1       1.594   2.351  -0.281  1.00  0.00     0.149 C 
BRANCH   2   3
HETATM    3  C6  UNL     1       0.121   2.498  -0.438  1.00  0.00     0.265 C 
HETATM    4  O3  UNL     1      -0.315   3.657  -0.629  1.00  0.00    -0.265 OA
BRANCH   3   5
HETATM    5  O2  UNL     1      -0.774   1.465  -0.389  1.00  0.00    -0.272 OA
BRANCH   5   6
HETATM    6  C5  UNL     1      -2.157   1.700  -0.549  1.00  0.00     0.397 C 
HETATM    7  N5  UNL     1      -2.648   1.062  -1.742  1.00  0.00    -0.038 NA
HETATM    8  N4  UNL     1      -3.863   0.440  -1.600  1.00  0.00    -0.024 NA
HETATM    9  N3  UNL     1      -3.768  -0.479  -0.552  1.00  0.00    -0.095 NA
HETATM   10  C4  UNL     1      -3.373   0.135   0.664  1.00  0.00     0.254 C 
HETATM   11  O5  UNL     1      -2.843   1.374   0.595  1.00  0.00    -0.320 OA
BRANCH   7  12
HETATM   12  O1  UNL     1      -2.514   1.815  -2.836  1.00  0.00    -0.291 OA
ATOM     13  H1  UNL     1      -1.673   2.246  -2.934  1.00  0.00     0.239 HD
ENDBRANCH   7  12
BRANCH  10  14
HETATM   14  C3  UNL     1      -4.610   0.199   1.570  1.00  0.00     0.171 C 
BRANCH  14  15
HETATM   15  N2  UNL     1      -5.229  -1.083   1.693  1.00  0.00    -0.378 N 
HETATM   16  C2  UNL     1      -6.383  -1.377   1.171  1.00  0.00     0.085 C 
HETATM   17  C1  UNL     1      -6.963  -2.725   1.338  1.00  0.00     0.085 C 
HETATM   18  N1  UNL     1      -7.047  -0.350   0.445  1.00  0.00    -0.088 NA
ATOM     19  H2  UNL     1      -4.739  -1.807   2.219  1.00  0.00     0.160 HD
ENDBRANCH  14  15
ENDBRANCH  10  14
ENDBRANCH   5   6
ENDBRANCH   3   5
ENDBRANCH   2   3
ENDBRANCH   1   2
BRANCH   1  20
HETATM   20  O4  UNL     1       1.454   0.106  -1.127  1.00  0.00    -0.389 OA
ATOM     21  H4  UNL     1       1.635  -0.817  -0.990  1.00  0.00     0.210 HD
ENDBRANCH   1  20
BRANCH   1  22
HETATM   22  C9  UNL     1       3.322   0.620   0.136  1.00  0.00     0.056 A 
HETATM   23  C10 UNL     1       4.220   1.646   0.313  1.00  0.00     0.116 A 
HETATM   24  N6  UNL     1       5.514   1.343   0.493  1.00  0.00    -0.358 N 
HETATM   25  C11 UNL     1       5.907   0.038   0.497  1.00  0.00     0.121 A 
ATOM     26  H6  UNL     1       6.201   2.085   0.626  1.00  0.00     0.165 HD
HETATM   27  C12 UNL     1       7.232  -0.288   0.682  1.00  0.00     0.145 A 
HETATM   28  C14 UNL     1       5.002  -0.983   0.320  1.00  0.00     0.152 A 
HETATM   29  N8  UNL     1       7.602  -1.578   0.683  1.00  0.00    -0.175 N 
HETATM   30  C13 UNL     1       6.715  -2.579   0.509  1.00  0.00     0.679 A 
ATOM     31  H8  UNL     1       8.586  -1.809   0.820  1.00  0.00     0.186 HD
HETATM   32  N10 UNL     1       5.425  -2.247   0.330  1.00  0.00    -0.174 N 
ATOM     33  H10 UNL     1       4.742  -2.993   0.196  1.00  0.00     0.186 HD
HETATM   34  N11 UNL     1       3.717  -0.687   0.140  1.00  0.00    -0.340 N 
ATOM     35  H11 UNL     1       3.032  -1.431   0.006  1.00  0.00     0.167 HD
BRANCH  27  36
HETATM   36  N7  UNL     1       8.135   0.626   0.854  1.00  0.00    -0.383 N 
ATOM     37  H72 UNL     1       7.854   1.606   0.853  1.00  0.00     0.157 HD
ATOM     38  H71 UNL     1       9.116   0.385   0.991  1.00  0.00     0.157 HD
ENDBRANCH  27  36
BRANCH  30  39
HETATM   39  N9  UNL     1       7.128  -3.812   0.519  1.00  0.00    -0.234 N 
ATOM     40  H92 UNL     1       8.107  -4.064   0.655  1.00  0.00     0.174 HD
ATOM     41  H91 UNL     1       6.457  -4.569   0.387  1.00  0.00     0.174 HD
ENDBRANCH  30  39
ENDBRANCH   1  22
TORSDOF 11
