REMARK  9 active torsions:
REMARK  status: ('A' for Active; 'I' for Inactive)
REMARK    1  A    between atoms: N1_2  and  C2_5 
REMARK    2  A    between atoms: N2_7  and  C4_8 
REMARK    3  A    between atoms: N4_11  and  S1_12 
REMARK    4  A    between atoms: C6_17  and  O4_18 
REMARK    5  A    between atoms: C10_24  and  C11_25 
REMARK    6  A    between atoms: C11_25  and  O7_27 
REMARK    7  A    between atoms: C13_29  and  O8_30 
REMARK    8  A    between atoms: C13_29  and  C14_32 
REMARK    9  A    between atoms: C14_32  and  O10_34 
ROOT
HETATM    1  C2  UNL     1      -0.457  -1.068  -0.651  1.00  0.00     0.229 A 
HETATM    2  C3  UNL     1       0.614  -0.559  -1.537  1.00  0.00     0.175 A 
HETATM    3  N2  UNL     1       1.491  -0.301  -0.412  1.00  0.00    -0.332 N 
HETATM    4  C7  UNL     1       0.455  -0.734   0.489  1.00  0.00     0.273 A 
HETATM    5  O5  UNL     1      -0.032   0.367   1.247  1.00  0.00    -0.327 OA
HETATM    6  C8  UNL     1      -1.388   0.390   1.635  1.00  0.00     0.061 C 
HETATM    7  C9  UNL     1      -1.780   0.766   2.994  1.00  0.00     0.077 C 
HETATM    8  C10 UNL     1      -2.228   0.052   0.682  1.00  0.00     0.093 C 
HETATM    9  C13 UNL     1      -1.725  -0.290  -0.662  1.00  0.00     0.220 C 
ENDROOT
BRANCH   3  10
HETATM   10  C4  UNL     1       2.835   0.164  -0.323  1.00  0.00     0.156 A 
HETATM   11  N3  UNL     1       3.865  -0.489   0.310  1.00  0.00    -0.265 N 
HETATM   12  N4  UNL     1       4.979   0.214   0.214  1.00  0.00    -0.169 N 
ATOM     13  H3  UNL     1       3.781  -1.387   0.786  1.00  0.00     0.190 HD
HETATM   14  C5  UNL     1       4.759   1.344  -0.471  1.00  0.00     0.172 A 
HETATM   15  C6  UNL     1       3.418   1.315  -0.808  1.00  0.00     0.129 A 
BRANCH  12  16
HETATM   16  S1  UNL     1       6.488  -0.278   0.889  1.00  0.00     0.230 S 
HETATM   17  O1  UNL     1       6.794  -1.647   0.338  1.00  0.00    -0.576 OA
HETATM   18  O2  UNL     1       7.568   0.675   0.504  1.00  0.00    -0.576 OA
HETATM   19  O3  UNL     1       6.414  -0.424   2.557  1.00  0.00    -0.576 OA
ENDBRANCH  12  16
BRANCH  15  20
HETATM   20  O4  UNL     1       2.801   2.308  -1.522  1.00  0.00    -0.356 OA
ATOM     21  H4  UNL     1       3.203   3.101  -1.856  1.00  0.00     0.218 HD
ENDBRANCH  15  20
ENDBRANCH   3  10
BRANCH   1  22
HETATM   22  N1  UNL     1      -0.708  -2.467  -0.867  1.00  0.00    -0.060 N 
HETATM   23  C1  UNL     1       0.400  -3.318  -0.577  1.00  0.00     0.268 C 
ATOM     24  H12 UNL     1      -1.038  -2.626  -1.819  1.00  0.00     0.278 HD
ATOM     25  H11 UNL     1      -1.531  -2.765  -0.344  1.00  0.00     0.278 HD
ENDBRANCH   1  22
BRANCH   9  26
HETATM   26  O8  UNL     1      -2.740  -1.047  -1.296  1.00  0.00    -0.372 OA
ATOM     27  H8  UNL     1      -3.550  -0.550  -1.303  1.00  0.00     0.211 HD
ENDBRANCH   9  26
BRANCH   9  28
HETATM   28  C14 UNL     1      -1.661   1.002  -1.404  1.00  0.00     0.301 C 
HETATM   29  O9  UNL     1      -0.929   1.969  -1.017  1.00  0.00    -0.261 OA
BRANCH  28  30
HETATM   30  O10 UNL     1      -2.396   1.206  -2.549  1.00  0.00    -0.324 OA
HETATM   31  C15 UNL     1      -2.400   2.385  -3.311  1.00  0.00     0.213 C 
ENDBRANCH  28  30
ENDBRANCH   9  28
BRANCH   8  32
HETATM   32  C11 UNL     1      -3.652   0.027   0.938  1.00  0.00     0.295 C 
HETATM   33  O6  UNL     1      -4.497  -0.292   0.032  1.00  0.00    -0.259 OA
BRANCH  32  34
HETATM   34  O7  UNL     1      -4.234   0.341   2.171  1.00  0.00    -0.323 OA
HETATM   35  C12 UNL     1      -5.634   0.296   2.357  1.00  0.00     0.213 C 
ENDBRANCH  32  34
ENDBRANCH   8  32
TORSDOF 9
