REMARK  3 active torsions:
REMARK  status: ('A' for Active; 'I' for Inactive)
REMARK    1  A    between atoms: C2_2  and  C3_3 
REMARK    2  A    between atoms: C8_9  and  N2_10 
REMARK    3  A    between atoms: N2_10  and  N3_12 
ROOT
HETATM    1  C3  UNL     1      -0.575  -0.400   0.343  1.00  0.00     0.049 C 
HETATM    2  C4  UNL     1      -1.475   0.462  -0.555  1.00  0.00     0.102 C 
HETATM    3  C5  UNL     1      -2.870   0.209  -0.264  1.00  0.00     0.064 C 
HETATM    4  N1  UNL     1      -3.980  -0.007  -0.031  1.00  0.00    -0.197 NA
HETATM    5  C6  UNL     1      -1.012   1.830  -0.155  1.00  0.00     0.022 C 
HETATM    6  C7  UNL     1       0.504   1.663  -0.342  1.00  0.00     0.029 C 
HETATM    7  C8  UNL     1       0.720   0.376   0.439  1.00  0.00     0.109 C 
ENDROOT
BRANCH   1   8
HETATM    8  C2  UNL     1      -0.413  -1.753  -0.202  1.00  0.00    -0.029 C 
HETATM    9  C1  UNL     1      -0.755  -2.820   0.509  1.00  0.00     0.007 C 
ENDBRANCH   1   8
BRANCH   7  10
HETATM   10  N2  UNL     1       1.860  -0.367  -0.013  1.00  0.00    -0.317 N 
ATOM     11  H2  UNL     1       1.754  -1.322  -0.355  1.00  0.00     0.182 HD
BRANCH  10  12
HETATM   12  N3  UNL     1       3.108   0.234   0.023  1.00  0.00    -0.253 N 
HETATM   13  N4  UNL     1       3.309   1.352   0.587  1.00  0.00    -0.331 N 
ATOM     14  H42 UNL     1       2.512   1.813   1.026  1.00  0.00     0.178 HD
ATOM     15  H41 UNL     1       4.228   1.794   0.614  1.00  0.00     0.178 HD
ATOM     16  H3  UNL     1       3.894  -0.240  -0.421  1.00  0.00     0.207 HD
ENDBRANCH  10  12
ENDBRANCH   7  10
TORSDOF 3
