REMARK  9 active torsions:
REMARK  status: ('A' for Active; 'I' for Inactive)
REMARK    1  A    between atoms: C2_2  and  N1_3 
REMARK    2  A    between atoms: C2_2  and  C8_13 
REMARK       I    between atoms: N1_3  and  C3_4 
REMARK    3  A    between atoms: C3_4  and  C4_6 
REMARK    4  A    between atoms: C7_10  and  O2_11 
REMARK    5  A    between atoms: C12_21  and  C13_22 
REMARK    6  A    between atoms: C16_25  and  O3_26 
REMARK    7  A    between atoms: O3_26  and  C17_27 
REMARK    8  A    between atoms: C17_27  and  C18_28 
REMARK    9  A    between atoms: C18_28  and  C19_29 
ROOT
HETATM    1  C8  UNL     1      -4.673  -0.766   1.530  1.00  0.00     0.031 A 
HETATM    2  C9  UNL     1      -4.389  -2.039   1.898  1.00  0.00     0.102 A 
HETATM    3  N3  UNL     1      -3.103  -2.520   1.830  1.00  0.00    -0.363 N 
ATOM      4  H3  UNL     1      -2.915  -3.481   2.115  1.00  0.00     0.165 HD
HETATM    5  C10 UNL     1      -2.081  -1.747   1.394  1.00  0.00     0.065 A 
HETATM    6  C11 UNL     1      -0.717  -2.221   1.389  1.00  0.00     0.103 A 
HETATM    7  N4  UNL     1       0.334  -1.466   0.941  1.00  0.00    -0.353 N 
ATOM      8  H4  UNL     1       0.150  -0.546   0.541  1.00  0.00     0.166 HD
HETATM    9  C12 UNL     1       1.581  -1.900   1.014  1.00  0.00     0.029 A 
HETATM   10  C26 UNL     1       1.816  -3.155   1.560  1.00  0.00     0.115 A 
HETATM   11  N5  UNL     1       0.828  -3.949   2.018  1.00  0.00    -0.349 N 
ATOM     12  H5  UNL     1       1.019  -4.868   2.417  1.00  0.00     0.167 HD
HETATM   13  C27 UNL     1      -0.444  -3.457   1.920  1.00  0.00     0.128 A 
HETATM   14  N6  UNL     1      -1.459  -4.187   2.339  1.00  0.00    -0.384 N 
ATOM     15  H61 UNL     1      -1.256  -5.105   2.734  1.00  0.00     0.157 HD
ATOM     16  H62 UNL     1      -2.408  -3.820   2.266  1.00  0.00     0.157 HD
HETATM   17  C28 UNL     1      -2.355  -0.455   1.014  1.00  0.00     0.074 A 
HETATM   18  C29 UNL     1      -3.657   0.054   1.077  1.00  0.00     0.129 A 
HETATM   19  F1  UNL     1      -3.990   1.302   0.718  1.00  0.00    -0.205 F 
ENDROOT
BRANCH   9  20
HETATM   20  C13 UNL     1       2.760  -1.153   0.496  1.00  0.00     0.037 C 
HETATM   21  C14 UNL     1       2.711  -1.167  -1.028  1.00  0.00     0.013 C 
HETATM   22  C15 UNL     1       3.386   0.021  -1.604  1.00  0.00     0.032 C 
HETATM   23  C16 UNL     1       4.641   0.411  -0.785  1.00  0.00     0.121 C 
HETATM   24  C24 UNL     1       4.210   0.795   0.619  1.00  0.00     0.032 C 
HETATM   25  C25 UNL     1       2.812   0.286   0.922  1.00  0.00     0.013 C 
BRANCH  23  26
HETATM   26  O3  UNL     1       5.412  -0.656  -0.731  1.00  0.00    -0.386 OA
BRANCH  26  27
HETATM   27  C17 UNL     1       6.621  -0.851  -1.243  1.00  0.00     0.168 C 
BRANCH  27  28
HETATM   28  C18 UNL     1       7.819  -0.118  -0.775  1.00  0.00     0.031 C 
BRANCH  28  29
HETATM   29  C19 UNL     1       7.845   1.329  -1.002  1.00  0.00    -0.009 C 
HETATM   30  C20 UNL     1       7.784   1.747  -2.482  1.00  0.00     0.031 C 
HETATM   31  C21 UNL     1       7.597   3.274  -2.428  1.00  0.00     0.168 C 
HETATM   32  O4  UNL     1       8.774   3.826  -1.936  1.00  0.00    -0.391 OA
HETATM   33  C22 UNL     1       9.018   3.431  -0.620  1.00  0.00     0.168 C 
HETATM   34  C23 UNL     1       9.212   1.931  -0.550  1.00  0.00     0.031 C 
ENDBRANCH  28  29
ENDBRANCH  27  28
ENDBRANCH  26  27
ENDBRANCH  23  26
ENDBRANCH   9  20
BRANCH   1  35
HETATM   35  C2  UNL     1      -6.108  -0.212   1.613  1.00  0.00     0.200 C 
HETATM   36  C1  UNL     1      -6.932  -1.252   2.383  1.00  0.00     0.053 C 
BRANCH  35  37
HETATM   37  N1  UNL     1      -6.678   0.255   0.558  1.00  0.00    -0.405 NA
HETATM   38  C3  UNL     1      -7.204   0.715  -0.738  1.00  0.00     0.297 C 
HETATM   39  O1  UNL     1      -6.702   0.421  -1.795  1.00  0.00    -0.257 OA
BRANCH  38  40
HETATM   40  C4  UNL     1      -8.413   1.598  -0.737  1.00  0.00     0.180 C 
HETATM   41  C5  UNL     1      -9.003   1.762  -2.105  1.00  0.00     0.295 C 
HETATM   42  N2  UNL     1     -10.170   1.040  -1.695  1.00  0.00     0.114 N 
HETATM   43  C6  UNL     1     -10.380  -0.257  -2.247  1.00  0.00     0.313 C 
HETATM   44  C7  UNL     1      -9.706   1.015  -0.339  1.00  0.00     0.372 C 
BRANCH  44  45
HETATM   45  O2  UNL     1     -10.484   1.829   0.516  1.00  0.00    -0.367 OA
ATOM     46  H2  UNL     1     -11.318   1.453   0.773  1.00  0.00     0.212 HD
ENDBRANCH  44  45
ENDBRANCH  38  40
ENDBRANCH  35  37
ENDBRANCH   1  35
TORSDOF 9
