REMARK  4 active torsions:
REMARK  status: ('A' for Active; 'I' for Inactive)
REMARK    1  A    between atoms: C2_3  and  C12_23 
REMARK    2  A    between atoms: N2_4  and  N3_6 
REMARK    3  A    between atoms: N3_6  and  C3_8 
REMARK    4  A    between atoms: C4_11  and  C5_12 
ROOT
HETATM    1  N1  UNL     1      -1.311  -0.459   2.292  1.00  0.00    -0.190 NA
HETATM    2  C1  UNL     1      -1.749   0.139   1.403  1.00  0.00     0.115 C 
HETATM    3  C2  UNL     1      -2.281   0.866   0.283  1.00  0.00     0.110 C 
HETATM    4  N2  UNL     1      -1.541   1.659  -0.404  1.00  0.00    -0.292 N 
ATOM      5  H2  UNL     1      -1.977   2.147  -1.187  1.00  0.00     0.187 HD
ENDROOT
BRANCH   3   6
HETATM    6  C12 UNL     1      -3.710   0.729  -0.124  1.00  0.00     0.048 C 
HETATM    7  C13 UNL     1      -4.586   1.160   1.037  1.00  0.00     0.011 C 
HETATM    8  C14 UNL     1      -5.555   0.025   1.286  1.00  0.00     0.001 C 
HETATM    9  C15 UNL     1      -5.539  -0.735   0.000  1.00  0.00     0.001 C 
HETATM   10  C16 UNL     1      -4.051  -0.729  -0.356  1.00  0.00     0.011 C 
ENDBRANCH   3   6
BRANCH   4  11
HETATM   11  N3  UNL     1      -0.208   1.903  -0.169  1.00  0.00    -0.279 N 
ATOM     12  H3  UNL     1       0.106   2.779   0.249  1.00  0.00     0.189 HD
BRANCH  11  13
HETATM   13  C3  UNL     1       0.646   0.961  -0.505  1.00  0.00     0.163 A 
HETATM   14  N4  UNL     1       1.975   0.970  -0.375  1.00  0.00    -0.334 N 
HETATM   15  C4  UNL     1       2.651  -0.072  -0.771  1.00  0.00     0.054 A 
ATOM     16  H4  UNL     1       2.452   1.777   0.027  1.00  0.00     0.168 HD
HETATM   17  C11 UNL     1       1.942  -1.121  -1.303  1.00  0.00     0.083 A 
HETATM   18  S1  UNL     1       0.327  -0.549  -1.205  1.00  0.00    -0.062 SA
BRANCH  15  19
HETATM   19  C5  UNL     1       4.119  -0.234  -0.586  1.00  0.00     0.036 A 
HETATM   20  C6  UNL     1       4.906  -0.895  -1.468  1.00  0.00     0.048 A 
HETATM   21 CL1  UNL     1       4.292  -1.451  -3.008  1.00  0.00    -0.083 Cl
HETATM   22  C7  UNL     1       6.252  -1.103  -1.184  1.00  0.00     0.026 A 
HETATM   23  C8  UNL     1       6.806  -0.652  -0.033  1.00  0.00     0.022 A 
HETATM   24  C9  UNL     1       6.034   0.017   0.870  1.00  0.00     0.033 A 
HETATM   25 BR1  UNL     1       6.793   0.650   2.475  1.00  0.00    -0.049 Br
HETATM   26  C10 UNL     1       4.672   0.224   0.583  1.00  0.00     0.065 A 
HETATM   27 CL2  UNL     1       3.785   1.032   1.856  1.00  0.00    -0.082 Cl
ENDBRANCH  15  19
ENDBRANCH  11  13
ENDBRANCH   4  11
TORSDOF 4
