REMARK  8 active torsions:
REMARK  status: ('A' for Active; 'I' for Inactive)
REMARK    1  A    between atoms: C2_2  and  C3_3 
REMARK    2  A    between atoms: C9_9  and  N1_10 
REMARK    3  A    between atoms: N1_10  and  C10_12 
REMARK    4  A    between atoms: C13_18  and  N3_19 
REMARK    5  A    between atoms: N3_19  and  C14_21 
REMARK    6  A    between atoms: C17_24  and  N4_25 
REMARK    7  A    between atoms: N4_25  and  C18_27 
REMARK    8  A    between atoms: C18_27  and  C19_28 
ROOT
HETATM    1  C10 UNL     1       3.995  -0.654   0.184  1.00  0.00     0.684 A 
HETATM    2  N2  UNL     1       4.064  -1.726   0.987  1.00  0.00    -0.200 N 
ATOM      3  H2  UNL     1       4.955  -2.213   1.087  1.00  0.00     0.183 HD
HETATM    4  C11 UNL     1       2.998  -2.176   1.662  1.00  0.00     0.133 A 
HETATM    5  C12 UNL     1       1.788  -1.540   1.546  1.00  0.00     0.094 A 
HETATM    6 CL1  UNL     1       0.364  -2.056   2.392  1.00  0.00    -0.079 Cl
HETATM    7  C13 UNL     1       1.701  -0.415   0.712  1.00  0.00     0.140 A 
HETATM    8  N6  UNL     1       2.815  -0.022   0.066  1.00  0.00    -0.175 N 
ATOM      9  H6  UNL     1       2.761   0.795  -0.542  1.00  0.00     0.186 HD
ENDROOT
BRANCH   7  10
HETATM   10  N3  UNL     1       0.565   0.135   0.635  1.00  0.00    -0.369 N 
ATOM     11  H3  UNL     1      -0.176  -0.297   1.187  1.00  0.00     0.161 HD
BRANCH  10  12
HETATM   12  C14 UNL     1       0.189   1.276  -0.121  1.00  0.00     0.087 C 
HETATM   13  C15 UNL     1      -0.704   0.888  -1.264  1.00  0.00     0.027 C 
HETATM   14  C16 UNL     1      -1.900   0.162  -0.740  1.00  0.00     0.027 C 
HETATM   15  C17 UNL     1      -2.741   1.063   0.116  1.00  0.00     0.081 C 
HETATM   16  C25 UNL     1      -2.014   2.250   0.704  1.00  0.00     0.031 C 
HETATM   17  C26 UNL     1      -0.561   2.263   0.742  1.00  0.00     0.006 C 
HETATM   18  C27 UNL     1      -0.105   3.651   0.243  1.00  0.00     0.012 C 
BRANCH  15  19
HETATM   19  N4  UNL     1      -3.866   1.514  -0.677  1.00  0.00    -0.394 N 
ATOM     20  H4  UNL     1      -3.775   1.641  -1.685  1.00  0.00     0.159 HD
BRANCH  19  21
HETATM   21  C18 UNL     1      -5.083   1.772  -0.029  1.00  0.00     0.091 C 
BRANCH  21  22
HETATM   22  C19 UNL     1      -6.003   0.685   0.394  1.00  0.00    -0.033 C 
HETATM   23  C20 UNL     1      -5.511  -0.366   1.305  1.00  0.00     0.042 C 
HETATM   24  C21 UNL     1      -6.739  -1.196   1.718  1.00  0.00     0.019 C 
HETATM   25  C22 UNL     1      -7.165  -1.941   0.498  1.00  0.00     0.094 C 
HETATM   26  N5  UNL     1      -7.202  -1.203  -0.710  1.00  0.00    -0.296 NA
HETATM   27  C23 UNL     1      -8.532  -1.418  -1.309  1.00  0.00     0.116 C 
HETATM   28  C24 UNL     1      -6.939   0.180  -0.673  1.00  0.00     0.067 C 
ENDBRANCH  21  22
ENDBRANCH  19  21
ENDBRANCH  15  19
ENDBRANCH  10  12
ENDBRANCH   7  10
BRANCH   1  29
HETATM   29  N1  UNL     1       5.039  -0.240  -0.481  1.00  0.00    -0.191 N 
ATOM     30  H1  UNL     1       4.953   0.579  -1.082  1.00  0.00     0.184 HD
BRANCH  29  31
HETATM   31  C9  UNL     1       6.280  -0.896  -0.389  1.00  0.00     0.061 A 
HETATM   32  C3  UNL     1       7.272  -0.410   0.413  1.00  0.00    -0.031 A 
HETATM   33  C4  UNL     1       8.501  -1.064   0.511  1.00  0.00     0.009 A 
HETATM   34  C5  UNL     1       8.695  -2.216  -0.218  1.00  0.00     0.001 A 
HETATM   35  C6  UNL     1       7.730  -2.744  -1.040  1.00  0.00     0.009 A 
HETATM   36  C7  UNL     1       6.506  -2.058  -1.114  1.00  0.00    -0.034 A 
HETATM   37  C8  UNL     1       5.482  -2.639  -1.997  1.00  0.00     0.050 C 
BRANCH  32  38
HETATM   38  C2  UNL     1       7.105   0.862   1.196  1.00  0.00     0.036 C 
HETATM   39  C1  UNL     1       7.308   2.055   0.250  1.00  0.00     0.010 C 
ENDBRANCH  32  38
ENDBRANCH  29  31
ENDBRANCH   1  29
TORSDOF 8
