REMARK  8 active torsions:
REMARK  status: ('A' for Active; 'I' for Inactive)
REMARK    1  A    between atoms: C2_7  and  C3_8 
REMARK    2  A    between atoms: C3_8  and  O1_9 
REMARK    3  A    between atoms: O1_9  and  C4_10 
REMARK    4  A    between atoms: C8_18  and  N6_19 
REMARK    5  A    between atoms: C11_29  and  N9_30 
REMARK    6  A    between atoms: N9_30  and  C12_32 
REMARK    7  A    between atoms: C14_34  and  C15_35 
REMARK    8  A    between atoms: C15_35  and  O2_36 
ROOT
HETATM    1  C4  UNL     1       2.722   0.774   0.959  1.00  0.00     0.226 A 
HETATM    2  N4  UNL     1       1.946   0.032   0.179  1.00  0.00    -0.320 N 
ATOM      3  H4  UNL     1       2.371  -0.665  -0.433  1.00  0.00     0.169 HD
HETATM    4  C5  UNL     1       0.583   0.186   0.181  1.00  0.00     0.068 A 
HETATM    5  C6  UNL     1      -0.191  -0.664  -0.692  1.00  0.00     0.052 A 
HETATM    6  C7  UNL     1      -0.869  -1.747  -0.180  1.00  0.00     0.123 A 
HETATM    7  N5  UNL     1      -1.491  -2.643  -0.998  1.00  0.00    -0.201 N 
ATOM      8  H5  UNL     1      -1.987  -3.439  -0.596  1.00  0.00     0.183 HD
HETATM    9  C8  UNL     1      -1.453  -2.482  -2.330  1.00  0.00     0.677 A 
HETATM   10  N7  UNL     1      -0.796  -1.433  -2.847  1.00  0.00    -0.176 N 
ATOM     11  H7  UNL     1      -0.768  -1.315  -3.860  1.00  0.00     0.186 HD
HETATM   12  C9  UNL     1      -0.164  -0.520  -2.054  1.00  0.00     0.128 A 
HETATM   13  N8  UNL     1       0.459   0.479  -2.597  1.00  0.00    -0.384 N 
ATOM     14  H81 UNL     1       0.479   0.586  -3.611  1.00  0.00     0.157 HD
ATOM     15  H82 UNL     1       0.931   1.161  -2.004  1.00  0.00     0.157 HD
HETATM   16  C10 UNL     1       0.007   1.125   0.994  1.00  0.00     0.080 A 
HETATM   17  C11 UNL     1      -1.362   1.357   0.993  1.00  0.00     0.118 A 
HETATM   18  N10 UNL     1      -1.867   2.338   1.799  1.00  0.00    -0.338 N 
ATOM     19  H10 UNL     1      -2.869   2.527   1.816  1.00  0.00     0.168 HD
HETATM   20  C17 UNL     1      -1.031   3.047   2.565  1.00  0.00     0.183 A 
HETATM   21  N11 UNL     1       0.284   2.843   2.579  1.00  0.00    -0.338 N 
ATOM     22  H11 UNL     1       0.875   3.414   3.183  1.00  0.00     0.168 HD
HETATM   23  C18 UNL     1       0.841   1.899   1.811  1.00  0.00     0.125 A 
HETATM   24  N12 UNL     1       2.162   1.699   1.767  1.00  0.00    -0.307 N 
ATOM     25  H12 UNL     1       2.767   2.264   2.364  1.00  0.00     0.171 HD
ENDROOT
BRANCH   1  26
HETATM   26  O1  UNL     1       4.085   0.640   0.976  1.00  0.00    -0.314 OA
BRANCH  26  27
HETATM   27  C3  UNL     1       4.805  -0.265   0.197  1.00  0.00     0.258 C 
BRANCH  27  28
HETATM   28  C2  UNL     1       6.256  -0.125   0.518  1.00  0.00     0.138 A 
HETATM   29  N3  UNL     1       6.804   0.254   1.673  1.00  0.00    -0.270 N 
HETATM   30  N2  UNL     1       8.122   0.228   1.489  1.00  0.00    -0.225 N 
ATOM     31  H3  UNL     1       6.311   0.513   2.528  1.00  0.00     0.190 HD
HETATM   32  N1  UNL     1       8.400  -0.154   0.263  1.00  0.00    -0.223 N 
ATOM     33  H2  UNL     1       8.815   0.470   2.197  1.00  0.00     0.210 HD
HETATM   34  C1  UNL     1       9.685  -0.328  -0.378  1.00  0.00     0.202 C 
HETATM   35  N13 UNL     1       7.246  -0.374  -0.346  1.00  0.00    -0.269 N 
ATOM     36  H13 UNL     1       7.131  -0.682  -1.312  1.00  0.00     0.190 HD
ENDBRANCH  27  28
ENDBRANCH  26  27
ENDBRANCH   1  26
BRANCH  17  37
HETATM   37  N9  UNL     1      -2.181   0.740   0.249  1.00  0.00    -0.371 N 
ATOM     38  H9  UNL     1      -1.822   0.028  -0.387  1.00  0.00     0.161 HD
BRANCH  37  39
HETATM   39  C12 UNL     1      -3.570   0.995   0.262  1.00  0.00     0.084 C 
HETATM   40  C13 UNL     1      -4.420   0.371   1.357  1.00  0.00     0.032 C 
HETATM   41  C14 UNL     1      -5.543   0.383   0.296  1.00  0.00     0.013 C 
HETATM   42  C16 UNL     1      -4.410   0.118  -0.691  1.00  0.00     0.032 C 
BRANCH  41  43
HETATM   43  C15 UNL     1      -6.586  -0.658   0.438  1.00  0.00     0.168 C 
BRANCH  43  44
HETATM   44  O2  UNL     1      -7.203  -0.478   1.700  1.00  0.00    -0.400 OA
ATOM     45  H2  UNL     1      -7.872  -1.146   1.791  1.00  0.00     0.209 HD
ENDBRANCH  43  44
ENDBRANCH  41  43
ENDBRANCH  37  39
ENDBRANCH  17  37
BRANCH   9  46
HETATM   46  N6  UNL     1      -2.050  -3.343  -3.125  1.00  0.00    -0.234 N 
ATOM     47  H62 UNL     1      -2.550  -4.141  -2.732  1.00  0.00     0.174 HD
ATOM     48  H61 UNL     1      -2.021  -3.221  -4.137  1.00  0.00     0.174 HD
ENDBRANCH   9  46
TORSDOF 8
