REMARK  13 active torsions:
REMARK  status: ('A' for Active; 'I' for Inactive)
REMARK       I    between atoms: C2_2  and  N1_4 
REMARK    1  A    between atoms: N1_4  and  C3_6 
REMARK    2  A    between atoms: C3_6  and  C4_7 
REMARK    3  A    between atoms: C3_6  and  C15_43 
REMARK    4  A    between atoms: C6_11  and  C7_12 
REMARK    5  A    between atoms: C7_12  and  N3_13 
REMARK    6  A    between atoms: C7_12  and  C10_29 
REMARK    7  A    between atoms: N3_13  and  C8_15 
REMARK    8  A    between atoms: C9_18  and  N5_19 
REMARK    9  A    between atoms: C11_31  and  C12_32 
REMARK   10  A    between atoms: C12_32  and  O3_33 
REMARK   11  A    between atoms: C12_32  and  O4_35 
REMARK   12  A    between atoms: C15_43  and  O5_44 
REMARK   13  A    between atoms: C15_43  and  O6_46 
ROOT
HETATM    1  C10 UNL     1      -2.006   0.680  -0.656  1.00  0.00     0.122 A 
HETATM    2  O2  UNL     1      -2.198   1.474   0.362  1.00  0.00    -0.291 OA
HETATM    3  C11 UNL     1      -3.164   2.321   0.148  1.00  0.00     0.180 A 
HETATM    4  N9  UNL     1      -3.637   2.068  -1.083  1.00  0.00    -0.325 N 
ATOM      5  H9  UNL     1      -4.401   2.565  -1.541  1.00  0.00     0.168 HD
HETATM    6  C13 UNL     1      -2.931   1.044  -1.615  1.00  0.00     0.148 A 
HETATM    7  C14 UNL     1      -3.132   0.478  -2.916  1.00  0.00     0.120 C 
HETATM    8  N10 UNL     1      -3.293   0.019  -3.967  1.00  0.00    -0.190 NA
ENDROOT
BRANCH   1   9
HETATM    9  C7  UNL     1      -1.001  -0.407  -0.786  1.00  0.00     0.217 C 
BRANCH   9  10
HETATM   10  C6  UNL     1       0.351   0.169  -0.547  1.00  0.00     0.081 A 
HETATM   11  N2  UNL     1       0.644   1.456  -0.583  1.00  0.00    -0.360 N 
HETATM   12  C5  UNL     1       1.856   1.856  -0.359  1.00  0.00     0.105 A 
ATOM     13  H2  UNL     1      -0.086   2.138  -0.788  1.00  0.00     0.165 HD
HETATM   14  C4  UNL     1       2.803   0.903  -0.089  1.00  0.00     0.027 A 
HETATM   15  S1  UNL     1       1.860  -0.534  -0.177  1.00  0.00    -0.075 SA
BRANCH  14  16
HETATM   16  C3  UNL     1       4.267   1.056   0.206  1.00  0.00     0.180 C 
BRANCH  16  17
HETATM   17  N1  UNL     1       4.928   0.028  -0.605  1.00  0.00    -0.347 N 
HETATM   18  C2  UNL     1       5.725  -0.973  -0.001  1.00  0.00     0.214 C 
HETATM   19  C1  UNL     1       6.392  -2.011  -0.826  1.00  0.00     0.117 C 
HETATM   20  O1  UNL     1       5.885  -1.002   1.254  1.00  0.00    -0.274 OA
ATOM     21  H1  UNL     1       4.812   0.035  -1.618  1.00  0.00     0.163 HD
ENDBRANCH  16  17
BRANCH  16  22
HETATM   22  C15 UNL     1       4.784   2.389  -0.215  1.00  0.00     0.281 C 
BRANCH  22  23
HETATM   23  O5  UNL     1       6.181   2.358   0.010  1.00  0.00    -0.369 OA
ATOM     24  H5  UNL     1       6.511   3.208  -0.258  1.00  0.00     0.212 HD
ENDBRANCH  22  23
BRANCH  22  25
HETATM   25  O6  UNL     1       4.315   3.403   0.621  1.00  0.00    -0.369 OA
ATOM     26  H6  UNL     1       4.645   4.253   0.353  1.00  0.00     0.212 HD
ENDBRANCH  22  25
ENDBRANCH  16  22
ENDBRANCH  14  16
ENDBRANCH   9  10
BRANCH   9  27
HETATM   27  N3  UNL     1      -1.225  -1.420   0.255  1.00  0.00    -0.208 N 
ATOM     28  H3  UNL     1      -0.497  -1.591   0.949  1.00  0.00     0.179 HD
BRANCH  27  29
HETATM   29  C8  UNL     1      -2.440  -2.171   0.317  1.00  0.00     0.693 C 
HETATM   30  N4  UNL     1      -2.846  -2.942  -0.634  1.00  0.00    -0.177 N 
HETATM   31  C9  UNL     1      -4.080  -3.641  -0.450  1.00  0.00     0.416 C 
ATOM     32  H4  UNL     1      -2.304  -3.050  -1.491  1.00  0.00     0.181 HD
HETATM   33  N6  UNL     1      -5.065  -2.924   0.286  1.00  0.00    -0.274 N 
HETATM   34  N7  UNL     1      -4.618  -2.228   1.381  1.00  0.00    -0.230 N 
ATOM     35  H6  UNL     1      -6.048  -2.927   0.015  1.00  0.00     0.185 HD
HETATM   36  N8  UNL     1      -3.253  -2.074   1.479  1.00  0.00    -0.118 N 
ATOM     37  H7  UNL     1      -5.257  -1.848   2.079  1.00  0.00     0.208 HD
ATOM     38  H8  UNL     1      -2.825  -1.890   2.386  1.00  0.00     0.207 HD
BRANCH  31  39
HETATM   39  N5  UNL     1      -3.759  -4.937   0.149  1.00  0.00    -0.039 N 
ATOM     40  H53 UNL     1      -3.076  -5.468  -0.391  1.00  0.00     0.279 HD
ATOM     41  H52 UNL     1      -3.214  -4.856   1.007  1.00  0.00     0.279 HD
ATOM     42  H51 UNL     1      -4.639  -5.436   0.280  1.00  0.00     0.279 HD
ENDBRANCH  31  39
ENDBRANCH  27  29
ENDBRANCH   9  27
ENDBRANCH   1   9
BRANCH   3  43
HETATM   43  C12 UNL     1      -3.618   3.358   1.132  1.00  0.00     0.331 C 
BRANCH  43  44
HETATM   44  O3  UNL     1      -2.484   3.962   1.654  1.00  0.00    -0.364 OA
ATOM     45  H3  UNL     1      -2.772   4.619   2.277  1.00  0.00     0.213 HD
ENDBRANCH  43  44
BRANCH  43  46
HETATM   46  O4  UNL     1      -4.338   4.313   0.434  1.00  0.00    -0.364 OA
ATOM     47  H4  UNL     1      -4.626   4.970   1.057  1.00  0.00     0.213 HD
ENDBRANCH  43  46
ENDBRANCH   3  43
TORSDOF 13
