REMARK  14 active torsions:
REMARK  status: ('A' for Active; 'I' for Inactive)
REMARK    1  A    between atoms: C5_10  and  N4_11 
REMARK    2  A    between atoms: N4_11  and  C6_13 
REMARK    3  A    between atoms: C7_14  and  C8_15 
REMARK       I    between atoms: C8_15  and  N5_17 
REMARK    4  A    between atoms: N5_17  and  N6_19 
REMARK    5  A    between atoms: C9_24  and  O2_25 
REMARK    6  A    between atoms: N8_27  and  C10_28 
REMARK    7  A    between atoms: C10_28  and  C11_29 
REMARK    8  A    between atoms: C11_29  and  C12_31 
REMARK    9  A    between atoms: C12_31  and  N9_32 
REMARK   10  A    between atoms: N9_32  and  C13_35 
REMARK   11  A    between atoms: C13_35  and  N10_36 
REMARK   12  A    between atoms: C13_35  and  C14_40 
REMARK   13  A    between atoms: C14_40  and  O4_41 
REMARK   14  A    between atoms: N11_43  and  O5_45 
ROOT
HETATM    1  C6  UNL     1       0.041  -1.976   0.308  1.00  0.00     0.145 A 
HETATM    2  C7  UNL     1       0.561  -3.164  -0.242  1.00  0.00     0.150 A 
HETATM    3  N7  UNL     1       1.623  -3.485   0.544  1.00  0.00    -0.314 N 
ATOM      4  H7  UNL     1       2.217  -4.303   0.405  1.00  0.00     0.170 HD
HETATM    5  C9  UNL     1       1.784  -2.609   1.500  1.00  0.00     0.226 A 
HETATM    6  N8  UNL     1       0.801  -1.674   1.347  1.00  0.00    -0.290 N 
ENDROOT
BRANCH   6   7
HETATM    7  C10 UNL     1       0.739  -0.517   2.202  1.00  0.00     0.214 C 
BRANCH   7   8
HETATM    8  C11 UNL     1       1.687   0.541   1.726  1.00  0.00     0.170 C 
HETATM    9  O3  UNL     1       1.757   1.580   2.354  1.00  0.00    -0.294 OA
BRANCH   8  10
HETATM   10  C12 UNL     1       2.530   0.352   0.522  1.00  0.00     0.315 C 
BRANCH  10  11
HETATM   11  N9  UNL     1       3.358   1.534   0.271  1.00  0.00    -0.032 N 
ATOM     12  H92 UNL     1       2.818   2.397   0.202  1.00  0.00     0.280 HD
ATOM     13  H91 UNL     1       3.929   1.804   1.072  1.00  0.00     0.280 HD
BRANCH  11  14
HETATM   14  C13 UNL     1       4.138   1.250  -0.918  1.00  0.00     0.455 C 
BRANCH  14  15
HETATM   15  N10 UNL     1       4.912   0.066  -0.702  1.00  0.00    -0.042 N 
ATOM     16 3H10 UNL     1       5.491   0.130   0.135  1.00  0.00     0.277 HD
ATOM     17 2H10 UNL     1       4.336  -0.727  -0.419  1.00  0.00     0.277 HD
ATOM     18 1H10 UNL     1       5.461  -0.134  -1.538  1.00  0.00     0.277 HD
ENDBRANCH  14  15
BRANCH  14  19
HETATM   19  C14 UNL     1       5.021   2.387  -1.276  1.00  0.00     0.194 C 
HETATM   20  N11 UNL     1       6.290   2.328  -1.349  1.00  0.00    -0.248 N 
ATOM     21  H11 UNL     1       6.774   3.188  -1.605  1.00  0.00     0.196 HD
BRANCH  19  22
HETATM   22  O4  UNL     1       4.417   3.613  -1.551  1.00  0.00    -0.345 OA
ATOM     23  H4  UNL     1       4.982   4.341  -1.780  1.00  0.00     0.219 HD
ENDBRANCH  19  22
BRANCH  20  24
HETATM   24  O5  UNL     1       7.064   1.238  -1.121  1.00  0.00    -0.288 OA
ATOM     25  H5  UNL     1       8.011   1.194  -1.176  1.00  0.00     0.244 HD
ENDBRANCH  20  24
ENDBRANCH  14  19
ENDBRANCH  11  14
ENDBRANCH  10  11
ENDBRANCH   8  10
ENDBRANCH   7   8
ENDBRANCH   6   7
BRANCH   1  26
HETATM   26  N4  UNL     1      -1.095  -1.332  -0.256  1.00  0.00    -0.328 N 
ATOM     27  H4  UNL     1      -1.388  -1.738  -1.144  1.00  0.00     0.169 HD
BRANCH  26  28
HETATM   28  C5  UNL     1      -1.886  -0.270   0.147  1.00  0.00     0.113 C 
HETATM   29  N3  UNL     1      -2.732  -0.545   1.124  1.00  0.00    -0.318 N 
HETATM   30  C4  UNL     1      -3.678   0.326   1.756  1.00  0.00     0.191 C 
ATOM     31  H3  UNL     1      -2.709  -1.503   1.474  1.00  0.00     0.170 HD
HETATM   32  N1  UNL     1      -4.277   1.242   1.071  1.00  0.00    -0.339 N 
HETATM   33  N2  UNL     1      -3.919   0.135   3.124  1.00  0.00    -0.063 NA
HETATM   34  C2  UNL     1      -4.244   1.669  -0.299  1.00  0.00     0.095 C 
ATOM     35  H1  UNL     1      -4.926   1.791   1.636  1.00  0.00     0.164 HD
HETATM   36  C1  UNL     1      -4.604   3.154  -0.290  1.00  0.00     0.062 C 
HETATM   37  C3  UNL     1      -5.469   0.980  -0.945  1.00  0.00     0.062 C 
HETATM   38  N12 UNL     1      -3.162   1.350  -1.110  1.00  0.00    -0.382 N 
HETATM   39  C15 UNL     1      -1.872   1.069  -0.515  1.00  0.00     0.079 C 
ATOM     40  H12 UNL     1      -3.276   1.314  -2.123  1.00  0.00     0.157 HD
HETATM   41  C16 UNL     1      -1.463   2.134   0.446  1.00  0.00     0.046 C 
HETATM   42  C17 UNL     1      -0.880   1.029  -1.651  1.00  0.00     0.046 C 
ENDBRANCH  26  28
ENDBRANCH   1  26
BRANCH   5  43
HETATM   43  O2  UNL     1       2.756  -2.569   2.526  1.00  0.00    -0.332 OA
ATOM     44  H2  UNL     1       2.873  -1.932   3.221  1.00  0.00     0.221 HD
ENDBRANCH   5  43
BRANCH   2  45
HETATM   45  C8  UNL     1       0.164  -3.973  -1.358  1.00  0.00     0.290 C 
HETATM   46  O1  UNL     1      -0.814  -3.707  -2.075  1.00  0.00    -0.264 OA
HETATM   47  N5  UNL     1       0.878  -5.162  -1.731  1.00  0.00    -0.271 N 
ATOM     48  H5  UNL     1       1.691  -5.428  -1.176  1.00  0.00     0.189 HD
BRANCH  47  49
HETATM   49  N6  UNL     1       0.528  -5.965  -2.797  1.00  0.00    -0.342 N 
ATOM     50  H62 UNL     1      -0.288  -5.684  -3.341  1.00  0.00     0.176 HD
ATOM     51  H61 UNL     1       1.035  -6.809  -3.062  1.00  0.00     0.176 HD
ENDBRANCH  47  49
ENDBRANCH   2  45
TORSDOF 14
