REMARK  8 active torsions:
REMARK  status: ('A' for Active; 'I' for Inactive)
REMARK    1  A    between atoms: C2_2  and  C3_3 
REMARK    2  A    between atoms: C6_6  and  C7_7 
REMARK    3  A    between atoms: C7_7  and  O2_9 
REMARK    4  A    between atoms: O2_9  and  C8_10 
REMARK    5  A    between atoms: C10_12  and  O3_14 
REMARK    6  A    between atoms: C20_24  and  O4_25 
REMARK    7  A    between atoms: C22_29  and  O5_30 
REMARK    8  A    between atoms: C24_32  and  O6_33 
ROOT
HETATM    1  C8  UNL     1       0.605  -0.599   0.507  1.00  0.00     0.279 C 
HETATM    2  C9  UNL     1      -0.013  -1.936   0.667  1.00  0.00     0.099 C 
HETATM    3  C10 UNL     1      -1.279  -1.899   1.478  1.00  0.00     0.063 C 
HETATM    4  C11 UNL     1      -1.341  -0.848   2.536  1.00  0.00     0.046 C 
HETATM    5  C12 UNL     1      -2.506  -1.920   0.696  1.00  0.00     0.029 C 
HETATM    6  C13 UNL     1      -2.412  -2.855  -0.532  1.00  0.00     0.009 C 
HETATM    7  C14 UNL     1      -3.911  -2.894  -0.771  1.00  0.00     0.005 C 
HETATM    8  C15 UNL     1      -4.123  -1.359  -0.877  1.00  0.00    -0.010 C 
HETATM    9  C16 UNL     1      -3.720  -1.052  -2.280  1.00  0.00     0.010 C 
HETATM   10  C17 UNL     1      -3.190  -0.752   0.188  1.00  0.00     0.035 C 
HETATM   11  C18 UNL     1      -2.516   0.377  -0.383  1.00  0.00     0.019 A 
HETATM   12  C19 UNL     1      -1.200   0.751  -0.731  1.00  0.00     0.116 A 
HETATM   13  C20 UNL     1      -0.912   1.939  -1.364  1.00  0.00     0.120 A 
HETATM   14  C21 UNL     1      -1.904   2.820  -1.684  1.00  0.00     0.083 A 
HETATM   15 BR1  UNL     1      -1.482   4.470  -2.568  1.00  0.00    -0.045 Br
HETATM   16  C22 UNL     1      -3.190   2.485  -1.354  1.00  0.00     0.122 A 
HETATM   17  C24 UNL     1      -3.505   1.281  -0.710  1.00  0.00     0.112 A 
HETATM   18  O7  UNL     1      -0.024   0.085  -0.531  1.00  0.00    -0.316 OA
ENDROOT
BRANCH   1  19
HETATM   19  O2  UNL     1       2.010  -0.722   0.243  1.00  0.00    -0.285 OA
BRANCH  19  20
HETATM   20  C7  UNL     1       2.984  -0.173   1.054  1.00  0.00     0.297 C 
HETATM   21  O1  UNL     1       2.574   0.463   2.071  1.00  0.00    -0.259 OA
BRANCH  20  22
HETATM   22  C6  UNL     1       4.404  -0.304   0.776  1.00  0.00     0.061 A 
HETATM   23  C5  UNL     1       4.899  -1.026  -0.380  1.00  0.00     0.018 A 
HETATM   24  C4  UNL     1       6.207  -1.101  -0.563  1.00  0.00     0.006 A 
HETATM   25  C3  UNL     1       7.198  -0.493   0.338  1.00  0.00     0.150 A 
HETATM   26  O8  UNL     1       6.639   0.184   1.426  1.00  0.00    -0.353 OA
HETATM   27  C26 UNL     1       5.263   0.250   1.600  1.00  0.00     0.153 A 
BRANCH  25  28
HETATM   28  C2  UNL     1       8.112   0.475  -0.385  1.00  0.00     0.032 C 
HETATM   29  C1  UNL     1       9.107   1.069   0.586  1.00  0.00     0.008 C 
ENDBRANCH  25  28
ENDBRANCH  20  22
ENDBRANCH  19  20
ENDBRANCH   1  19
BRANCH   3  30
HETATM   30  O3  UNL     1      -1.236  -3.128   2.215  1.00  0.00    -0.390 OA
ATOM     31  H3  UNL     1      -2.036  -3.105   2.727  1.00  0.00     0.210 HD
ENDBRANCH   3  30
BRANCH  13  32
HETATM   32  O4  UNL     1       0.394   2.280  -1.698  1.00  0.00    -0.357 OA
ATOM     33  H4  UNL     1       0.593   3.100  -2.135  1.00  0.00     0.218 HD
ENDBRANCH  13  32
BRANCH  17  34
HETATM   34  O6  UNL     1      -4.857   1.135  -0.456  1.00  0.00    -0.352 OA
HETATM   35  C25 UNL     1      -5.451   1.636   0.716  1.00  0.00     0.210 C 
ENDBRANCH  17  34
BRANCH  16  36
HETATM   36  O5  UNL     1      -4.170   3.392  -1.688  1.00  0.00    -0.352 OA
HETATM   37  C23 UNL     1      -4.628   4.465  -0.930  1.00  0.00     0.210 C 
ENDBRANCH  16  36
TORSDOF 8
