REMARK  9 active torsions:
REMARK  status: ('A' for Active; 'I' for Inactive)
REMARK    1  A    between atoms: C2_2  and  C3_3 
REMARK    2  A    between atoms: C3_3  and  C4_4 
REMARK    3  A    between atoms: C4_4  and  C5_5 
REMARK    4  A    between atoms: C5_5  and  C6_6 
REMARK    5  A    between atoms: C6_6  and  N1_7 
REMARK    6  A    between atoms: N2_12  and  N3_14 
REMARK    7  A    between atoms: N3_14  and  C11_16 
REMARK    8  A    between atoms: C11_16  and  N4_18 
REMARK    9  A    between atoms: N4_18  and  C12_20 
ROOT
HETATM    1  C1  UNL     1       0.569   1.423   2.982  1.00  0.00     0.065 C 
HETATM    2  C2  UNL     1       0.402   0.611   1.712  1.00  0.00    -0.000 C 
HETATM    3  N2  UNL     1       1.376   0.438   0.926  1.00  0.00    -0.307 N 
ATOM      4  H2  UNL     1       2.251   0.877   1.213  1.00  0.00     0.186 HD
ENDROOT
BRANCH   3   5
HETATM    5  N3  UNL     1       1.429  -0.253  -0.255  1.00  0.00    -0.277 N 
ATOM      6  H3  UNL     1       0.613  -0.749  -0.612  1.00  0.00     0.189 HD
BRANCH   5   7
HETATM    7  C11 UNL     1       2.682  -0.256  -0.981  1.00  0.00     0.186 C 
HETATM    8  S1  UNL     1       2.747  -1.066  -2.390  1.00  0.00    -0.040 SA
BRANCH   7   9
HETATM    9  N4  UNL     1       3.765   0.454  -0.425  1.00  0.00    -0.361 N 
ATOM     10  H4  UNL     1       3.643   0.950   0.458  1.00  0.00     0.162 HD
BRANCH   9  11
HETATM   11  C12 UNL     1       5.032   0.487  -1.085  1.00  0.00     0.083 C 
HETATM   12  C13 UNL     1       5.667  -0.876  -1.100  1.00  0.00     0.025 C 
HETATM   13  C14 UNL     1       7.150  -0.518  -1.286  1.00  0.00     0.002 C 
HETATM   14  C15 UNL     1       7.322   0.583  -0.285  1.00  0.00     0.002 C 
HETATM   15  C16 UNL     1       6.030   1.351  -0.346  1.00  0.00     0.025 C 
ENDBRANCH   9  11
ENDBRANCH   7   9
ENDBRANCH   5   7
ENDBRANCH   3   5
BRANCH   2  16
HETATM   16  C3  UNL     1      -0.930   0.020   1.409  1.00  0.00     0.053 C 
BRANCH  16  17
HETATM   17  C4  UNL     1      -1.971   1.109   1.286  1.00  0.00     0.007 C 
BRANCH  17  18
HETATM   18  C5  UNL     1      -3.332   0.532   0.985  1.00  0.00     0.030 C 
BRANCH  18  19
HETATM   19  C6  UNL     1      -3.408  -0.239  -0.288  1.00  0.00     0.272 C 
BRANCH  19  20
HETATM   20  N1  UNL     1      -4.694  -0.785  -0.571  1.00  0.00     0.088 N 
HETATM   21  C7  UNL     1      -5.137  -1.831   0.292  1.00  0.00     0.272 C 
HETATM   22  C8  UNL     1      -6.642  -1.884   0.143  1.00  0.00     0.032 C 
HETATM   23  C9  UNL     1      -7.026  -0.647  -0.638  1.00  0.00     0.032 C 
HETATM   24  C10 UNL     1      -5.745   0.166  -0.702  1.00  0.00     0.272 C 
ENDBRANCH  19  20
ENDBRANCH  18  19
ENDBRANCH  17  18
ENDBRANCH  16  17
ENDBRANCH   2  16
TORSDOF 9
