REMARK  4 active torsions:
REMARK  status: ('A' for Active; 'I' for Inactive)
REMARK    1  A    between atoms: C5_5  and  C6_6 
REMARK    2  A    between atoms: C6_6  and  O1_7 
REMARK    3  A    between atoms: C6_6  and  C7_9 
REMARK    4  A    between atoms: C7_9  and  N1_10 
ROOT
HETATM    1  C7  UNL     1      -0.562   0.313  -0.950  1.00  0.00     0.173 C 
ENDROOT
BRANCH   1   2
HETATM    2  C6  UNL     1       0.284  -0.656  -0.161  1.00  0.00     0.140 C 
BRANCH   2   3
HETATM    3  C5  UNL     1       1.718  -0.520  -0.631  1.00  0.00     0.016 C 
HETATM    4  C4  UNL     1       2.589  -1.583   0.010  1.00  0.00     0.007 C 
HETATM    5  C3  UNL     1       3.645  -0.883   0.832  1.00  0.00     0.005 C 
HETATM    6  C2  UNL     1       4.487   0.003  -0.034  1.00  0.00    -0.019 C 
HETATM    7  C1  UNL     1       5.386   0.891   0.827  1.00  0.00     0.010 C 
HETATM    8  C15 UNL     1       3.653   0.936  -0.881  1.00  0.00     0.005 C 
HETATM    9  C14 UNL     1       2.224   0.866  -0.316  1.00  0.00     0.007 C 
ENDBRANCH   2   3
BRANCH   2  10
HETATM   10  O1  UNL     1       0.179  -0.513   1.209  1.00  0.00    -0.394 OA
ATOM     11  H1  UNL     1      -0.720  -0.598   1.504  1.00  0.00     0.210 HD
ENDBRANCH   2  10
ENDBRANCH   1   2
BRANCH   1  12
HETATM   12  N1  UNL     1      -1.944   0.059  -0.580  1.00  0.00    -0.210 N 
HETATM   13  C8  UNL     1      -2.859   0.877   0.144  1.00  0.00     0.674 C 
HETATM   14  N2  UNL     1      -2.922   1.924   0.892  1.00  0.00    -0.225 N 
HETATM   15  N3  UNL     1      -4.178   0.333  -0.023  1.00  0.00    -0.215 N 
HETATM   16  C9  UNL     1      -4.281   2.201   1.306  1.00  0.00     0.158 C 
ATOM     17  H2  UNL     1      -2.115   2.487   1.159  1.00  0.00     0.177 HD
HETATM   18  C10 UNL     1      -4.971   0.883   1.053  1.00  0.00     0.161 C 
HETATM   19  C11 UNL     1      -4.059  -0.513  -1.204  1.00  0.00     0.166 C 
HETATM   20  C12 UNL     1      -2.688  -1.142  -0.907  1.00  0.00     0.116 C 
HETATM   21  C13 UNL     1      -2.864  -1.987   0.349  1.00  0.00     0.034 C 
ENDBRANCH   1  12
TORSDOF 4
