REMARK  2 active torsions:
REMARK  status: ('A' for Active; 'I' for Inactive)
REMARK    1  A    between atoms: C3_3  and  N1_4 
REMARK       I    between atoms: N1_4  and  C4_6 
REMARK       I    between atoms: C4_6  and  N2_8 
REMARK    2  A    between atoms: N4_16  and  C9_17 
ROOT
HETATM    1  C1  UNL     1       4.846   3.226  -1.814  1.00  0.00     0.014 C 
HETATM    2  C2  UNL     1       4.539   2.095  -1.520  1.00  0.00    -0.098 C 
HETATM    3  C3  UNL     1       4.158   0.724  -1.186  1.00  0.00     0.217 C 
ENDROOT
BRANCH   3   4
HETATM    4  N1  UNL     1       2.753   0.656  -0.950  1.00  0.00    -0.333 N 
HETATM    5  C4  UNL     1       2.113  -0.576  -0.603  1.00  0.00     0.319 C 
HETATM    6  O1  UNL     1       2.830  -1.603  -0.511  1.00  0.00    -0.247 OA
HETATM    7  N2  UNL     1       0.735  -0.677  -0.365  1.00  0.00    -0.326 N 
HETATM    8  C5  UNL     1      -0.282   0.387  -0.419  1.00  0.00     0.155 C 
HETATM    9  C12 UNL     1       0.005  -1.865  -0.012  1.00  0.00     0.109 C 
HETATM   10  C6  UNL     1      -1.177   0.113   0.759  1.00  0.00     0.132 C 
HETATM   11  C7  UNL     1      -1.004  -1.350   0.989  1.00  0.00     0.133 C 
HETATM   12  N4  UNL     1      -2.578   0.295   0.439  1.00  0.00    -0.315 N 
HETATM   13  N3  UNL     1      -2.275  -1.983   0.776  1.00  0.00    -0.334 N 
HETATM   14  C8  UNL     1      -3.239  -0.928   0.749  1.00  0.00     0.320 C 
ATOM     15  H3  UNL     1      -2.453  -2.981   0.666  1.00  0.00     0.164 HD
HETATM   16  O2  UNL     1      -4.478  -1.104   0.974  1.00  0.00    -0.247 OA
HETATM   17  C13 UNL     1       0.845  -2.973   0.532  1.00  0.00     0.034 C 
ATOM     18  H1  UNL     1       2.192   1.504  -1.030  1.00  0.00     0.165 HD
BRANCH  12  19
HETATM   19  C9  UNL     1      -3.256   1.451  -0.091  1.00  0.00     0.221 C 
HETATM   20  C10 UNL     1      -3.737   2.324   0.993  1.00  0.00    -0.098 C 
HETATM   21  C11 UNL     1      -4.126   3.057   1.874  1.00  0.00     0.014 C 
ENDBRANCH  12  19
ENDBRANCH   3   4
TORSDOF 2
