REMARK  5 active torsions:
REMARK  status: ('A' for Active; 'I' for Inactive)
REMARK    1  A    between atoms: C1_2  and  C2_3 
REMARK       I    between atoms: C1_2  and  N1_8 
REMARK    2  A    between atoms: C8_11  and  C9_12 
REMARK    3  A    between atoms: C9_12  and  O3_13 
REMARK    4  A    between atoms: O3_13  and  C10_14 
REMARK    5  A    between atoms: C13_17  and  N2_18 
ROOT
HETATM    1  O1  UNL     1      -5.460  -2.207   0.900  1.00  0.00    -0.270 OA
HETATM    2  C1  UNL     1      -5.194  -1.257   0.066  1.00  0.00     0.250 C 
HETATM    3  N1  UNL     1      -3.866  -1.052  -0.367  1.00  0.00    -0.326 N 
HETATM    4  C6  UNL     1      -3.448  -0.001  -1.296  1.00  0.00     0.130 C 
HETATM    5  C7  UNL     1      -1.896  -0.038  -1.360  1.00  0.00     0.055 C 
HETATM    6  C8  UNL     1      -1.478  -0.022   0.071  1.00  0.00     0.213 C 
HETATM    7  N3  UNL     1      -1.686  -1.291   0.683  1.00  0.00    -0.053 N 
ATOM      8  H31 UNL     1      -1.751  -1.206   1.697  1.00  0.00     0.279 HD
ATOM      9  H32 UNL     1      -0.850  -1.872   0.623  1.00  0.00     0.279 HD
HETATM   10  C19 UNL     1      -2.828  -1.968   0.145  1.00  0.00     0.360 C 
ENDROOT
BRANCH   6  11
HETATM   11  C9  UNL     1      -0.103   0.541   0.294  1.00  0.00     0.201 C 
BRANCH  11  12
HETATM   12  O3  UNL     1       0.913  -0.273  -0.203  1.00  0.00    -0.384 OA
BRANCH  12  13
HETATM   13  C10 UNL     1       2.103   0.364   0.069  1.00  0.00     0.123 C 
HETATM   14  C11 UNL     1       2.908   0.668  -1.175  1.00  0.00     0.034 C 
HETATM   15  C12 UNL     1       4.238   1.098  -0.538  1.00  0.00     0.038 C 
HETATM   16  C13 UNL     1       4.335   0.374   0.754  1.00  0.00     0.225 C 
HETATM   17  C18 UNL     1       3.075  -0.454   0.875  1.00  0.00     0.067 C 
BRANCH  16  18
HETATM   18  N2  UNL     1       5.528  -0.367   0.959  1.00  0.00     0.093 N 
HETATM   19  C14 UNL     1       5.771  -1.432   0.048  1.00  0.00     0.273 C 
HETATM   20  C15 UNL     1       7.040  -1.099  -0.711  1.00  0.00     0.032 C 
HETATM   21  C16 UNL     1       7.531   0.207  -0.179  1.00  0.00     0.032 C 
HETATM   22  C17 UNL     1       6.669   0.492   1.012  1.00  0.00     0.273 C 
ENDBRANCH  16  18
ENDBRANCH  12  13
ENDBRANCH  11  12
ENDBRANCH   6  11
BRANCH   2  23
HETATM   23  C2  UNL     1      -6.339  -0.453  -0.367  1.00  0.00     0.213 C 
HETATM   24  C3  UNL     1      -6.913   0.311   0.811  1.00  0.00     0.043 C 
HETATM   25  C4  UNL     1      -7.627   1.455   0.124  1.00  0.00     0.029 C 
HETATM   26  C5  UNL     1      -7.165   1.329  -1.305  1.00  0.00     0.168 C 
HETATM   27  O2  UNL     1      -6.008   0.535  -1.275  1.00  0.00    -0.376 OA
ENDBRANCH   2  23
TORSDOF 5
