REMARK  5 active torsions:
REMARK  status: ('A' for Active; 'I' for Inactive)
REMARK    1  A    between atoms: S1_2  and  C2_3 
REMARK    2  A    between atoms: C2_3  and  C3_4 
REMARK    3  A    between atoms: C3_4  and  C4_5 
REMARK    4  A    between atoms: C4_5  and  N1_6 
REMARK    5  A    between atoms: C4_5  and  C10_16 
REMARK       I    between atoms: N1_6  and  C5_8 
REMARK       I    between atoms: C5_8  and  N2_10 
REMARK       I    between atoms: C10_16  and  N3_18 
ROOT
HETATM    1  C4  UNL     1      -0.192   0.405   0.135  1.00  0.00     0.179 C 
ENDROOT
BRANCH   1   2
HETATM    2  C3  UNL     1      -0.334   1.889   0.316  1.00  0.00     0.045 C 
BRANCH   2   3
HETATM    3  C2  UNL     1      -1.638   2.465   0.657  1.00  0.00     0.076 C 
BRANCH   3   4
HETATM    4  S1  UNL     1      -2.869   2.249  -0.644  1.00  0.00    -0.173 SA
HETATM    5  C1  UNL     1      -4.462   2.953  -0.227  1.00  0.00     0.089 C 
ENDBRANCH   3   4
ENDBRANCH   2   3
ENDBRANCH   1   2
BRANCH   1   6
HETATM    6  N1  UNL     1       1.244   0.221  -0.218  1.00  0.00    -0.330 N 
HETATM    7  C5  UNL     1       2.145  -0.471   0.607  1.00  0.00     0.319 C 
HETATM    8  O1  UNL     1       1.633  -0.935   1.694  1.00  0.00    -0.247 OA
HETATM    9  N2  UNL     1       3.514  -0.679   0.332  1.00  0.00    -0.330 N 
HETATM   10  C6  UNL     1       4.130  -0.178  -0.863  1.00  0.00     0.153 C 
HETATM   11  C9  UNL     1       4.328  -1.417   1.275  1.00  0.00     0.153 C 
HETATM   12  C7  UNL     1       5.344   0.647  -0.419  1.00  0.00     0.187 C 
HETATM   13  O2  UNL     1       5.452   0.700   0.962  1.00  0.00    -0.388 OA
HETATM   14  C8  UNL     1       5.581  -0.583   1.505  1.00  0.00     0.187 C 
ATOM     15  H1  UNL     1       1.586   0.614  -1.095  1.00  0.00     0.165 HD
ENDBRANCH   1   6
BRANCH   1  16
HETATM   16  C10 UNL     1      -1.034  -0.106  -0.952  1.00  0.00     0.242 C 
HETATM   17  O3  UNL     1      -0.796   0.190  -2.176  1.00  0.00    -0.271 OA
HETATM   18  N3  UNL     1      -2.174  -0.977  -0.756  1.00  0.00    -0.349 N 
HETATM   19  C11 UNL     1      -2.920  -1.404  -1.887  1.00  0.00     0.136 C 
HETATM   20  C14 UNL     1      -2.411  -1.368   0.604  1.00  0.00     0.136 C 
HETATM   21  C12 UNL     1      -4.395  -1.305  -1.610  1.00  0.00     0.093 C 
HETATM   22  S2  UNL     1      -4.736  -2.557  -0.312  1.00  0.00    -0.166 SA
HETATM   23  C13 UNL     1      -3.393  -2.426   0.868  1.00  0.00     0.093 C 
ENDBRANCH   1  16
TORSDOF 5
