REMARK  4 active torsions:
REMARK  status: ('A' for Active; 'I' for Inactive)
REMARK    1  A    between atoms: C5_6  and  N2_7 
REMARK    2  A    between atoms: N2_7  and  C6_9 
REMARK    3  A    between atoms: C9_12  and  S1_13 
REMARK    4  A    between atoms: S1_13  and  N3_14 
ROOT
HETATM    1  C6  UNL     1       0.393   0.654  -0.816  1.00  0.00     0.105 A 
HETATM    2  C7  UNL     1       0.638  -0.430  -0.016  1.00  0.00     0.050 A 
HETATM    3  C8  UNL     1       1.930  -0.781   0.332  1.00  0.00     0.030 A 
HETATM    4  C9  UNL     1       2.979  -0.023  -0.140  1.00  0.00     0.094 A 
HETATM    5  C10 UNL     1       2.712   1.067  -0.947  1.00  0.00     0.115 A 
HETATM    6  N4  UNL     1       1.424   1.376  -1.263  1.00  0.00    -0.351 N 
ATOM      7  H4  UNL     1       1.241   2.183  -1.859  1.00  0.00     0.166 HD
ENDROOT
BRANCH   1   8
HETATM    8  N2  UNL     1      -0.791   0.966  -1.128  1.00  0.00    -0.342 N 
ATOM      9  H2  UNL     1      -0.907   1.783  -1.727  1.00  0.00     0.167 HD
BRANCH   8  10
HETATM   10  C5  UNL     1      -1.962   0.303  -0.734  1.00  0.00     0.035 A 
HETATM   11  C4  UNL     1      -2.283  -0.928  -1.267  1.00  0.00     0.029 A 
HETATM   12  C3  UNL     1      -3.446  -1.600  -0.884  1.00  0.00     0.004 A 
HETATM   13  C2  UNL     1      -4.305  -1.043   0.043  1.00  0.00     0.027 A 
HETATM   14  C1  UNL     1      -3.992   0.185   0.579  1.00  0.00     0.048 A 
HETATM   15  N1  UNL     1      -4.873   0.784   1.547  1.00  0.00    -0.102 NA
HETATM   16  C11 UNL     1      -2.842   0.838   0.193  1.00  0.00     0.056 A 
ENDBRANCH   8  10
ENDBRANCH   1   8
BRANCH   4  17
HETATM   17  S1  UNL     1       4.644  -0.408   0.259  1.00  0.00     0.258 S 
HETATM   18  O1  UNL     1       5.557  -0.069  -0.884  1.00  0.00    -0.201 OA
HETATM   19  O2  UNL     1       4.724  -1.894   0.471  1.00  0.00    -0.201 OA
BRANCH  17  20
HETATM   20  N3  UNL     1       5.082   0.420   1.703  1.00  0.00    -0.324 N 
ATOM     21  H32 UNL     1       4.461   1.033   2.231  1.00  0.00     0.169 HD
ATOM     22  H31 UNL     1       6.050   0.196   1.935  1.00  0.00     0.169 HD
ENDBRANCH  17  20
ENDBRANCH   4  17
TORSDOF 4
