REMARK  5 active torsions:
REMARK  status: ('A' for Active; 'I' for Inactive)
REMARK    1  A    between atoms: C2_2  and  N1_3 
REMARK    2  A    between atoms: N1_3  and  C3_5 
REMARK    3  A    between atoms: C3_5  and  N2_7 
REMARK       I    between atoms: C4_9  and  N3_10 
REMARK       I    between atoms: C4_9  and  N4_16 
REMARK    4  A    between atoms: N3_10  and  C5_12 
REMARK    5  A    between atoms: C12_20  and  C13_21 
ROOT
HETATM    1  N2  UNL     1       1.134   1.186   0.369  1.00  0.00    -0.167 N 
ATOM      2  H2  UNL     1       1.127   2.117   0.786  1.00  0.00     0.186 HD
HETATM    3  C4  UNL     1       0.070   0.548   0.549  1.00  0.00     0.679 C 
HETATM    4  N3  UNL     1      -0.966   1.209   1.294  1.00  0.00    -0.221 N 
ATOM      5  H3  UNL     1      -1.373   0.753   2.110  1.00  0.00     0.178 HD
HETATM    6  N4  UNL     1      -0.234  -0.766   0.098  1.00  0.00    -0.203 N 
HETATM    7  C9  UNL     1       0.055  -1.186  -1.276  1.00  0.00     0.142 C 
HETATM    8  C10 UNL     1      -0.657  -2.510  -1.432  1.00  0.00     0.023 C 
HETATM    9  C11 UNL     1      -0.525  -3.081  -0.037  1.00  0.00     0.038 C 
HETATM   10  C12 UNL     1      -0.837  -1.858   0.835  1.00  0.00     0.203 C 
ENDROOT
BRANCH   1  11
HETATM   11  C3  UNL     1       2.315   0.882  -0.281  1.00  0.00     0.186 C 
HETATM   12  S1  UNL     1       2.533   1.363  -1.823  1.00  0.00    -0.040 SA
BRANCH  11  13
HETATM   13  N1  UNL     1       3.349   0.160   0.370  1.00  0.00    -0.367 N 
ATOM     14  H1  UNL     1       3.199  -0.133   1.335  1.00  0.00     0.161 HD
BRANCH  13  15
HETATM   15  C2  UNL     1       4.607  -0.183  -0.265  1.00  0.00     0.117 C 
HETATM   16  C1  UNL     1       4.421  -1.195  -1.356  1.00  0.00     0.026 C 
ENDBRANCH  13  15
ENDBRANCH  11  13
ENDBRANCH   1  11
BRANCH   4  17
HETATM   17  C5  UNL     1      -1.428   2.500   0.898  1.00  0.00     0.099 C 
HETATM   18  C6  UNL     1      -2.003   2.628  -0.493  1.00  0.00     0.026 C 
HETATM   19  C7  UNL     1      -3.023   3.610   0.101  1.00  0.00     0.004 C 
HETATM   20  C8  UNL     1      -2.784   2.894   1.426  1.00  0.00     0.026 C 
ENDBRANCH   4  17
BRANCH  10  21
HETATM   21  C13 UNL     1      -2.311  -1.758   0.874  1.00  0.00     0.197 C 
HETATM   22  O1  UNL     1      -2.975  -0.846   0.324  1.00  0.00    -0.646 OA
HETATM   23  O2  UNL     1      -3.044  -2.730   1.563  1.00  0.00    -0.646 OA
ENDBRANCH  10  21
TORSDOF 5
