REMARK  3 active torsions:
REMARK  status: ('A' for Active; 'I' for Inactive)
REMARK    1  A    between atoms: C2_2  and  N1_3 
REMARK    2  A    between atoms: C6_7  and  N2_8 
REMARK    3  A    between atoms: C14_16  and  N3_17 
REMARK       I    between atoms: N3_17  and  C15_19 
ROOT
HETATM    1  N1  UNL     1      -2.655  -1.036   0.288  1.00  0.00     0.090 N 
HETATM    2  C3  UNL     1      -2.494  -1.535   1.611  1.00  0.00     0.272 C 
HETATM    3  C4  UNL     1      -1.130  -1.103   2.129  1.00  0.00     0.032 C 
HETATM    4  C5  UNL     1      -0.104  -1.314   1.024  1.00  0.00     0.035 C 
HETATM    5  C6  UNL     1       0.760  -0.054   0.895  1.00  0.00     0.192 C 
HETATM    6  C13 UNL     1      -0.086   1.100   0.522  1.00  0.00     0.060 C 
HETATM    7  C14 UNL     1      -1.247   0.828  -0.394  1.00  0.00     0.114 C 
HETATM    8  C16 UNL     1      -2.513   0.406   0.302  1.00  0.00     0.297 C 
ENDROOT
BRANCH   5   9
HETATM    9  N2  UNL     1       1.957  -0.263   0.157  1.00  0.00    -0.067 N 
HETATM   10  C7  UNL     1       2.051  -1.624  -0.374  1.00  0.00     0.273 C 
HETATM   11  C8  UNL     1       2.147   0.746  -0.860  1.00  0.00     0.237 C 
HETATM   12  C9  UNL     1       3.312   0.457  -1.776  1.00  0.00     0.028 C 
HETATM   13  C10 UNL     1       4.600   0.279  -1.003  1.00  0.00     0.003 C 
HETATM   14  C11 UNL     1       4.391  -0.519   0.265  1.00  0.00     0.028 C 
HETATM   15  C12 UNL     1       3.160  -0.135   1.008  1.00  0.00     0.237 C 
ENDBRANCH   5   9
BRANCH   7  16
HETATM   16  N3  UNL     1      -1.548   1.997  -1.192  1.00  0.00    -0.358 N 
HETATM   17  C15 UNL     1      -1.817   3.269  -0.668  1.00  0.00     0.182 C 
HETATM   18  N4  UNL     1      -2.666   3.585   0.230  1.00  0.00    -0.374 N 
HETATM   19  N5  UNL     1      -1.062   4.398  -1.179  1.00  0.00    -0.064 NA
ATOM     20  H42 UNL     1      -3.197   2.791   0.589  1.00  0.00     0.158 HD
ATOM     21  H41 UNL     1      -2.862   4.511   0.611  1.00  0.00     0.158 HD
ATOM     22  H3  UNL     1      -1.566   1.888  -2.206  1.00  0.00     0.162 HD
ENDBRANCH   7  16
BRANCH   1  23
HETATM   23  C2  UNL     1      -3.823  -1.493  -0.396  1.00  0.00     0.268 C 
HETATM   24  C1  UNL     1      -3.782  -2.944  -0.721  1.00  0.00     0.037 C 
ENDBRANCH   1  23
TORSDOF 3
