REMARK  11 active torsions:
REMARK  status: ('A' for Active; 'I' for Inactive)
REMARK    1  A    between atoms: C2_2  and  N1_3 
REMARK    2  A    between atoms: C2_2  and  C20_23 
REMARK    3  A    between atoms: C10_11  and  O1_12 
REMARK    4  A    between atoms: C20_23  and  O2_24 
REMARK    5  A    between atoms: C20_23  and  C21_26 
REMARK    6  A    between atoms: C20_23  and  C26_35 
REMARK    7  A    between atoms: C21_26  and  C22_27 
REMARK    8  A    between atoms: C22_27  and  C23_28 
REMARK    9  A    between atoms: C23_28  and  C24_29 
REMARK   10  A    between atoms: C24_29  and  C25_30 
REMARK   11  A    between atoms: C25_30  and  N2_31 
ROOT
HETATM    1  C1  UNL     1       1.573  -0.484   1.529  1.00  0.00     0.066 C 
HETATM    2  C2  UNL     1       1.336  -0.529   0.040  1.00  0.00     0.016 C 
ENDROOT
BRANCH   2   3
HETATM    3  N1  UNL     1       0.828   0.597  -0.555  1.00  0.00    -0.380 N 
HETATM    4  C3  UNL     1       1.422   1.858  -0.601  1.00  0.00     0.123 C 
HETATM    5  C4  UNL     1       0.272   2.901  -0.577  1.00  0.00     0.027 C 
HETATM    6  C5  UNL     1      -0.829   2.051  -0.107  1.00  0.00     0.014 C 
HETATM    7  C6  UNL     1      -2.214   2.281  -0.552  1.00  0.00    -0.004 C 
HETATM    8  C19 UNL     1      -0.478   0.777  -0.916  1.00  0.00     0.089 C 
HETATM    9  C7  UNL     1      -2.955   2.943   0.556  1.00  0.00     0.006 C 
HETATM   10  C17 UNL     1      -2.708   0.916  -0.953  1.00  0.00     0.001 C 
HETATM   11  C8  UNL     1      -3.742   1.991   1.414  1.00  0.00     0.008 C 
HETATM   12  C9  UNL     1      -4.741   1.357   0.435  1.00  0.00     0.023 C 
HETATM   13  C10 UNL     1      -5.825   0.741   1.225  1.00  0.00     0.123 C 
HETATM   14  C15 UNL     1      -4.077   0.528  -0.604  1.00  0.00    -0.031 C 
HETATM   15  C11 UNL     1      -5.506  -0.691   1.645  1.00  0.00     0.032 C 
HETATM   16  C12 UNL     1      -5.356  -1.438   0.348  1.00  0.00     0.007 C 
HETATM   17  C13 UNL     1      -4.100  -0.968  -0.331  1.00  0.00    -0.010 C 
HETATM   18  C14 UNL     1      -4.083  -1.695  -1.687  1.00  0.00     0.011 C 
HETATM   19  C16 UNL     1      -4.946   0.677  -1.873  1.00  0.00     0.016 C 
HETATM   20  C18 UNL     1      -1.606  -0.044  -0.455  1.00  0.00     0.031 C 
BRANCH  13  21
HETATM   21  O1  UNL     1      -6.959   0.634   0.387  1.00  0.00    -0.395 OA
ATOM     22  H1  UNL     1      -7.657   0.238   0.895  1.00  0.00     0.210 HD
ENDBRANCH  13  21
ENDBRANCH   2   3
BRANCH   2  23
HETATM   23  C20 UNL     1       2.434  -1.189  -0.748  1.00  0.00     0.101 C 
BRANCH  23  24
HETATM   24  O2  UNL     1       1.885  -1.502  -2.017  1.00  0.00    -0.383 OA
ATOM     25  H2  UNL     1       2.579  -1.919  -2.515  1.00  0.00     0.211 HD
ENDBRANCH  23  24
BRANCH  23  26
HETATM   26  C21 UNL     1       3.674  -0.442  -0.984  1.00  0.00     0.044 C 
BRANCH  26  27
HETATM   27  C22 UNL     1       4.454  -0.024   0.246  1.00  0.00     0.003 C 
BRANCH  27  28
HETATM   28  C23 UNL     1       5.662   0.715  -0.278  1.00  0.00     0.002 C 
BRANCH  28  29
HETATM   29  C24 UNL     1       6.573   1.197   0.791  1.00  0.00     0.027 C 
BRANCH  29  30
HETATM   30  C25 UNL     1       5.889   2.142   1.716  1.00  0.00     0.229 C 
BRANCH  30  31
HETATM   31  N2  UNL     1       6.830   2.607   2.749  1.00  0.00    -0.079 N 
ATOM     32  H23 UNL     1       7.264   1.830   3.248  1.00  0.00     0.274 HD
ATOM     33  H22 UNL     1       7.673   3.013   2.343  1.00  0.00     0.274 HD
ATOM     34  H21 UNL     1       6.361   3.254   3.383  1.00  0.00     0.274 HD
ENDBRANCH  30  31
ENDBRANCH  29  30
ENDBRANCH  28  29
ENDBRANCH  27  28
ENDBRANCH  26  27
ENDBRANCH  23  26
BRANCH  23  35
HETATM   35  C26 UNL     1       2.771  -2.562  -0.167  1.00  0.00     0.053 C 
HETATM   36  C27 UNL     1       1.563  -3.452  -0.197  1.00  0.00     0.037 C 
HETATM   37  C28 UNL     1       2.071  -4.814  -0.559  1.00  0.00     0.233 C 
HETATM   38  N3  UNL     1       3.384  -4.660  -1.103  1.00  0.00    -0.075 N 
HETATM   39  C29 UNL     1       3.679  -3.240  -1.173  1.00  0.00     0.240 C 
ATOM     40  H32 UNL     1       4.089  -5.184  -0.585  1.00  0.00     0.277 HD
ATOM     41  H31 UNL     1       3.496  -5.131  -2.001  1.00  0.00     0.277 HD
ENDBRANCH  23  35
ENDBRANCH   2  23
TORSDOF 11
