REMARK  10 active torsions:
REMARK  status: ('A' for Active; 'I' for Inactive)
REMARK    1  A    between atoms: C2_2  and  C3_3 
REMARK    2  A    between atoms: C2_2  and  C9_13 
REMARK       I    between atoms: C3_3  and  N1_5 
REMARK    3  A    between atoms: N1_5  and  C4_7 
REMARK    4  A    between atoms: C4_7  and  C5_8 
REMARK    5  A    between atoms: C5_8  and  O2_9 
REMARK    6  A    between atoms: O2_9  and  C6_10 
REMARK    7  A    between atoms: C6_10  and  C7_11 
REMARK    8  A    between atoms: C19_23  and  C20_24 
REMARK    9  A    between atoms: C20_24  and  N2_25 
REMARK   10  A    between atoms: C21_29  and  O3_30 
ROOT
HETATM    1  C9  UNL     1       2.331   0.260   0.920  1.00  0.00     0.032 C 
HETATM    2  C10 UNL     1       2.060   0.297  -0.598  1.00  0.00     0.011 C 
HETATM    3  C11 UNL     1       1.109   1.471  -0.692  1.00  0.00     0.006 C 
HETATM    4  C12 UNL     1       0.271   1.433   0.578  1.00  0.00    -0.001 C 
HETATM    5  C13 UNL     1      -1.165   1.125   0.274  1.00  0.00    -0.005 C 
HETATM    6  C14 UNL     1      -1.401   0.392  -1.007  1.00  0.00     0.006 C 
HETATM    7  C15 UNL     1      -2.752  -0.312  -1.024  1.00  0.00     0.006 C 
HETATM    8  C16 UNL     1      -3.727   0.427  -0.124  1.00  0.00     0.002 C 
HETATM    9  C17 UNL     1      -5.115   0.116  -0.430  1.00  0.00     0.022 C 
HETATM   10  C18 UNL     1      -5.410  -0.783  -1.591  1.00  0.00     0.018 C 
HETATM   11  C19 UNL     1      -6.874  -1.196  -1.376  1.00  0.00     0.045 C 
HETATM   12  C21 UNL     1      -7.225  -0.737   0.041  1.00  0.00     0.153 C 
HETATM   13  C22 UNL     1      -5.868  -0.592   0.643  1.00  0.00    -0.050 C 
HETATM   14  C23 UNL     1      -5.309  -0.943   1.778  1.00  0.00    -0.020 C 
HETATM   15  C24 UNL     1      -3.897  -0.698   2.150  1.00  0.00     0.037 C 
HETATM   16  C25 UNL     1      -3.320   0.379   1.318  1.00  0.00    -0.033 C 
HETATM   17  C26 UNL     1      -3.875   1.688   1.931  1.00  0.00     0.016 C 
HETATM   18  C27 UNL     1      -1.818   0.441   1.487  1.00  0.00    -0.001 C 
HETATM   19  C28 UNL     1      -1.157  -0.864   1.784  1.00  0.00     0.006 C 
HETATM   20  C29 UNL     1       0.294  -0.910   1.409  1.00  0.00     0.010 C 
HETATM   21  C30 UNL     1       0.969   0.482   1.480  1.00  0.00    -0.032 C 
HETATM   22  C31 UNL     1       0.940   0.823   2.946  1.00  0.00     0.016 C 
ENDROOT
BRANCH   1  23
HETATM   23  C2  UNL     1       3.371   1.235   1.149  1.00  0.00     0.005 C 
HETATM   24  C1  UNL     1       3.325   2.403   1.736  1.00  0.00     0.025 C 
BRANCH  23  25
HETATM   25  C3  UNL     1       4.728   0.835   0.681  1.00  0.00     0.247 C 
HETATM   26  O1  UNL     1       5.692   1.641   0.874  1.00  0.00    -0.268 OA
HETATM   27  N1  UNL     1       5.007  -0.381   0.044  1.00  0.00    -0.355 N 
ATOM     28  H1  UNL     1       4.268  -1.062  -0.130  1.00  0.00     0.162 HD
BRANCH  27  29
HETATM   29  C4  UNL     1       6.407  -0.654  -0.372  1.00  0.00     0.149 C 
BRANCH  29  30
HETATM   30  C5  UNL     1       6.514  -1.984  -1.029  1.00  0.00     0.187 C 
BRANCH  30  31
HETATM   31  O2  UNL     1       7.705  -2.353  -1.425  1.00  0.00    -0.390 OA
BRANCH  31  32
HETATM   32  C6  UNL     1       8.537  -1.849  -2.306  1.00  0.00     0.167 C 
BRANCH  32  33
HETATM   33  C7  UNL     1       9.146  -0.500  -2.160  1.00  0.00     0.022 C 
HETATM   34  C8  UNL     1       9.917  -0.420  -0.863  1.00  0.00     0.007 C 
ENDBRANCH  32  33
ENDBRANCH  31  32
ENDBRANCH  30  31
ENDBRANCH  29  30
ENDBRANCH  27  29
ENDBRANCH  23  25
ENDBRANCH   1  23
BRANCH  11  35
HETATM   35  C20 UNL     1      -7.767  -0.586  -2.413  1.00  0.00     0.237 C 
BRANCH  35  36
HETATM   36  N2  UNL     1      -7.746   0.850  -2.418  1.00  0.00    -0.079 N 
ATOM     37  H23 UNL     1      -7.966   1.217  -1.492  1.00  0.00     0.274 HD
ATOM     38  H22 UNL     1      -6.791   1.196  -2.516  1.00  0.00     0.274 HD
ATOM     39  H21 UNL     1      -8.354   1.265  -3.124  1.00  0.00     0.274 HD
ENDBRANCH  35  36
ENDBRANCH  11  35
BRANCH  12  40
HETATM   40  O3  UNL     1      -7.872   0.475   0.029  1.00  0.00    -0.391 OA
ATOM     41  H3  UNL     1      -8.090   0.760   0.909  1.00  0.00     0.210 HD
ENDBRANCH  12  40
TORSDOF 10
