REMARK  6 active torsions:
REMARK  status: ('A' for Active; 'I' for Inactive)
REMARK    1  A    between atoms: C2_2  and  N1_4 
REMARK    2  A    between atoms: N1_4  and  C4_5 
REMARK    3  A    between atoms: N1_4  and  C16_21 
REMARK    4  A    between atoms: C4_5  and  C5_6 
REMARK       I    between atoms: N2_10  and  C9_11 
REMARK    5  A    between atoms: C9_11  and  C10_13 
REMARK    6  A    between atoms: C11_14  and  C12_15 
ROOT
HETATM    1  C5  UNL     1      -0.506  -1.956  -0.325  1.00  0.00     0.115 C 
HETATM    2  C6  UNL     1      -0.032  -3.036  -1.369  1.00  0.00     0.029 C 
HETATM    3  C7  UNL     1       0.698  -4.028  -0.457  1.00  0.00     0.022 C 
HETATM    4  C8  UNL     1       0.728  -3.354   0.894  1.00  0.00     0.126 C 
HETATM    5  N2  UNL     1       0.704  -1.898   0.402  1.00  0.00    -0.345 N 
HETATM    6  C9  UNL     1       1.747  -1.014   0.728  1.00  0.00     0.226 C 
HETATM    7  O1  UNL     1       2.634  -1.545   1.502  1.00  0.00    -0.273 OA
ENDROOT
BRANCH   1   8
HETATM    8  C4  UNL     1      -1.107  -0.887  -1.080  1.00  0.00     0.298 C 
BRANCH   8   9
HETATM    9  N1  UNL     1      -1.662   0.261  -0.430  1.00  0.00     0.098 N 
BRANCH   9  10
HETATM   10  C2  UNL     1      -2.790  -0.095   0.429  1.00  0.00     0.215 C 
HETATM   11  C1  UNL     1      -2.930   0.937   1.522  1.00  0.00     0.042 C 
HETATM   12  C3  UNL     1      -4.051  -0.387  -0.302  1.00  0.00     0.042 C 
ENDBRANCH   9  10
BRANCH   9  13
HETATM   13  C16 UNL     1      -2.035   1.236  -1.398  1.00  0.00     0.215 C 
HETATM   14  C17 UNL     1      -2.463   2.567  -0.929  1.00  0.00     0.042 C 
HETATM   15  C18 UNL     1      -1.043   1.380  -2.497  1.00  0.00     0.042 C 
ENDBRANCH   9  13
ENDBRANCH   8   9
ENDBRANCH   1   8
BRANCH   6  16
HETATM   16  C10 UNL     1       1.990   0.357   0.352  1.00  0.00     0.101 A 
HETATM   17  C11 UNL     1       3.252   1.073   0.236  1.00  0.00     0.109 A 
HETATM   18  C13 UNL     1       2.348   1.350   1.394  1.00  0.00    -0.021 A 
HETATM   19  C14 UNL     1       1.620   2.722   1.356  1.00  0.00     0.016 C 
HETATM   20  C15 UNL     1       2.713   0.999   2.795  1.00  0.00     0.016 C 
BRANCH  17  21
HETATM   21  C12 UNL     1       4.605   0.598   0.434  1.00  0.00     0.178 C 
HETATM   22  O2  UNL     1       5.033  -0.263   1.238  1.00  0.00    -0.648 OA
HETATM   23  O3  UNL     1       5.642   1.149  -0.369  1.00  0.00    -0.648 OA
ENDBRANCH  17  21
ENDBRANCH   6  16
TORSDOF 6
