REMARK  6 active torsions:
REMARK  status: ('A' for Active; 'I' for Inactive)
REMARK    1  A    between atoms: C3_3  and  C5_5 
REMARK    2  A    between atoms: C5_5  and  O2_7 
REMARK    3  A    between atoms: O2_7  and  C6_8 
REMARK    4  A    between atoms: C6_8  and  C7_9 
REMARK    5  A    between atoms: C17_19  and  O3_20 
REMARK    6  A    between atoms: O3_20  and  C18_21 
ROOT
HETATM    1  C7  UNL     1      -0.157   0.512   0.606  1.00  0.00    -0.003 C 
HETATM    2  C8  UNL     1       0.229  -0.110   1.922  1.00  0.00     0.013 C 
HETATM    3  C9  UNL     1       0.603  -1.565   1.773  1.00  0.00     0.006 C 
HETATM    4  C10 UNL     1      -0.426  -2.369   1.062  1.00  0.00    -0.010 C 
HETATM    5  C11 UNL     1       0.184  -3.706   0.696  1.00  0.00     0.011 C 
HETATM    6  C12 UNL     1      -0.971  -1.763  -0.192  1.00  0.00    -0.040 C 
HETATM    7  C13 UNL     1      -2.411  -2.302  -0.306  1.00  0.00     0.015 C 
HETATM    8  C14 UNL     1      -0.260  -2.260  -1.434  1.00  0.00     0.015 C 
HETATM    9  C15 UNL     1      -1.074  -0.290  -0.225  1.00  0.00     0.007 C 
HETATM   10  C16 UNL     1      -2.486   0.200   0.139  1.00  0.00     0.039 C 
HETATM   11  C17 UNL     1      -2.194   1.716   0.099  1.00  0.00     0.142 C 
HETATM   12  C20 UNL     1      -0.972   1.756   0.951  1.00  0.00     0.000 A 
HETATM   13  C21 UNL     1      -1.144   2.232   2.323  1.00  0.00     0.018 A 
HETATM   14  C22 UNL     1      -0.317   3.008   1.321  1.00  0.00    -0.006 A 
HETATM   15  C23 UNL     1      -0.823   4.297   0.750  1.00  0.00     0.011 C 
ENDROOT
BRANCH   1  16
HETATM   16  C6  UNL     1       1.052   0.965  -0.183  1.00  0.00     0.190 C 
BRANCH  16  17
HETATM   17  O2  UNL     1       1.935  -0.098  -0.477  1.00  0.00    -0.317 OA
BRANCH  17  18
HETATM   18  C5  UNL     1       3.110   0.102  -1.200  1.00  0.00     0.288 C 
HETATM   19  O1  UNL     1       3.318   1.287  -1.569  1.00  0.00    -0.260 OA
BRANCH  18  20
HETATM   20  C3  UNL     1       4.053  -0.952  -1.526  1.00  0.00     0.009 C 
HETATM   21  C2  UNL     1       3.897  -2.199  -1.171  1.00  0.00    -0.018 C 
HETATM   22  C1  UNL     1       4.875  -3.259  -1.520  1.00  0.00     0.036 C 
HETATM   23  C4  UNL     1       5.266  -0.602  -2.312  1.00  0.00     0.054 C 
ENDBRANCH  18  20
ENDBRANCH  17  18
ENDBRANCH  16  17
ENDBRANCH   1  16
BRANCH  11  24
HETATM   24  O3  UNL     1      -3.316   2.381   0.643  1.00  0.00    -0.315 OA
BRANCH  24  25
HETATM   25  C18 UNL     1      -4.072   3.297  -0.072  1.00  0.00     0.255 C 
HETATM   26  C19 UNL     1      -5.254   3.998   0.505  1.00  0.00     0.126 C 
HETATM   27  O4  UNL     1      -3.770   3.572  -1.266  1.00  0.00    -0.266 OA
ENDBRANCH  24  25
ENDBRANCH  11  24
TORSDOF 6
