REMARK  7 active torsions:
REMARK  status: ('A' for Active; 'I' for Inactive)
REMARK    1  A    between atoms: C8_8  and  N1_9 
REMARK       I    between atoms: N1_9  and  C9_11 
REMARK    2  A    between atoms: C9_11  and  C10_13 
REMARK    3  A    between atoms: C14_20  and  N3_21 
REMARK    4  A    between atoms: N3_21  and  C15_23 
REMARK    5  A    between atoms: C15_23  and  C16_24 
REMARK    6  A    between atoms: C20_30  and  C21_31 
REMARK       I    between atoms: C21_31  and  N4_33 
REMARK    7  A    between atoms: N4_33  and  C23_35 
ROOT
HETATM    1  C1  UNL     1      -4.676   2.527   3.293  1.00  0.00     0.040 C 
HETATM    2  C2  UNL     1      -3.879   3.586   2.573  1.00  0.00     0.125 C 
HETATM    3  C3  UNL     1      -4.469   3.945   1.245  1.00  0.00     0.037 C 
HETATM    4  C4  UNL     1      -4.592   2.676   0.392  1.00  0.00     0.045 C 
HETATM    5  C5  UNL     1      -3.194   2.149   0.265  1.00  0.00    -0.009 A 
HETATM    6  C6  UNL     1      -2.260   2.404   1.247  1.00  0.00     0.078 A 
HETATM    7  C7  UNL     1      -0.986   1.913   1.107  1.00  0.00     0.066 A 
HETATM    8  C8  UNL     1      -0.629   1.151  -0.037  1.00  0.00     0.038 A 
HETATM    9  C19 UNL     1      -1.553   0.908  -0.992  1.00  0.00     0.047 A 
HETATM   10  C20 UNL     1      -2.847   1.414  -0.835  1.00  0.00     0.043 A 
HETATM   11  O5  UNL     1      -2.563   3.152   2.396  1.00  0.00    -0.346 OA
ENDROOT
BRANCH   8  12
HETATM   12  N1  UNL     1       0.695   0.691  -0.105  1.00  0.00    -0.321 N 
HETATM   13  C9  UNL     1       1.263  -0.090  -1.117  1.00  0.00     0.280 C 
HETATM   14  O1  UNL     1       0.621  -0.484  -2.120  1.00  0.00    -0.265 OA
ATOM     15  H1  UNL     1       1.309   0.954   0.666  1.00  0.00     0.169 HD
BRANCH  13  16
HETATM   16  C10 UNL     1       2.701  -0.482  -1.016  1.00  0.00     0.143 A 
HETATM   17  N2  UNL     1       3.501  -0.147  -0.029  1.00  0.00    -0.349 N 
HETATM   18  C11 UNL     1       4.738  -0.541  -0.039  1.00  0.00     0.023 A 
ATOM     19  H2  UNL     1       3.151   0.421   0.743  1.00  0.00     0.166 HD
HETATM   20  C12 UNL     1       5.154  -1.304  -1.102  1.00  0.00     0.009 A 
HETATM   21  C18 UNL     1       5.814  -0.265   0.994  1.00  0.00     0.060 C 
HETATM   22  S1  UNL     1       3.707  -1.398  -2.026  1.00  0.00    -0.069 SA
HETATM   23  C13 UNL     1       6.572  -1.810  -1.206  1.00  0.00     0.073 C 
HETATM   24  C14 UNL     1       7.088  -2.262   0.118  1.00  0.00     0.082 C 
HETATM   25  C17 UNL     1       6.426  -1.610   1.305  1.00  0.00     0.031 C 
BRANCH  24  26
HETATM   26  N3  UNL     1       8.504  -2.161   0.275  1.00  0.00    -0.408 N 
ATOM     27  H3  UNL     1       9.083  -2.987   0.428  1.00  0.00     0.154 HD
BRANCH  26  28
HETATM   28  C15 UNL     1       9.069  -0.861   0.209  1.00  0.00     0.228 C 
BRANCH  28  29
HETATM   29  C16 UNL     1      10.548  -1.014   0.397  1.00  0.00     0.190 C 
HETATM   30  O2  UNL     1      11.101  -2.128   0.573  1.00  0.00    -0.647 OA
HETATM   31  O3  UNL     1      11.357   0.111   0.379  1.00  0.00    -0.647 OA
ENDBRANCH  28  29
ENDBRANCH  26  28
ENDBRANCH  24  26
ENDBRANCH  13  16
ENDBRANCH   8  12
BRANCH  10  32
HETATM   32  C21 UNL     1      -3.877   1.172  -1.851  1.00  0.00     0.254 C 
HETATM   33  O4  UNL     1      -3.971   2.024  -2.774  1.00  0.00    -0.267 OA
HETATM   34  N4  UNL     1      -4.734   0.038  -1.811  1.00  0.00    -0.347 N 
HETATM   35  C22 UNL     1      -5.723  -0.122  -2.853  1.00  0.00     0.153 C 
BRANCH  34  36
HETATM   36  C23 UNL     1      -4.570  -0.897  -0.727  1.00  0.00     0.089 C 
HETATM   37  C24 UNL     1      -4.266  -2.289  -1.154  1.00  0.00     0.028 C 
HETATM   38  C25 UNL     1      -5.524  -3.095  -1.110  1.00  0.00     0.039 C 
HETATM   39  C26 UNL     1      -6.445  -2.331  -0.224  1.00  0.00     0.172 C 
HETATM   40  F1  UNL     1      -7.677  -2.092  -0.834  1.00  0.00    -0.249 F 
HETATM   41  C27 UNL     1      -5.802  -1.030   0.124  1.00  0.00     0.062 C 
ENDBRANCH  34  36
ENDBRANCH  10  32
TORSDOF 7
