REMARK  11 active torsions:
REMARK  status: ('A' for Active; 'I' for Inactive)
REMARK    1  A    between atoms: C2_2  and  N1_3 
REMARK    2  A    between atoms: N1_3  and  C3_4 
REMARK    3  A    between atoms: N1_3  and  C5_6 
REMARK    4  A    between atoms: N2_9  and  C8_10 
REMARK    5  A    between atoms: C11_13  and  N3_14 
REMARK    6  A    between atoms: N3_14  and  C12_16 
REMARK    7  A    between atoms: C13_21  and  N6_22 
REMARK    8  A    between atoms: C14_27  and  S1_28 
REMARK    9  A    between atoms: S1_28  and  C15_29 
REMARK   10  A    between atoms: C16_32  and  N9_33 
REMARK   11  A    between atoms: N9_33  and  C17_35 
ROOT
HETATM    1  C8  UNL     1      -1.500  -0.640   1.063  1.00  0.00     0.031 A 
HETATM    2  C9  UNL     1      -1.074  -1.979   1.021  1.00  0.00     0.031 A 
HETATM    3  C10 UNL     1       0.250  -2.306   1.133  1.00  0.00     0.034 A 
HETATM    4  C11 UNL     1       1.238  -1.314   1.292  1.00  0.00     0.066 A 
HETATM    5  C14 UNL     1       0.858  -0.012   1.336  1.00  0.00     0.036 A 
HETATM    6  C23 UNL     1      -0.531   0.290   1.217  1.00  0.00     0.050 A 
ENDROOT
BRANCH   5   7
HETATM    7  S1  UNL     1       2.003   1.305   1.514  1.00  0.00    -0.068 SA
BRANCH   7   8
HETATM    8  C15 UNL     1       2.978   1.739   0.125  1.00  0.00     0.110 A 
HETATM    9  N8  UNL     1       4.257   1.245  -0.009  1.00  0.00    -0.184 N 
HETATM   10  C16 UNL     1       5.022   1.534  -1.060  1.00  0.00     0.679 A 
ATOM     11  H8  UNL     1       4.630   0.638   0.721  1.00  0.00     0.185 HD
HETATM   12  N11 UNL     1       4.535   2.327  -2.024  1.00  0.00    -0.201 N 
HETATM   13  C21 UNL     1       3.302   2.855  -1.980  1.00  0.00     0.128 A 
ATOM     14  H11 UNL     1       5.128   2.539  -2.827  1.00  0.00     0.183 HD
HETATM   15  C22 UNL     1       2.498   2.552  -0.869  1.00  0.00     0.061 A 
HETATM   16 BR1  UNL     1       0.746   3.296  -0.760  1.00  0.00    -0.047 Br
BRANCH  10  17
HETATM   17  N9  UNL     1       6.261   1.126  -1.164  1.00  0.00    -0.220 N 
ATOM     18  H9  UNL     1       6.787   1.380  -2.000  1.00  0.00     0.178 HD
BRANCH  17  19
HETATM   19  C17 UNL     1       6.923   0.330  -0.148  1.00  0.00     0.126 C 
HETATM   20  C18 UNL     1       8.227  -0.158  -0.701  1.00  0.00     0.055 C 
HETATM   21  C19 UNL     1       9.293   0.312   0.277  1.00  0.00     0.234 C 
HETATM   22  N10 UNL     1       8.717   1.468   0.905  1.00  0.00    -0.073 N 
HETATM   23  C20 UNL     1       7.313   1.207   1.039  1.00  0.00     0.257 C 
ATOM     24 2H10 UNL     1       9.167   1.713   1.787  1.00  0.00     0.277 HD
ATOM     25 1H10 UNL     1       8.920   2.337   0.412  1.00  0.00     0.277 HD
ENDBRANCH  17  19
ENDBRANCH  10  17
ENDBRANCH   7   8
ENDBRANCH   5   7
BRANCH   4  26
HETATM   26  N3  UNL     1       2.599  -1.695   1.397  1.00  0.00    -0.189 N 
ATOM     27  H3  UNL     1       3.137  -1.487   2.238  1.00  0.00     0.184 HD
BRANCH  26  28
HETATM   28  C12 UNL     1       3.150  -2.322   0.384  1.00  0.00     0.712 A 
HETATM   29  N4  UNL     1       2.567  -2.653  -0.775  1.00  0.00    -0.117 N 
HETATM   30  N5  UNL     1       3.423  -3.300  -1.550  1.00  0.00    -0.118 N 
ATOM     31  H4  UNL     1       1.602  -2.438  -1.025  1.00  0.00     0.206 HD
HETATM   32  C13 UNL     1       4.596  -3.408  -0.910  1.00  0.00     0.705 A 
ATOM     33  H5  UNL     1       3.222  -3.659  -2.484  1.00  0.00     0.206 HD
HETATM   34  N7  UNL     1       4.409  -2.798   0.282  1.00  0.00    -0.020 N 
ATOM     35  H7  UNL     1       5.122  -2.710   1.006  1.00  0.00     0.203 HD
BRANCH  32  36
HETATM   36  N6  UNL     1       5.683  -3.982  -1.354  1.00  0.00    -0.233 N 
ATOM     37  H62 UNL     1       5.824  -4.442  -2.253  1.00  0.00     0.174 HD
ATOM     38  H61 UNL     1       6.575  -4.064  -0.867  1.00  0.00     0.174 HD
ENDBRANCH  32  36
ENDBRANCH  26  28
ENDBRANCH   4  26
BRANCH   1  39
HETATM   39  N2  UNL     1      -2.880  -0.337   0.947  1.00  0.00    -0.381 N 
HETATM   40  C7  UNL     1      -3.371   0.987   0.962  1.00  0.00     0.125 C 
HETATM   41  C6  UNL     1      -4.492   1.277  -0.018  1.00  0.00     0.045 C 
HETATM   42  C5  UNL     1      -5.548   0.188   0.010  1.00  0.00     0.082 C 
HETATM   43  C25 UNL     1      -5.207  -0.830   1.093  1.00  0.00     0.045 C 
HETATM   44  C24 UNL     1      -3.856  -1.441   0.810  1.00  0.00     0.125 C 
BRANCH  42  45
HETATM   45  N1  UNL     1      -6.864   0.691   0.068  1.00  0.00    -0.409 N 
BRANCH  45  46
HETATM   46  C2  UNL     1      -7.285   1.435   1.180  1.00  0.00     0.112 C 
HETATM   47  C1  UNL     1      -7.929   2.737   0.694  1.00  0.00     0.026 C 
ENDBRANCH  45  46
BRANCH  45  48
HETATM   48  C3  UNL     1      -7.836   0.142  -0.796  1.00  0.00     0.112 C 
HETATM   49  C4  UNL     1      -8.688  -0.954  -0.249  1.00  0.00     0.026 C 
ENDBRANCH  45  48
ENDBRANCH  42  45
ENDBRANCH   1  39
TORSDOF 11
