REMARK  8 active torsions:
REMARK  status: ('A' for Active; 'I' for Inactive)
REMARK    1  A    between atoms: N1_1  and  C1_4 
REMARK    2  A    between atoms: C2_6  and  C3_7 
REMARK    3  A    between atoms: N3_10  and  N4_11 
REMARK    4  A    between atoms: N4_11  and  S2_13 
REMARK    5  A    between atoms: S2_13  and  N5_14 
REMARK    6  A    between atoms: C5_21  and  N7_22 
REMARK    7  A    between atoms: C6_25  and  O5_26 
REMARK    8  A    between atoms: N8_28  and  N9_29 
ROOT
HETATM    1  C3  UNL     1      -0.167   0.282   0.429  1.00  0.00     0.108 A 
HETATM    2  N2  UNL     1       0.855   1.102   0.007  1.00  0.00    -0.274 N 
ATOM      3  H2  UNL     1       0.718   1.998  -0.460  1.00  0.00     0.189 HD
HETATM    4  N3  UNL     1       2.018   0.587   0.280  1.00  0.00    -0.169 N 
HETATM    5  C4  UNL     1       1.830  -0.577   0.886  1.00  0.00     0.192 A 
HETATM    6  N6  UNL     1       2.830  -1.498   1.371  1.00  0.00    -0.076 NA
HETATM    7  C5  UNL     1       0.432  -0.766   0.980  1.00  0.00     0.176 A 
ENDROOT
BRANCH   1   8
HETATM    8  C2  UNL     1      -1.563   0.662   0.176  1.00  0.00     0.091 A 
HETATM    9  S1  UNL     1      -2.073   2.232  -0.403  1.00  0.00    -0.046 SA
HETATM   10  C1  UNL     1      -3.737   1.949  -0.489  1.00  0.00     0.166 A 
HETATM   11  N8  UNL     1      -3.846   0.699  -0.085  1.00  0.00    -0.217 N 
HETATM   12  C6  UNL     1      -2.763   0.029   0.255  1.00  0.00     0.183 A 
BRANCH  10  13
HETATM   13  N1  UNL     1      -4.680   2.774  -0.867  1.00  0.00    -0.378 N 
ATOM     14  H12 UNL     1      -4.596   3.741  -1.180  1.00  0.00     0.158 HD
ATOM     15  H11 UNL     1      -5.684   2.603  -0.919  1.00  0.00     0.158 HD
ENDBRANCH  10  13
BRANCH  11  16
HETATM   16  N9  UNL     1      -5.155   0.100  -0.023  1.00  0.00    -0.334 N 
ATOM     17  H92 UNL     1      -5.993   0.618  -0.286  1.00  0.00     0.177 HD
ATOM     18  H91 UNL     1      -5.239  -0.867   0.290  1.00  0.00     0.177 HD
ENDBRANCH  11  16
BRANCH  12  19
HETATM   19  O5  UNL     1      -2.859  -1.328   0.691  1.00  0.00    -0.344 OA
ATOM     20  H5  UNL     1      -3.698  -1.770   0.746  1.00  0.00     0.219 HD
ENDBRANCH  12  19
ENDBRANCH   1   8
BRANCH   7  21
HETATM   21  N7  UNL     1      -0.099  -1.928   1.609  1.00  0.00    -0.110 N 
HETATM   22  O3  UNL     1      -0.496  -1.850   2.777  1.00  0.00    -0.532 OA
HETATM   23  O4  UNL     1      -0.117  -3.116   0.952  1.00  0.00    -0.532 OA
ENDBRANCH   7  21
BRANCH   4  24
HETATM   24  N4  UNL     1       3.300   1.120   0.032  1.00  0.00    -0.187 N 
ATOM     25  H4  UNL     1       3.783   1.652   0.756  1.00  0.00     0.203 HD
BRANCH  24  26
HETATM   26  S2  UNL     1       4.035   0.871  -1.480  1.00  0.00     0.332 S 
HETATM   27  O1  UNL     1       3.002   0.814  -2.578  1.00  0.00    -0.181 OA
HETATM   28  O2  UNL     1       5.029   1.989  -1.752  1.00  0.00    -0.181 OA
BRANCH  26  29
HETATM   29  N5  UNL     1       4.914  -0.618  -1.537  1.00  0.00    -0.310 N 
ATOM     30  H52 UNL     1       4.974  -1.260  -0.747  1.00  0.00     0.170 HD
ATOM     31  H51 UNL     1       5.355  -0.767  -2.444  1.00  0.00     0.170 HD
ENDBRANCH  26  29
ENDBRANCH  24  26
ENDBRANCH   4  24
TORSDOF 8
