REMARK  2 active torsions:
REMARK  status: ('A' for Active; 'I' for Inactive)
REMARK    1  A    between atoms: C4_11  and  N4_12 
REMARK    2  A    between atoms: N4_12  and  N5_14 
REMARK       I    between atoms: N5_14  and  C5_16 
ROOT
HETATM    1  C1  UNL     1      -1.674   2.093   0.024  1.00  0.00     0.180 C 
HETATM    2  N1  UNL     1      -1.670   0.643   0.009  1.00  0.00    -0.135 N 
HETATM    3  C2  UNL     1      -2.800  -0.081   0.234  1.00  0.00     0.344 A 
HETATM    4  O1  UNL     1      -3.892   0.520   0.462  1.00  0.00    -0.246 OA
HETATM    5  N2  UNL     1      -2.794  -1.423   0.220  1.00  0.00    -0.259 N 
ATOM      6  H2  UNL     1      -3.644  -1.961   0.388  1.00  0.00     0.175 HD
HETATM    7  C3  UNL     1      -1.621  -2.027  -0.025  1.00  0.00     0.342 A 
HETATM    8  O2  UNL     1      -1.588  -3.294  -0.044  1.00  0.00    -0.246 OA
HETATM    9  N3  UNL     1      -0.500  -1.308  -0.248  1.00  0.00    -0.139 N 
ATOM     10  H3  UNL     1       0.373  -1.802  -0.432  1.00  0.00     0.189 HD
HETATM   11  C4  UNL     1      -0.496   0.036  -0.236  1.00  0.00     0.706 A 
ENDROOT
BRANCH  11  12
HETATM   12  N4  UNL     1       0.571   0.728  -0.448  1.00  0.00    -0.129 N 
ATOM     13  H4  UNL     1       0.511   1.746  -0.427  1.00  0.00     0.205 HD
BRANCH  12  14
HETATM   14  N5  UNL     1       1.808   0.129  -0.706  1.00  0.00    -0.260 N 
HETATM   15  C5  UNL     1       2.956   0.326   0.111  1.00  0.00     0.201 C 
HETATM   16  N6  UNL     1       3.223   1.447   0.683  1.00  0.00    -0.372 N 
HETATM   17  N7  UNL     1       3.840  -0.776   0.294  1.00  0.00    -0.062 NA
ATOM     18  H62 UNL     1       2.590   2.236   0.552  1.00  0.00     0.158 HD
ATOM     19  H61 UNL     1       4.046   1.588   1.269  1.00  0.00     0.158 HD
ATOM     20  H5  UNL     1       1.891  -0.479  -1.520  1.00  0.00     0.190 HD
ENDBRANCH  12  14
ENDBRANCH  11  12
TORSDOF 2
