REMARK  5 active torsions:
REMARK  status: ('A' for Active; 'I' for Inactive)
REMARK    1  A    between atoms: C4_4  and  C5_5 
REMARK    2  A    between atoms: C5_5  and  C6_6 
REMARK    3  A    between atoms: C6_6  and  N1_7 
REMARK    4  A    between atoms: C6_6  and  C15_24 
REMARK       I    between atoms: N1_7  and  C7_9 
REMARK       I    between atoms: C7_9  and  N3_13 
REMARK    5  A    between atoms: N3_13  and  C8_15 
ROOT
HETATM    1  N1  UNL     1       0.274  -0.889   0.287  1.00  0.00    -0.222 N 
ATOM      2  H1  UNL     1      -0.092  -1.606   0.914  1.00  0.00     0.178 HD
HETATM    3  C7  UNL     1      -0.600  -0.438  -0.707  1.00  0.00     0.668 C 
HETATM    4  N2  UNL     1      -0.419  -0.743  -1.926  1.00  0.00    -0.235 N 
ATOM      5  H21 UNL     1      -1.057  -0.414  -2.651  1.00  0.00     0.174 HD
ATOM      6  H22 UNL     1       0.377  -1.325  -2.185  1.00  0.00     0.174 HD
HETATM    7  N3  UNL     1      -1.697   0.364  -0.350  1.00  0.00    -0.217 N 
ATOM      8  H3  UNL     1      -1.596   1.376  -0.429  1.00  0.00     0.178 HD
ENDROOT
BRANCH   1   9
HETATM    9  C6  UNL     1       1.606  -0.472   0.530  1.00  0.00     0.106 C 
BRANCH   9  10
HETATM   10  C5  UNL     1       2.489  -0.728  -0.672  1.00  0.00     0.053 C 
BRANCH  10  11
HETATM   11  C4  UNL     1       3.900  -0.282  -0.398  1.00  0.00    -0.023 C 
HETATM   12  C2  UNL     1       4.918  -1.107  -0.432  1.00  0.00    -0.091 C 
HETATM   13  C1  UNL     1       6.285  -0.596  -0.151  1.00  0.00     0.042 C 
HETATM   14  C3  UNL     1       4.790  -2.560  -0.741  1.00  0.00     0.042 C 
ENDBRANCH  10  11
ENDBRANCH   9  10
BRANCH   9  15
HETATM   15  C15 UNL     1       1.751   0.943   1.022  1.00  0.00     0.001 C 
HETATM   16  C16 UNL     1       0.881   1.208   2.209  1.00  0.00     0.011 C 
HETATM   17  C17 UNL     1       1.595   1.988  -0.023  1.00  0.00     0.011 C 
ENDBRANCH   9  15
ENDBRANCH   1   9
BRANCH   7  18
HETATM   18  C8  UNL     1      -2.957  -0.156   0.121  1.00  0.00     0.163 C 
HETATM   19  C9  UNL     1      -3.614  -1.064  -0.894  1.00  0.00     0.151 C 
HETATM   20  C10 UNL     1      -5.047  -1.075  -0.330  1.00  0.00     0.047 C 
HETATM   21  O1  UNL     1      -3.805  -0.314  -2.045  1.00  0.00    -0.353 OA
HETATM   22  C11 UNL     1      -5.243   0.419  -0.356  1.00  0.00     0.080 C 
HETATM   23  C12 UNL     1      -4.548   0.794  -1.636  1.00  0.00     0.268 C 
HETATM   24  C13 UNL     1      -3.975   0.965   0.199  1.00  0.00     0.092 C 
HETATM   25  O2  UNL     1      -3.856   1.762  -0.937  1.00  0.00    -0.347 OA
HETATM   26  C14 UNL     1      -4.055   1.674   1.505  1.00  0.00     0.049 C 
ENDBRANCH   7  18
TORSDOF 5
