REMARK  6 active torsions:
REMARK  status: ('A' for Active; 'I' for Inactive)
REMARK       I    between atoms: C2_2  and  N1_4 
REMARK    1  A    between atoms: N1_4  and  C3_6 
REMARK    2  A    between atoms: C6_9  and  O2_10 
REMARK    3  A    between atoms: O2_10  and  C7_11 
REMARK    4  A    between atoms: C8_13  and  C9_14 
REMARK    5  A    between atoms: C9_14  and  C10_15 
REMARK    6  A    between atoms: C11_17  and  C12_18 
ROOT
HETATM    1  C7  UNL     1      -1.224  -0.056  -0.059  1.00  0.00     0.295 C 
HETATM    2  O3  UNL     1      -2.023   1.013   0.471  1.00  0.00    -0.350 OA
HETATM    3  C8  UNL     1      -2.890   1.382  -0.530  1.00  0.00     0.165 C 
HETATM    4  C11 UNL     1      -3.633   0.249  -1.179  1.00  0.00     0.252 C 
HETATM    5  O6  UNL     1      -3.052  -0.977  -1.137  1.00  0.00    -0.356 OA
HETATM    6  C13 UNL     1      -2.185  -1.209  -0.074  1.00  0.00     0.115 C 
HETATM    7  C14 UNL     1      -2.938  -1.206   1.252  1.00  0.00     0.069 C 
HETATM    8  C15 UNL     1      -3.499  -2.600   1.449  1.00  0.00     0.170 C 
HETATM    9  O7  UNL     1      -2.460  -3.430   1.850  1.00  0.00    -0.391 OA
HETATM   10  C16 UNL     1      -1.293  -3.186   1.133  1.00  0.00     0.170 C 
HETATM   11  C17 UNL     1      -1.588  -2.565  -0.219  1.00  0.00     0.069 C 
ENDROOT
BRANCH   1  12
HETATM   12  O2  UNL     1      -0.137  -0.293   0.706  1.00  0.00    -0.350 OA
BRANCH  12  13
HETATM   13  C6  UNL     1       1.105  -0.131   0.130  1.00  0.00     0.159 C 
HETATM   14  C5  UNL     1       1.951  -1.339   0.169  1.00  0.00     0.037 C 
HETATM   15  C4  UNL     1       3.415  -1.156   0.214  1.00  0.00     0.028 C 
HETATM   16  C3  UNL     1       3.940   0.103  -0.408  1.00  0.00     0.087 C 
HETATM   17  C19 UNL     1       3.078   1.306  -0.157  1.00  0.00     0.065 C 
HETATM   18  C18 UNL     1       1.890   1.015   0.722  1.00  0.00     0.201 C 
HETATM   19  F1  UNL     1       1.161   2.185   0.814  1.00  0.00    -0.247 F 
BRANCH  16  20
HETATM   20  N1  UNL     1       5.232   0.376   0.197  1.00  0.00    -0.357 N 
HETATM   21  C2  UNL     1       6.437   0.411  -0.551  1.00  0.00     0.213 C 
HETATM   22  C1  UNL     1       7.756   0.689   0.057  1.00  0.00     0.117 C 
HETATM   23  O1  UNL     1       6.366   0.195  -1.786  1.00  0.00    -0.274 OA
ATOM     24  H1  UNL     1       5.275   0.550   1.201  1.00  0.00     0.162 HD
ENDBRANCH  16  20
ENDBRANCH  12  13
ENDBRANCH   1  12
BRANCH   3  25
HETATM   25  C9  UNL     1      -3.954   2.326   0.013  1.00  0.00     0.046 C 
BRANCH  25  26
HETATM   26  C10 UNL     1      -3.406   3.588   0.599  1.00  0.00     0.088 C 
HETATM   27 BR1  UNL     1      -2.251   3.212   2.092  1.00  0.00    -0.096 Br
ENDBRANCH  25  26
ENDBRANCH   3  25
BRANCH   4  28
HETATM   28  C12 UNL     1      -3.794   0.617  -2.635  1.00  0.00     0.205 C 
HETATM   29  O4  UNL     1      -3.414  -0.171  -3.508  1.00  0.00    -0.646 OA
HETATM   30  O5  UNL     1      -4.355   1.812  -3.050  1.00  0.00    -0.646 OA
ENDBRANCH   4  28
TORSDOF 6
