REMARK  3 active torsions:
REMARK  status: ('A' for Active; 'I' for Inactive)
REMARK    1  A    between atoms: N1_1  and  N2_4 
REMARK    2  A    between atoms: C3_10  and  C4_11 
REMARK    3  A    between atoms: C4_11  and  C5_12 
ROOT
HETATM    1  N2  UNL     1      -3.690   1.208  -0.719  1.00  0.00    -0.138 N 
ATOM      2  H2  UNL     1      -3.675   1.988  -1.376  1.00  0.00     0.205 HD
HETATM    3  C1  UNL     1      -2.649   0.451  -0.641  1.00  0.00     0.699 C 
HETATM    4  N3  UNL     1      -1.660   0.831  -1.481  1.00  0.00    -0.200 N 
ATOM      5  H3  UNL     1      -1.901   1.543  -2.171  1.00  0.00     0.183 HD
HETATM    6  C2  UNL     1      -0.396   0.377  -1.510  1.00  0.00     0.113 C 
HETATM    7  C3  UNL     1       0.229  -0.578  -0.737  1.00  0.00    -0.031 C 
HETATM    8  C8  UNL     1      -0.372  -1.279   0.287  1.00  0.00     0.083 C 
HETATM    9  C9  UNL     1      -1.679  -1.240   0.761  1.00  0.00     0.260 C 
HETATM   10  O1  UNL     1      -1.960  -1.900   1.795  1.00  0.00    -0.268 OA
HETATM   11  N6  UNL     1      -2.717  -0.563   0.238  1.00  0.00    -0.155 N 
ATOM     12  H6  UNL     1      -3.649  -0.848   0.539  1.00  0.00     0.187 HD
ENDROOT
BRANCH   7  13
HETATM   13  C4  UNL     1       1.654  -0.891  -1.009  1.00  0.00     0.098 C 
BRANCH  13  14
HETATM   14  C5  UNL     1       2.575  -0.045  -0.228  1.00  0.00     0.029 A 
HETATM   15  C6  UNL     1       3.079  -0.316   1.019  1.00  0.00     0.114 A 
HETATM   16  N4  UNL     1       3.877   0.712   1.369  1.00  0.00    -0.360 N 
HETATM   17  C7  UNL     1       3.871   1.591   0.375  1.00  0.00     0.180 A 
ATOM     18  H4  UNL     1       4.394   0.799   2.244  1.00  0.00     0.166 HD
HETATM   19  N5  UNL     1       3.071   1.137  -0.618  1.00  0.00    -0.354 N 
ATOM     20  H5  UNL     1       2.880   1.609  -1.502  1.00  0.00     0.166 HD
ENDBRANCH  13  14
ENDBRANCH   7  13
BRANCH   1  21
HETATM   21  N1  UNL     1      -4.837   1.012   0.052  1.00  0.00    -0.331 N 
ATOM     22  H12 UNL     1      -4.835   0.227   0.704  1.00  0.00     0.177 HD
ATOM     23  H11 UNL     1      -5.660   1.611  -0.010  1.00  0.00     0.177 HD
ENDBRANCH   1  21
TORSDOF 3
