REMARK  2 active torsions:
REMARK  status: ('A' for Active; 'I' for Inactive)
REMARK    1  A    between atoms: C2_3  and  C3_4 
REMARK    2  A    between atoms: C2_3  and  C9_10 
ROOT
HETATM    1  N1  UNL     1       1.207   0.211   3.224  1.00  0.00    -0.196 NA
HETATM    2  C1  UNL     1       0.928  -0.243   2.197  1.00  0.00     0.076 C 
HETATM    3  C2  UNL     1       0.585  -0.808   0.871  1.00  0.00     0.195 C 
ENDROOT
BRANCH   3   4
HETATM    4  C3  UNL     1      -0.573  -0.086   0.324  1.00  0.00    -0.033 A 
HETATM    5  C4  UNL     1      -0.887   1.228   0.600  1.00  0.00     0.009 A 
HETATM    6  C5  UNL     1      -1.991   1.848   0.053  1.00  0.00     0.001 A 
HETATM    7  C6  UNL     1      -2.818   1.139  -0.801  1.00  0.00     0.000 A 
HETATM    8  C7  UNL     1      -2.531  -0.174  -1.095  1.00  0.00     0.001 A 
HETATM    9  C8  UNL     1      -1.410  -0.776  -0.529  1.00  0.00     0.009 A 
ENDBRANCH   3   4
BRANCH   3  10
HETATM   10  C9  UNL     1       1.797  -0.684   0.012  1.00  0.00     0.132 A 
HETATM   11  N2  UNL     1       2.729   0.282   0.119  1.00  0.00    -0.274 N 
HETATM   12  N3  UNL     1       3.654   0.090  -0.788  1.00  0.00    -0.225 N 
ATOM     13  H2  UNL     1       2.717   1.043   0.799  1.00  0.00     0.189 HD
HETATM   14  N4  UNL     1       3.353  -0.984  -1.494  1.00  0.00    -0.005 NA
ATOM     15  H3  UNL     1       4.476   0.677  -0.927  1.00  0.00     0.205 HD
HETATM   16  N5  UNL     1       2.208  -1.459  -0.997  1.00  0.00    -0.269 N 
ATOM     17  H5  UNL     1       1.720  -2.288  -1.336  1.00  0.00     0.185 HD
ENDBRANCH   3  10
TORSDOF 2
