REMARK  5 active torsions:
REMARK  status: ('A' for Active; 'I' for Inactive)
REMARK    1  A    between atoms: O1_1  and  C1_3 
REMARK    2  A    between atoms: C1_3  and  N1_4 
REMARK    3  A    between atoms: C1_3  and  C8_13 
REMARK    4  A    between atoms: C5_8  and  O2_9 
REMARK    5  A    between atoms: C8_13  and  N2_14 
ROOT
HETATM    1  C1  UNL     1      -0.139  -0.572   0.150  1.00  0.00     0.142 C 
ENDROOT
BRANCH   1   2
HETATM    2  O1  UNL     1      -0.493  -1.638   0.854  1.00  0.00    -0.348 OA
ATOM      3  H1  UNL     1      -1.395  -1.893   0.701  1.00  0.00     0.219 HD
ENDBRANCH   1   2
BRANCH   1   4
HETATM    4  N1  UNL     1       1.182  -0.199   0.374  1.00  0.00    -0.363 N 
HETATM    5  C2  UNL     1       1.915  -1.149   1.245  1.00  0.00     0.124 C 
HETATM    6  C3  UNL     1       3.141  -1.624   0.493  1.00  0.00     0.022 C 
HETATM    7  C4  UNL     1       4.232  -0.616   0.443  1.00  0.00     0.033 C 
HETATM    8  C5  UNL     1       3.867   0.696   1.080  1.00  0.00     0.119 C 
HETATM    9  C6  UNL     1       2.970   1.553   0.275  1.00  0.00     0.051 C 
HETATM   10  C7  UNL     1       1.661   1.014  -0.177  1.00  0.00     0.127 C 
BRANCH   8  11
HETATM   11  O2  UNL     1       5.104   1.404   1.132  1.00  0.00    -0.396 OA
ATOM     12  H2  UNL     1       4.873   2.233   1.535  1.00  0.00     0.210 HD
ENDBRANCH   8  11
ENDBRANCH   1   4
BRANCH   1  13
HETATM   13  C8  UNL     1      -1.222  -0.063  -0.676  1.00  0.00     0.093 C 
HETATM   14  C13 UNL     1      -1.543  -1.078  -1.849  1.00  0.00     0.040 C 
HETATM   15  C14 UNL     1      -0.715  -0.202  -2.716  1.00  0.00     0.006 C 
HETATM   16  C15 UNL     1      -1.080   0.922  -1.756  1.00  0.00     0.040 C 
BRANCH  13  17
HETATM   17  N2  UNL     1      -2.439   0.036   0.026  1.00  0.00    -0.397 N 
HETATM   18  C9  UNL     1      -3.088  -1.060   0.562  1.00  0.00     0.118 C 
HETATM   19  C10 UNL     1      -4.559  -0.611   0.527  1.00  0.00     0.021 C 
HETATM   20  C11 UNL     1      -4.516   0.897   0.375  1.00  0.00     0.021 C 
HETATM   21  C12 UNL     1      -3.015   1.232   0.404  1.00  0.00     0.118 C 
ENDBRANCH  13  17
ENDBRANCH   1  13
TORSDOF 5
