REMARK  7 active torsions:
REMARK  status: ('A' for Active; 'I' for Inactive)
REMARK    1  A    between atoms: C2_2  and  O1_4 
REMARK    2  A    between atoms: O1_4  and  C4_5 
REMARK    3  A    between atoms: C11_15  and  O5_16 
REMARK    4  A    between atoms: O5_16  and  C12_17 
REMARK    5  A    between atoms: C12_17  and  C13_19 
REMARK    6  A    between atoms: C13_19  and  O7_20 
REMARK    7  A    between atoms: C13_19  and  C14_22 
ROOT
HETATM    1  C4  UNL     1      -1.758   0.238  -0.052  1.00  0.00     0.313 C 
HETATM    2  O2  UNL     1      -3.198   0.309   0.025  1.00  0.00    -0.286 OA
HETATM    3  C5  UNL     1      -3.668  -0.804   0.701  1.00  0.00     0.264 C 
HETATM    4  O3  UNL     1      -4.858  -1.081   0.953  1.00  0.00    -0.265 OA
HETATM    5  C6  UNL     1      -2.501  -1.633   1.083  1.00  0.00     0.157 C 
HETATM    6  C7  UNL     1      -1.552  -1.235  -0.056  1.00  0.00     0.147 C 
HETATM    7  O4  UNL     1      -2.075  -1.781  -1.217  1.00  0.00    -0.367 OA
HETATM    8  C8  UNL     1      -1.420  -2.951  -1.495  1.00  0.00     0.121 C 
HETATM    9  C9  UNL     1      -2.325  -4.165  -1.460  1.00  0.00     0.040 C 
HETATM   10  C10 UNL     1      -0.306  -3.138  -0.519  1.00  0.00     0.067 C 
HETATM   11  C11 UNL     1      -0.197  -1.749   0.134  1.00  0.00     0.174 C 
ENDROOT
BRANCH  11  12
HETATM   12  O5  UNL     1       0.854  -1.036  -0.441  1.00  0.00    -0.311 OA
BRANCH  12  13
HETATM   13  C12 UNL     1       1.963  -0.679   0.310  1.00  0.00     0.289 C 
HETATM   14  O6  UNL     1       1.964  -1.028   1.517  1.00  0.00    -0.262 OA
BRANCH  13  15
HETATM   15  C13 UNL     1       3.118   0.075  -0.227  1.00  0.00     0.225 C 
BRANCH  15  16
HETATM   16  O7  UNL     1       4.047   0.260   0.793  1.00  0.00    -0.385 OA
ATOM     17  H7  UNL     1       4.788   0.744   0.448  1.00  0.00     0.210 HD
ENDBRANCH  15  16
BRANCH  15  18
HETATM   18  C14 UNL     1       2.749   1.445  -0.741  1.00  0.00    -0.016 C 
HETATM   19  C15 UNL     1       4.055   2.068  -1.251  1.00  0.00     0.018 C 
HETATM   20  C16 UNL     1       2.208   2.345   0.312  1.00  0.00     0.018 C 
HETATM   21  C17 UNL     1       1.829   1.384  -1.947  1.00  0.00     0.018 C 
ENDBRANCH  15  18
ENDBRANCH  13  15
ENDBRANCH  12  13
ENDBRANCH  11  12
BRANCH   1  22
HETATM   22  O1  UNL     1      -1.302   0.841   1.145  1.00  0.00    -0.322 OA
BRANCH  22  23
HETATM   23  C2  UNL     1      -1.593   2.154   1.484  1.00  0.00     0.036 C 
HETATM   24  C1  UNL     1      -1.595   3.142   0.616  1.00  0.00     0.045 C 
HETATM   25  C3  UNL     1      -1.920   2.466   2.899  1.00  0.00     0.075 C 
ENDBRANCH  22  23
ENDBRANCH   1  22
TORSDOF 7
