REMARK  5 active torsions:
REMARK  status: ('A' for Active; 'I' for Inactive)
REMARK    1  A    between atoms: O1_2  and  C2_3 
REMARK    2  A    between atoms: C3_6  and  N2_7 
REMARK    3  A    between atoms: N2_7  and  N3_9 
REMARK    4  A    between atoms: C7_15  and  C8_16 
REMARK    5  A    between atoms: C8_16  and  O2_17 
ROOT
HETATM    1  C8  UNL     1      -1.319   0.649  -0.944  1.00  0.00     0.161 C 
HETATM    2  N4  UNL     1      -2.595   0.704  -0.506  1.00  0.00    -0.344 N 
HETATM    3  C9  UNL     1      -3.205   0.378   0.717  1.00  0.00     0.126 C 
HETATM    4  C10 UNL     1      -4.077  -0.874   0.599  1.00  0.00     0.020 C 
HETATM    5  C11 UNL     1      -5.071  -0.675  -0.539  1.00  0.00     0.004 C 
HETATM    6  C12 UNL     1      -4.469  -0.078  -1.764  1.00  0.00     0.040 C 
HETATM    7  C13 UNL     1      -3.629   1.133  -1.529  1.00  0.00     0.193 C 
HETATM    8  C14 UNL     1      -4.310   2.273  -0.983  1.00  0.00     0.084 C 
HETATM    9  N5  UNL     1      -4.858   3.186  -0.567  1.00  0.00    -0.195 NA
ENDROOT
BRANCH   1  10
HETATM   10  C7  UNL     1      -0.080   0.159  -0.373  1.00  0.00     0.110 A 
HETATM   11  C2  UNL     1       0.323  -0.550   0.707  1.00  0.00     0.165 A 
HETATM   12  N1  UNL     1       1.605  -0.724   0.923  1.00  0.00    -0.315 N 
HETATM   13  C3  UNL     1       2.482  -0.208   0.086  1.00  0.00     0.166 A 
ATOM     14  H1  UNL     1       1.921  -1.256   1.734  1.00  0.00     0.170 HD
HETATM   15  S1  UNL     1       1.514   0.557  -1.061  1.00  0.00    -0.044 SA
BRANCH  11  16
HETATM   16  O1  UNL     1      -0.639  -1.111   1.595  1.00  0.00    -0.340 OA
HETATM   17  C1  UNL     1      -0.333  -1.852   2.726  1.00  0.00     0.211 C 
ENDBRANCH  11  16
BRANCH  13  18
HETATM   18  N2  UNL     1       3.795  -0.278   0.140  1.00  0.00    -0.280 N 
ATOM     19  H2  UNL     1       4.276  -0.774   0.890  1.00  0.00     0.189 HD
BRANCH  18  20
HETATM   20  N3  UNL     1       4.493   0.362  -0.884  1.00  0.00    -0.308 N 
HETATM   21  C4  UNL     1       5.753   0.508  -0.776  1.00  0.00    -0.004 C 
HETATM   22  C5  UNL     1       6.464   0.007   0.411  1.00  0.00     0.064 C 
HETATM   23  C6  UNL     1       6.498   1.185  -1.856  1.00  0.00     0.064 C 
ATOM     24  H3  UNL     1       4.001   0.708  -1.708  1.00  0.00     0.186 HD
ENDBRANCH  18  20
ENDBRANCH  13  18
ENDBRANCH   1  10
BRANCH   1  25
HETATM   25  O2  UNL     1      -1.104   1.150  -2.186  1.00  0.00    -0.345 OA
ATOM     26  H2  UNL     1      -1.916   1.471  -2.560  1.00  0.00     0.219 HD
ENDBRANCH   1  25
TORSDOF 5
