REMARK  6 active torsions:
REMARK  status: ('A' for Active; 'I' for Inactive)
REMARK    1  A    between atoms: C2_2  and  C3_3 
REMARK    2  A    between atoms: C3_3  and  C5_5 
REMARK    3  A    between atoms: C5_5  and  C6_6 
REMARK    4  A    between atoms: C5_5  and  N2_16 
REMARK    5  A    between atoms: C6_6  and  N1_7 
REMARK    6  A    between atoms: N1_7  and  C7_9 
ROOT
HETATM    1  C6  UNL     1      -0.608   0.705   1.335  1.00  0.00     0.081 C 
ENDROOT
BRANCH   1   2
HETATM    2  C5  UNL     1      -1.935   0.647   0.677  1.00  0.00     0.120 C 
BRANCH   2   3
HETATM    3  C3  UNL     1      -2.176  -0.536  -0.239  1.00  0.00     0.009 C 
HETATM    4  C4  UNL     1      -3.638  -0.480  -0.736  1.00  0.00     0.012 C 
BRANCH   3   5
HETATM    5  C2  UNL     1      -2.052  -1.847   0.496  1.00  0.00     0.002 C 
HETATM    6  C1  UNL     1      -2.322  -3.050  -0.325  1.00  0.00     0.005 C 
ENDBRANCH   3   5
ENDBRANCH   2   3
BRANCH   2   7
HETATM    7  N2  UNL     1      -2.401   1.861   0.121  1.00  0.00    -0.412 N 
HETATM    8  C14 UNL     1      -1.874   2.405  -1.036  1.00  0.00     0.143 C 
HETATM    9  C15 UNL     1      -2.873   2.829   1.043  1.00  0.00     0.143 C 
ENDBRANCH   2   7
ENDBRANCH   1   2
BRANCH   1  10
HETATM   10  N1  UNL     1       0.574   0.782   0.650  1.00  0.00    -0.396 N 
ATOM     11  H1  UNL     1       1.053   1.681   0.699  1.00  0.00     0.159 HD
BRANCH  10  12
HETATM   12  C7  UNL     1       1.207  -0.188  -0.097  1.00  0.00     0.080 C 
HETATM   13  C8  UNL     1       2.257   0.539  -0.975  1.00  0.00     0.025 C 
HETATM   14  C9  UNL     1       3.251  -0.395  -1.567  1.00  0.00     0.002 C 
HETATM   15  C10 UNL     1       4.380  -0.747  -0.648  1.00  0.00     0.000 C 
HETATM   16  C11 UNL     1       4.275  -0.090   0.704  1.00  0.00     0.000 C 
HETATM   17  C12 UNL     1       3.056  -0.464   1.467  1.00  0.00     0.002 C 
HETATM   18  C13 UNL     1       2.019  -1.199   0.700  1.00  0.00     0.025 C 
ENDBRANCH  10  12
ENDBRANCH   1  10
TORSDOF 6
