REMARK  5 active torsions:
REMARK  status: ('A' for Active; 'I' for Inactive)
REMARK    1  A    between atoms: C2_2  and  C4_4 
REMARK    2  A    between atoms: C4_4  and  C5_5 
REMARK    3  A    between atoms: C9_9  and  C10_10 
REMARK    4  A    between atoms: C10_10  and  O2_15 
REMARK    5  A    between atoms: N1_11  and  O1_13 
ROOT
HETATM    1  C5  UNL     1      -0.572  -0.593   0.221  1.00  0.00     0.122 C 
HETATM    2  C6  UNL     1      -0.346  -2.127   0.261  1.00  0.00     0.046 C 
HETATM    3  C7  UNL     1       0.158  -0.080  -0.946  1.00  0.00     0.039 C 
HETATM    4  C8  UNL     1       1.222   0.967  -0.570  1.00  0.00     0.017 C 
HETATM    5  C9  UNL     1       2.146   0.461   0.481  1.00  0.00     0.089 C 
HETATM    6  C11 UNL     1       1.424  -0.478   1.454  1.00  0.00     0.246 C 
HETATM    7  N2  UNL     1       0.032  -0.120   1.483  1.00  0.00    -0.066 N 
ATOM      8  H21 UNL     1      -0.452  -0.468   2.311  1.00  0.00     0.278 HD
ATOM      9  H22 UNL     1      -0.120   0.875   1.649  1.00  0.00     0.278 HD
ENDROOT
BRANCH   5  10
HETATM   10  C10 UNL     1       3.358  -0.195  -0.070  1.00  0.00     0.165 C 
HETATM   11  N1  UNL     1       4.531   0.262   0.208  1.00  0.00    -0.249 N 
ATOM     12  H1  UNL     1       4.604   1.080   0.812  1.00  0.00     0.196 HD
BRANCH  11  13
HETATM   13  O1  UNL     1       5.676  -0.299  -0.269  1.00  0.00    -0.288 OA
ATOM     14  H1  UNL     1       6.540   0.038  -0.064  1.00  0.00     0.244 HD
ENDBRANCH  11  13
BRANCH  10  15
HETATM   15  O2  UNL     1       3.264  -1.299  -0.884  1.00  0.00    -0.225 OA
HETATM   16 CL1  UNL     1       4.637  -2.281  -1.300  1.00  0.00     0.069 Cl
ENDBRANCH  10  15
ENDBRANCH   5  10
BRANCH   1  17
HETATM   17  C4  UNL     1      -2.031  -0.420   0.319  1.00  0.00     0.042 C 
BRANCH  17  18
HETATM   18  C2  UNL     1      -2.618   0.934   0.325  1.00  0.00    -0.020 C 
HETATM   19  C1  UNL     1      -4.155   0.743   0.468  1.00  0.00     0.009 C 
HETATM   20  C3  UNL     1      -2.498   1.703  -0.983  1.00  0.00     0.009 C 
ENDBRANCH  17  18
ENDBRANCH   1  17
TORSDOF 5
