REMARK  8 active torsions:
REMARK  status: ('A' for Active; 'I' for Inactive)
REMARK    1  A    between atoms: O1_2  and  C2_3 
REMARK    2  A    between atoms: C2_3  and  C3_5 
REMARK    3  A    between atoms: C5_8  and  C6_9 
REMARK    4  A    between atoms: C7_10  and  C8_12 
REMARK    5  A    between atoms: C9_13  and  C10_14 
REMARK       I    between atoms: C10_14  and  N1_16 
REMARK    6  A    between atoms: C13_19  and  C14_20 
REMARK    7  A    between atoms: C14_20  and  C15_21 
REMARK    8  A    between atoms: C15_21  and  C16_22 
ROOT
HETATM    1  C10 UNL     1       1.171  -2.134   0.282  1.00  0.00     0.243 C 
HETATM    2  O3  UNL     1       1.448  -3.360   0.267  1.00  0.00    -0.268 OA
HETATM    3  N1  UNL     1      -0.154  -1.735   0.521  1.00  0.00    -0.349 N 
HETATM    4  C11 UNL     1      -1.189  -2.760   0.751  1.00  0.00     0.126 C 
HETATM    5  C12 UNL     1      -2.527  -2.091   0.878  1.00  0.00     0.024 C 
HETATM    6  C13 UNL     1      -2.788  -1.198  -0.301  1.00  0.00    -0.012 C 
HETATM    7  C21 UNL     1      -1.742  -0.132  -0.427  1.00  0.00     0.024 C 
HETATM    8  C22 UNL     1      -0.616  -0.371   0.566  1.00  0.00     0.126 C 
ENDROOT
BRANCH   1   9
HETATM    9  C9  UNL     1       2.237  -1.198   0.052  1.00  0.00     0.075 C 
HETATM   10  C8  UNL     1       3.499  -1.597  -0.173  1.00  0.00     0.024 C 
BRANCH  10  11
HETATM   11  C7  UNL     1       4.548  -0.637  -0.401  1.00  0.00     0.013 C 
HETATM   12  C6  UNL     1       5.773  -1.057  -0.618  1.00  0.00     0.056 C 
HETATM   13 BR1  UNL     1       4.140   1.219  -0.383  1.00  0.00    -0.051 Br
BRANCH  12  14
HETATM   14  C5  UNL     1       6.806  -0.020  -0.844  1.00  0.00     0.075 A 
HETATM   15  S1  UNL     1       6.686   1.467  -1.677  1.00  0.00    -0.082 SA
HETATM   16  C4  UNL     1       8.290   2.009  -1.457  1.00  0.00     0.087 A 
HETATM   17  C3  UNL     1       8.836   0.978  -0.733  1.00  0.00     0.115 A 
HETATM   18  N3  UNL     1       8.067  -0.022  -0.443  1.00  0.00    -0.345 N 
ATOM     19  H3  UNL     1       8.432  -0.809   0.093  1.00  0.00     0.167 HD
BRANCH  17  20
HETATM   20  C2  UNL     1      10.263   1.033  -0.308  1.00  0.00     0.310 C 
HETATM   21  O2  UNL     1      10.792   0.106   0.356  1.00  0.00    -0.258 OA
BRANCH  20  22
HETATM   22  O1  UNL     1      11.073   2.108  -0.625  1.00  0.00    -0.321 OA
HETATM   23  C1  UNL     1      12.433   2.126  -0.201  1.00  0.00     0.213 C 
ENDBRANCH  20  22
ENDBRANCH  17  20
ENDBRANCH  12  14
ENDBRANCH  10  11
ENDBRANCH   1   9
BRANCH   6  24
HETATM   24  C14 UNL     1      -4.189  -0.630  -0.265  1.00  0.00     0.005 C 
BRANCH  24  25
HETATM   25  C15 UNL     1      -4.456   0.193   0.962  1.00  0.00     0.005 C 
BRANCH  25  26
HETATM   26  C16 UNL     1      -5.850   0.734   0.958  1.00  0.00    -0.012 C 
HETATM   27  C17 UNL     1      -6.888  -0.368   0.923  1.00  0.00     0.024 C 
HETATM   28  C18 UNL     1      -8.262   0.244   1.090  1.00  0.00     0.114 C 
HETATM   29  N2  UNL     1      -8.256   1.667   0.986  1.00  0.00    -0.421 N 
HETATM   30  C19 UNL     1      -7.488   2.192  -0.113  1.00  0.00     0.114 C 
ATOM     31  H2  UNL     1      -8.758   2.267   1.641  1.00  0.00     0.153 HD
HETATM   32  C20 UNL     1      -6.115   1.620  -0.243  1.00  0.00     0.024 C 
ENDBRANCH  25  26
ENDBRANCH  24  25
ENDBRANCH   6  24
TORSDOF 8
