REMARK  1 active torsions:
REMARK  status: ('A' for Active; 'I' for Inactive)
REMARK    1  A    between atoms: C4_4  and  N1_5 
ROOT
HETATM    1  C1  UNL     1      -2.734   0.584   0.490  1.00  0.00     0.010 C 
HETATM    2  C2  UNL     1      -1.545   0.228  -0.415  1.00  0.00    -0.011 C 
HETATM    3  C3  UNL     1      -0.482   1.213  -0.153  1.00  0.00     0.037 C 
HETATM    4  C4  UNL     1       0.910   0.759  -0.484  1.00  0.00     0.193 C 
HETATM    5  C5  UNL     1       1.149  -0.531   0.285  1.00  0.00     0.084 C 
HETATM    6  C6  UNL     1       2.566  -0.996   0.203  1.00  0.00     0.018 C 
HETATM    7  C7  UNL     1       0.215  -1.564  -0.319  1.00  0.00     0.249 C 
HETATM    8  F1  UNL     1       0.652  -1.801  -1.609  1.00  0.00    -0.206 F 
HETATM    9  F2  UNL     1       0.425  -2.739   0.405  1.00  0.00    -0.206 F 
HETATM   10  C8  UNL     1      -1.213  -1.192  -0.216  1.00  0.00     0.084 C 
ENDROOT
BRANCH   4  11
HETATM   11  N1  UNL     1       1.818   1.795   0.007  1.00  0.00    -0.074 N 
ATOM     12  H13 UNL     1       1.601   2.724  -0.354  1.00  0.00     0.274 HD
ATOM     13  H12 UNL     1       1.689   2.008   0.996  1.00  0.00     0.274 HD
ATOM     14  H11 UNL     1       2.764   1.487  -0.218  1.00  0.00     0.274 HD
ENDBRANCH   4  11
TORSDOF 1
