REMARK  8 active torsions:
REMARK  status: ('A' for Active; 'I' for Inactive)
REMARK       I    between atoms: C1_2  and  N1_3 
REMARK    1  A    between atoms: C1_2  and  C11_21 
REMARK    2  A    between atoms: N1_3  and  C2_5 
REMARK    3  A    between atoms: C2_5  and  C3_6 
REMARK    4  A    between atoms: C3_6  and  N2_7 
REMARK    5  A    between atoms: N2_7  and  C4_10 
REMARK    6  A    between atoms: C4_10  and  C5_11 
REMARK    7  A    between atoms: C5_11  and  N3_12 
REMARK    8  A    between atoms: N3_12  and  C6_14 
ROOT
HETATM    1  N2  UNL     1       0.017  -0.558   0.013  1.00  0.00    -0.072 N 
ATOM      2  H21 UNL     1      -0.652   0.094   0.422  1.00  0.00     0.277 HD
ATOM      3  H22 UNL     1       0.508   0.085  -0.608  1.00  0.00     0.277 HD
ENDROOT
BRANCH   1   4
HETATM    4  C3  UNL     1      -0.656  -1.603  -0.735  1.00  0.00     0.252 C 
BRANCH   4   5
HETATM    5  C2  UNL     1      -1.548  -0.926  -1.748  1.00  0.00     0.150 C 
BRANCH   5   6
HETATM    6  N1  UNL     1      -2.494  -0.090  -1.067  1.00  0.00    -0.354 N 
HETATM    7  C1  UNL     1      -3.450  -0.571  -0.146  1.00  0.00     0.269 C 
HETATM    8  O1  UNL     1      -3.551  -1.783   0.150  1.00  0.00    -0.266 OA
ATOM      9  H1  UNL     1      -2.475   0.911  -1.260  1.00  0.00     0.162 HD
BRANCH   7  10
HETATM   10  C11 UNL     1      -4.372   0.370   0.501  1.00  0.00     0.117 A 
HETATM   11  C12 UNL     1      -5.351   0.089   1.406  1.00  0.00     0.055 A 
HETATM   12  C13 UNL     1      -5.967   1.266   1.745  1.00  0.00     0.109 A 
HETATM   13  N5  UNL     1      -5.354   2.236   1.044  1.00  0.00    -0.311 N 
HETATM   14  N6  UNL     1      -4.404   1.703   0.303  1.00  0.00    -0.296 N 
ATOM     15  H5  UNL     1      -5.588   3.228   1.080  1.00  0.00     0.186 HD
ATOM     16  H6  UNL     1      -3.787   2.220  -0.324  1.00  0.00     0.187 HD
ENDBRANCH   7  10
ENDBRANCH   5   6
ENDBRANCH   4   5
ENDBRANCH   1   4
BRANCH   1  17
HETATM   17  C4  UNL     1       0.906  -1.100   1.019  1.00  0.00     0.251 C 
BRANCH  17  18
HETATM   18  C5  UNL     1       2.087  -1.801   0.441  1.00  0.00     0.147 C 
BRANCH  18  19
HETATM   19  N3  UNL     1       2.927  -0.975  -0.382  1.00  0.00    -0.387 N 
ATOM     20  H3  UNL     1       2.961  -1.196  -1.377  1.00  0.00     0.159 HD
BRANCH  19  21
HETATM   21  C6  UNL     1       3.710   0.115   0.059  1.00  0.00     0.043 A 
HETATM   22  C7  UNL     1       4.316   0.974  -0.861  1.00  0.00     0.032 A 
HETATM   23  C8  UNL     1       5.097   2.039  -0.466  1.00  0.00     0.019 A 
HETATM   24  C9  UNL     1       5.300   2.284   0.875  1.00  0.00     0.088 A 
HETATM   25  N4  UNL     1       4.718   1.458   1.759  1.00  0.00    -0.373 N 
HETATM   26  C10 UNL     1       3.944   0.401   1.382  1.00  0.00     0.116 A 
ATOM     27  H4  UNL     1       4.861   1.628   2.754  1.00  0.00     0.164 HD
ENDBRANCH  19  21
ENDBRANCH  18  19
ENDBRANCH  17  18
ENDBRANCH   1  17
TORSDOF 8
