REMARK  6 active torsions:
REMARK  status: ('A' for Active; 'I' for Inactive)
REMARK    1  A    between atoms: S1_2  and  C2_3 
REMARK    2  A    between atoms: C2_3  and  N2_7 
REMARK    3  A    between atoms: N2_7  and  O1_9 
REMARK    4  A    between atoms: O1_9  and  N3_10 
REMARK    5  A    between atoms: N3_10  and  O2_11 
REMARK    6  A    between atoms: N3_10  and  N4_13 
ROOT
HETATM    1  N2  UNL     1       0.801  -0.264  -0.402  1.00  0.00    -0.222 N 
ATOM      2  H2  UNL     1       0.498  -0.532  -1.338  1.00  0.00     0.198 HD
ENDROOT
BRANCH   1   3
HETATM    3  C2  UNL     1       1.804   0.729  -0.311  1.00  0.00     0.159 C 
HETATM    4  N1  UNL     1       1.428   1.960  -0.262  1.00  0.00    -0.379 N 
ATOM      5  H12 UNL     1       2.151   2.676  -0.196  1.00  0.00     0.158 HD
ATOM      6  H11 UNL     1       0.425   2.144  -0.292  1.00  0.00     0.158 HD
BRANCH   3   7
HETATM    7  S1  UNL     1       3.552   0.408  -0.259  1.00  0.00    -0.097 SA
HETATM    8  C1  UNL     1       3.932  -1.346  -0.335  1.00  0.00     0.099 C 
ENDBRANCH   3   7
ENDBRANCH   1   3
BRANCH   1   9
HETATM    9  O1  UNL     1       0.219  -0.878   0.620  1.00  0.00    -0.138 OA
BRANCH   9  10
HETATM   10  N3  UNL     1      -0.938  -0.364   1.021  1.00  0.00     0.036 NA
BRANCH  10  11
HETATM   11  O2  UNL     1      -0.813   0.658   1.892  1.00  0.00    -0.273 OA
ATOM     12  H2  UNL     1      -1.641   1.026   2.179  1.00  0.00     0.241 HD
ENDBRANCH  10  11
BRANCH  10  13
HETATM   13  N4  UNL     1      -1.863  -0.132   0.031  1.00  0.00    -0.208 NA
HETATM   14  C3  UNL     1      -3.085  -0.913   0.185  1.00  0.00     0.134 C 
HETATM   15  C4  UNL     1      -2.301   1.273  -0.007  1.00  0.00     0.134 C 
ENDBRANCH  10  13
ENDBRANCH   9  10
ENDBRANCH   1   9
TORSDOF 6
