REMARK  6 active torsions:
REMARK  status: ('A' for Active; 'I' for Inactive)
REMARK       I    between atoms: N2_3  and  C2_5 
REMARK       I    between atoms: C2_5  and  N3_7 
REMARK    1  A    between atoms: N3_7  and  C3_9 
REMARK    2  A    between atoms: C3_9  and  C4_10 
REMARK    3  A    between atoms: C4_10  and  C5_11 
REMARK    4  A    between atoms: C5_11  and  C6_12 
REMARK    5  A    between atoms: C6_12  and  N4_13 
REMARK    6  A    between atoms: C10_19  and  C11_20 
ROOT
HETATM    1  N1  UNL     1       9.025   0.681   0.706  1.00  0.00    -0.172 NA
HETATM    2  C1  UNL     1       7.882   0.837   0.718  1.00  0.00     0.185 C 
HETATM    3  N2  UNL     1       6.471   1.007   0.726  1.00  0.00    -0.245 N 
ATOM      4  H2  UNL     1       6.038   1.824   1.156  1.00  0.00     0.183 HD
HETATM    5  C2  UNL     1       5.691  -0.001   0.114  1.00  0.00     0.329 C 
HETATM    6  O1  UNL     1       6.196  -1.008  -0.418  1.00  0.00    -0.246 OA
HETATM    7  N3  UNL     1       4.270   0.147   0.109  1.00  0.00    -0.342 N 
ATOM      8  H3  UNL     1       3.838   0.965   0.539  1.00  0.00     0.164 HD
ENDROOT
BRANCH   7   9
HETATM    9  C3  UNL     1       3.452  -0.864  -0.506  1.00  0.00     0.124 C 
BRANCH   9  10
HETATM   10  C4  UNL     1       2.000  -0.481  -0.367  1.00  0.00     0.021 C 
BRANCH  10  11
HETATM   11  C5  UNL     1       1.620  -0.387   1.091  1.00  0.00     0.021 C 
BRANCH  11  12
HETATM   12  C6  UNL     1       0.183  -0.015   1.290  1.00  0.00     0.124 C 
BRANCH  12  13
HETATM   13  N4  UNL     1      -0.793  -0.898   0.765  1.00  0.00    -0.371 N 
HETATM   14  C7  UNL     1      -1.086  -2.226   1.246  1.00  0.00     0.125 C 
HETATM   15  C8  UNL     1      -0.924  -3.160   0.070  1.00  0.00     0.039 C 
HETATM   16  C9  UNL     1      -1.948  -2.760  -0.966  1.00  0.00     0.122 C 
HETATM   17  N5  UNL     1      -2.094  -1.353  -1.123  1.00  0.00    -0.379 N 
HETATM   18  C10 UNL     1      -1.579  -0.447  -0.348  1.00  0.00     0.079 C 
ATOM     19  H5  UNL     1      -2.652  -1.028  -1.913  1.00  0.00     0.160 HD
BRANCH  18  20
HETATM   20  C11 UNL     1      -1.824   0.990  -0.643  1.00  0.00     0.053 C 
HETATM   21  C12 UNL     1      -2.493   1.667   0.486  1.00  0.00     0.012 C 
HETATM   22  C13 UNL     1      -3.882   2.111   0.348  1.00  0.00     0.001 C 
HETATM   23  C14 UNL     1      -4.525   1.994  -0.988  1.00  0.00     0.000 C 
HETATM   24  C15 UNL     1      -3.449   2.287  -2.035  1.00  0.00     0.001 C 
HETATM   25  C16 UNL     1      -2.537   1.077  -1.963  1.00  0.00     0.012 C 
ENDBRANCH  18  20
ENDBRANCH  12  13
ENDBRANCH  11  12
ENDBRANCH  10  11
ENDBRANCH   9  10
ENDBRANCH   7   9
TORSDOF 6
