REMARK  11 active torsions:
REMARK  status: ('A' for Active; 'I' for Inactive)
REMARK    1  A    between atoms: C2_2  and  C3_4 
REMARK    2  A    between atoms: C3_4  and  O1_5 
REMARK    3  A    between atoms: C3_4  and  C4_8 
REMARK    4  A    between atoms: C4_8  and  C5_10 
REMARK    5  A    between atoms: C5_10  and  O2_11 
REMARK    6  A    between atoms: C5_10  and  C6_13 
REMARK       I    between atoms: C6_13  and  N1_15 
REMARK    7  A    between atoms: N1_15  and  C7_17 
REMARK    8  A    between atoms: C7_17  and  C8_18 
REMARK    9  A    between atoms: C7_17  and  C11_26 
REMARK   10  A    between atoms: C8_18  and  C9_19 
REMARK   11  A    between atoms: C9_19  and  C10_22 
ROOT
HETATM    1  C6  UNL     1       0.164  -1.366  -0.131  1.00  0.00     0.249 C 
HETATM    2  O3  UNL     1       0.080  -2.199  -1.068  1.00  0.00    -0.271 OA
HETATM    3  N1  UNL     1      -1.010  -0.959   0.525  1.00  0.00    -0.350 N 
ATOM      4  H1  UNL     1      -0.946  -0.281   1.284  1.00  0.00     0.163 HD
ENDROOT
BRANCH   3   5
HETATM    5  C7  UNL     1      -2.295  -1.474   0.153  1.00  0.00     0.144 C 
BRANCH   5   6
HETATM    6  C8  UNL     1      -3.368  -0.444   0.002  1.00  0.00     0.118 C 
BRANCH   6   7
HETATM    7  C9  UNL     1      -3.115   0.607  -1.023  1.00  0.00     0.341 C 
HETATM    8  F4  UNL     1      -1.959   1.274  -0.668  1.00  0.00    -0.196 F 
HETATM    9  F5  UNL     1      -3.062   0.130  -2.299  1.00  0.00    -0.196 F 
BRANCH   7  10
HETATM   10  C10 UNL     1      -4.239   1.643  -0.878  1.00  0.00     0.454 C 
HETATM   11  F6  UNL     1      -4.056   2.663  -1.821  1.00  0.00    -0.165 F 
HETATM   12  F7  UNL     1      -5.473   1.082  -1.055  1.00  0.00    -0.165 F 
HETATM   13  F8  UNL     1      -4.189   2.234   0.367  1.00  0.00    -0.165 F 
ENDBRANCH   7  10
ENDBRANCH   6   7
ENDBRANCH   5   6
BRANCH   5  14
HETATM   14  C11 UNL     1      -2.825  -2.441   1.234  1.00  0.00     0.208 C 
HETATM   15 CL1  UNL     1      -2.965  -1.557   2.760  1.00  0.00    -0.082 Cl
HETATM   16 CL2  UNL     1      -1.733  -3.806   1.441  1.00  0.00    -0.082 Cl
HETATM   17 CL3  UNL     1      -4.435  -2.968   0.716  1.00  0.00    -0.082 Cl
ENDBRANCH   5  14
ENDBRANCH   3   5
BRANCH   1  18
HETATM   18  C5  UNL     1       1.520  -0.870   0.217  1.00  0.00     0.249 C 
BRANCH  18  19
HETATM   19  C4  UNL     1       1.602   0.612  -0.004  1.00  0.00     0.277 C 
HETATM   20  F3  UNL     1       1.366   0.801  -1.378  1.00  0.00    -0.240 F 
BRANCH  19  21
HETATM   21  C3  UNL     1       2.870   1.274   0.386  1.00  0.00     0.267 C 
HETATM   22  F2  UNL     1       3.049   1.270   1.741  1.00  0.00    -0.205 F 
BRANCH  21  23
HETATM   23  C2  UNL     1       4.114   0.821  -0.289  1.00  0.00     0.236 C 
HETATM   24  C1  UNL     1       5.255   1.720   0.227  1.00  0.00     0.051 C 
HETATM   25  F1  UNL     1       4.105   0.943  -1.650  1.00  0.00    -0.244 F 
ENDBRANCH  21  23
BRANCH  21  26
HETATM   26  O1  UNL     1       2.715   2.644   0.018  1.00  0.00    -0.357 OA
ATOM     27  H1  UNL     1       1.920   2.934   0.450  1.00  0.00     0.213 HD
ENDBRANCH  21  26
ENDBRANCH  19  21
ENDBRANCH  18  19
BRANCH  18  28
HETATM   28  O2  UNL     1       2.508  -1.482  -0.545  1.00  0.00    -0.383 OA
ATOM     29  H2  UNL     1       2.456  -2.420  -0.405  1.00  0.00     0.210 HD
ENDBRANCH  18  28
ENDBRANCH   1  18
TORSDOF 11
