REMARK  6 active torsions:
REMARK  status: ('A' for Active; 'I' for Inactive)
REMARK    1  A    between atoms: C3_7  and  C4_8 
REMARK    2  A    between atoms: C4_8  and  C6_10 
REMARK    3  A    between atoms: C6_10  and  C7_11 
REMARK    4  A    between atoms: C7_11  and  C8_12 
REMARK    5  A    between atoms: C8_12  and  C9_13 
REMARK    6  A    between atoms: C10_17  and  C11_18 
ROOT
HETATM    1  C8  UNL     1      -0.793  -1.474   0.175  1.00  0.00     0.078 C 
ENDROOT
BRANCH   1   2
HETATM    2  C7  UNL     1      -1.371  -0.929   1.449  1.00  0.00     0.008 C 
BRANCH   2   3
HETATM    3  C6  UNL     1      -2.634  -1.600   1.884  1.00  0.00     0.012 C 
BRANCH   3   4
HETATM    4  C4  UNL     1      -3.762  -1.504   0.904  1.00  0.00     0.051 C 
HETATM    5  C5  UNL     1      -4.960  -2.206   1.555  1.00  0.00     0.018 C 
BRANCH   4   6
HETATM    6  C3  UNL     1      -4.115  -0.081   0.652  1.00  0.00     0.102 A 
HETATM    7  N2  UNL     1      -4.348   0.864   1.608  1.00  0.00    -0.287 N 
HETATM    8  N1  UNL     1      -4.631   2.000   1.000  1.00  0.00    -0.288 N 
ATOM      9  H2  UNL     1      -4.310   0.718   2.617  1.00  0.00     0.188 HD
HETATM   10  C2  UNL     1      -4.593   1.833  -0.326  1.00  0.00     0.095 A 
ATOM     11  H1  UNL     1      -4.847   2.878   1.473  1.00  0.00     0.188 HD
HETATM   12  C1  UNL     1      -4.852   2.866  -1.333  1.00  0.00     0.091 C 
HETATM   13  N5  UNL     1      -4.270   0.534  -0.513  1.00  0.00    -0.329 N 
HETATM   14  C17 UNL     1      -4.125  -0.066  -1.838  1.00  0.00     0.159 C 
ENDBRANCH   4   6
ENDBRANCH   3   4
ENDBRANCH   2   3
ENDBRANCH   1   2
BRANCH   1  15
HETATM   15  C9  UNL     1       0.453  -0.698  -0.111  1.00  0.00     0.103 A 
HETATM   16  N3  UNL     1       0.576   0.428  -0.823  1.00  0.00    -0.247 N 
HETATM   17  O1  UNL     1       1.821   0.785  -0.837  1.00  0.00    -0.222 OA
ATOM     18  H3  UNL     1      -0.188   0.925  -1.281  1.00  0.00     0.196 HD
HETATM   19  C10 UNL     1       2.541  -0.064  -0.158  1.00  0.00     0.152 A 
HETATM   20  N4  UNL     1       1.707  -1.003   0.307  1.00  0.00    -0.327 N 
ATOM     21  H4  UNL     1       1.969  -1.808   0.876  1.00  0.00     0.169 HD
BRANCH  19  22
HETATM   22  C11 UNL     1       3.976  -0.013   0.061  1.00  0.00     0.063 C 
HETATM   23  C12 UNL     1       4.414   1.267   0.778  1.00  0.00     0.013 C 
HETATM   24  C13 UNL     1       5.864   1.065   1.124  1.00  0.00     0.001 C 
HETATM   25  C14 UNL     1       6.747   0.808  -0.036  1.00  0.00     0.000 C 
HETATM   26  C15 UNL     1       6.190  -0.069  -1.098  1.00  0.00     0.001 C 
HETATM   27  C16 UNL     1       4.711  -0.002  -1.266  1.00  0.00     0.013 C 
ENDBRANCH  19  22
ENDBRANCH   1  15
TORSDOF 6
