REMARK  9 active torsions:
REMARK  status: ('A' for Active; 'I' for Inactive)
REMARK    1  A    between atoms: C2_2  and  C3_3 
REMARK    2  A    between atoms: C3_3  and  C4_4 
REMARK    3  A    between atoms: C4_4  and  N1_5 
REMARK    4  A    between atoms: N1_5  and  C6_7 
REMARK    5  A    between atoms: C6_7  and  O1_8 
REMARK    6  A    between atoms: C6_7  and  C7_10 
REMARK       I    between atoms: N4_24  and  C18_26 
REMARK    7  A    between atoms: C18_26  and  C19_28 
REMARK    8  A    between atoms: C21_30  and  C22_31 
REMARK    9  A    between atoms: C22_31  and  C23_32 
ROOT
HETATM    1  C7  UNL     1      -3.838  -0.796   0.052  1.00  0.00     0.092 A 
HETATM    2  C8  UNL     1      -2.579  -0.725  -0.594  1.00  0.00    -0.018 A 
HETATM    3  C9  UNL     1      -2.274   0.176  -1.701  1.00  0.00     0.052 C 
HETATM    4  C10 UNL     1      -1.816  -1.709  -0.029  1.00  0.00     0.006 A 
HETATM    5  C11 UNL     1      -2.563  -2.348   0.901  1.00  0.00     0.023 A 
HETATM    6  N2  UNL     1      -3.824  -1.777   0.953  1.00  0.00    -0.350 N 
HETATM    7  C12 UNL     1      -4.795  -2.248   1.932  1.00  0.00     0.156 C 
HETATM    8  C13 UNL     1      -2.059  -3.463   1.700  1.00  0.00     0.063 A 
HETATM    9  C14 UNL     1      -0.722  -3.985   1.433  1.00  0.00     0.047 A 
HETATM   10  C15 UNL     1       0.091  -3.222   0.465  1.00  0.00    -0.031 A 
HETATM   11  C16 UNL     1       1.390  -3.558   0.242  1.00  0.00     0.097 A 
HETATM   12  N3  UNL     1       2.211  -2.942  -0.620  1.00  0.00    -0.352 N 
ATOM     13  H3  UNL     1       3.177  -3.248  -0.737  1.00  0.00     0.166 HD
HETATM   14  C17 UNL     1       1.727  -1.920  -1.317  1.00  0.00     0.108 A 
HETATM   15  N4  UNL     1       2.425  -1.275  -2.156  1.00  0.00    -0.308 N 
ATOM     16  H4  UNL     1       1.963  -0.507  -2.642  1.00  0.00     0.170 HD
HETATM   17  C18 UNL     1       3.767  -1.511  -2.483  1.00  0.00     0.274 C 
HETATM   18  O2  UNL     1       4.011  -2.090  -3.572  1.00  0.00    -0.266 OA
HETATM   19  C29 UNL     1       0.393  -1.510  -1.145  1.00  0.00     0.061 A 
HETATM   20  C30 UNL     1      -0.442  -2.146  -0.261  1.00  0.00    -0.012 A 
ENDROOT
BRANCH  17  21
HETATM   21  C19 UNL     1       4.897  -1.134  -1.651  1.00  0.00     0.103 A 
HETATM   22  C20 UNL     1       4.722  -0.488  -0.426  1.00  0.00     0.044 A 
HETATM   23  C21 UNL     1       5.993  -0.290   0.073  1.00  0.00    -0.035 A 
HETATM   24  C27 UNL     1       6.878  -0.814  -0.850  1.00  0.00     0.098 A 
HETATM   25  N7  UNL     1       6.203  -1.324  -1.893  1.00  0.00    -0.356 N 
HETATM   26  C28 UNL     1       6.802  -1.949  -3.037  1.00  0.00     0.156 C 
BRANCH  23  27
HETATM   27  C22 UNL     1       6.332   0.370   1.373  1.00  0.00     0.098 C 
BRANCH  27  28
HETATM   28  C23 UNL     1       6.518   1.832   1.201  1.00  0.00     0.032 A 
HETATM   29  C24 UNL     1       7.673   2.524   0.907  1.00  0.00     0.052 A 
HETATM   30  C25 UNL     1       7.302   3.868   0.858  1.00  0.00     0.024 A 
HETATM   31  C26 UNL     1       8.233   4.979   0.570  1.00  0.00     0.070 C 
HETATM   32  N5  UNL     1       5.993   3.953   1.112  1.00  0.00    -0.305 N 
HETATM   33  N6  UNL     1       5.520   2.724   1.319  1.00  0.00    -0.304 N 
ATOM     34  H5  UNL     1       5.447   4.814   1.142  1.00  0.00     0.186 HD
ATOM     35  H6  UNL     1       4.549   2.496   1.534  1.00  0.00     0.186 HD
ENDBRANCH  27  28
ENDBRANCH  23  27
ENDBRANCH  17  21
BRANCH   1  36
HETATM   36  C6  UNL     1      -4.879   0.191  -0.128  1.00  0.00     0.166 C 
BRANCH  36  37
HETATM   37  N1  UNL     1      -6.246   0.219   0.033  1.00  0.00    -0.364 N 
HETATM   38  C5  UNL     1      -7.179  -0.816   0.297  1.00  0.00     0.151 C 
BRANCH  37  39
HETATM   39  C4  UNL     1      -6.906   1.557  -0.207  1.00  0.00     0.124 C 
BRANCH  39  40
HETATM   40  C3  UNL     1      -6.906   2.220   1.151  1.00  0.00     0.019 C 
BRANCH  40  41
HETATM   41  C2  UNL     1      -7.556   3.603   1.053  1.00  0.00    -0.003 C 
HETATM   42  C1  UNL     1      -6.699   4.387   0.052  1.00  0.00     0.005 C 
ENDBRANCH  40  41
ENDBRANCH  39  40
ENDBRANCH  37  39
ENDBRANCH  36  37
BRANCH  36  43
HETATM   43  O1  UNL     1      -4.419   1.373  -0.569  1.00  0.00    -0.344 OA
ATOM     44  H1  UNL     1      -3.476   1.354  -0.680  1.00  0.00     0.219 HD
ENDBRANCH  36  43
ENDBRANCH   1  36
TORSDOF 9
