REMARK  0 active torsions:
REMARK  status: ('A' for Active; 'I' for Inactive)
ROOT
HETATM    1  C1  UNL     1      -4.086  -0.124   1.238  1.00  0.00     0.018 C 
HETATM    2  C2  UNL     1      -2.900  -0.303   0.280  1.00  0.00    -0.015 C 
HETATM    3  C3  UNL     1      -2.248  -1.594   0.623  1.00  0.00     0.012 C 
HETATM    4  C4  UNL     1      -0.867  -1.691   0.006  1.00  0.00     0.008 C 
HETATM    5  C5  UNL     1      -0.046  -0.608   0.637  1.00  0.00     0.027 C 
HETATM    6  C6  UNL     1      -0.614   0.754   0.482  1.00  0.00     0.198 C 
HETATM    7  N1  UNL     1       0.245   1.390  -0.534  1.00  0.00    -0.061 N 
ATOM      8  H11 UNL     1       0.132   2.398  -0.644  1.00  0.00     0.278 HD
ATOM      9  H12 UNL     1       0.018   1.176  -1.505  1.00  0.00     0.278 HD
HETATM   10  C7  UNL     1       1.528   0.952  -0.083  1.00  0.00     0.130 C 
HETATM   11  C8  UNL     1       1.837   1.572   1.255  1.00  0.00     0.047 C 
HETATM   12  C9  UNL     1       2.663   1.189  -0.997  1.00  0.00     0.039 C 
HETATM   13  C10 UNL     1       3.867   0.445  -0.570  1.00  0.00     0.002 C 
HETATM   14  C11 UNL     1       3.744  -0.527   0.521  1.00  0.00     0.001 C 
HETATM   15  C12 UNL     1       2.411  -1.165   0.725  1.00  0.00     0.012 C 
HETATM   16  C13 UNL     1       1.296  -0.536  -0.008  1.00  0.00    -0.005 C 
HETATM   17  C14 UNL     1       1.215  -1.095  -1.395  1.00  0.00     0.018 C 
HETATM   18  C15 UNL     1      -2.039   0.878   0.196  1.00  0.00     0.051 C 
HETATM   19  C16 UNL     1      -2.225   1.345  -1.254  1.00  0.00     0.175 C 
HETATM   20  O1  UNL     1      -3.537   0.964  -1.504  1.00  0.00    -0.390 OA
HETATM   21  C17 UNL     1      -3.528  -0.368  -1.119  1.00  0.00     0.177 C 
ENDROOT
TORSDOF 0
