REMARK  5 active torsions:
REMARK  status: ('A' for Active; 'I' for Inactive)
REMARK       I    between atoms: N1_2  and  C3_4 
REMARK    1  A    between atoms: C3_4  and  C4_6 
REMARK    2  A    between atoms: C8_10  and  C9_12 
REMARK    3  A    between atoms: C9_12  and  N2_13 
REMARK    4  A    between atoms: C9_12  and  C10_17 
REMARK    5  A    between atoms: C10_17  and  C11_18 
ROOT
HETATM    1  C4  UNL     1      -1.247  -0.448  -0.086  1.00  0.00     0.114 A 
HETATM    2  C5  UNL     1      -0.536  -1.439  -0.925  1.00  0.00    -0.009 A 
HETATM    3  C6  UNL     1      -0.861  -1.551  -2.418  1.00  0.00     0.018 C 
HETATM    4  C7  UNL     1      -0.253  -2.765  -0.283  1.00  0.00     0.018 C 
HETATM    5  C8  UNL     1       0.142  -0.205  -0.539  1.00  0.00     0.085 A 
HETATM    6 CL1  UNL     1       0.346   1.124  -1.703  1.00  0.00    -0.115 Cl
ENDROOT
BRANCH   5   7
HETATM    7  C9  UNL     1       1.279  -0.230   0.507  1.00  0.00     0.208 C 
BRANCH   7   8
HETATM    8  N2  UNL     1       0.929   0.811   1.434  1.00  0.00    -0.073 N 
ATOM      9  H23 UNL     1       0.779   1.723   1.002  1.00  0.00     0.274 HD
ATOM     10  H22 UNL     1      -0.006   0.720   1.831  1.00  0.00     0.274 HD
ATOM     11  H21 UNL     1       1.680   0.794   2.124  1.00  0.00     0.274 HD
ENDBRANCH   7   8
BRANCH   7  12
HETATM   12  C10 UNL     1       2.519   0.094  -0.261  1.00  0.00     0.039 C 
BRANCH  12  13
HETATM   13  C11 UNL     1       3.793   0.128   0.498  1.00  0.00    -0.013 A 
HETATM   14  C12 UNL     1       3.976   1.072   1.593  1.00  0.00     0.005 A 
HETATM   15  C13 UNL     1       4.704   1.332   0.284  1.00  0.00     0.005 A 
ENDBRANCH  12  13
ENDBRANCH   7  12
ENDBRANCH   5   7
BRANCH   1  16
HETATM   16  C3  UNL     1      -2.325   0.383  -0.676  1.00  0.00     0.226 C 
HETATM   17  N1  UNL     1      -3.442   0.797   0.093  1.00  0.00    -0.360 N 
HETATM   18  C1  UNL     1      -3.519   0.396   1.482  1.00  0.00     0.152 C 
HETATM   19  C2  UNL     1      -4.519   1.607  -0.435  1.00  0.00     0.152 C 
HETATM   20  O1  UNL     1      -2.304   0.757  -1.881  1.00  0.00    -0.273 OA
ENDBRANCH   1  16
TORSDOF 5
