REMARK  9 active torsions:
REMARK  status: ('A' for Active; 'I' for Inactive)
REMARK    1  A    between atoms: C2_2  and  N1_4 
REMARK    2  A    between atoms: N1_4  and  C4_6 
REMARK    3  A    between atoms: C5_9  and  S1_10 
REMARK    4  A    between atoms: S1_10  and  C6_11 
REMARK    5  A    between atoms: C10_20  and  N6_21 
REMARK    6  A    between atoms: N6_21  and  C11_23 
REMARK    7  A    between atoms: C11_23  and  C12_29 
REMARK    8  A    between atoms: N7_24  and  N8_26 
REMARK    9  A    between atoms: C12_29  and  N9_31 
ROOT
HETATM    1  C4  UNL     1      -1.132   2.151  -0.173  1.00  0.00     0.695 A 
HETATM    2  N2  UNL     1      -1.816   1.093   0.297  1.00  0.00    -0.169 N 
ATOM      3  H2  UNL     1      -2.835   1.130   0.295  1.00  0.00     0.186 HD
HETATM    4  C5  UNL     1      -1.207  -0.021   0.774  1.00  0.00     0.180 A 
HETATM    5  N5  UNL     1       0.150  -0.091   0.785  1.00  0.00    -0.169 N 
ATOM      6  H5  UNL     1       0.628  -0.919   1.139  1.00  0.00     0.186 HD
HETATM    7  C10 UNL     1       0.844   0.958   0.318  1.00  0.00     0.700 A 
HETATM    8  N10 UNL     1       0.215   2.050  -0.148  1.00  0.00    -0.022 N 
ATOM      9  H10 UNL     1       0.774   2.830  -0.495  1.00  0.00     0.203 HD
ENDROOT
BRANCH   7  10
HETATM   10  N6  UNL     1       2.128   0.888   0.330  1.00  0.00    -0.176 N 
ATOM     11  H6  UNL     1       2.677   1.673  -0.020  1.00  0.00     0.185 HD
BRANCH  10  12
HETATM   12  C11 UNL     1       2.805  -0.286   0.831  1.00  0.00     0.141 C 
HETATM   13  N7  UNL     1       3.087  -0.345   2.048  1.00  0.00    -0.293 N 
ATOM     14  H7  UNL     1       2.790   0.483   2.564  1.00  0.00     0.187 HD
BRANCH  13  15
HETATM   15  N8  UNL     1       3.700  -1.264   2.835  1.00  0.00    -0.344 N 
ATOM     16  H82 UNL     1       3.989  -2.082   2.299  1.00  0.00     0.176 HD
ATOM     17  H81 UNL     1       3.930  -1.312   3.828  1.00  0.00     0.176 HD
ENDBRANCH  13  15
BRANCH  12  18
HETATM   18  C12 UNL     1       3.105  -1.319  -0.152  1.00  0.00     0.248 C 
HETATM   19  C13 UNL     1       3.803  -2.540   0.333  1.00  0.00     0.048 C 
BRANCH  18  20
HETATM   20  N9  UNL     1       3.832  -0.760  -1.303  1.00  0.00    -0.069 N 
ATOM     21  H93 UNL     1       3.328   0.022  -1.722  1.00  0.00     0.275 HD
ATOM     22  H92 UNL     1       4.674  -0.264  -1.011  1.00  0.00     0.275 HD
ATOM     23  H91 UNL     1       4.042  -1.483  -1.991  1.00  0.00     0.275 HD
ENDBRANCH  18  20
ENDBRANCH  12  18
ENDBRANCH  10  12
ENDBRANCH   7  10
BRANCH   4  24
HETATM   24  S1  UNL     1      -2.138  -1.405   1.389  1.00  0.00    -0.034 SA
BRANCH  24  25
HETATM   25  C6  UNL     1      -2.478  -2.554   0.047  1.00  0.00     0.095 A 
HETATM   26  C7  UNL     1      -2.083  -2.400  -1.270  1.00  0.00     0.126 A 
HETATM   27  N3  UNL     1      -2.546  -3.479  -1.915  1.00  0.00    -0.359 N 
HETATM   28  C8  UNL     1      -3.202  -4.292  -1.085  1.00  0.00     0.183 A 
ATOM     29  H3  UNL     1      -2.414  -3.656  -2.911  1.00  0.00     0.166 HD
HETATM   30  N4  UNL     1      -3.152  -3.703   0.132  1.00  0.00    -0.341 N 
HETATM   31  C9  UNL     1      -3.725  -4.205   1.364  1.00  0.00     0.158 C 
ENDBRANCH  24  25
ENDBRANCH   4  24
BRANCH   1  32
HETATM   32  N1  UNL     1      -1.746   3.192  -0.617  1.00  0.00    -0.222 N 
ATOM     33  H1  UNL     1      -2.766   3.179  -0.596  1.00  0.00     0.178 HD
BRANCH  32  34
HETATM   34  C2  UNL     1      -1.117   4.359  -1.134  1.00  0.00     0.091 C 
HETATM   35  C1  UNL     1      -0.593   5.202  -0.001  1.00  0.00     0.032 C 
HETATM   36  C3  UNL     1      -2.017   5.178  -2.030  1.00  0.00     0.032 C 
ENDBRANCH  32  34
ENDBRANCH   1  32
TORSDOF 9
