REMARK  3 active torsions:
REMARK  status: ('A' for Active; 'I' for Inactive)
REMARK    1  A    between atoms: C2_2  and  C3_3 
REMARK    2  A    between atoms: C6_7  and  C7_8 
REMARK    3  A    between atoms: C7_8  and  N2_9 
ROOT
HETATM    1  C3  UNL     1      -1.974   0.639   0.560  1.00  0.00     0.133 C 
HETATM    2  C4  UNL     1      -1.486   1.843   1.238  1.00  0.00     0.059 C 
HETATM    3  N1  UNL     1      -1.114   2.811   1.782  1.00  0.00    -0.197 NA
ENDROOT
BRANCH   1   4
HETATM    4  C2  UNL     1      -0.776  -0.275   0.311  1.00  0.00    -0.026 A 
HETATM    5  C1  UNL     1      -1.136  -1.557  -0.385  1.00  0.00     0.016 C 
HETATM    6  C5  UNL     1       0.212  -0.441   1.437  1.00  0.00     0.017 A 
HETATM    7  C6  UNL     1       0.547   0.340   0.216  1.00  0.00     0.021 A 
BRANCH   7   8
HETATM    8  C7  UNL     1       1.586  -0.167  -0.763  1.00  0.00     0.235 C 
BRANCH   8   9
HETATM    9  N2  UNL     1       2.807   0.608  -0.660  1.00  0.00    -0.079 N 
ATOM     10  H23 UNL     1       2.632   1.606  -0.777  1.00  0.00     0.274 HD
ATOM     11  H22 UNL     1       3.164   0.626   0.295  1.00  0.00     0.274 HD
ATOM     12  H21 UNL     1       3.507   0.267  -1.319  1.00  0.00     0.274 HD
ENDBRANCH   8   9
ENDBRANCH   7   8
ENDBRANCH   1   4
TORSDOF 3
