REMARK  12 active torsions:
REMARK  status: ('A' for Active; 'I' for Inactive)
REMARK    1  A    between atoms: C2_2  and  C4_4 
REMARK    2  A    between atoms: C4_4  and  N1_5 
REMARK    3  A    between atoms: C5_10  and  C6_11 
REMARK       I    between atoms: C6_11  and  N4_13 
REMARK    4  A    between atoms: N4_13  and  C7_15 
REMARK    5  A    between atoms: C7_15  and  C8_16 
REMARK    6  A    between atoms: C8_16  and  N5_17 
REMARK    7  A    between atoms: C9_18  and  C10_19 
REMARK    8  A    between atoms: C13_37  and  C14_38 
REMARK    9  A    between atoms: C14_38  and  C15_39 
REMARK   10  A    between atoms: C15_39  and  C16_40 
REMARK   11  A    between atoms: C16_40  and  C17_41 
REMARK   12  A    between atoms: C17_41  and  O2_42 
ROOT
HETATM    1  N5  UNL     1       2.299  -1.858   0.182  1.00  0.00    -0.312 N 
HETATM    2  C9  UNL     1       2.630  -3.141   0.338  1.00  0.00     0.157 A 
HETATM    3  N10 UNL     1       3.995  -3.219   0.238  1.00  0.00    -0.333 N 
ATOM      4  H10 UNL     1       4.537  -4.080   0.316  1.00  0.00     0.168 HD
HETATM    5  C11 UNL     1       4.510  -2.018   0.026  1.00  0.00     0.123 A 
HETATM    6  C12 UNL     1       5.813  -1.534  -0.149  1.00  0.00     0.132 A 
HETATM    7  N11 UNL     1       6.810  -2.333  -0.117  1.00  0.00    -0.383 N 
ATOM      8 1H11 UNL     1       7.759  -1.981  -0.244  1.00  0.00     0.157 HD
ATOM      9 2H11 UNL     1       6.723  -3.338   0.033  1.00  0.00     0.157 HD
HETATM   10  N12 UNL     1       5.927  -0.210  -0.347  1.00  0.00    -0.320 N 
ATOM     11  H12 UNL     1       6.866   0.166  -0.478  1.00  0.00     0.169 HD
HETATM   12  C13 UNL     1       4.909   0.652  -0.386  1.00  0.00     0.164 A 
HETATM   13  N13 UNL     1       3.663   0.175  -0.217  1.00  0.00    -0.319 N 
ATOM     14  H13 UNL     1       2.869   0.815  -0.243  1.00  0.00     0.169 HD
HETATM   15  C18 UNL     1       3.453  -1.142  -0.013  1.00  0.00     0.142 A 
ENDROOT
BRANCH   1  16
HETATM   16  C8  UNL     1       0.981  -1.240   0.198  1.00  0.00     0.152 C 
BRANCH  16  17
HETATM   17  C7  UNL     1       0.569  -0.819   1.568  1.00  0.00     0.143 C 
BRANCH  17  18
HETATM   18  N4  UNL     1      -0.714  -0.157   1.582  1.00  0.00    -0.354 N 
HETATM   19  C6  UNL     1      -1.940  -0.702   1.165  1.00  0.00     0.273 C 
HETATM   20  O1  UNL     1      -1.995  -1.868   0.729  1.00  0.00    -0.266 OA
ATOM     21  H4  UNL     1      -0.732   0.802   1.929  1.00  0.00     0.162 HD
BRANCH  19  22
HETATM   22  C5  UNL     1      -3.176   0.061   1.224  1.00  0.00     0.160 A 
HETATM   23  N3  UNL     1      -3.313   1.343   1.668  1.00  0.00    -0.278 N 
HETATM   24  N2  UNL     1      -4.581   1.676   1.564  1.00  0.00    -0.238 N 
ATOM     25  H3  UNL     1      -2.564   1.939   2.019  1.00  0.00     0.189 HD
HETATM   26  N1  UNL     1      -5.309   0.682   1.072  1.00  0.00    -0.262 N 
ATOM     27  H2  UNL     1      -4.958   2.586   1.829  1.00  0.00     0.208 HD
HETATM   28  C19 UNL     1      -4.451  -0.325   0.857  1.00  0.00     0.168 A 
HETATM   29  N14 UNL     1      -4.700  -1.645   0.336  1.00  0.00    -0.078 NA
BRANCH  26  30
HETATM   30  C4  UNL     1      -6.721   0.659   0.807  1.00  0.00     0.156 C 
BRANCH  30  31
HETATM   31  C2  UNL     1      -7.070   1.144  -0.562  1.00  0.00    -0.003 C 
HETATM   32  C1  UNL     1      -6.624   2.568  -0.804  1.00  0.00     0.011 C 
HETATM   33  C3  UNL     1      -6.616   0.260  -1.677  1.00  0.00     0.011 C 
ENDBRANCH  30  31
ENDBRANCH  26  30
ENDBRANCH  19  22
ENDBRANCH  17  18
ENDBRANCH  16  17
ENDBRANCH   1  16
BRANCH   2  34
HETATM   34  C10 UNL     1       1.803  -4.310   0.574  1.00  0.00     0.182 A 
HETATM   35  N6  UNL     1       2.188  -5.590   0.727  1.00  0.00    -0.266 N 
HETATM   36  N7  UNL     1       1.099  -6.333   0.926  1.00  0.00    -0.226 N 
ATOM     37  H6  UNL     1       3.148  -5.933   0.696  1.00  0.00     0.190 HD
HETATM   38  N8  UNL     1       0.033  -5.571   0.906  1.00  0.00    -0.226 N 
ATOM     39  H7  UNL     1       1.096  -7.343   1.072  1.00  0.00     0.210 HD
HETATM   40  N9  UNL     1       0.477  -4.334   0.689  1.00  0.00    -0.266 N 
ATOM     41  H8  UNL     1      -0.936  -5.864   1.031  1.00  0.00     0.210 HD
ATOM     42  H9  UNL     1      -0.122  -3.511   0.620  1.00  0.00     0.190 HD
ENDBRANCH   2  34
BRANCH  12  43
HETATM   43  C14 UNL     1       5.117   2.075  -0.605  1.00  0.00    -0.030 C 
BRANCH  43  44
HETATM   44  C15 UNL     1       5.297   3.252  -0.799  1.00  0.00    -0.096 C 
BRANCH  44  45
HETATM   45  C16 UNL     1       5.530   4.675  -1.053  1.00  0.00     0.120 C 
BRANCH  45  46
HETATM   46  C17 UNL     1       6.955   5.070  -0.685  1.00  0.00     0.176 C 
BRANCH  46  47
HETATM   47  O2  UNL     1       7.091   4.786   0.681  1.00  0.00    -0.400 OA
ATOM     48  H2  UNL     1       7.979   5.032   0.910  1.00  0.00     0.209 HD
ENDBRANCH  46  47
ENDBRANCH  45  46
ENDBRANCH  44  45
ENDBRANCH  43  44
ENDBRANCH  12  43
TORSDOF 12
