REMARK  3 active torsions:
REMARK  status: ('A' for Active; 'I' for Inactive)
REMARK    1  A    between atoms: N1_1  and  C1_5 
REMARK    2  A    between atoms: C1_5  and  C2_6 
REMARK    3  A    between atoms: C2_6  and  C3_7 
ROOT
HETATM    1  C1  UNL     1      -0.884   0.415  -0.456  1.00  0.00     0.284 C 
HETATM    2  C8  UNL     1      -1.075  -1.033  -0.681  1.00  0.00     0.069 C 
HETATM    3  C9  UNL     1      -1.952  -1.693   0.373  1.00  0.00     0.006 C 
HETATM    4  C10 UNL     1      -3.328  -1.077   0.237  1.00  0.00     0.028 C 
HETATM    5  C11 UNL     1      -3.156   0.417   0.244  1.00  0.00     0.235 C 
HETATM    6  N2  UNL     1      -1.815   0.832   0.580  1.00  0.00    -0.041 N 
ATOM      7  H21 UNL     1      -1.761   1.835   0.759  1.00  0.00     0.280 HD
ATOM      8  H22 UNL     1      -1.533   0.498   1.502  1.00  0.00     0.280 HD
ENDROOT
BRANCH   1   9
HETATM    9  N1  UNL     1      -1.397   1.100  -1.682  1.00  0.00    -0.044 N 
ATOM     10  H13 UNL     1      -1.352   2.118  -1.646  1.00  0.00     0.277 HD
ATOM     11  H12 UNL     1      -0.802   0.995  -2.504  1.00  0.00     0.277 HD
ATOM     12  H11 UNL     1      -2.338   0.723  -1.793  1.00  0.00     0.277 HD
ENDBRANCH   1   9
BRANCH   1  13
HETATM   13  C2  UNL     1       0.472   0.958  -0.296  1.00  0.00     0.074 C 
BRANCH  13  14
HETATM   14  C3  UNL     1       1.353   0.585   0.802  1.00  0.00    -0.010 C 
HETATM   15  C4  UNL     1       1.781  -0.816   0.980  1.00  0.00     0.005 C 
HETATM   16  C5  UNL     1       2.773  -0.975  -0.181  1.00  0.00     0.000 C 
HETATM   17  C6  UNL     1       3.643   0.238   0.067  1.00  0.00     0.000 C 
HETATM   18  C7  UNL     1       2.715   1.283   0.587  1.00  0.00     0.005 C 
ENDBRANCH  13  14
ENDBRANCH   1  13
TORSDOF 3
