REMARK  3 active torsions:
REMARK  status: ('A' for Active; 'I' for Inactive)
REMARK    1  A    between atoms: C3_3  and  C4_4 
REMARK    2  A    between atoms: C9_10  and  N1_11 
REMARK    3  A    between atoms: C11_13  and  C12_14 
ROOT
HETATM    1  C4  UNL     1      -2.103   0.638  -0.326  1.00  0.00     0.016 C 
HETATM    2  C5  UNL     1      -2.582   1.665   0.666  1.00  0.00     0.009 C 
HETATM    3  C6  UNL     1      -1.550   2.754   0.765  1.00  0.00     0.003 C 
HETATM    4  C7  UNL     1      -0.147   2.297   0.640  1.00  0.00     0.032 C 
HETATM    5  C8  UNL     1       0.083   0.849   0.904  1.00  0.00     0.133 C 
HETATM    6  O1  UNL     1       1.345   0.526   0.354  1.00  0.00    -0.337 OA
HETATM    7  C9  UNL     1       1.590  -0.796   0.715  1.00  0.00     0.393 C 
HETATM    8  O4  UNL     1       0.756  -1.679   0.056  1.00  0.00    -0.342 OA
HETATM    9  C13 UNL     1      -0.206  -0.964  -0.692  1.00  0.00     0.180 C 
HETATM   10  C14 UNL     1      -0.918  -0.061   0.270  1.00  0.00     0.046 C 
ENDROOT
BRANCH   7  11
HETATM   11  N1  UNL     1       2.966  -1.144   0.505  1.00  0.00    -0.233 N 
HETATM   12  C10 UNL     1       3.947  -0.362   0.031  1.00  0.00     0.155 A 
HETATM   13  C11 UNL     1       5.083  -1.132   0.009  1.00  0.00     0.143 A 
HETATM   14  N2  UNL     1       4.743  -2.370   0.479  1.00  0.00    -0.279 N 
HETATM   15  N3  UNL     1       3.460  -2.351   0.771  1.00  0.00    -0.236 N 
ATOM     16  H2  UNL     1       5.372  -3.166   0.584  1.00  0.00     0.189 HD
ATOM     17  H3  UNL     1       2.928  -3.138   1.143  1.00  0.00     0.208 HD
BRANCH  13  18
HETATM   18  C12 UNL     1       6.406  -0.720  -0.428  1.00  0.00     0.229 C 
HETATM   19  O2  UNL     1       6.583   0.448  -0.837  1.00  0.00    -0.643 OA
HETATM   20  O3  UNL     1       7.469  -1.600  -0.397  1.00  0.00    -0.643 OA
ENDBRANCH  13  18
ENDBRANCH   7  11
BRANCH   1  21
HETATM   21  C3  UNL     1      -3.126  -0.375  -0.641  1.00  0.00    -0.026 C 
HETATM   22  C2  UNL     1      -4.323  -0.349  -0.104  1.00  0.00    -0.035 C 
HETATM   23  C1  UNL     1      -5.314  -1.391  -0.455  1.00  0.00     0.036 C 
ENDBRANCH   1  21
TORSDOF 3
