REMARK  12 active torsions:
REMARK  status: ('A' for Active; 'I' for Inactive)
REMARK    1  A    between atoms: C3_3  and  C4_4 
REMARK    2  A    between atoms: N1_5  and  N2_7 
REMARK    3  A    between atoms: C6_12  and  N4_13 
REMARK    4  A    between atoms: N5_16  and  N6_17 
REMARK    5  A    between atoms: N8_24  and  C8_25 
REMARK    6  A    between atoms: C13_33  and  C14_34 
REMARK    7  A    between atoms: C14_34  and  S1_35 
REMARK    8  A    between atoms: S1_35  and  C15_36 
REMARK       I    between atoms: N10_41  and  C18_42 
REMARK    9  A    between atoms: C18_42  and  C19_44 
REMARK   10  A    between atoms: C19_44  and  O4_45 
REMARK   11  A    between atoms: C19_44  and  C20_47 
REMARK   12  A    between atoms: C20_47  and  O5_50 
ROOT
HETATM    1  C1  UNL     1       1.235   1.746  -0.208  1.00  0.00     0.051 C 
HETATM    2  C2  UNL     1       1.349   0.402  -0.819  1.00  0.00    -0.022 A 
HETATM    3  C3  UNL     1       2.613  -0.248  -0.734  1.00  0.00     0.062 A 
HETATM    4  N8  UNL     1       2.801  -1.455  -1.246  1.00  0.00    -0.298 N 
HETATM    5  C9  UNL     1       1.745  -2.078  -1.869  1.00  0.00     0.260 A 
HETATM    6  O2  UNL     1       1.916  -3.229  -2.360  1.00  0.00    -0.267 OA
HETATM    7  C10 UNL     1       0.519  -1.464  -1.960  1.00  0.00     0.045 A 
HETATM    8  C11 UNL     1      -0.548  -2.096  -2.590  1.00  0.00     0.042 A 
HETATM    9  C12 UNL     1      -1.794  -1.529  -2.708  1.00  0.00     0.042 A 
HETATM   10 CL2  UNL     1      -3.095  -2.400  -3.524  1.00  0.00    -0.084 Cl
HETATM   11  C13 UNL     1      -2.021  -0.265  -2.180  1.00  0.00    -0.026 A 
HETATM   12  C23 UNL     1      -0.977   0.373  -1.556  1.00  0.00     0.022 A 
HETATM   13  C24 UNL     1       0.292  -0.209  -1.437  1.00  0.00    -0.012 A 
ENDROOT
BRANCH   3  14
HETATM   14  C4  UNL     1       3.676   0.480  -0.088  1.00  0.00     0.138 C 
HETATM   15  N1  UNL     1       4.857   0.044   0.085  1.00  0.00    -0.295 N 
ATOM     16  H1  UNL     1       5.082  -0.891  -0.254  1.00  0.00     0.186 HD
BRANCH  15  17
HETATM   17  N2  UNL     1       5.861   0.777   0.714  1.00  0.00    -0.132 N 
HETATM   18  C5  UNL     1       7.076   0.385   0.826  1.00  0.00     0.715 A 
HETATM   19  N3  UNL     1       7.989   1.187   1.464  1.00  0.00    -0.019 N 
HETATM   20  N7  UNL     1       7.565  -0.780   0.372  1.00  0.00    -0.137 N 
HETATM   21  C6  UNL     1       9.270   0.854   1.633  1.00  0.00     0.715 A 
ATOM     22  H3  UNL     1       7.671   2.085   1.828  1.00  0.00     0.203 HD
HETATM   23  N5  UNL     1       9.692  -0.327   1.153  1.00  0.00    -0.037 N 
HETATM   24  C7  UNL     1       8.846  -1.158   0.518  1.00  0.00     0.374 A 
HETATM   25  O1  UNL     1       9.274  -2.267   0.076  1.00  0.00    -0.244 OA
ATOM     26  H7  UNL     1       6.928  -1.414  -0.111  1.00  0.00     0.189 HD
ATOM     27  H2  UNL     1       5.613   1.683   1.111  1.00  0.00     0.205 HD
BRANCH  21  28
HETATM   28  N4  UNL     1      10.114   1.616   2.234  1.00  0.00    -0.232 N 
ATOM     29  H42 UNL     1       9.793   2.513   2.599  1.00  0.00     0.174 HD
ATOM     30  H41 UNL     1      11.093   1.361   2.363  1.00  0.00     0.174 HD
ENDBRANCH  21  28
BRANCH  23  31
HETATM   31  N6  UNL     1      11.026  -0.685   1.322  1.00  0.00    -0.320 N 
ATOM     32  H62 UNL     1      11.667  -0.055   1.803  1.00  0.00     0.178 HD
ATOM     33  H61 UNL     1      11.347  -1.582   0.957  1.00  0.00     0.178 HD
ENDBRANCH  23  31
ENDBRANCH  15  17
ENDBRANCH   3  14
BRANCH   4  34
HETATM   34  C8  UNL     1       4.055  -2.176  -1.191  1.00  0.00     0.247 C 
HETATM   35 CL1  UNL     1       5.060  -1.751  -2.590  1.00  0.00    -0.108 Cl
ENDBRANCH   4  34
BRANCH  11  36
HETATM   36  C14 UNL     1      -3.340   0.324  -2.343  1.00  0.00     0.122 C 
BRANCH  36  37
HETATM   37  S1  UNL     1      -3.626   1.917  -1.588  1.00  0.00    -0.089 SA
BRANCH  37  38
HETATM   38  C15 UNL     1      -3.745   1.880   0.187  1.00  0.00     0.149 A 
HETATM   39  N9  UNL     1      -2.786   2.027   1.112  1.00  0.00    -0.340 N 
HETATM   40  C16 UNL     1      -3.287   1.931   2.347  1.00  0.00     0.275 A 
ATOM     41  H9  UNL     1      -1.802   2.191   0.901  1.00  0.00     0.164 HD
HETATM   42  C17 UNL     1      -4.673   1.706   2.199  1.00  0.00     0.284 A 
HETATM   43  O6  UNL     1      -4.103   1.785   3.486  1.00  0.00    -0.333 OA
HETATM   44  N10 UNL     1      -4.923   1.680   0.870  1.00  0.00    -0.264 N 
HETATM   45  C18 UNL     1      -6.186   1.503   0.243  1.00  0.00     0.260 C 
HETATM   46  O3  UNL     1      -6.276   1.559  -1.023  1.00  0.00    -0.270 OA
BRANCH  45  47
HETATM   47  C19 UNL     1      -7.436   1.255   0.971  1.00  0.00     0.244 C 
BRANCH  47  48
HETATM   48  O4  UNL     1      -8.552   1.472   0.095  1.00  0.00    -0.383 OA
ATOM     49  H4  UNL     1      -9.361   1.311   0.566  1.00  0.00     0.210 HD
ENDBRANCH  47  48
BRANCH  47  50
HETATM   50  C20 UNL     1      -7.573  -0.233   1.340  1.00  0.00     0.085 C 
HETATM   51  C21 UNL     1      -7.454  -1.030   0.033  1.00  0.00     0.049 C 
HETATM   52  C22 UNL     1      -8.927  -0.499   1.949  1.00  0.00     0.049 C 
BRANCH  50  53
HETATM   53  O5  UNL     1      -6.572  -0.599   2.202  1.00  0.00    -0.388 OA
ATOM     54  H5  UNL     1      -6.657  -1.517   2.430  1.00  0.00     0.210 HD
ENDBRANCH  50  53
ENDBRANCH  47  50
ENDBRANCH  45  47
ENDBRANCH  37  38
ENDBRANCH  36  37
ENDBRANCH  11  36
TORSDOF 12
