REMARK  15 active torsions:
REMARK  status: ('A' for Active; 'I' for Inactive)
REMARK    1  A    between atoms: C2_3  and  C3_4 
REMARK    2  A    between atoms: C4_8  and  O4_9 
REMARK    3  A    between atoms: O4_9  and  C5_10 
REMARK    4  A    between atoms: C5_10  and  N6_29 
REMARK    5  A    between atoms: N2_11  and  C6_13 
REMARK    6  A    between atoms: C6_13  and  C7_14 
REMARK    7  A    between atoms: C7_14  and  N3_15 
REMARK    8  A    between atoms: C9_17  and  N4_18 
REMARK    9  A    between atoms: N4_18  and  C10_20 
REMARK   10  A    between atoms: C10_20  and  N5_22 
REMARK   11  A    between atoms: N5_22  and  O5_24 
REMARK       I    between atoms: N6_29  and  C13_31 
REMARK   12  A    between atoms: C13_31  and  O9_33 
REMARK   13  A    between atoms: C18_39  and  O11_40 
REMARK   14  A    between atoms: C18_39  and  C19_42 
REMARK   15  A    between atoms: C19_42  and  O12_43 
ROOT
HETATM    1  C1  UNL     1      -3.798  -1.491  -4.875  1.00  0.00     0.226 C 
HETATM    2  N1  UNL     1      -3.267  -0.803  -4.109  1.00  0.00    -0.416 NA
HETATM    3  C2  UNL     1      -2.596   0.025  -3.168  1.00  0.00     0.357 C 
HETATM    4  O3  UNL     1      -1.663  -0.656  -2.442  1.00  0.00    -0.301 OA
HETATM    5  C4  UNL     1      -2.109  -0.839  -1.145  1.00  0.00     0.326 C 
HETATM    6  C15 UNL     1      -3.564  -0.498  -1.113  1.00  0.00     0.232 C 
HETATM    7  O10 UNL     1      -4.002  -0.087   0.118  1.00  0.00    -0.351 OA
HETATM    8  C16 UNL     1      -4.460  -1.183   0.844  1.00  0.00     0.157 C 
HETATM    9  C17 UNL     1      -4.184  -1.015   2.342  1.00  0.00     0.043 C 
HETATM   10  C18 UNL     1      -5.953  -1.288   0.619  1.00  0.00     0.113 C 
HETATM   11  C20 UNL     1      -6.248  -1.574  -0.826  1.00  0.00     0.120 C 
HETATM   12  S2  UNL     1      -4.629  -1.878  -1.636  1.00  0.00    -0.117 SA
HETATM   13  C21 UNL     1      -3.656   0.552  -2.199  1.00  0.00     0.360 C 
HETATM   14  F1  UNL     1      -3.363   1.812  -1.752  1.00  0.00    -0.194 F 
HETATM   15  F2  UNL     1      -4.877   0.500  -2.816  1.00  0.00    -0.194 F 
ENDROOT
BRANCH   3  16
HETATM   16  C3  UNL     1      -1.964   1.138  -3.913  1.00  0.00     0.253 C 
HETATM   17  O1  UNL     1      -0.725   1.307  -3.790  1.00  0.00    -0.643 OA
HETATM   18  O2  UNL     1      -2.726   1.983  -4.733  1.00  0.00    -0.643 OA
ENDBRANCH   3  16
BRANCH   5  19
HETATM   19  O4  UNL     1      -1.456   0.064  -0.240  1.00  0.00    -0.286 OA
BRANCH  19  20
HETATM   20  C5  UNL     1      -0.052   0.008  -0.116  1.00  0.00     0.226 C 
HETATM   21  N2  UNL     1       0.552  -0.591  -1.079  1.00  0.00    -0.354 N 
ATOM     22  H2  UNL     1       0.021  -0.983  -1.856  1.00  0.00     0.163 HD
BRANCH  21  23
HETATM   23  C6  UNL     1       1.986  -0.702  -1.048  1.00  0.00     0.145 C 
BRANCH  23  24
HETATM   24  C7  UNL     1       2.664   0.548  -1.553  1.00  0.00     0.175 C 
BRANCH  24  25
HETATM   25  N3  UNL     1       4.111   0.278  -1.455  1.00  0.00    -0.256 N 
HETATM   26  C8  UNL     1       4.843   0.557  -0.367  1.00  0.00     0.153 A 
HETATM   27  C9  UNL     1       6.141   0.183  -0.608  1.00  0.00     0.130 A 
HETATM   28  C12 UNL     1       6.089  -0.333  -1.919  1.00  0.00     0.333 A 
HETATM   29  O6  UNL     1       7.057  -0.801  -2.569  1.00  0.00    -0.256 OA
HETATM   30  O7  UNL     1       4.862  -0.236  -2.333  1.00  0.00    -0.192 OA
BRANCH  27  31
HETATM   31  N4  UNL     1       7.310   0.249   0.185  1.00  0.00    -0.326 N 
ATOM     32  H4  UNL     1       8.162  -0.111  -0.246  1.00  0.00     0.168 HD
BRANCH  31  33
HETATM   33  C10 UNL     1       7.445   0.741   1.475  1.00  0.00     0.196 C 
HETATM   34  S1  UNL     1       6.220   1.349   2.321  1.00  0.00    -0.039 SA
BRANCH  33  35
HETATM   35  N5  UNL     1       8.730   0.714   2.099  1.00  0.00    -0.241 N 
ATOM     36  H5  UNL     1       8.831   1.075   3.047  1.00  0.00     0.197 HD
BRANCH  35  37
HETATM   37  O5  UNL     1       9.815   0.220   1.460  1.00  0.00    -0.283 OA
HETATM   38  C11 UNL     1       9.863  -1.146   1.776  1.00  0.00     0.237 C 
ENDBRANCH  35  37
ENDBRANCH  33  35
ENDBRANCH  31  33
ENDBRANCH  27  31
ENDBRANCH  24  25
ENDBRANCH  23  24
ENDBRANCH  21  23
BRANCH  20  39
HETATM   39  N6  UNL     1       0.599   0.586   1.011  1.00  0.00    -0.268 N 
HETATM   40  C13 UNL     1      -0.153   1.232   2.030  1.00  0.00     0.367 C 
HETATM   41  O8  UNL     1      -1.407   1.314   1.968  1.00  0.00    -0.238 OA
ATOM     42  H6  UNL     1       1.615   0.536   1.088  1.00  0.00     0.174 HD
BRANCH  40  43
HETATM   43  O9  UNL     1       0.452   1.799   3.132  1.00  0.00    -0.309 OA
HETATM   44  C14 UNL     1      -0.293   2.444   4.149  1.00  0.00     0.215 C 
ENDBRANCH  40  43
ENDBRANCH  20  39
ENDBRANCH  19  20
ENDBRANCH   5  19
BRANCH  10  45
HETATM   45  O11 UNL     1      -6.484  -2.333   1.373  1.00  0.00    -0.384 OA
ATOM     46  H11 UNL     1      -7.421  -2.399   1.232  1.00  0.00     0.210 HD
ENDBRANCH  10  45
BRANCH  10  47
HETATM   47  C19 UNL     1      -6.585  -0.001   1.091  1.00  0.00     0.205 C 
BRANCH  47  48
HETATM   48  O12 UNL     1      -6.135   1.116   0.414  1.00  0.00    -0.398 OA
ATOM     49  H12 UNL     1      -6.533   1.926   0.711  1.00  0.00     0.209 HD
ENDBRANCH  47  48
ENDBRANCH  10  47
TORSDOF 15
