REMARK  11 active torsions:
REMARK  status: ('A' for Active; 'I' for Inactive)
REMARK    1  A    between atoms: O1_2  and  C2_3 
REMARK    2  A    between atoms: C2_3  and  C3_5 
REMARK    3  A    between atoms: C3_5  and  N1_6 
REMARK    4  A    between atoms: N1_6  and  N2_8 
REMARK    5  A    between atoms: N2_8  and  C4_10 
REMARK    6  A    between atoms: C5_13  and  O3_14 
REMARK    7  A    between atoms: C6_16  and  N4_17 
REMARK       I    between atoms: N5_19  and  C7_21 
REMARK       I    between atoms: C7_21  and  N6_23 
REMARK    8  A    between atoms: N6_23  and  S1_25 
REMARK    9  A    between atoms: S1_25  and  O7_28 
REMARK   10  A    between atoms: O7_28  and  C8_29 
REMARK   11  A    between atoms: N7_32  and  C11_33 
ROOT
HETATM    1  N4  UNL     1       2.813   0.482  -3.692  1.00  0.00    -0.286 N 
ATOM      2  H4  UNL     1       2.840   0.807  -4.658  1.00  0.00     0.188 HD
HETATM    3  N5  UNL     1       1.703   0.352  -3.235  1.00  0.00    -0.250 N 
ATOM      4  H5  UNL     1       0.972   0.595  -3.904  1.00  0.00     0.192 HD
HETATM    5  C7  UNL     1       1.188  -0.056  -1.998  1.00  0.00     0.349 C 
HETATM    6  O4  UNL     1       1.511  -1.160  -1.457  1.00  0.00    -0.244 OA
HETATM    7  N6  UNL     1       0.275   0.789  -1.328  1.00  0.00    -0.212 N 
ATOM      8  H6  UNL     1       0.011   1.679  -1.751  1.00  0.00     0.185 HD
ENDROOT
BRANCH   7   9
HETATM    9  S1  UNL     1      -0.391   0.346   0.173  1.00  0.00     0.366 S 
HETATM   10  O5  UNL     1       0.044   1.389   1.200  1.00  0.00    -0.175 OA
HETATM   11  O6  UNL     1       0.044  -1.008   0.650  1.00  0.00    -0.175 OA
BRANCH   9  12
HETATM   12  O7  UNL     1      -2.064   0.461   0.070  1.00  0.00    -0.253 OA
BRANCH  12  13
HETATM   13  C8  UNL     1      -2.663  -0.821   0.154  1.00  0.00     0.161 C 
HETATM   14  C9  UNL     1      -3.551  -0.959  -1.033  1.00  0.00     0.055 C 
HETATM   15  C10 UNL     1      -5.010  -0.835  -0.796  1.00  0.00     0.144 C 
HETATM   16  N7  UNL     1      -5.403  -0.049   0.337  1.00  0.00    -0.216 N 
HETATM   17  C15 UNL     1      -4.435   0.387   1.294  1.00  0.00     0.159 C 
HETATM   18  C16 UNL     1      -3.464  -0.795   1.448  1.00  0.00     0.107 C 
HETATM   19 BR1  UNL     1      -2.314  -0.579   2.970  1.00  0.00    -0.087 Br
BRANCH  16  20
HETATM   20  C11 UNL     1      -6.761   0.306   0.498  1.00  0.00     0.696 A 
HETATM   21  N8  UNL     1      -7.254   0.684   1.701  1.00  0.00    -0.180 N 
HETATM   22  C12 UNL     1      -8.541   1.026   1.863  1.00  0.00     0.109 A 
ATOM     23  H8  UNL     1      -6.629   0.709   2.507  1.00  0.00     0.185 HD
HETATM   24  C13 UNL     1      -9.088   1.435   3.176  1.00  0.00     0.090 C 
HETATM   25  N9  UNL     1      -9.352   0.991   0.808  1.00  0.00    -0.180 N 
HETATM   26  C14 UNL     1      -8.915   0.617  -0.433  1.00  0.00     0.691 A 
ATOM     27  H9  UNL     1     -10.331   1.251   0.929  1.00  0.00     0.185 HD
HETATM   28  N10 UNL     1      -9.637   0.588  -1.374  1.00  0.00    -0.234 N 
HETATM   29  N11 UNL     1      -7.594   0.280  -0.534  1.00  0.00    -0.022 N 
ATOM     30 2H10 UNL     1     -10.623   0.839  -1.299  1.00  0.00     0.174 HD
ATOM     31 1H10 UNL     1      -9.311   0.309  -2.299  1.00  0.00     0.174 HD
ATOM     32  H11 UNL     1      -7.232  -0.004  -1.444  1.00  0.00     0.203 HD
ENDBRANCH  16  20
ENDBRANCH  12  13
ENDBRANCH   9  12
ENDBRANCH   7   9
BRANCH   1  33
HETATM   33  C6  UNL     1       4.092   0.256  -3.103  1.00  0.00     0.143 A 
HETATM   34  C5  UNL     1       4.579   0.711  -1.908  1.00  0.00     0.178 A 
HETATM   35  N3  UNL     1       5.795   0.398  -1.575  1.00  0.00    -0.314 N 
HETATM   36  C4  UNL     1       6.539  -0.346  -2.385  1.00  0.00     0.167 A 
ATOM     37  H3  UNL     1       6.179   0.725  -0.689  1.00  0.00     0.170 HD
HETATM   38  S2  UNL     1       5.433  -0.620  -3.706  1.00  0.00    -0.029 SA
BRANCH  34  39
HETATM   39  O3  UNL     1       3.720   1.509  -1.083  1.00  0.00    -0.344 OA
ATOM     40  H3  UNL     1       2.831   1.738  -1.327  1.00  0.00     0.219 HD
ENDBRANCH  34  39
BRANCH  36  41
HETATM   41  N2  UNL     1       7.738  -0.767  -2.308  1.00  0.00    -0.283 N 
ATOM     42  H2  UNL     1       7.979  -1.322  -3.129  1.00  0.00     0.188 HD
BRANCH  41  43
HETATM   43  N1  UNL     1       8.767  -0.695  -1.472  1.00  0.00    -0.325 N 
ATOM     44  H1  UNL     1       9.694  -0.912  -1.837  1.00  0.00     0.180 HD
BRANCH  43  45
HETATM   45  C3  UNL     1       8.659  -0.330  -0.082  1.00  0.00     0.250 C 
BRANCH  45  46
HETATM   46  C2  UNL     1       9.984  -0.394   0.625  1.00  0.00     0.277 C 
HETATM   47  O2  UNL     1      11.022  -0.727  -0.021  1.00  0.00    -0.263 OA
BRANCH  46  48
HETATM   48  O1  UNL     1      10.130  -0.105   1.962  1.00  0.00    -0.325 OA
HETATM   49  C1  UNL     1      11.387  -0.160   2.638  1.00  0.00     0.213 C 
ENDBRANCH  46  48
ENDBRANCH  45  46
ENDBRANCH  43  45
ENDBRANCH  41  43
ENDBRANCH  36  41
ENDBRANCH   1  33
TORSDOF 11
