REMARK  5 active torsions:
REMARK  status: ('A' for Active; 'I' for Inactive)
REMARK    1  A    between atoms: C2_2  and  C3_3 
REMARK    2  A    between atoms: C6_6  and  N1_7 
REMARK    3  A    between atoms: N1_7  and  C7_9 
REMARK    4  A    between atoms: C7_9  and  C8_10 
REMARK    5  A    between atoms: C11_13  and  C12_14 
ROOT
HETATM    1  C8  UNL     1      -0.936  -0.211  -0.364  1.00  0.00    -0.041 A 
HETATM    2  C9  UNL     1      -1.798  -1.019  -1.118  1.00  0.00     0.009 A 
HETATM    3  C10 UNL     1      -3.164  -0.881  -1.029  1.00  0.00     0.013 A 
HETATM    4  C11 UNL     1      -3.752   0.047  -0.203  1.00  0.00    -0.026 A 
HETATM    5  C18 UNL     1      -2.925   0.844   0.541  1.00  0.00     0.013 A 
HETATM    6  C19 UNL     1      -1.534   0.707   0.453  1.00  0.00     0.009 A 
ENDROOT
BRANCH   1   7
HETATM    7  C7  UNL     1       0.513  -0.424  -0.528  1.00  0.00     0.158 C 
BRANCH   7   8
HETATM    8  N1  UNL     1       1.325   0.115   0.535  1.00  0.00    -0.386 N 
ATOM      9  H1  UNL     1       0.906   0.588   1.336  1.00  0.00     0.160 HD
BRANCH   8  10
HETATM   10  C6  UNL     1       2.745  -0.042   0.420  1.00  0.00     0.028 A 
HETATM   11  C5  UNL     1       3.585   0.457   1.420  1.00  0.00     0.029 A 
HETATM   12  C4  UNL     1       4.958   0.302   1.301  1.00  0.00     0.009 A 
HETATM   13  C3  UNL     1       5.531  -0.335   0.220  1.00  0.00    -0.058 A 
HETATM   14  C21 UNL     1       4.674  -0.816  -0.748  1.00  0.00     0.009 A 
HETATM   15  C20 UNL     1       3.308  -0.670  -0.646  1.00  0.00     0.029 A 
BRANCH  13  16
HETATM   16  C2  UNL     1       6.966  -0.527   0.044  1.00  0.00     0.034 C 
HETATM   17  C1  UNL     1       7.661   0.580  -0.691  1.00  0.00     0.010 C 
ENDBRANCH  13  16
ENDBRANCH   8  10
ENDBRANCH   7   8
ENDBRANCH   1   7
BRANCH   4  18
HETATM   18  C12 UNL     1      -5.206   0.158  -0.139  1.00  0.00    -0.026 A 
HETATM   19  C13 UNL     1      -6.032  -0.929  -0.316  1.00  0.00     0.012 A 
HETATM   20  C14 UNL     1      -7.414  -0.791  -0.250  1.00  0.00     0.001 A 
HETATM   21  C15 UNL     1      -7.991   0.439  -0.007  1.00  0.00     0.000 A 
HETATM   22  C16 UNL     1      -7.166   1.537   0.171  1.00  0.00     0.001 A 
HETATM   23  C17 UNL     1      -5.782   1.387   0.103  1.00  0.00     0.012 A 
ENDBRANCH   4  18
TORSDOF 5
