REMARK  2 active torsions:
REMARK  status: ('A' for Active; 'I' for Inactive)
REMARK    1  A    between atoms: C5_5  and  O1_6 
REMARK    2  A    between atoms: N1_18  and  O2_20 
ROOT
HETATM    1  C1  UNL     1       0.177  -2.949  -1.296  1.00  0.00     0.015 C 
HETATM    2  C2  UNL     1       0.751  -2.159  -0.417  1.00  0.00    -0.084 C 
HETATM    3  C3  UNL     1       2.245  -2.318  -0.181  1.00  0.00     0.036 C 
HETATM    4  C4  UNL     1       2.877  -0.998  -0.496  1.00  0.00     0.036 C 
HETATM    5  C5  UNL     1       2.246   0.081   0.347  1.00  0.00     0.127 C 
HETATM    6  C7  UNL     1       0.795   0.245   0.204  1.00  0.00     0.036 C 
HETATM    7  C8  UNL     1       0.126  -1.107   0.410  1.00  0.00     0.028 C 
HETATM    8  C9  UNL     1      -1.337  -1.048   0.472  1.00  0.00     0.022 C 
HETATM    9  C10 UNL     1      -1.862  -1.334   1.900  1.00  0.00     0.064 C 
HETATM   10 BR1  UNL     1      -0.704  -0.614   3.251  1.00  0.00    -0.091 Br
HETATM   11  C11 UNL     1      -3.227  -0.634   1.937  1.00  0.00     0.017 C 
HETATM   12  C12 UNL     1      -2.854   0.645   1.210  1.00  0.00     0.017 C 
HETATM   13  C13 UNL     1      -2.028   0.147   0.001  1.00  0.00     0.003 C 
HETATM   14  C14 UNL     1      -3.061  -0.110  -1.072  1.00  0.00     0.022 C 
HETATM   15  C15 UNL     1      -1.191   1.304  -0.458  1.00  0.00     0.027 C 
HETATM   16  N1  UNL     1      -1.790   2.421  -0.413  1.00  0.00    -0.276 N 
ATOM     17  H1  UNL     1      -2.753   2.404  -0.077  1.00  0.00     0.193 HD
HETATM   18  C16 UNL     1       0.205   1.025  -0.899  1.00  0.00     0.000 C 
HETATM   19  C17 UNL     1       0.094   0.341  -2.233  1.00  0.00     0.021 C 
HETATM   20  C18 UNL     1       0.936   2.301  -1.128  1.00  0.00     0.021 C 
ENDROOT
BRANCH  16  21
HETATM   21  O2  UNL     1      -1.307   3.613  -0.754  1.00  0.00    -0.290 OA
ATOM     22  H2  UNL     1      -1.756   4.450  -0.720  1.00  0.00     0.244 HD
ENDBRANCH  16  21
BRANCH   5  23
HETATM   23  O1  UNL     1       3.037   1.190   0.330  1.00  0.00    -0.390 OA
HETATM   24  C6  UNL     1       3.721   1.457   1.491  1.00  0.00     0.202 C 
ENDBRANCH   5  23
TORSDOF 2
