REMARK  2 active torsions:
REMARK  status: ('A' for Active; 'I' for Inactive)
REMARK    1  A    between atoms: C1_2  and  N1_3 
REMARK    2  A    between atoms: N1_3  and  C2_5 
ROOT
HETATM    1  C2  UNL     1       0.662   0.567   0.867  1.00  0.00     0.081 C 
HETATM    2  C3  UNL     1       0.139   1.319  -0.350  1.00  0.00     0.025 C 
HETATM    3  C4  UNL     1      -1.252   0.924  -0.722  1.00  0.00     0.002 C 
HETATM    4  C5  UNL     1      -1.514  -0.542  -0.694  1.00  0.00     0.000 C 
HETATM    5  C6  UNL     1      -0.940  -1.228   0.537  1.00  0.00     0.002 C 
HETATM    6  C7  UNL     1       0.545  -0.912   0.532  1.00  0.00     0.025 C 
ENDROOT
BRANCH   1   7
HETATM    7  N1  UNL     1       2.072   0.853   1.000  1.00  0.00    -0.386 N 
ATOM      8  H1  UNL     1       2.370   1.618   1.606  1.00  0.00     0.160 HD
BRANCH   7   9
HETATM    9  C1  UNL     1       2.955   0.170   0.376  1.00  0.00     0.166 C 
HETATM   10  S1  UNL     1       3.845  -0.771  -0.617  1.00  0.00    -0.075 SA
ENDBRANCH   7   9
ENDBRANCH   1   7
TORSDOF 2
