REMARK  4 active torsions:
REMARK  status: ('A' for Active; 'I' for Inactive)
REMARK    1  A    between atoms: O1_2  and  C2_3 
REMARK    2  A    between atoms: C2_3  and  O2_4 
REMARK    3  A    between atoms: C7_10  and  C8_11 
REMARK    4  A    between atoms: C9_12  and  C10_13 
ROOT
HETATM    1  C2  UNL     1      -1.889   0.376   0.113  1.00  0.00     0.172 C 
HETATM    2  C3  UNL     1      -2.146  -0.377  -1.150  1.00  0.00     0.096 C 
HETATM    3  C4  UNL     1      -1.408  -1.651  -1.267  1.00  0.00    -0.018 C 
HETATM    4  C5  UNL     1      -0.158  -1.711  -0.810  1.00  0.00    -0.079 C 
HETATM    5  C6  UNL     1       0.584  -2.968  -0.920  1.00  0.00     0.044 C 
HETATM    6  C7  UNL     1       0.377  -0.450  -0.213  1.00  0.00     0.049 C 
HETATM    7  C12 UNL     1      -0.660  -0.089   0.867  1.00  0.00     0.020 C 
HETATM    8  C13 UNL     1      -0.127   1.013   1.755  1.00  0.00     0.021 C 
HETATM    9  C14 UNL     1      -1.031  -1.286   1.692  1.00  0.00     0.021 C 
ENDROOT
BRANCH   6  10
HETATM   10  C8  UNL     1       1.664  -0.617   0.439  1.00  0.00    -0.013 C 
HETATM   11  C9  UNL     1       2.779   0.012   0.264  1.00  0.00     0.046 C 
BRANCH  11  12
HETATM   12  C10 UNL     1       3.111   1.085  -0.636  1.00  0.00     0.145 C 
HETATM   13  C11 UNL     1       4.472   1.698  -0.701  1.00  0.00     0.096 C 
HETATM   14  O3  UNL     1       2.265   1.557  -1.411  1.00  0.00    -0.294 OA
ENDBRANCH  11  12
ENDBRANCH   6  10
BRANCH   1  15
HETATM   15  O1  UNL     1      -1.688   1.732  -0.171  1.00  0.00    -0.359 OA
HETATM   16  C1  UNL     1      -2.795   2.315  -0.753  1.00  0.00     0.205 C 
ENDBRANCH   1  15
BRANCH   1  17
HETATM   17  O2  UNL     1      -2.982   0.290   1.005  1.00  0.00    -0.364 OA
ATOM     18  H2  UNL     1      -3.118  -0.630   1.198  1.00  0.00     0.213 HD
ENDBRANCH   1  17
TORSDOF 4
