REMARK  8 active torsions:
REMARK  status: ('A' for Active; 'I' for Inactive)
REMARK    1  A    between atoms: C3_5  and  C4_6 
REMARK    2  A    between atoms: C6_9  and  N2_10 
REMARK       I    between atoms: N2_10  and  C7_12 
REMARK    3  A    between atoms: C7_12  and  C8_14 
REMARK    4  A    between atoms: C8_14  and  C9_16 
REMARK    5  A    between atoms: C9_16  and  C10_17 
REMARK    6  A    between atoms: C10_17  and  C11_18 
REMARK    7  A    between atoms: C11_18  and  C12_19 
REMARK    8  A    between atoms: C12_19  and  N3_20 
ROOT
HETATM    1  C1  UNL     1      -4.779  -2.690   1.376  1.00  0.00     0.153 C 
HETATM    2  N1  UNL     1      -4.186  -1.474   0.901  1.00  0.00    -0.343 N 
HETATM    3  C2  UNL     1      -4.741  -0.171   1.004  1.00  0.00     0.234 C 
HETATM    4  O1  UNL     1      -5.883   0.108   1.387  1.00  0.00    -0.272 OA
HETATM    5  C3  UNL     1      -3.736   0.897   0.571  1.00  0.00     0.083 C 
HETATM    6  C5  UNL     1      -2.456   0.620   1.321  1.00  0.00     0.053 C 
HETATM    7  C6  UNL     1      -1.968  -0.772   1.186  1.00  0.00     0.115 C 
HETATM    8  C14 UNL     1      -2.888  -1.542   0.245  1.00  0.00     0.167 C 
HETATM    9  C15 UNL     1      -3.049  -0.763  -1.007  1.00  0.00     0.088 A 
HETATM   10  O3  UNL     1      -2.876  -0.985  -2.276  1.00  0.00    -0.303 OA
HETATM   11  C16 UNL     1      -3.182   0.074  -2.974  1.00  0.00     0.140 A 
HETATM   12 BR2  UNL     1      -3.112   0.300  -4.868  1.00  0.00    -0.021 Br
HETATM   13  C17 UNL     1      -3.596   1.093  -2.101  1.00  0.00     0.062 A 
HETATM   14 BR3  UNL     1      -4.197   2.824  -2.604  1.00  0.00    -0.047 Br
HETATM   15  C18 UNL     1      -3.508   0.558  -0.849  1.00  0.00     0.013 A 
ENDROOT
BRANCH   7  16
HETATM   16  N2  UNL     1      -0.597  -0.856   0.824  1.00  0.00    -0.352 N 
HETATM   17  C7  UNL     1       0.412  -1.453   1.587  1.00  0.00     0.252 C 
HETATM   18  O2  UNL     1       0.075  -1.966   2.702  1.00  0.00    -0.270 OA
ATOM     19  H2  UNL     1      -0.325  -0.446  -0.069  1.00  0.00     0.163 HD
BRANCH  17  20
HETATM   20  C8  UNL     1       1.829  -1.535   1.204  1.00  0.00     0.261 C 
HETATM   21  F1  UNL     1       2.608  -2.168   2.124  1.00  0.00    -0.239 F 
BRANCH  20  22
HETATM   22  C9  UNL     1       2.441  -0.183   0.900  1.00  0.00     0.047 C 
BRANCH  22  23
HETATM   23  C10 UNL     1       3.885  -0.394   0.522  1.00  0.00     0.005 C 
BRANCH  23  24
HETATM   24  C11 UNL     1       4.588   0.901   0.201  1.00  0.00     0.020 C 
BRANCH  24  25
HETATM   25  C12 UNL     1       3.935   1.621  -0.959  1.00  0.00     0.122 C 
BRANCH  25  26
HETATM   26  N3  UNL     1       3.946   0.818  -2.164  1.00  0.00    -0.367 N 
HETATM   27  C13 UNL     1       4.999   0.714  -2.885  1.00  0.00     0.196 C 
HETATM   28  N4  UNL     1       6.228   1.359  -2.583  1.00  0.00    -0.067 NA
HETATM   29  N5  UNL     1       4.964  -0.087  -4.061  1.00  0.00    -0.067 NA
ATOM     30  H3  UNL     1       3.098   0.325  -2.444  1.00  0.00     0.161 HD
ENDBRANCH  25  26
ENDBRANCH  24  25
ENDBRANCH  23  24
ENDBRANCH  22  23
ENDBRANCH  20  22
ENDBRANCH  17  20
ENDBRANCH   7  16
BRANCH   5  31
HETATM   31  C4  UNL     1      -4.232   2.251   0.875  1.00  0.00     0.109 C 
HETATM   32 BR1  UNL     1      -2.934   3.572   0.424  1.00  0.00    -0.095 Br
ENDBRANCH   5  31
TORSDOF 8
