REMARK  5 active torsions:
REMARK  status: ('A' for Active; 'I' for Inactive)
REMARK    1  A    between atoms: C4_5  and  C6_7 
REMARK    2  A    between atoms: C9_10  and  O1_11 
REMARK    3  A    between atoms: O1_11  and  C10_12 
REMARK    4  A    between atoms: C15_17  and  C17_19 
REMARK    5  A    between atoms: C19_23  and  O2_24 
ROOT
HETATM    1  C6  UNL     1       2.168  -0.772   0.076  1.00  0.00     0.027 A 
HETATM    2  C7  UNL     1       1.432  -0.397  -1.016  1.00  0.00     0.016 A 
HETATM    3  C8  UNL     1       0.046  -0.339  -0.937  1.00  0.00     0.041 A 
HETATM    4  C9  UNL     1      -0.645  -0.647   0.211  1.00  0.00     0.110 A 
HETATM    5  C18 UNL     1       0.120  -1.030   1.323  1.00  0.00     0.183 A 
HETATM    6  F1  UNL     1      -0.519  -1.346   2.484  1.00  0.00    -0.200 F 
HETATM    7  C19 UNL     1       1.506  -1.085   1.235  1.00  0.00     0.117 A 
ENDROOT
BRANCH   4   8
HETATM    8  O1  UNL     1      -2.007  -0.615   0.371  1.00  0.00    -0.342 OA
BRANCH   8   9
HETATM    9  C10 UNL     1      -2.968  -0.261  -0.555  1.00  0.00     0.138 C 
HETATM   10  C11 UNL     1      -3.828  -1.445  -0.991  1.00  0.00     0.033 C 
HETATM   11  C12 UNL     1      -4.463  -1.072  -2.298  1.00  0.00     0.002 C 
HETATM   12  C13 UNL     1      -5.153   0.258  -2.129  1.00  0.00     0.001 C 
HETATM   13  C14 UNL     1      -5.295   0.644  -0.674  1.00  0.00     0.013 C 
HETATM   14  C15 UNL     1      -3.967   0.738   0.022  1.00  0.00    -0.005 C 
HETATM   15  C16 UNL     1      -4.188   0.321   1.477  1.00  0.00     0.019 C 
BRANCH  14  16
HETATM   16  C17 UNL     1      -3.484   2.150   0.000  1.00  0.00     0.126 C 
HETATM   17 CL1  UNL     1      -2.000   2.401   0.934  1.00  0.00    -0.130 Cl
ENDBRANCH  14  16
ENDBRANCH   8   9
ENDBRANCH   4   8
BRANCH   7  18
HETATM   18  O2  UNL     1       2.279  -1.461   2.323  1.00  0.00    -0.357 OA
ATOM     19  H2  UNL     1       1.820  -1.678   3.126  1.00  0.00     0.217 HD
ENDBRANCH   7  18
BRANCH   1  20
HETATM   20  C4  UNL     1       3.618  -0.835  -0.001  1.00  0.00     0.234 C 
HETATM   21  S1  UNL     1       4.190  -0.353  -1.685  1.00  0.00    -0.121 SA
HETATM   22  C3  UNL     1       5.046   1.165  -1.159  1.00  0.00     0.112 C 
HETATM   23  C2  UNL     1       4.527   1.313   0.230  1.00  0.00     0.230 C 
HETATM   24  C1  UNL     1       3.344   2.216   0.252  1.00  0.00     0.043 C 
HETATM   25  N1  UNL     1       4.330   0.047   0.843  1.00  0.00     0.113 N 
HETATM   26  C20 UNL     1       5.540  -0.432   1.423  1.00  0.00     0.312 C 
HETATM   27  C5  UNL     1       4.028  -2.297   0.125  1.00  0.00     0.067 C 
ENDBRANCH   1  20
TORSDOF 5
