REMARK  3 active torsions:
REMARK  status: ('A' for Active; 'I' for Inactive)
REMARK    1  A    between atoms: O1_1  and  C1_3 
REMARK    2  A    between atoms: C7_9  and  N1_10 
REMARK    3  A    between atoms: N2_13  and  C10_14 
ROOT
HETATM    1  C1  UNL     1      -3.307  -0.629  -1.017  1.00  0.00     0.059 C 
HETATM    2  C2  UNL     1      -4.478  -0.324  -0.125  1.00  0.00     0.042 C 
HETATM    3  C3  UNL     1      -3.973   0.467   1.077  1.00  0.00    -0.011 C 
HETATM    4  C4  UNL     1      -3.416   1.754   0.543  1.00  0.00     0.011 C 
HETATM    5  C5  UNL     1      -2.164   1.472  -0.309  1.00  0.00     0.012 C 
HETATM    6  C6  UNL     1      -2.670   0.678  -1.476  1.00  0.00     0.044 C 
HETATM    7  C7  UNL     1      -1.217   0.747   0.600  1.00  0.00     0.087 C 
HETATM    8  C16 UNL     1      -1.743  -0.619   0.898  1.00  0.00     0.012 C 
HETATM    9  C17 UNL     1      -2.984  -0.402   1.783  1.00  0.00     0.011 C 
HETATM   10  C18 UNL     1      -2.253  -1.385  -0.279  1.00  0.00     0.044 C 
ENDROOT
BRANCH   7  11
HETATM   11  N1  UNL     1       0.148   0.863   0.296  1.00  0.00    -0.404 N 
HETATM   12  C8  UNL     1       0.686   0.394  -0.904  1.00  0.00     0.147 C 
HETATM   13  C9  UNL     1       2.193   0.729  -0.883  1.00  0.00     0.292 C 
HETATM   14  N2  UNL     1       2.828  -0.250  -0.072  1.00  0.00     0.096 N 
HETATM   15  C14 UNL     1       1.992  -0.584   1.033  1.00  0.00     0.292 C 
HETATM   16  C15 UNL     1       0.999   0.489   1.399  1.00  0.00     0.147 C 
BRANCH  14  17
HETATM   17  C10 UNL     1       4.185   0.045   0.283  1.00  0.00     0.223 C 
HETATM   18  C11 UNL     1       5.169   0.148  -0.829  1.00  0.00     0.036 C 
HETATM   19  C12 UNL     1       6.126  -0.695   0.020  1.00  0.00     0.004 C 
HETATM   20  C13 UNL     1       4.889  -1.252   0.707  1.00  0.00     0.036 C 
ENDBRANCH  14  17
ENDBRANCH   7  11
BRANCH   1  21
HETATM   21  O1  UNL     1      -3.698  -1.372  -2.113  1.00  0.00    -0.390 OA
ATOM     22  H1  UNL     1      -2.958  -1.565  -2.677  1.00  0.00     0.210 HD
ENDBRANCH   1  21
TORSDOF 3
