REMARK  8 active torsions:
REMARK  status: ('A' for Active; 'I' for Inactive)
REMARK    1  A    between atoms: N1_1  and  C1_4 
REMARK    2  A    between atoms: C2_7  and  N3_8 
REMARK    3  A    between atoms: N4_11  and  C5_12 
REMARK    4  A    between atoms: C6_15  and  N6_16 
REMARK    5  A    between atoms: C11_26  and  N9_27 
REMARK    6  A    between atoms: N9_27  and  C12_29 
REMARK    7  A    between atoms: C12_29  and  C13_30 
REMARK    8  A    between atoms: C13_30  and  O1_31 
ROOT
HETATM    1  C5  UNL     1      -0.446   0.661  -0.031  1.00  0.00     0.710 A 
HETATM    2  N5  UNL     1      -0.865  -0.625  -0.235  1.00  0.00    -0.021 N 
ATOM      3  H5  UNL     1      -0.252  -1.388   0.050  1.00  0.00     0.203 HD
HETATM    4  C6  UNL     1      -2.047  -0.927  -0.794  1.00  0.00     0.709 A 
HETATM    5  N8  UNL     1      -2.818   0.101  -1.154  1.00  0.00    -0.021 N 
ATOM      6  H8  UNL     1      -3.722  -0.097  -1.582  1.00  0.00     0.203 HD
HETATM    7  C11 UNL     1      -2.460   1.389  -0.979  1.00  0.00     0.707 A 
HETATM    8  N10 UNL     1      -1.270   1.648  -0.416  1.00  0.00    -0.021 N 
ATOM      9  H10 UNL     1      -0.985   2.617  -0.277  1.00  0.00     0.203 HD
ENDROOT
BRANCH   1  10
HETATM   10  N4  UNL     1       0.806   0.933   0.563  1.00  0.00    -0.198 N 
HETATM   11  C4  UNL     1       1.357   2.238   0.806  1.00  0.00     0.163 C 
HETATM   12  C3  UNL     1       2.843   1.997   0.492  1.00  0.00     0.163 C 
HETATM   13  N3  UNL     1       3.037   0.687   1.083  1.00  0.00    -0.199 N 
HETATM   14  C14 UNL     1       1.774  -0.027   1.045  1.00  0.00     0.286 C 
BRANCH  13  15
HETATM   15  C2  UNL     1       4.263   0.199   1.605  1.00  0.00     0.697 A 
HETATM   16  N2  UNL     1       5.397   0.919   1.599  1.00  0.00    -0.022 N 
HETATM   17  C1  UNL     1       6.559   0.448   2.097  1.00  0.00     0.691 A 
ATOM     18  H2  UNL     1       5.379   1.859   1.202  1.00  0.00     0.203 HD
HETATM   19  N12 UNL     1       6.610  -0.783   2.625  1.00  0.00    -0.187 N 
HETATM   20  C15 UNL     1       5.496  -1.522   2.644  1.00  0.00     0.215 A 
ATOM     21  H12 UNL     1       7.483  -1.149   3.005  1.00  0.00     0.185 HD
HETATM   22  N11 UNL     1       4.337  -1.034   2.139  1.00  0.00    -0.187 N 
ATOM     23  H11 UNL     1       3.500  -1.616   2.164  1.00  0.00     0.185 HD
BRANCH  17  24
HETATM   24  N1  UNL     1       7.648   1.147   2.088  1.00  0.00    -0.234 N 
ATOM     25  H12 UNL     1       7.609   2.084   1.686  1.00  0.00     0.174 HD
ATOM     26  H11 UNL     1       8.527   0.791   2.465  1.00  0.00     0.174 HD
ENDBRANCH  17  24
ENDBRANCH  13  15
ENDBRANCH   1  10
BRANCH   4  27
HETATM   27  N6  UNL     1      -2.428  -2.290  -0.980  1.00  0.00    -0.213 N 
HETATM   28  C7  UNL     1      -3.685  -2.688  -1.541  1.00  0.00     0.168 C 
HETATM   29  C8  UNL     1      -3.847  -4.173  -1.299  1.00  0.00     0.252 C 
HETATM   30  N7  UNL     1      -2.784  -4.960  -1.841  1.00  0.00    -0.072 N 
HETATM   31  C9  UNL     1      -1.485  -4.334  -1.755  1.00  0.00     0.252 C 
ATOM     32  H72 UNL     1      -2.766  -5.883  -1.408  1.00  0.00     0.277 HD
ATOM     33  H71 UNL     1      -2.990  -5.225  -2.804  1.00  0.00     0.277 HD
HETATM   34  C10 UNL     1      -1.510  -3.345  -0.589  1.00  0.00     0.168 C 
ENDBRANCH   4  27
BRANCH   7  35
HETATM   35  N9  UNL     1      -3.202   2.370  -1.327  1.00  0.00    -0.223 N 
ATOM     36  H9  UNL     1      -4.108   2.187  -1.758  1.00  0.00     0.177 HD
BRANCH  35  37
HETATM   37  C12 UNL     1      -2.776   3.727  -1.119  1.00  0.00     0.164 C 
BRANCH  37  38
HETATM   38  C13 UNL     1      -3.780   4.648  -1.794  1.00  0.00     0.184 C 
BRANCH  38  39
HETATM   39  O1  UNL     1      -5.038   4.433  -1.216  1.00  0.00    -0.399 OA
ATOM     40  H1  UNL     1      -5.665   5.008  -1.638  1.00  0.00     0.209 HD
ENDBRANCH  38  39
ENDBRANCH  37  38
ENDBRANCH  35  37
ENDBRANCH   7  35
TORSDOF 8
