REMARK  2 active torsions:
REMARK  status: ('A' for Active; 'I' for Inactive)
REMARK    1  A    between atoms: C3_3  and  C4_4 
REMARK    2  A    between atoms: C4_4  and  N1_7 
ROOT
HETATM    1  C1  UNL     1       3.183   0.829   0.363  1.00  0.00     0.112 C 
HETATM    2  C2  UNL     1       1.789   0.451   0.195  1.00  0.00    -0.108 C 
HETATM    3  C3  UNL     1       0.639   0.137   0.036  1.00  0.00    -0.075 C 
ENDROOT
BRANCH   3   4
HETATM    4  C4  UNL     1      -0.744  -0.233  -0.179  1.00  0.00     0.100 C 
HETATM    5  C5  UNL     1      -1.396  -0.545   1.121  1.00  0.00     0.054 C 
HETATM    6  C6  UNL     1      -0.759  -1.438  -1.115  1.00  0.00     0.054 C 
BRANCH   4   7
HETATM    7  N1  UNL     1      -1.500   0.797  -0.848  1.00  0.00    -0.322 N 
HETATM    8  N2  UNL     1      -2.158   1.653  -0.200  1.00  0.00    -0.348 N 
ATOM      9  H22 UNL     1      -2.145   1.603   0.819  1.00  0.00     0.176 HD
ATOM     10  H21 UNL     1      -2.693   2.381  -0.673  1.00  0.00     0.176 HD
ATOM     11  H1  UNL     1      -1.502   0.833  -1.867  1.00  0.00     0.181 HD
ENDBRANCH   4   7
ENDBRANCH   3   4
TORSDOF 2
