REMARK  16 active torsions:
REMARK  status: ('A' for Active; 'I' for Inactive)
REMARK    1  A    between atoms: C3_3  and  C4_4 
REMARK    2  A    between atoms: C5_5  and  C6_6 
REMARK    3  A    between atoms: C8_8  and  C9_9 
REMARK    4  A    between atoms: C14_17  and  O3_18 
REMARK    5  A    between atoms: C17_24  and  C18_25 
REMARK    6  A    between atoms: C18_25  and  O6_26 
REMARK    7  A    between atoms: C18_25  and  C19_28 
REMARK    8  A    between atoms: C19_28  and  O7_29 
REMARK    9  A    between atoms: C19_28  and  C20_31 
REMARK   10  A    between atoms: C20_31  and  O8_32 
REMARK   11  A    between atoms: C21_35  and  C22_36 
REMARK   12  A    between atoms: C22_36  and  N2_37 
REMARK   13  A    between atoms: C22_36  and  C23_41 
REMARK   14  A    between atoms: C23_41  and  O11_43 
REMARK   15  A    between atoms: O11_43  and  C24_44 
REMARK   16  A    between atoms: C24_44  and  N3_45 
ROOT
HETATM    1  C9  UNL     1       6.448   1.986   0.426  1.00  0.00     0.044 A 
HETATM    2  C10 UNL     1       6.254   2.562  -0.800  1.00  0.00     0.065 A 
HETATM    3  C11 UNL     1       6.371   1.773  -2.012  1.00  0.00     0.100 C 
HETATM    4  N1  UNL     1       6.480   1.158  -2.990  1.00  0.00    -0.191 NA
HETATM    5  C12 UNL     1       5.990   3.928  -0.924  1.00  0.00     0.106 A 
HETATM    6  C13 UNL     1       5.938   4.658   0.241  1.00  0.00     0.291 A 
HETATM    7  O1  UNL     1       5.694   5.902   0.084  1.00  0.00    -0.260 OA
HETATM    8  O2  UNL     1       6.122   4.117   1.398  1.00  0.00    -0.251 OA
HETATM    9  C14 UNL     1       6.369   2.838   1.527  1.00  0.00     0.198 A 
ENDROOT
BRANCH   1  10
HETATM   10  C8  UNL     1       6.670   0.565   0.588  1.00  0.00     0.024 C 
HETATM   11  C6  UNL     1       5.849  -0.399   0.353  1.00  0.00    -0.061 C 
HETATM   12  C7  UNL     1       6.285  -1.816   0.581  1.00  0.00     0.048 C 
BRANCH  11  13
HETATM   13  C5  UNL     1       4.458  -0.245  -0.143  1.00  0.00     0.003 C 
HETATM   14  C4  UNL     1       3.689  -1.258  -0.368  1.00  0.00    -0.015 C 
BRANCH  14  15
HETATM   15  C3  UNL     1       2.351  -1.448  -0.836  1.00  0.00     0.063 C 
HETATM   16  C2  UNL     1       1.565  -0.275  -1.287  1.00  0.00    -0.046 C 
HETATM   17  C1  UNL     1       1.996   0.829  -1.767  1.00  0.00     0.018 C 
HETATM   18  C28 UNL     1       0.045  -0.550  -1.264  1.00  0.00     0.209 C 
HETATM   19  C16 UNL     1      -0.088  -1.932  -1.873  1.00  0.00     0.296 C 
HETATM   20  O15 UNL     1      -0.385  -0.421   0.014  1.00  0.00    -0.344 OA
HETATM   21  O4  UNL     1       0.994  -2.189  -2.677  1.00  0.00    -0.357 OA
HETATM   22  O5  UNL     1      -0.283  -2.949  -0.984  1.00  0.00    -0.326 OA
HETATM   23  C15 UNL     1       2.221  -2.387  -2.066  1.00  0.00     0.184 C 
HETATM   24  C17 UNL     1      -1.225  -2.683  -0.002  1.00  0.00     0.297 C 
HETATM   25  O9  UNL     1      -2.164  -1.711  -0.408  1.00  0.00    -0.326 OA
HETATM   26  C21 UNL     1      -1.766  -0.516   0.150  1.00  0.00     0.304 C 
BRANCH  24  27
HETATM   27  C18 UNL     1      -1.888  -3.880   0.599  1.00  0.00     0.204 C 
BRANCH  27  28
HETATM   28  O6  UNL     1      -2.782  -3.328   1.581  1.00  0.00    -0.388 OA
ATOM     29  H6  UNL     1      -3.203  -4.089   1.963  1.00  0.00     0.210 HD
ENDBRANCH  27  28
BRANCH  27  30
HETATM   30  C19 UNL     1      -2.763  -4.683  -0.295  1.00  0.00     0.175 C 
BRANCH  30  31
HETATM   31  O7  UNL     1      -3.732  -3.960  -0.971  1.00  0.00    -0.391 OA
ATOM     32  H7  UNL     1      -4.291  -4.473  -1.542  1.00  0.00     0.210 HD
ENDBRANCH  30  31
BRANCH  30  33
HETATM   33  C20 UNL     1      -2.105  -5.749  -1.100  1.00  0.00     0.198 C 
BRANCH  33  34
HETATM   34  O8  UNL     1      -1.511  -5.206  -2.224  1.00  0.00    -0.398 OA
ATOM     35  H8  UNL     1      -1.091  -5.886  -2.738  1.00  0.00     0.209 HD
ENDBRANCH  33  34
ENDBRANCH  30  33
ENDBRANCH  27  30
ENDBRANCH  24  27
BRANCH  26  36
HETATM   36  C22 UNL     1      -2.444   0.692  -0.413  1.00  0.00     0.337 C 
BRANCH  36  37
HETATM   37  N2  UNL     1      -1.921   1.861   0.268  1.00  0.00    -0.061 N 
ATOM     38  H23 UNL     1      -2.008   1.798   1.282  1.00  0.00     0.275 HD
ATOM     39  H22 UNL     1      -0.904   1.922   0.221  1.00  0.00     0.275 HD
ATOM     40  H21 UNL     1      -2.383   2.685  -0.116  1.00  0.00     0.275 HD
ENDBRANCH  36  37
BRANCH  36  41
HETATM   41  C23 UNL     1      -3.906   0.648  -0.254  1.00  0.00     0.296 C 
HETATM   42  O10 UNL     1      -4.605  -0.294  -0.745  1.00  0.00    -0.263 OA
BRANCH  41  43
HETATM   43  O11 UNL     1      -4.552   1.638   0.436  1.00  0.00    -0.299 OA
BRANCH  43  44
HETATM   44  C24 UNL     1      -5.950   1.685   0.643  1.00  0.00     0.319 C 
BRANCH  44  45
HETATM   45  N3  UNL     1      -6.232   2.883   1.410  1.00  0.00    -0.228 N 
HETATM   46  C25 UNL     1      -6.260   2.932   2.750  1.00  0.00     0.336 A 
HETATM   47  O12 UNL     1      -6.028   1.877   3.386  1.00  0.00    -0.246 OA
HETATM   48  N4  UNL     1      -6.521   4.043   3.453  1.00  0.00    -0.260 N 
HETATM   49  C26 UNL     1      -6.773   5.191   2.802  1.00  0.00     0.332 A 
ATOM     50  H4  UNL     1      -6.528   4.017   4.473  1.00  0.00     0.175 HD
HETATM   51  O13 UNL     1      -7.022   6.252   3.435  1.00  0.00    -0.246 OA
HETATM   52  N5  UNL     1      -6.751   5.170   1.464  1.00  0.00    -0.260 N 
HETATM   53  C27 UNL     1      -6.490   4.058   0.766  1.00  0.00     0.336 A 
ATOM     54  H5  UNL     1      -6.940   6.034   0.957  1.00  0.00     0.175 HD
HETATM   55  O14 UNL     1      -6.483   4.098  -0.486  1.00  0.00    -0.246 OA
ENDBRANCH  44  45
ENDBRANCH  43  44
ENDBRANCH  41  43
ENDBRANCH  36  41
ENDBRANCH  26  36
ENDBRANCH  14  15
ENDBRANCH  11  13
ENDBRANCH   1  10
BRANCH   9  56
HETATM   56  O3  UNL     1       6.568   2.253   2.774  1.00  0.00    -0.340 OA
ATOM     57  H3  UNL     1       6.514   2.833   3.524  1.00  0.00     0.220 HD
ENDBRANCH   9  56
TORSDOF 16
