REMARK  7 active torsions:
REMARK  status: ('A' for Active; 'I' for Inactive)
REMARK    1  A    between atoms: C2_2  and  O1_4 
REMARK    2  A    between atoms: O1_4  and  C3_5 
REMARK    3  A    between atoms: C6_9  and  N1_10 
REMARK    4  A    between atoms: N1_10  and  C7_12 
REMARK    5  A    between atoms: N5_25  and  C14_26 
REMARK    6  A    between atoms: C14_26  and  C15_27 
REMARK    7  A    between atoms: C24_36  and  N6_37 
ROOT
HETATM    1  C7  UNL     1       1.998   0.675   0.019  1.00  0.00     0.115 A 
HETATM    2  N2  UNL     1       2.330   0.132  -1.159  1.00  0.00    -0.338 N 
ATOM      3  H2  UNL     1       3.315  -0.052  -1.347  1.00  0.00     0.168 HD
HETATM    4  C8  UNL     1       1.423  -0.185  -2.112  1.00  0.00     0.182 A 
HETATM    5  N3  UNL     1       0.114   0.035  -1.918  1.00  0.00    -0.351 N 
ATOM      6  H3  UNL     1      -0.570  -0.203  -2.636  1.00  0.00     0.166 HD
HETATM    7  C9  UNL     1      -0.270   0.580  -0.747  1.00  0.00     0.056 A 
HETATM    8  C10 UNL     1       0.634   0.911   0.236  1.00  0.00     0.014 A 
HETATM    9  C11 UNL     1       0.227   1.510   1.504  1.00  0.00     0.051 A 
HETATM   10  C12 UNL     1      -1.217   1.719   1.731  1.00  0.00     0.064 A 
HETATM   11  C13 UNL     1      -2.110   1.338   0.621  1.00  0.00     0.040 A 
HETATM   12  N4  UNL     1      -3.468   1.425   0.519  1.00  0.00    -0.302 N 
ATOM     13  H4  UNL     1      -4.090   1.790   1.240  1.00  0.00     0.186 HD
HETATM   14  N5  UNL     1      -3.851   0.965  -0.652  1.00  0.00    -0.302 N 
HETATM   15  C21 UNL     1      -2.799   0.556  -1.378  1.00  0.00     0.126 A 
HETATM   16  C22 UNL     1      -1.706   0.793  -0.571  1.00  0.00     0.032 A 
ENDROOT
BRANCH   1  17
HETATM   17  N1  UNL     1       2.822   0.986   0.951  1.00  0.00    -0.342 N 
ATOM     18  H1  UNL     1       2.438   1.394   1.803  1.00  0.00     0.167 HD
BRANCH  17  19
HETATM   19  C6  UNL     1       4.208   0.808   0.887  1.00  0.00     0.037 A 
HETATM   20  C5  UNL     1       4.951   1.375  -0.123  1.00  0.00     0.056 A 
HETATM   21  C4  UNL     1       6.324   1.207  -0.202  1.00  0.00     0.072 A 
HETATM   22  C3  UNL     1       6.988   0.452   0.749  1.00  0.00     0.125 A 
HETATM   23 CL2  UNL     1       7.177   1.984  -1.514  1.00  0.00    -0.081 Cl
HETATM   24  C24 UNL     1       6.287  -0.124   1.766  1.00  0.00     0.140 A 
HETATM   25  C23 UNL     1       4.889   0.065   1.818  1.00  0.00     0.068 A 
BRANCH  22  26
HETATM   26  O1  UNL     1       8.357   0.293   0.647  1.00  0.00    -0.327 OA
BRANCH  26  27
HETATM   27  C2  UNL     1       8.967  -0.731  -0.112  1.00  0.00     0.220 C 
HETATM   28  C1  UNL     1       9.996  -1.544   0.590  1.00  0.00     0.057 C 
HETATM   29 CL1  UNL     1       9.831   0.079  -1.473  1.00  0.00    -0.095 Cl
ENDBRANCH  26  27
ENDBRANCH  22  26
BRANCH  24  30
HETATM   30  N6  UNL     1       6.862  -0.889   2.803  1.00  0.00    -0.113 N 
HETATM   31  O2  UNL     1       7.971  -0.629   3.260  1.00  0.00    -0.532 OA
HETATM   32  O3  UNL     1       6.144  -1.923   3.340  1.00  0.00    -0.532 OA
ENDBRANCH  24  30
ENDBRANCH  17  19
ENDBRANCH   1  17
BRANCH  14  33
HETATM   33  C14 UNL     1      -5.219   0.902  -1.100  1.00  0.00     0.152 C 
BRANCH  33  34
HETATM   34  C15 UNL     1      -5.854  -0.445  -0.711  1.00  0.00     0.005 C 
HETATM   35  C16 UNL     1      -5.840  -0.631   0.749  1.00  0.00     0.006 C 
HETATM   36  C17 UNL     1      -7.021  -1.318   1.350  1.00  0.00     0.000 C 
HETATM   37  C18 UNL     1      -8.314  -1.054   0.656  1.00  0.00     0.000 C 
HETATM   38  C19 UNL     1      -8.138  -1.494  -0.785  1.00  0.00     0.000 C 
HETATM   39  C20 UNL     1      -7.152  -0.544  -1.409  1.00  0.00     0.006 C 
ENDBRANCH  33  34
ENDBRANCH  14  33
TORSDOF 7
