REMARK  5 active torsions:
REMARK  status: ('A' for Active; 'I' for Inactive)
REMARK    1  A    between atoms: C5_5  and  C6_6 
REMARK    2  A    between atoms: C8_9  and  C9_10 
REMARK    3  A    between atoms: C9_10  and  C10_11 
REMARK    4  A    between atoms: C10_11  and  C11_12 
REMARK    5  A    between atoms: C16_27  and  C17_28 
ROOT
HETATM    1  C1  UNL     1      -3.481  -0.637  -2.646  1.00  0.00     0.033 C 
HETATM    2  C2  UNL     1      -2.784   0.094  -1.520  1.00  0.00     0.089 C 
HETATM    3  C3  UNL     1      -1.337   0.393  -1.875  1.00  0.00     0.026 C 
HETATM    4  C4  UNL     1      -0.496  -0.832  -1.906  1.00  0.00     0.020 C 
HETATM    5  C5  UNL     1      -0.603  -1.694  -0.712  1.00  0.00     0.107 C 
HETATM    6  C15 UNL     1      -1.830  -1.462   0.076  1.00  0.00     0.110 A 
HETATM    7  N4  UNL     1      -2.189  -2.002   1.282  1.00  0.00    -0.286 N 
ATOM      8  H4  UNL     1      -1.626  -2.660   1.822  1.00  0.00     0.188 HD
HETATM    9  N5  UNL     1      -3.360  -1.548   1.636  1.00  0.00    -0.282 N 
ATOM     10  H5  UNL     1      -3.856  -1.792   2.493  1.00  0.00     0.188 HD
HETATM   11  C16 UNL     1      -3.816  -0.689   0.668  1.00  0.00     0.158 A 
HETATM   12  N6  UNL     1      -2.850  -0.661  -0.271  1.00  0.00    -0.313 N 
ENDROOT
BRANCH   5  13
HETATM   13  C6  UNL     1       0.557  -1.509   0.233  1.00  0.00     0.054 A 
HETATM   14  C7  UNL     1       1.247  -0.373   0.518  1.00  0.00     0.141 A 
HETATM   15  N1  UNL     1       2.215  -0.689   1.432  1.00  0.00    -0.159 N 
HETATM   16  C8  UNL     1       3.205  -0.119   2.143  1.00  0.00     0.050 A 
HETATM   17  C14 UNL     1       2.120  -2.002   1.704  1.00  0.00     0.689 A 
HETATM   18  C13 UNL     1       3.760  -1.148   2.906  1.00  0.00     0.132 A 
HETATM   19  N2  UNL     1       3.074  -2.251   2.605  1.00  0.00    -0.199 N 
ATOM     20  H2  UNL     1       3.255  -3.169   3.011  1.00  0.00     0.183 HD
HETATM   21  N3  UNL     1       1.106  -2.490   0.966  1.00  0.00    -0.193 N 
ATOM     22  H3  UNL     1       0.800  -3.463   0.964  1.00  0.00     0.184 HD
BRANCH  16  23
HETATM   23  C9  UNL     1       3.670   1.273   2.147  1.00  0.00     0.062 C 
BRANCH  23  24
HETATM   24  C10 UNL     1       4.851   1.624   1.351  1.00  0.00     0.048 C 
BRANCH  24  25
HETATM   25  C11 UNL     1       4.872   1.406  -0.110  1.00  0.00     0.110 C 
HETATM   26  C12 UNL     1       6.233   1.897  -0.692  1.00  0.00     0.050 C 
HETATM   27 CL1  UNL     1       3.643   2.228  -1.040  1.00  0.00    -0.102 Cl
HETATM   28 CL2  UNL     1       4.930  -0.365  -0.438  1.00  0.00    -0.102 Cl
ENDBRANCH  24  25
ENDBRANCH  23  24
ENDBRANCH  16  23
ENDBRANCH   5  13
BRANCH  11  29
HETATM   29  C17 UNL     1      -5.100  -0.005   0.747  1.00  0.00     0.120 A 
HETATM   30  C18 UNL     1      -5.771   0.824  -0.085  1.00  0.00     0.043 A 
HETATM   31  C19 UNL     1      -6.973   1.176   0.530  1.00  0.00     0.027 A 
HETATM   32  C20 UNL     1      -6.969   0.525   1.736  1.00  0.00     0.142 A 
HETATM   33  O1  UNL     1      -5.878  -0.144   1.827  1.00  0.00    -0.319 OA
ENDBRANCH  11  29
TORSDOF 5
