REMARK  8 active torsions:
REMARK  status: ('A' for Active; 'I' for Inactive)
REMARK    1  A    between atoms: C2_2  and  C3_3 
REMARK    2  A    between atoms: C4_4  and  C5_5 
REMARK    3  A    between atoms: C7_7  and  O1_8 
REMARK    4  A    between atoms: C17_19  and  C18_20 
REMARK    5  A    between atoms: C18_20  and  O2_21 
REMARK    6  A    between atoms: C18_20  and  C19_23 
REMARK    7  A    between atoms: C19_23  and  C21_25 
REMARK    8  A    between atoms: C21_25  and  C22_26 
ROOT
HETATM    1  C5  UNL     1      -0.495   0.918  -0.189  1.00  0.00     0.017 C 
HETATM    2  C6  UNL     1      -1.854   0.648  -0.717  1.00  0.00     0.048 C 
HETATM    3  C7  UNL     1      -2.566  -0.601  -0.513  1.00  0.00     0.073 C 
HETATM    4  C8  UNL     1      -3.957  -0.326  -1.167  1.00  0.00     0.039 C 
HETATM    5  C9  UNL     1      -4.582  -1.624  -1.587  1.00  0.00     0.003 C 
HETATM    6  C10 UNL     1      -4.421  -2.635  -0.469  1.00  0.00     0.001 C 
HETATM    7  C11 UNL     1      -4.212  -1.882   0.798  1.00  0.00     0.020 C 
HETATM    8  C12 UNL     1      -2.882  -1.110   0.820  1.00  0.00     0.052 C 
HETATM    9  C13 UNL     1      -2.909  -0.142   1.952  1.00  0.00     0.032 C 
HETATM   10  C14 UNL     1      -1.740  -0.922   2.518  1.00  0.00     0.057 C 
HETATM   11  C15 UNL     1      -0.455  -0.191   2.551  1.00  0.00     0.013 C 
HETATM   12  C16 UNL     1       0.582  -0.515   1.569  1.00  0.00     0.009 C 
HETATM   13  C17 UNL     1       0.368  -0.222   0.118  1.00  0.00     0.022 C 
HETATM   14  C25 UNL     1      -1.887  -1.958   1.490  1.00  0.00     0.142 C 
HETATM   15  O3  UNL     1      -1.399  -3.054   1.275  1.00  0.00    -0.297 OA
ENDROOT
BRANCH  13  16
HETATM   16  C18 UNL     1       1.751  -0.078  -0.474  1.00  0.00     0.126 C 
BRANCH  16  17
HETATM   17  O2  UNL     1       1.779  -0.006  -1.855  1.00  0.00    -0.395 OA
ATOM     18  H2  UNL     1       2.648   0.085  -2.227  1.00  0.00     0.210 HD
ENDBRANCH  16  17
BRANCH  16  19
HETATM   19  C19 UNL     1       2.629  -1.271  -0.118  1.00  0.00     0.011 C 
HETATM   20  C20 UNL     1       2.073  -2.577  -0.635  1.00  0.00     0.012 C 
BRANCH  19  21
HETATM   21  C21 UNL     1       3.962  -1.051  -0.784  1.00  0.00     0.010 C 
BRANCH  21  22
HETATM   22  C22 UNL     1       4.677   0.185  -0.356  1.00  0.00    -0.022 C 
HETATM   23  C23 UNL     1       4.923   0.094   1.140  1.00  0.00     0.009 C 
HETATM   24  C24 UNL     1       6.070   0.127  -1.001  1.00  0.00     0.009 C 
ENDBRANCH  21  22
ENDBRANCH  19  21
ENDBRANCH  16  19
ENDBRANCH  13  16
BRANCH   1  25
HETATM   25  C4  UNL     1       0.071   2.023  -1.006  1.00  0.00    -0.026 C 
HETATM   26  C3  UNL     1       0.239   3.273  -0.670  1.00  0.00    -0.031 C 
BRANCH  26  27
HETATM   27  C2  UNL     1      -0.095   3.915   0.624  1.00  0.00     0.022 C 
HETATM   28  C1  UNL     1      -1.117   5.040   0.424  1.00  0.00     0.009 C 
ENDBRANCH  26  27
ENDBRANCH   1  25
BRANCH   3  29
HETATM   29  O1  UNL     1      -2.118  -1.667  -1.336  1.00  0.00    -0.389 OA
ATOM     30  H1  UNL     1      -2.584  -2.484  -1.203  1.00  0.00     0.210 HD
ENDBRANCH   3  29
TORSDOF 8
