REMARK  1 active torsions:
REMARK  status: ('A' for Active; 'I' for Inactive)
REMARK    1  A    between atoms: C9_11  and  C10_12 
ROOT
HETATM    1  C1  UNL     1       2.562  -1.127   0.955  1.00  0.00     0.081 C 
HETATM    2  C2  UNL     1       2.110  -0.171  -0.132  1.00  0.00     0.193 C 
HETATM    3  C3  UNL     1       3.232   0.716  -0.576  1.00  0.00     0.081 C 
HETATM    4  O1  UNL     1       1.622  -0.837  -1.249  1.00  0.00    -0.198 OA
HETATM    5  O2  UNL     1       0.577  -0.123  -1.612  1.00  0.00    -0.197 OA
HETATM    6  C4  UNL     1      -0.070   0.007  -0.354  1.00  0.00     0.213 C 
HETATM    7  C5  UNL     1      -0.370  -1.385   0.100  1.00  0.00     0.072 C 
HETATM    8  C6  UNL     1      -1.795  -1.807   0.008  1.00  0.00     0.006 C 
HETATM    9  C7  UNL     1      -2.801  -0.734   0.213  1.00  0.00     0.001 C 
HETATM   10  C8  UNL     1      -2.170   0.544   0.722  1.00  0.00     0.021 C 
HETATM   11  C9  UNL     1      -1.196   0.936  -0.407  1.00  0.00     0.152 C 
HETATM   12  O5  UNL     1       0.995   0.555   0.360  1.00  0.00    -0.313 OA
ENDROOT
BRANCH  11  13
HETATM   13  C10 UNL     1      -0.840   2.322  -0.196  1.00  0.00     0.182 C 
HETATM   14  O3  UNL     1       0.299   2.728   0.000  1.00  0.00    -0.648 OA
HETATM   15  O4  UNL     1      -1.868   3.279  -0.216  1.00  0.00    -0.648 OA
ENDBRANCH  11  13
TORSDOF 1
