REMARK  4 active torsions:
REMARK  status: ('A' for Active; 'I' for Inactive)
REMARK    1  A    between atoms: C3_6  and  N2_7 
REMARK    2  A    between atoms: N2_7  and  C4_9 
REMARK    3  A    between atoms: C4_9  and  C6_11 
REMARK    4  A    between atoms: C7_16  and  C8_17 
ROOT
HETATM    1  C6  UNL     1      -0.380  -0.067  -1.316  1.00  0.00     0.120 A 
HETATM    2  N3  UNL     1      -0.986  -0.826  -2.232  1.00  0.00    -0.286 N 
ATOM      3  H3  UNL     1      -0.527  -1.249  -3.038  1.00  0.00     0.188 HD
HETATM    4  N4  UNL     1      -2.248  -0.946  -1.944  1.00  0.00    -0.287 N 
ATOM      5  H4  UNL     1      -2.934  -1.475  -2.482  1.00  0.00     0.188 HD
HETATM    6  C7  UNL     1      -2.496  -0.255  -0.816  1.00  0.00     0.101 A 
HETATM    7  N5  UNL     1      -1.344   0.281  -0.437  1.00  0.00    -0.331 N 
ATOM      8  H5  UNL     1      -1.208   0.864   0.389  1.00  0.00     0.168 HD
ENDROOT
BRANCH   1   9
HETATM    9  C4  UNL     1       1.048   0.276  -1.328  1.00  0.00     0.148 C 
HETATM   10  C5  UNL     1       1.232   1.735  -1.749  1.00  0.00     0.040 C 
BRANCH   9  11
HETATM   11  N2  UNL     1       1.661   0.140  -0.020  1.00  0.00    -0.358 N 
ATOM     12  H2  UNL     1       1.156   0.338   0.844  1.00  0.00     0.162 HD
BRANCH  11  13
HETATM   13  C3  UNL     1       2.915  -0.257  -0.030  1.00  0.00     0.163 A 
HETATM   14  S1  UNL     1       3.944  -0.640  -1.332  1.00  0.00     0.024 SA
HETATM   15  N1  UNL     1       5.315  -1.035  -0.445  1.00  0.00    -0.313 N 
HETATM   16  C2  UNL     1       4.923  -0.855   0.817  1.00  0.00     0.085 A 
ATOM     17  H1  UNL     1       6.226  -1.339  -0.788  1.00  0.00     0.175 HD
HETATM   18  C1  UNL     1       5.907  -1.116   1.947  1.00  0.00     0.089 C 
HETATM   19  N6  UNL     1       3.701  -0.459   1.033  1.00  0.00    -0.325 N 
ATOM     20  H6  UNL     1       3.355  -0.308   1.981  1.00  0.00     0.169 HD
ENDBRANCH  11  13
ENDBRANCH   9  11
ENDBRANCH   1   9
BRANCH   6  21
HETATM   21  C8  UNL     1      -3.823  -0.155  -0.175  1.00  0.00     0.055 C 
HETATM   22  C9  UNL     1      -4.215   1.239   0.273  1.00  0.00     0.012 C 
HETATM   23  C10 UNL     1      -4.821   0.586   1.520  1.00  0.00     0.002 C 
HETATM   24  C11 UNL     1      -3.831  -0.550   1.305  1.00  0.00     0.012 C 
ENDBRANCH   6  21
TORSDOF 4
