REMARK  4 active torsions:
REMARK  status: ('A' for Active; 'I' for Inactive)
REMARK    1  A    between atoms: C7_9  and  C8_10 
REMARK    2  A    between atoms: C8_10  and  C9_11 
REMARK    3  A    between atoms: C9_11  and  C10_12 
REMARK    4  A    between atoms: C10_12  and  N2_13 
ROOT
HETATM    1  N1  UNL     1       3.087   2.879  -1.649  1.00  0.00    -0.102 NA
HETATM    2  C1  UNL     1       3.269   1.776  -0.769  1.00  0.00     0.050 A 
HETATM    3  C2  UNL     1       4.500   1.452  -0.238  1.00  0.00     0.071 A 
HETATM    4  C3  UNL     1       4.628   0.376   0.600  1.00  0.00     0.145 A 
HETATM    5  F1  UNL     1       5.831   0.013   1.154  1.00  0.00    -0.204 F 
HETATM    6  C4  UNL     1       3.551  -0.445   0.962  1.00  0.00     0.080 A 
HETATM    7  C5  UNL     1       2.321  -0.127   0.438  1.00  0.00    -0.022 A 
HETATM    8  C6  UNL     1       2.210   0.960  -0.405  1.00  0.00     0.036 A 
HETATM    9  C7  UNL     1       1.162  -0.947   0.837  1.00  0.00     0.030 C 
HETATM   10  C15 UNL     1       1.551  -2.364   0.979  1.00  0.00     0.112 C 
HETATM   11  C16 UNL     1       2.590  -2.398   2.085  1.00  0.00     0.222 C 
HETATM   12  O1  UNL     1       2.484  -3.046   3.122  1.00  0.00    -0.273 OA
HETATM   13  N3  UNL     1       3.747  -1.581   1.803  1.00  0.00    -0.324 N 
ATOM     14  H3  UNL     1       4.664  -1.806   2.188  1.00  0.00     0.169 HD
ENDROOT
BRANCH   9  15
HETATM   15  C8  UNL     1      -0.067  -0.634   0.033  1.00  0.00     0.011 C 
BRANCH  15  16
HETATM   16  C9  UNL     1      -1.211  -1.472   0.464  1.00  0.00     0.031 C 
BRANCH  16  17
HETATM   17  C10 UNL     1      -2.516  -1.271  -0.230  1.00  0.00     0.272 C 
BRANCH  17  18
HETATM   18  N2  UNL     1      -3.113   0.013  -0.113  1.00  0.00     0.088 N 
HETATM   19  C11 UNL     1      -4.524  -0.040  -0.548  1.00  0.00     0.272 C 
HETATM   20  C12 UNL     1      -4.837   1.391  -0.948  1.00  0.00     0.032 C 
HETATM   21  C13 UNL     1      -3.579   1.714  -1.729  1.00  0.00     0.032 C 
HETATM   22  C14 UNL     1      -2.508   1.019  -0.920  1.00  0.00     0.272 C 
ENDBRANCH  17  18
ENDBRANCH  16  17
ENDBRANCH  15  16
ENDBRANCH   9  15
TORSDOF 4
