REMARK  5 active torsions:
REMARK  status: ('A' for Active; 'I' for Inactive)
REMARK    1  A    between atoms: N1_2  and  C2_4 
REMARK    2  A    between atoms: C5_7  and  C6_8 
REMARK    3  A    between atoms: C8_14  and  N4_15 
REMARK    4  A    between atoms: C18_31  and  N8_32 
REMARK    5  A    between atoms: C19_34  and  C20_35 
ROOT
HETATM    1  C6  UNL     1      -1.816  -1.009   0.140  1.00  0.00     0.044 A 
HETATM    2  N2  UNL     1      -0.707  -0.270   0.066  1.00  0.00    -0.342 N 
ATOM      3  H2  UNL     1      -0.788   0.726  -0.138  1.00  0.00     0.167 HD
HETATM    4  C7  UNL     1       0.518  -0.802   0.253  1.00  0.00     0.135 A 
HETATM    5  N3  UNL     1       1.605  -0.021   0.134  1.00  0.00    -0.176 N 
ATOM      6  H3  UNL     1       1.499   0.971  -0.079  1.00  0.00     0.186 HD
HETATM    7  C8  UNL     1       2.832  -0.546   0.296  1.00  0.00     0.681 A 
HETATM    8  N6  UNL     1       2.996  -1.836   0.577  1.00  0.00    -0.201 N 
ATOM      9  H6  UNL     1       3.939  -2.206   0.697  1.00  0.00     0.183 HD
HETATM   10  C15 UNL     1       1.944  -2.659   0.705  1.00  0.00     0.123 A 
HETATM   11  C16 UNL     1       0.675  -2.148   0.539  1.00  0.00     0.053 A 
HETATM   12  C17 UNL     1      -0.442  -2.943   0.619  1.00  0.00     0.070 A 
HETATM   13  N7  UNL     1      -0.323  -4.176   0.936  1.00  0.00    -0.396 N 
ATOM     14  H71 UNL     1      -1.153  -4.766   0.995  1.00  0.00     0.156 HD
ATOM     15  H72 UNL     1       0.589  -4.609   1.085  1.00  0.00     0.156 HD
HETATM   16  C18 UNL     1      -1.694  -2.349   0.415  1.00  0.00     0.082 A 
ENDROOT
BRANCH   1  17
HETATM   17  C5  UNL     1      -3.183  -0.445  -0.089  1.00  0.00     0.038 C 
HETATM   18  C4  UNL     1      -3.390   0.537   1.089  1.00  0.00     0.013 C 
HETATM   19  C3  UNL     1      -4.576   1.361   1.026  1.00  0.00     0.025 C 
HETATM   20  C2  UNL     1      -5.142   1.700  -0.310  1.00  0.00     0.076 C 
HETATM   21  C22 UNL     1      -4.707   0.863  -1.438  1.00  0.00     0.025 C 
HETATM   22  C21 UNL     1      -3.261   0.455  -1.335  1.00  0.00     0.013 C 
BRANCH  20  23
HETATM   23  N1  UNL     1      -5.036   3.090  -0.579  1.00  0.00    -0.421 N 
HETATM   24  C1  UNL     1      -5.722   3.999   0.269  1.00  0.00     0.140 C 
ATOM     25  H1  UNL     1      -4.479   3.428  -1.364  1.00  0.00     0.153 HD
ENDBRANCH  20  23
ENDBRANCH   1  17
BRANCH  16  26
HETATM   26  N8  UNL     1      -2.816  -3.194   0.501  1.00  0.00    -0.364 N 
HETATM   27  C19 UNL     1      -2.876  -4.293  -0.159  1.00  0.00     0.092 C 
ATOM     28  H8  UNL     1      -3.597  -2.928   1.100  1.00  0.00     0.165 HD
BRANCH  27  29
HETATM   29  C20 UNL     1      -4.062  -5.165  -0.049  1.00  0.00     0.266 C 
HETATM   30  F1  UNL     1      -3.800  -6.127   0.923  1.00  0.00    -0.250 F 
ENDBRANCH  27  29
ENDBRANCH  16  26
BRANCH   7  31
HETATM   31  N4  UNL     1       4.022   0.252   0.072  1.00  0.00    -0.216 N 
HETATM   32  C9  UNL     1       4.062   0.680  -1.308  1.00  0.00     0.143 C 
HETATM   33  C10 UNL     1       5.126   1.657  -1.654  1.00  0.00     0.050 C 
HETATM   34  C11 UNL     1       6.510   1.224  -1.244  1.00  0.00     0.273 C 
HETATM   35  N5  UNL     1       6.786   1.421   0.136  1.00  0.00     0.085 N 
HETATM   36  C12 UNL     1       6.298   2.682   0.646  1.00  0.00     0.309 C 
HETATM   37  C13 UNL     1       6.321   0.305   0.901  1.00  0.00     0.292 C 
HETATM   38  C14 UNL     1       4.842   0.393   1.225  1.00  0.00     0.171 C 
ENDBRANCH   7  31
TORSDOF 5
