REMARK  6 active torsions:
REMARK  status: ('A' for Active; 'I' for Inactive)
REMARK    1  A    between atoms: C2_2  and  C3_3 
REMARK    2  A    between atoms: C3_3  and  C5_6 
REMARK       I    between atoms: C5_6  and  N2_8 
REMARK    3  A    between atoms: N2_8  and  C6_9 
REMARK    4  A    between atoms: C7_10  and  C8_11 
REMARK    5  A    between atoms: C8_11  and  N3_12 
REMARK    6  A    between atoms: C14_22  and  N5_23 
ROOT
HETATM    1  C3  UNL     1      -1.328  -3.069  -1.169  1.00  0.00     0.199 C 
HETATM    2  C4  UNL     1      -0.938  -4.446  -0.895  1.00  0.00     0.074 C 
HETATM    3  N1  UNL     1      -0.635  -5.532  -0.657  1.00  0.00    -0.196 NA
ENDROOT
BRANCH   1   4
HETATM    4  C2  UNL     1      -2.687  -3.050  -1.761  1.00  0.00     0.025 C 
HETATM    5  C1  UNL     1      -3.750  -3.675  -0.877  1.00  0.00     0.007 C 
ENDBRANCH   1   4
BRANCH   1   6
HETATM    6  C5  UNL     1      -1.247  -2.300   0.131  1.00  0.00     0.309 C 
HETATM    7  O1  UNL     1      -1.487  -2.966   1.138  1.00  0.00    -0.256 OA
HETATM    8  N2  UNL     1      -0.918  -0.934   0.111  1.00  0.00    -0.367 NA
BRANCH   8   9
HETATM    9  C6  UNL     1      -0.607   0.353   0.096  1.00  0.00     0.140 A 
HETATM   10  C7  UNL     1       0.767   0.704   0.014  1.00  0.00     0.054 A 
HETATM   11  S1  UNL     1       0.760   2.387  -0.113  1.00  0.00    -0.071 SA
HETATM   12  C13 UNL     1      -0.915   2.665  -0.060  1.00  0.00     0.091 A 
HETATM   13  N4  UNL     1      -1.625   3.813  -0.101  1.00  0.00    -0.335 N 
HETATM   14  C18 UNL     1      -1.445   1.435   0.056  1.00  0.00     0.063 A 
HETATM   15  C14 UNL     1      -2.986   3.811  -0.022  1.00  0.00     0.122 A 
ATOM     16  H4  UNL     1      -1.132   4.701  -0.193  1.00  0.00     0.168 HD
HETATM   17  C15 UNL     1      -3.567   2.598   0.098  1.00  0.00     0.110 A 
HETATM   18  C16 UNL     1      -5.019   2.555   0.182  1.00  0.00     0.105 C 
HETATM   19  C17 UNL     1      -2.846   1.400   0.141  1.00  0.00     0.074 A 
HETATM   20  N6  UNL     1      -6.180   2.515   0.230  1.00  0.00    -0.191 NA
HETATM   21 CL1  UNL     1      -3.750  -0.054   0.364  1.00  0.00    -0.081 Cl
BRANCH  10  22
HETATM   22  C8  UNL     1       1.939  -0.218   0.035  1.00  0.00     0.322 C 
BRANCH  22  23
HETATM   23  N3  UNL     1       3.149   0.604  -0.065  1.00  0.00     0.097 N 
HETATM   24  C9  UNL     1       4.246  -0.355  -0.077  1.00  0.00     0.299 C 
HETATM   25  C10 UNL     1       5.596   0.252   0.116  1.00  0.00     0.198 C 
HETATM   26  O2  UNL     1       5.566   1.418   0.881  1.00  0.00    -0.388 OA
HETATM   27  C11 UNL     1       4.564   1.236   1.830  1.00  0.00     0.198 C 
HETATM   28  C12 UNL     1       3.253   1.485   1.078  1.00  0.00     0.299 C 
ENDBRANCH  22  23
ENDBRANCH  10  22
BRANCH  15  29
HETATM   29  N5  UNL     1      -3.610   4.956  -0.042  1.00  0.00    -0.384 N 
ATOM     30  H52 UNL     1      -3.171   5.872  -0.133  1.00  0.00     0.157 HD
ATOM     31  H51 UNL     1      -4.628   4.955   0.017  1.00  0.00     0.157 HD
ENDBRANCH  15  29
ENDBRANCH   8   9
ENDBRANCH   1   6
TORSDOF 6
