REMARK  7 active torsions:
REMARK  status: ('A' for Active; 'I' for Inactive)
REMARK    1  A    between atoms: C2_2  and  C4_4 
REMARK    2  A    between atoms: C4_4  and  N1_5 
REMARK    3  A    between atoms: C4_4  and  N2_9 
REMARK    4  A    between atoms: N2_9  and  C5_11 
REMARK    5  A    between atoms: C8_14  and  N3_15 
REMARK       I    between atoms: N4_18  and  C11_19 
REMARK    6  A    between atoms: C11_19  and  C12_21 
REMARK    7  A    between atoms: C12_21  and  C13_22 
ROOT
HETATM    1  C5  UNL     1      -3.706  -0.352  -0.077  1.00  0.00     0.105 A 
HETATM    2  C6  UNL     1      -2.314  -0.314  -0.130  1.00  0.00     0.067 A 
HETATM    3  C7  UNL     1      -1.840  -1.497   0.392  1.00  0.00     0.056 A 
HETATM    4  C8  UNL     1      -0.616  -2.031   0.611  1.00  0.00     0.118 A 
HETATM    5  N5  UNL     1      -0.525  -3.271   1.186  1.00  0.00    -0.338 N 
ATOM      6  H5  UNL     1       0.405  -3.658   1.346  1.00  0.00     0.168 HD
HETATM    7  C19 UNL     1      -1.578  -4.002   1.549  1.00  0.00     0.183 A 
HETATM    8  N6  UNL     1      -2.797  -3.495   1.338  1.00  0.00    -0.338 N 
ATOM      9  H6  UNL     1      -3.624  -4.031   1.602  1.00  0.00     0.168 HD
HETATM   10  C20 UNL     1      -2.938  -2.258   0.768  1.00  0.00     0.121 A 
HETATM   11  N7  UNL     1      -4.025  -1.537   0.469  1.00  0.00    -0.328 N 
ATOM     12  H7  UNL     1      -4.981  -1.850   0.636  1.00  0.00     0.169 HD
ENDROOT
BRANCH   4  13
HETATM   13  N3  UNL     1       0.573  -1.374   0.216  1.00  0.00    -0.363 N 
HETATM   14  C9  UNL     1       1.715  -1.593   1.121  1.00  0.00     0.144 C 
HETATM   15  C10 UNL     1       3.038  -1.312   0.467  1.00  0.00     0.145 C 
HETATM   16  N4  UNL     1       3.035  -0.040  -0.249  1.00  0.00    -0.349 N 
HETATM   17  C11 UNL     1       4.271   0.515  -0.633  1.00  0.00     0.220 C 
HETATM   18  C17 UNL     1       1.740   0.587  -0.557  1.00  0.00     0.145 C 
HETATM   19  O1  UNL     1       4.286   1.639  -1.196  1.00  0.00    -0.273 OA
HETATM   20  C18 UNL     1       0.827  -0.591  -0.941  1.00  0.00     0.144 C 
BRANCH  17  21
HETATM   21  C12 UNL     1       5.532  -0.193  -0.390  1.00  0.00     0.109 C 
BRANCH  21  22
HETATM   22  C13 UNL     1       6.574   0.609   0.343  1.00  0.00     0.020 C 
HETATM   23  C14 UNL     1       6.948   1.857  -0.419  1.00  0.00     0.033 C 
HETATM   24  C15 UNL     1       8.486   1.813  -0.327  1.00  0.00     0.168 C 
HETATM   25  O2  UNL     1       8.669   0.438  -0.579  1.00  0.00    -0.391 OA
HETATM   26  C16 UNL     1       7.861  -0.193   0.332  1.00  0.00     0.172 C 
ENDBRANCH  21  22
ENDBRANCH  17  21
ENDBRANCH   4  13
BRANCH   1  27
HETATM   27  N2  UNL     1      -4.598   0.663  -0.525  1.00  0.00    -0.349 N 
ATOM     28  H2  UNL     1      -4.244   1.528  -0.934  1.00  0.00     0.163 HD
BRANCH  27  29
HETATM   29  C4  UNL     1      -6.013   0.438  -0.386  1.00  0.00     0.286 C 
BRANCH  29  30
HETATM   30  C2  UNL     1      -6.891   1.499  -0.942  1.00  0.00     0.027 C 
HETATM   31  C1  UNL     1      -6.583   2.811  -0.266  1.00  0.00     0.013 C 
HETATM   32  C3  UNL     1      -8.331   1.051  -0.701  1.00  0.00     0.013 C 
ENDBRANCH  29  30
BRANCH  29  33
HETATM   33  N1  UNL     1      -6.283   0.357   1.062  1.00  0.00    -0.058 N 
ATOM     34  H13 UNL     1      -6.176   1.253   1.538  1.00  0.00     0.276 HD
ATOM     35  H12 UNL     1      -7.270   0.210   1.276  1.00  0.00     0.276 HD
ATOM     36  H11 UNL     1      -5.680  -0.372   1.444  1.00  0.00     0.276 HD
ENDBRANCH  29  33
ENDBRANCH  27  29
ENDBRANCH   1  27
TORSDOF 7
