REMARK  9 active torsions:
REMARK  status: ('A' for Active; 'I' for Inactive)
REMARK    1  A    between atoms: C2_2  and  C4_4 
REMARK    2  A    between atoms: C4_4  and  O1_5 
REMARK    3  A    between atoms: O1_5  and  C5_6 
REMARK    4  A    between atoms: C5_6  and  C6_7 
REMARK    5  A    between atoms: C6_7  and  O2_8 
REMARK    6  A    between atoms: C11_14  and  N1_15 
REMARK    7  A    between atoms: C14_20  and  N3_21 
REMARK    8  A    between atoms: N3_21  and  C15_22 
REMARK    9  A    between atoms: C20_32  and  O3_33 
ROOT
HETATM    1  C6  UNL     1      -2.073  -1.769   0.333  1.00  0.00     0.110 C 
HETATM    2  C7  UNL     1      -2.086  -2.172  -1.104  1.00  0.00     0.026 C 
HETATM    3  C8  UNL     1      -1.828  -1.096  -2.094  1.00  0.00     0.014 C 
HETATM    4  C9  UNL     1      -0.338  -1.228  -1.711  1.00  0.00     0.012 C 
HETATM    5  C10 UNL     1      -0.658  -2.664  -1.409  1.00  0.00     0.014 C 
HETATM    6  C11 UNL     1      -0.168  -0.365  -0.478  1.00  0.00     0.128 C 
HETATM    7  C20 UNL     1      -0.819  -0.996   0.697  1.00  0.00     0.178 C 
ENDROOT
BRANCH   6   8
HETATM    8  N1  UNL     1       1.189   0.021  -0.359  1.00  0.00    -0.319 N 
HETATM    9  C12 UNL     1       1.711   1.230  -0.729  1.00  0.00     0.185 A 
HETATM   10  N2  UNL     1       3.001   1.234  -0.474  1.00  0.00    -0.345 N 
HETATM   11  C13 UNL     1       3.386   0.064   0.063  1.00  0.00     0.136 A 
ATOM     12  H2  UNL     1       3.625   2.019  -0.659  1.00  0.00     0.167 HD
HETATM   13  C14 UNL     1       4.598  -0.438   0.501  1.00  0.00     0.206 A 
HETATM   14  C19 UNL     1       2.243  -0.687   0.130  1.00  0.00     0.143 A 
HETATM   15  N4  UNL     1       4.582  -1.715   0.999  1.00  0.00    -0.306 N 
HETATM   16  C18 UNL     1       3.479  -2.441   1.065  1.00  0.00     0.182 A 
ATOM     17  H4  UNL     1       5.456  -2.121   1.332  1.00  0.00     0.171 HD
HETATM   18 CL1  UNL     1       3.552  -4.085   1.725  1.00  0.00    -0.045 Cl
HETATM   19  N5  UNL     1       2.325  -1.919   0.630  1.00  0.00    -0.316 N 
ATOM     20  H5  UNL     1       1.478  -2.485   0.683  1.00  0.00     0.170 HD
BRANCH  13  21
HETATM   21  N3  UNL     1       5.610   0.225   0.442  1.00  0.00    -0.423 NA
BRANCH  21  22
HETATM   22  C15 UNL     1       6.477   1.236   0.218  1.00  0.00     0.165 A 
HETATM   23  C16 UNL     1       6.446   2.096  -1.021  1.00  0.00     0.042 A 
HETATM   24  C17 UNL     1       6.184   2.694   0.305  1.00  0.00     0.042 A 
ENDBRANCH  21  22
ENDBRANCH  13  21
ENDBRANCH   6   8
BRANCH   7  25
HETATM   25  O3  UNL     1      -1.218   0.028   1.569  1.00  0.00    -0.390 OA
ATOM     26  H3  UNL     1      -0.433   0.512   1.797  1.00  0.00     0.210 HD
ENDBRANCH   7  25
BRANCH   1  27
HETATM   27  C5  UNL     1      -3.319  -1.038   0.782  1.00  0.00     0.209 C 
BRANCH  27  28
HETATM   28  O1  UNL     1      -3.489   0.176   0.157  1.00  0.00    -0.384 OA
BRANCH  28  29
HETATM   29  C4  UNL     1      -4.646   0.777   0.621  1.00  0.00     0.200 C 
BRANCH  29  30
HETATM   30  C2  UNL     1      -4.910   2.092   0.002  1.00  0.00    -0.070 C 
HETATM   31  C1  UNL     1      -4.090   2.603  -0.904  1.00  0.00     0.016 C 
HETATM   32  C3  UNL     1      -6.120   2.834   0.418  1.00  0.00     0.044 C 
ENDBRANCH  29  30
ENDBRANCH  28  29
ENDBRANCH  27  28
ENDBRANCH   1  27
BRANCH   1  33
HETATM   33  O2  UNL     1      -2.070  -2.977   1.075  1.00  0.00    -0.385 OA
ATOM     34  H2  UNL     1      -1.288  -3.436   0.793  1.00  0.00     0.210 HD
ENDBRANCH   1  33
TORSDOF 9
