REMARK  4 active torsions:
REMARK  status: ('A' for Active; 'I' for Inactive)
REMARK    1  A    between atoms: C2_2  and  O1_3 
REMARK    2  A    between atoms: O1_3  and  C3_4 
REMARK    3  A    between atoms: C3_4  and  C4_6 
REMARK    4  A    between atoms: C13_24  and  N5_25 
ROOT
HETATM    1  C4  UNL     1      -1.477  -1.050  -1.157  1.00  0.00     0.133 C 
HETATM    2  C5  UNL     1      -2.587  -1.479  -2.145  1.00  0.00     0.051 C 
HETATM    3  N1  UNL     1      -0.817  -2.231  -0.774  1.00  0.00    -0.399 N 
ATOM      4  H1  UNL     1      -1.089  -3.136  -1.158  1.00  0.00     0.154 HD
HETATM    5  C6  UNL     1       0.266  -2.117   0.188  1.00  0.00     0.157 C 
HETATM    6  C7  UNL     1       1.006  -0.896  -0.075  1.00  0.00    -0.000 A 
HETATM    7  C8  UNL     1       0.665  -0.009  -1.106  1.00  0.00     0.040 A 
HETATM    8  N2  UNL     1       1.333   1.119  -1.368  1.00  0.00    -0.359 N 
ATOM      9  H2  UNL     1       1.014   1.707  -2.138  1.00  0.00     0.165 HD
HETATM   10  C9  UNL     1       2.386   1.505  -0.675  1.00  0.00     0.033 A 
HETATM   11  C10 UNL     1       3.149   2.759  -0.948  1.00  0.00     0.070 C 
HETATM   12  C11 UNL     1       2.788   0.687   0.358  1.00  0.00     0.071 A 
HETATM   13  N3  UNL     1       3.855   1.035   1.094  1.00  0.00    -0.330 N 
ATOM     14  H3  UNL     1       4.353   1.899   0.880  1.00  0.00     0.168 HD
HETATM   15  C12 UNL     1       4.273   0.267   2.102  1.00  0.00     0.181 A 
HETATM   16 CL1  UNL     1       5.670   0.694   3.089  1.00  0.00    -0.045 Cl
HETATM   17  N4  UNL     1       3.645  -0.877   2.415  1.00  0.00    -0.318 N 
ATOM     18  H4  UNL     1       3.984  -1.447   3.190  1.00  0.00     0.170 HD
HETATM   19  C13 UNL     1       2.558  -1.279   1.703  1.00  0.00     0.114 A 
HETATM   20  C14 UNL     1       2.115  -0.508   0.670  1.00  0.00     0.046 A 
HETATM   21  C15 UNL     1      -0.505  -0.260  -2.012  1.00  0.00     0.170 C 
HETATM   22 CL2  UNL     1      -1.181   1.252  -2.590  1.00  0.00    -0.115 Cl
ENDROOT
BRANCH   1  23
HETATM   23  C3  UNL     1      -2.135  -0.255  -0.138  1.00  0.00     0.288 C 
HETATM   24  O2  UNL     1      -2.130  -0.617   1.053  1.00  0.00    -0.262 OA
BRANCH  23  25
HETATM   25  O1  UNL     1      -2.791   0.926  -0.440  1.00  0.00    -0.320 OA
BRANCH  25  26
HETATM   26  C2  UNL     1      -3.431   1.703   0.540  1.00  0.00     0.174 C 
HETATM   27  C1  UNL     1      -4.532   0.958   1.258  1.00  0.00     0.034 C 
ENDBRANCH  25  26
ENDBRANCH  23  25
ENDBRANCH   1  23
BRANCH  19  28
HETATM   28  N5  UNL     1       1.961  -2.374   2.004  1.00  0.00    -0.385 N 
ATOM     29  H52 UNL     1       2.293  -2.951   2.777  1.00  0.00     0.157 HD
ATOM     30  H51 UNL     1       1.146  -2.675   1.470  1.00  0.00     0.157 HD
ENDBRANCH  19  28
TORSDOF 4
