REMARK  3 active torsions:
REMARK  status: ('A' for Active; 'I' for Inactive)
REMARK    1  A    between atoms: O1_2  and  C2_3 
REMARK    2  A    between atoms: C6_8  and  C7_9 
REMARK    3  A    between atoms: C10_12  and  C11_13 
ROOT
HETATM    1  C7  UNL     1       0.829   0.075   0.369  1.00  0.00     0.121 C 
HETATM    2  C8  UNL     1       0.236  -1.082  -0.351  1.00  0.00     0.077 C 
HETATM    3  C9  UNL     1      -0.744  -1.781   0.627  1.00  0.00     0.077 C 
HETATM    4  C10 UNL     1      -1.482  -0.691   1.395  1.00  0.00     0.114 C 
HETATM    5  O4  UNL     1      -0.712   0.293   1.861  1.00  0.00    -0.194 OA
HETATM    6  O5  UNL     1       0.624  -0.013   1.726  1.00  0.00    -0.194 OA
ENDROOT
BRANCH   1   7
HETATM    7  C6  UNL     1       1.874   0.867  -0.216  1.00  0.00     0.141 A 
HETATM    8  C2  UNL     1       3.231   0.573  -0.382  1.00  0.00     0.112 A 
HETATM    9  C3  UNL     1       3.838   1.661  -0.965  1.00  0.00    -0.003 A 
HETATM   10  C4  UNL     1       5.273   1.736  -1.335  1.00  0.00     0.053 C 
HETATM   11  C5  UNL     1       2.837   2.607  -1.154  1.00  0.00     0.152 A 
HETATM   12  O2  UNL     1       1.739   2.093  -0.707  1.00  0.00    -0.317 OA
BRANCH   8  13
HETATM   13  O1  UNL     1       3.856  -0.554  -0.047  1.00  0.00    -0.352 OA
HETATM   14  C1  UNL     1       4.529  -1.080   1.013  1.00  0.00     0.210 C 
ENDBRANCH   8  13
ENDBRANCH   1   7
BRANCH   4  15
HETATM   15  C11 UNL     1      -2.792  -0.469   0.792  1.00  0.00     0.096 A 
HETATM   16  N1  UNL     1      -3.523  -1.573   0.369  1.00  0.00    -0.336 N 
HETATM   17  C12 UNL     1      -4.736  -1.153   0.013  1.00  0.00     0.120 A 
ATOM     18  H1  UNL     1      -3.189  -2.536   0.337  1.00  0.00     0.168 HD
HETATM   19  C13 UNL     1      -5.877  -1.953  -0.492  1.00  0.00     0.098 C 
HETATM   20  O3  UNL     1      -4.783   0.129   0.185  1.00  0.00    -0.300 OA
HETATM   21  C14 UNL     1      -3.641   0.577   0.651  1.00  0.00     0.080 A 
HETATM   22  C15 UNL     1      -3.329   1.965   0.965  1.00  0.00     0.079 C 
ENDBRANCH   4  15
TORSDOF 3
