REMARK  8 active torsions:
REMARK  status: ('A' for Active; 'I' for Inactive)
REMARK    1  A    between atoms: O1_2  and  C2_3 
REMARK    2  A    between atoms: C2_3  and  C3_4 
REMARK    3  A    between atoms: C3_4  and  O2_5 
REMARK    4  A    between atoms: O2_5  and  C4_6 
REMARK    5  A    between atoms: C4_6  and  C5_8 
REMARK    6  A    between atoms: C5_8  and  N1_9 
REMARK       I    between atoms: N1_9  and  C6_11 
REMARK       I    between atoms: C6_11  and  N2_13 
REMARK    7  A    between atoms: N2_13  and  C7_15 
REMARK    8  A    between atoms: C18_29  and  O7_30 
ROOT
HETATM    1  N1  UNL     1      -0.467   0.666  -0.580  1.00  0.00    -0.324 N 
ATOM      2  H1  UNL     1      -0.706   1.599  -0.916  1.00  0.00     0.165 HD
HETATM    3  C6  UNL     1       0.916   0.380  -0.324  1.00  0.00     0.321 C 
HETATM    4  O4  UNL     1       1.174  -0.763   0.089  1.00  0.00    -0.247 OA
HETATM    5  N2  UNL     1       1.916   1.331  -0.526  1.00  0.00    -0.307 N 
ATOM      6  H2  UNL     1       1.593   2.237  -0.867  1.00  0.00     0.170 HD
ENDROOT
BRANCH   1   7
HETATM    7  C5  UNL     1      -1.545  -0.280  -0.393  1.00  0.00     0.124 C 
HETATM    8  C15 UNL     1      -1.671  -0.583   1.049  1.00  0.00     0.042 C 
HETATM    9  C16 UNL     1      -1.763  -2.026   1.325  1.00  0.00     0.006 C 
HETATM   10  C17 UNL     1      -2.543  -2.873   0.393  1.00  0.00     0.032 C 
HETATM   11  C18 UNL     1      -2.259  -2.627  -1.051  1.00  0.00     0.121 C 
HETATM   12  C19 UNL     1      -1.433  -1.434  -1.335  1.00  0.00     0.073 C 
BRANCH   7  13
HETATM   13  C4  UNL     1      -2.798   0.507  -0.760  1.00  0.00     0.287 C 
HETATM   14  O3  UNL     1      -2.771   1.689  -1.134  1.00  0.00    -0.262 OA
BRANCH  13  15
HETATM   15  O2  UNL     1      -4.000  -0.153  -0.660  1.00  0.00    -0.317 OA
BRANCH  15  16
HETATM   16  C3  UNL     1      -5.256   0.380  -0.945  1.00  0.00     0.205 C 
BRANCH  16  17
HETATM   17  C2  UNL     1      -5.591   1.563  -0.079  1.00  0.00     0.193 C 
BRANCH  17  18
HETATM   18  O1  UNL     1      -5.583   1.175   1.255  1.00  0.00    -0.394 OA
HETATM   19  C1  UNL     1      -5.891   2.249   2.090  1.00  0.00     0.201 C 
ENDBRANCH  17  18
ENDBRANCH  16  17
ENDBRANCH  15  16
ENDBRANCH  13  15
ENDBRANCH   7  13
BRANCH  11  20
HETATM   20  O7  UNL     1      -3.416  -2.704  -1.824  1.00  0.00    -0.395 OA
ATOM     21  H7  UNL     1      -3.235  -2.547  -2.743  1.00  0.00     0.210 HD
ENDBRANCH  11  20
ENDBRANCH   1   7
BRANCH   5  22
HETATM   22  C7  UNL     1       3.280   1.225  -0.332  1.00  0.00     0.060 A 
HETATM   23  C8  UNL     1       3.924   0.109   0.116  1.00  0.00     0.071 A 
HETATM   24  C9  UNL     1       5.308   0.030   0.303  1.00  0.00     0.104 A 
HETATM   25  C10 UNL     1       6.093   1.122   0.029  1.00  0.00     0.103 A 
HETATM   26  O6  UNL     1       5.942  -1.111   0.759  1.00  0.00    -0.346 OA
HETATM   27  C11 UNL     1       5.457   2.252  -0.423  1.00  0.00     0.065 A 
HETATM   28  O5  UNL     1       7.458   1.034   0.217  1.00  0.00    -0.346 OA
HETATM   29  C12 UNL     1       4.102   2.332  -0.607  1.00  0.00     0.063 A 
HETATM   30 CL1  UNL     1       3.387   3.841  -1.195  1.00  0.00    -0.082 Cl
HETATM   31  C13 UNL     1       8.059  -0.067   0.873  1.00  0.00     0.202 C 
HETATM   32  C14 UNL     1       7.313  -1.309   0.463  1.00  0.00     0.202 C 
ENDBRANCH   5  22
TORSDOF 8
