REMARK  14 active torsions:
REMARK  status: ('A' for Active; 'I' for Inactive)
REMARK    1  A    between atoms: C2_2  and  C3_3 
REMARK    2  A    between atoms: C3_3  and  C4_4 
REMARK    3  A    between atoms: C4_4  and  C5_5 
REMARK    4  A    between atoms: C5_5  and  C6_6 
REMARK    5  A    between atoms: C6_6  and  N1_7 
REMARK    6  A    between atoms: N1_7  and  C7_9 
REMARK    7  A    between atoms: C9_13  and  C10_14 
REMARK    8  A    between atoms: C12_16  and  O1_17 
REMARK    9  A    between atoms: C13_19  and  C14_20 
REMARK   10  A    between atoms: C14_20  and  O2_21 
REMARK   11  A    between atoms: O2_21  and  C15_22 
REMARK   12  A    between atoms: C18_27  and  O4_28 
REMARK   13  A    between atoms: C19_30  and  O5_31 
REMARK   14  A    between atoms: C20_33  and  O6_34 
ROOT
HETATM    1  C15 UNL     1      -4.822   0.429  -0.155  1.00  0.00     0.292 C 
HETATM    2  O3  UNL     1      -4.126   1.627  -0.323  1.00  0.00    -0.336 OA
HETATM    3  C16 UNL     1      -4.783   2.676   0.309  1.00  0.00     0.262 C 
HETATM    4  C17 UNL     1      -4.054   3.908  -0.021  1.00  0.00     0.094 C 
HETATM    5  N3  UNL     1      -3.473   4.890  -0.287  1.00  0.00    -0.194 NA
HETATM    6  C18 UNL     1      -6.199   2.848  -0.112  1.00  0.00     0.192 C 
HETATM    7  C19 UNL     1      -6.956   1.572  -0.300  1.00  0.00     0.183 C 
HETATM    8  C20 UNL     1      -6.080   0.546  -0.987  1.00  0.00     0.204 C 
ENDROOT
BRANCH   6   9
HETATM    9  O4  UNL     1      -6.865   3.574   0.901  1.00  0.00    -0.389 OA
ATOM     10  H4  UNL     1      -7.769   3.684   0.632  1.00  0.00     0.210 HD
ENDBRANCH   6   9
BRANCH   1  11
HETATM   11  O2  UNL     1      -4.001  -0.595  -0.567  1.00  0.00    -0.356 OA
BRANCH  11  12
HETATM   12  C14 UNL     1      -3.667  -1.502   0.422  1.00  0.00     0.205 C 
BRANCH  12  13
HETATM   13  C13 UNL     1      -2.762  -2.540  -0.256  1.00  0.00     0.175 C 
HETATM   14  C12 UNL     1      -2.295  -3.599   0.681  1.00  0.00     0.152 C 
HETATM   15  C11 UNL     1      -0.772  -3.414   0.615  1.00  0.00     0.072 C 
HETATM   16  C10 UNL     1      -0.718  -1.949   0.255  1.00  0.00     0.166 C 
HETATM   17  O7  UNL     1      -1.662  -1.838  -0.735  1.00  0.00    -0.371 OA
BRANCH  14  18
HETATM   18  O1  UNL     1      -2.749  -3.419   1.984  1.00  0.00    -0.393 OA
ATOM     19  H1  UNL     1      -3.691  -3.533   2.025  1.00  0.00     0.210 HD
ENDBRANCH  14  18
BRANCH  16  20
HETATM   20  C9  UNL     1       0.654  -1.610  -0.230  1.00  0.00     0.030 A 
HETATM   21  C8  UNL     1       1.587  -0.840   0.401  1.00  0.00     0.107 A 
HETATM   22  N2  UNL     1       2.736  -0.654  -0.187  1.00  0.00    -0.346 N 
HETATM   23  C7  UNL     1       2.963  -1.212  -1.367  1.00  0.00     0.144 A 
ATOM     24  H2  UNL     1       3.455  -0.083   0.258  1.00  0.00     0.167 HD
HETATM   25  S1  UNL     1       1.468  -2.046  -1.662  1.00  0.00    -0.055 SA
BRANCH  23  26
HETATM   26  N1  UNL     1       3.999  -1.186  -2.151  1.00  0.00    -0.370 N 
ATOM     27  H1  UNL     1       4.008  -1.680  -3.043  1.00  0.00     0.161 HD
BRANCH  26  28
HETATM   28  C6  UNL     1       5.166  -0.402  -1.683  1.00  0.00     0.121 C 
BRANCH  28  29
HETATM   29  C5  UNL     1       5.957  -1.190  -0.724  1.00  0.00     0.020 C 
BRANCH  29  30
HETATM   30  C4  UNL     1       7.215  -0.699  -0.176  1.00  0.00     0.002 C 
BRANCH  30  31
HETATM   31  C3  UNL     1       7.356   0.549   0.576  1.00  0.00    -0.000 C 
BRANCH  31  32
HETATM   32  C2  UNL     1       7.136   1.787  -0.196  1.00  0.00    -0.005 C 
HETATM   33  C1  UNL     1       7.311   3.032   0.695  1.00  0.00     0.005 C 
ENDBRANCH  31  32
ENDBRANCH  30  31
ENDBRANCH  29  30
ENDBRANCH  28  29
ENDBRANCH  26  28
ENDBRANCH  23  26
ENDBRANCH  16  20
ENDBRANCH  12  13
ENDBRANCH  11  12
ENDBRANCH   1  11
BRANCH   7  34
HETATM   34  O5  UNL     1      -8.103   1.786  -1.059  1.00  0.00    -0.390 OA
ATOM     35  H5  UNL     1      -8.584   0.975  -1.178  1.00  0.00     0.210 HD
ENDBRANCH   7  34
BRANCH   8  36
HETATM   36  O6  UNL     1      -5.749   1.039  -2.263  1.00  0.00    -0.388 OA
ATOM     37  H6  UNL     1      -6.539   1.112  -2.785  1.00  0.00     0.210 HD
ENDBRANCH   8  36
TORSDOF 14
