REMARK  16 active torsions:
REMARK  status: ('A' for Active; 'I' for Inactive)
REMARK    1  A    between atoms: C2_2  and  C3_3 
REMARK    2  A    between atoms: C3_3  and  C4_4 
REMARK    3  A    between atoms: C4_4  and  C5_5 
REMARK    4  A    between atoms: C5_5  and  C6_6 
REMARK    5  A    between atoms: C7_7  and  C8_8 
REMARK    6  A    between atoms: C8_8  and  O1_9 
REMARK    7  A    between atoms: O1_9  and  C9_10 
REMARK    8  A    between atoms: C11_13  and  O3_14 
REMARK    9  A    between atoms: C12_16  and  O4_17 
REMARK   10  A    between atoms: C13_19  and  O5_20 
REMARK   11  A    between atoms: O5_20  and  C14_21 
REMARK   12  A    between atoms: C15_23  and  C16_24 
REMARK   13  A    between atoms: C17_25  and  C18_26 
REMARK   14  A    between atoms: C20_31  and  O7_32 
REMARK   15  A    between atoms: C21_34  and  O8_35 
REMARK   16  A    between atoms: C22_37  and  O9_38 
ROOT
HETATM    1  O5  UNL     1      -1.444  -1.809   0.613  1.00  0.00    -0.348 OA
ENDROOT
BRANCH   1   2
HETATM    2  C13 UNL     1      -0.621  -2.805   0.153  1.00  0.00     0.189 C 
HETATM    3  C9  UNL     1       0.803  -2.343  -0.068  1.00  0.00     0.178 C 
HETATM    4  C10 UNL     1       1.780  -2.985   0.889  1.00  0.00     0.205 C 
HETATM    5  O2  UNL     1       1.268  -3.005   2.188  1.00  0.00    -0.356 OA
HETATM    6  C11 UNL     1       0.203  -3.865   2.289  1.00  0.00     0.288 C 
HETATM    7  C12 UNL     1      -0.604  -4.023   1.044  1.00  0.00     0.204 C 
BRANCH   3   8
HETATM    8  O1  UNL     1       1.229  -2.637  -1.359  1.00  0.00    -0.369 OA
BRANCH   8   9
HETATM    9  C8  UNL     1       1.546  -1.503  -2.084  1.00  0.00     0.261 C 
BRANCH   9  10
HETATM   10  C7  UNL     1       2.616  -0.710  -1.489  1.00  0.00    -0.081 C 
HETATM   11  C6  UNL     1       3.502  -0.046  -1.017  1.00  0.00    -0.104 C 
BRANCH  11  12
HETATM   12  C5  UNL     1       4.580   0.744  -0.425  1.00  0.00     0.094 C 
BRANCH  12  13
HETATM   13  C4  UNL     1       4.381   2.178  -0.821  1.00  0.00     0.012 C 
BRANCH  13  14
HETATM   14  C3  UNL     1       5.455   3.080  -0.252  1.00  0.00     0.000 C 
BRANCH  14  15
HETATM   15  C2  UNL     1       6.831   2.677  -0.728  1.00  0.00    -0.005 C 
HETATM   16  C1  UNL     1       7.835   3.630  -0.111  1.00  0.00     0.005 C 
ENDBRANCH  14  15
ENDBRANCH  13  14
ENDBRANCH  12  13
ENDBRANCH  11  12
ENDBRANCH   9  10
ENDBRANCH   8   9
ENDBRANCH   3   8
BRANCH   6  17
HETATM   17  O3  UNL     1      -0.667  -3.414   3.306  1.00  0.00    -0.369 OA
ATOM     18  H3  UNL     1      -1.404  -4.009   3.376  1.00  0.00     0.212 HD
ENDBRANCH   6  17
BRANCH   7  19
HETATM   19  O4  UNL     1      -0.115  -5.092   0.280  1.00  0.00    -0.388 OA
ATOM     20  H4  UNL     1      -0.629  -5.193  -0.513  1.00  0.00     0.210 HD
ENDBRANCH   7  19
ENDBRANCH   1   2
BRANCH   1  21
HETATM   21  C14 UNL     1      -2.513  -1.505  -0.245  1.00  0.00     0.292 C 
HETATM   22  O6  UNL     1      -2.457  -0.267  -0.791  1.00  0.00    -0.347 OA
HETATM   23  C15 UNL     1      -3.042   0.779  -0.091  1.00  0.00     0.179 C 
HETATM   24  C20 UNL     1      -3.669   0.346   1.216  1.00  0.00     0.182 C 
HETATM   25  C21 UNL     1      -4.558  -0.841   1.069  1.00  0.00     0.183 C 
HETATM   26  C22 UNL     1      -3.842  -1.918   0.334  1.00  0.00     0.204 C 
BRANCH  23  27
HETATM   27  C16 UNL     1      -4.142   1.298  -0.924  1.00  0.00     0.009 C 
HETATM   28  C17 UNL     1      -4.606   2.467  -1.128  1.00  0.00     0.022 C 
BRANCH  28  29
HETATM   29  C18 UNL     1      -4.243   3.745  -0.630  1.00  0.00    -0.002 C 
HETATM   30  C19 UNL     1      -3.164   4.028   0.319  1.00  0.00     0.067 C 
HETATM   31  N1  UNL     1      -4.942   4.796  -1.052  1.00  0.00    -0.403 N 
ATOM     32  H12 UNL     1      -5.693   4.599  -1.713  1.00  0.00     0.156 HD
ATOM     33  H11 UNL     1      -4.681   5.715  -0.694  1.00  0.00     0.156 HD
ENDBRANCH  28  29
ENDBRANCH  23  27
BRANCH  24  34
HETATM   34  O7  UNL     1      -2.767   0.153   2.238  1.00  0.00    -0.390 OA
ATOM     35  H7  UNL     1      -3.161  -0.119   3.059  1.00  0.00     0.210 HD
ENDBRANCH  24  34
BRANCH  25  36
HETATM   36  O8  UNL     1      -5.788  -0.515   0.498  1.00  0.00    -0.390 OA
ATOM     37  H8  UNL     1      -6.355  -1.272   0.404  1.00  0.00     0.210 HD
ENDBRANCH  25  36
BRANCH  26  38
HETATM   38  O9  UNL     1      -4.715  -2.365  -0.685  1.00  0.00    -0.388 OA
ATOM     39  H9  UNL     1      -5.553  -2.625  -0.320  1.00  0.00     0.210 HD
ENDBRANCH  26  38
ENDBRANCH   1  21
TORSDOF 16
