REMARK  9 active torsions:
REMARK  status: ('A' for Active; 'I' for Inactive)
REMARK    1  A    between atoms: N1_2  and  C3_4 
REMARK    2  A    between atoms: C3_4  and  C4_5 
REMARK    3  A    between atoms: N2_6  and  C5_8 
REMARK    4  A    between atoms: C7_10  and  N3_11 
REMARK    5  A    between atoms: N3_11  and  C8_13 
REMARK    6  A    between atoms: C9_16  and  N5_17 
REMARK    7  A    between atoms: N5_17  and  C10_19 
REMARK    8  A    between atoms: C19_31  and  N7_32 
REMARK    9  A    between atoms: C25_39  and  O2_40 
ROOT
HETATM    1  C5  UNL     1       2.525  -0.112   0.815  1.00  0.00     0.067 A 
HETATM    2  C6  UNL     1       1.340   0.482   1.190  1.00  0.00     0.064 A 
HETATM    3  C7  UNL     1       1.066   1.800   0.891  1.00  0.00     0.062 A 
HETATM    4  C19 UNL     1       2.055   2.497   0.189  1.00  0.00     0.060 A 
HETATM    5  C24 UNL     1       3.252   1.899  -0.190  1.00  0.00     0.070 A 
HETATM    6  C25 UNL     1       3.480   0.587   0.128  1.00  0.00     0.094 A 
ENDROOT
BRANCH   3   7
HETATM    7  N3  UNL     1      -0.109   2.465   1.235  1.00  0.00    -0.339 N 
ATOM      8  H3  UNL     1       0.019   3.344   1.736  1.00  0.00     0.167 HD
BRANCH   7   9
HETATM    9  C8  UNL     1      -1.319   2.135   1.015  1.00  0.00     0.144 A 
HETATM   10  N4  UNL     1      -1.753   1.051   0.389  1.00  0.00    -0.175 N 
HETATM   11  C9  UNL     1      -3.049   0.755   0.182  1.00  0.00     0.679 A 
ATOM     12  H4  UNL     1      -1.055   0.394   0.039  1.00  0.00     0.186 HD
HETATM   13  N6  UNL     1      -3.982   1.596   0.626  1.00  0.00    -0.200 N 
HETATM   14  C17 UNL     1      -3.628   2.713   1.267  1.00  0.00     0.133 A 
ATOM     15  H6  UNL     1      -4.969   1.386   0.476  1.00  0.00     0.183 HD
HETATM   16  C18 UNL     1      -2.305   3.013   1.479  1.00  0.00     0.094 A 
HETATM   17 CL1  UNL     1      -1.805   4.473   2.318  1.00  0.00    -0.079 Cl
BRANCH  11  18
HETATM   18  N5  UNL     1      -3.279  -0.330  -0.432  1.00  0.00    -0.221 N 
ATOM     19  H5  UNL     1      -2.439  -0.847  -0.694  1.00  0.00     0.178 HD
BRANCH  18  20
HETATM   20  C10 UNL     1      -4.481  -0.952  -0.818  1.00  0.00     0.103 C 
HETATM   21  C11 UNL     1      -5.465  -1.239   0.299  1.00  0.00     0.030 C 
HETATM   22  C12 UNL     1      -5.896  -2.680   0.159  1.00  0.00    -0.012 C 
HETATM   23  C13 UNL     1      -4.783  -3.531   0.690  1.00  0.00     0.005 C 
HETATM   24  C16 UNL     1      -5.692  -2.864  -1.355  1.00  0.00     0.011 C 
HETATM   25  C14 UNL     1      -3.648  -3.223  -0.293  1.00  0.00     0.007 C 
HETATM   26  C15 UNL     1      -4.259  -2.357  -1.373  1.00  0.00     0.009 C 
ENDBRANCH  18  20
ENDBRANCH  11  18
ENDBRANCH   7   9
ENDBRANCH   3   7
BRANCH   4  27
HETATM   27  N7  UNL     1       1.883   3.858  -0.166  1.00  0.00    -0.375 N 
HETATM   28  C20 UNL     1       0.777   4.243  -1.009  1.00  0.00     0.149 C 
HETATM   29  C21 UNL     1       1.194   5.322  -1.974  1.00  0.00     0.187 C 
HETATM   30  O1  UNL     1       2.572   5.463  -2.030  1.00  0.00    -0.388 OA
HETATM   31  C22 UNL     1       3.105   5.879  -0.805  1.00  0.00     0.187 C 
HETATM   32  C23 UNL     1       2.791   4.882   0.290  1.00  0.00     0.149 C 
ENDBRANCH   4  27
BRANCH   1  33
HETATM   33  N2  UNL     1       2.779  -1.491   1.136  1.00  0.00    -0.366 N 
HETATM   34  C4  UNL     1       3.090  -2.286   0.152  1.00  0.00     0.091 C 
ATOM     35  H2  UNL     1       2.718  -1.833   2.095  1.00  0.00     0.165 HD
BRANCH  34  36
HETATM   36  C3  UNL     1       3.353  -3.695   0.459  1.00  0.00     0.315 C 
BRANCH  36  37
HETATM   37  N1  UNL     1       4.508  -4.216  -0.250  1.00  0.00     0.084 N 
HETATM   38  C1  UNL     1       5.742  -3.645   0.196  1.00  0.00     0.309 C 
HETATM   39  C2  UNL     1       4.548  -5.647  -0.015  1.00  0.00     0.309 C 
ENDBRANCH  36  37
ENDBRANCH  34  36
ENDBRANCH   1  33
BRANCH   6  40
HETATM   40  O2  UNL     1       4.673  -0.027  -0.244  1.00  0.00    -0.358 OA
ATOM     41  H2  UNL     1       5.336   0.458  -0.721  1.00  0.00     0.217 HD
ENDBRANCH   6  40
TORSDOF 9
