REMARK  8 active torsions:
REMARK  status: ('A' for Active; 'I' for Inactive)
REMARK    1  A    between atoms: C2_2  and  O1_3 
REMARK    2  A    between atoms: O1_3  and  C3_4 
REMARK    3  A    between atoms: C5_6  and  O2_7 
REMARK    4  A    between atoms: C9_12  and  C10_13 
REMARK       I    between atoms: C10_13  and  N1_15 
REMARK    5  A    between atoms: C16_21  and  O4_22 
REMARK    6  A    between atoms: C16_21  and  O5_24 
REMARK    7  A    between atoms: C20_30  and  N2_31 
REMARK    8  A    between atoms: N2_31  and  C21_33 
ROOT
HETATM    1  C10 UNL     1       0.978  -0.326   2.179  1.00  0.00     0.259 C 
HETATM    2  O3  UNL     1       1.179  -0.697   3.362  1.00  0.00    -0.267 OA
HETATM    3  N1  UNL     1      -0.199  -0.660   1.491  1.00  0.00    -0.314 N 
HETATM    4  C11 UNL     1      -1.223  -1.445   2.126  1.00  0.00     0.227 C 
HETATM    5  C12 UNL     1      -2.533  -0.736   1.990  1.00  0.00     0.061 C 
HETATM    6  C13 UNL     1      -2.791  -0.194   0.580  1.00  0.00     0.019 C 
HETATM    7  C14 UNL     1      -2.625  -1.296  -0.446  1.00  0.00     0.006 C 
HETATM    8  C15 UNL     1      -3.239  -2.597  -0.095  1.00  0.00     0.076 C 
HETATM    9  C16 UNL     1      -2.091  -3.573  -0.390  1.00  0.00     0.186 C 
HETATM   10  C17 UNL     1      -0.937  -2.746   0.211  1.00  0.00     0.192 C 
HETATM   11  O6  UNL     1      -1.208  -2.706   1.563  1.00  0.00    -0.355 OA
HETATM   12  C18 UNL     1      -1.147  -1.453  -0.523  1.00  0.00     0.050 C 
HETATM   13  C19 UNL     1      -0.504  -0.267   0.107  1.00  0.00     0.120 C 
HETATM   14  C20 UNL     1      -1.684   0.726   0.168  1.00  0.00     0.105 C 
ENDROOT
BRANCH   1  15
HETATM   15  C9  UNL     1       2.027   0.473   1.544  1.00  0.00     0.067 A 
HETATM   16  C3  UNL     1       3.017  -0.192   0.841  1.00  0.00     0.087 A 
HETATM   17  C4  UNL     1       3.982   0.593   0.252  1.00  0.00     0.076 A 
HETATM   18  C5  UNL     1       3.953   1.987   0.365  1.00  0.00     0.092 A 
HETATM   19  C7  UNL     1       2.943   2.597   1.078  1.00  0.00     0.068 A 
HETATM   20 CL1  UNL     1       2.907   4.359   1.221  1.00  0.00    -0.081 Cl
HETATM   21  C8  UNL     1       1.978   1.830   1.668  1.00  0.00     0.046 A 
BRANCH  16  22
HETATM   22  O1  UNL     1       3.012  -1.578   0.753  1.00  0.00    -0.350 OA
BRANCH  22  23
HETATM   23  C2  UNL     1       3.948  -2.369   0.079  1.00  0.00     0.171 C 
HETATM   24  C1  UNL     1       5.357  -2.249   0.564  1.00  0.00     0.034 C 
ENDBRANCH  22  23
ENDBRANCH  16  22
BRANCH  18  25
HETATM   25  O2  UNL     1       4.908   2.787  -0.216  1.00  0.00    -0.354 OA
HETATM   26  C6  UNL     1       5.973   2.268  -0.958  1.00  0.00     0.210 C 
ENDBRANCH  18  25
ENDBRANCH   1  15
BRANCH  14  27
HETATM   27  N2  UNL     1      -1.850   1.363  -1.023  1.00  0.00    -0.407 N 
ATOM     28  H2  UNL     1      -1.229   1.053  -1.770  1.00  0.00     0.154 HD
BRANCH  27  29
HETATM   29  C21 UNL     1      -2.729   2.362  -1.372  1.00  0.00     0.015 C 
HETATM   30  C22 UNL     1      -4.179   2.016  -1.311  1.00  0.00     0.037 C 
HETATM   31  C23 UNL     1      -2.500   2.878  -2.808  1.00  0.00     0.037 C 
HETATM   32  C24 UNL     1      -2.585   3.623  -0.496  1.00  0.00     0.037 C 
ENDBRANCH  27  29
ENDBRANCH  14  27
BRANCH   9  33
HETATM   33  O4  UNL     1      -2.302  -4.736   0.325  1.00  0.00    -0.363 OA
ATOM     34  H4  UNL     1      -1.592  -5.340   0.142  1.00  0.00     0.213 HD
ENDBRANCH   9  33
BRANCH   9  35
HETATM   35  O5  UNL     1      -1.934  -3.811  -1.725  1.00  0.00    -0.363 OA
ATOM     36  H5  UNL     1      -1.224  -4.415  -1.908  1.00  0.00     0.213 HD
ENDBRANCH   9  35
TORSDOF 8
