REMARK  12 active torsions:
REMARK  status: ('A' for Active; 'I' for Inactive)
REMARK    1  A    between atoms: C5_6  and  N2_7 
REMARK    2  A    between atoms: N2_7  and  C6_9 
REMARK    3  A    between atoms: C6_9  and  C7_10 
REMARK    4  A    between atoms: C7_10  and  N3_11 
REMARK    5  A    between atoms: N3_11  and  C8_13 
REMARK    6  A    between atoms: C8_13  and  C9_14 
REMARK    7  A    between atoms: C9_14  and  N4_15 
REMARK    8  A    between atoms: N4_15  and  C10_17 
REMARK    9  A    between atoms: C13_20  and  N5_21 
REMARK   10  A    between atoms: N5_21  and  C14_23 
REMARK   11  A    between atoms: C14_23  and  C15_24 
REMARK   12  A    between atoms: C21_31  and  O2_32 
ROOT
HETATM    1  N1  UNL     1      -9.965   3.519  -0.468  1.00  0.00    -0.191 NA
HETATM    2  C1  UNL     1      -9.098   2.802  -0.254  1.00  0.00     0.099 C 
HETATM    3  C2  UNL     1      -8.017   1.912  -0.014  1.00  0.00     0.047 A 
HETATM    4  C3  UNL     1      -6.764   2.421   0.308  1.00  0.00     0.025 A 
HETATM    5  C4  UNL     1      -5.737   1.533   0.533  1.00  0.00     0.033 A 
HETATM    6  C5  UNL     1      -5.899   0.161   0.452  1.00  0.00     0.061 A 
HETATM    7  C21 UNL     1      -7.178  -0.308   0.125  1.00  0.00     0.093 A 
HETATM    8  C22 UNL     1      -8.231   0.562  -0.107  1.00  0.00     0.061 A 
ENDROOT
BRANCH   7   9
HETATM    9  O2  UNL     1      -7.425  -1.650   0.025  1.00  0.00    -0.358 OA
ATOM     10  H2  UNL     1      -8.292  -1.968  -0.197  1.00  0.00     0.217 HD
ENDBRANCH   7   9
BRANCH   6  11
HETATM   11  N2  UNL     1      -4.823  -0.732   0.682  1.00  0.00    -0.383 N 
ATOM     12  H2  UNL     1      -4.959  -1.742   0.632  1.00  0.00     0.160 HD
BRANCH  11  13
HETATM   13  C6  UNL     1      -3.519  -0.167   0.992  1.00  0.00     0.164 C 
BRANCH  13  14
HETATM   14  C7  UNL     1      -2.491  -1.290   1.134  1.00  0.00     0.079 C 
BRANCH  14  15
HETATM   15  N3  UNL     1      -2.370  -2.065  -0.019  1.00  0.00    -0.379 N 
ATOM     16  H3  UNL     1      -2.676  -3.037   0.028  1.00  0.00     0.164 HD
BRANCH  15  17
HETATM   17  C8  UNL     1      -1.862  -1.607  -1.226  1.00  0.00     0.079 C 
BRANCH  17  18
HETATM   18  C9  UNL     1      -0.410  -1.348  -1.256  1.00  0.00     0.164 C 
BRANCH  18  19
HETATM   19  N4  UNL     1       0.126  -0.335  -0.404  1.00  0.00    -0.385 N 
ATOM     20  H4  UNL     1      -0.479   0.287   0.132  1.00  0.00     0.160 HD
BRANCH  19  21
HETATM   21  C10 UNL     1       1.559  -0.233  -0.338  1.00  0.00     0.028 A 
HETATM   22  C11 UNL     1       2.344  -0.930  -1.230  1.00  0.00     0.031 A 
HETATM   23  C12 UNL     1       3.721  -0.851  -1.152  1.00  0.00     0.031 A 
HETATM   24  C13 UNL     1       4.323  -0.078  -0.186  1.00  0.00     0.028 A 
HETATM   25  C19 UNL     1       3.538   0.614   0.698  1.00  0.00     0.031 A 
HETATM   26  C20 UNL     1       2.140   0.540   0.626  1.00  0.00     0.031 A 
BRANCH  24  27
HETATM   27  N5  UNL     1       5.724  -0.022  -0.132  1.00  0.00    -0.384 N 
ATOM     28  H5  UNL     1       6.280  -0.518  -0.828  1.00  0.00     0.160 HD
BRANCH  27  29
HETATM   29  C14 UNL     1       6.379   0.736   0.906  1.00  0.00     0.184 C 
BRANCH  29  30
HETATM   30  C15 UNL     1       7.879   0.627   0.757  1.00  0.00     0.070 A 
HETATM   31  C16 UNL     1       8.727   1.514   0.138  1.00  0.00     0.036 A 
HETATM   32  C17 UNL     1      10.026   1.045   0.220  1.00  0.00     0.027 A 
HETATM   33  C18 UNL     1       9.899  -0.157   0.916  1.00  0.00     0.142 A 
HETATM   34  O1  UNL     1       8.633  -0.349   1.202  1.00  0.00    -0.325 OA
ENDBRANCH  29  30
ENDBRANCH  27  29
ENDBRANCH  24  27
ENDBRANCH  19  21
ENDBRANCH  18  19
ENDBRANCH  17  18
ENDBRANCH  15  17
ENDBRANCH  14  15
ENDBRANCH  13  14
ENDBRANCH  11  13
ENDBRANCH   6  11
TORSDOF 12
