REMARK  12 active torsions:
REMARK  status: ('A' for Active; 'I' for Inactive)
REMARK    1  A    between atoms: C1_2  and  N1_3 
REMARK    2  A    between atoms: N1_3  and  C2_5 
REMARK    3  A    between atoms: C2_5  and  C3_6 
REMARK    4  A    between atoms: C3_6  and  C4_7 
REMARK    5  A    between atoms: C3_6  and  C11_17 
REMARK    6  A    between atoms: C11_17  and  C12_18 
REMARK    7  A    between atoms: C11_17  and  N4_25 
REMARK    8  A    between atoms: C12_18  and  C13_19 
REMARK    9  A    between atoms: C20_27  and  C21_28 
REMARK   10  A    between atoms: C21_28  and  N5_29 
REMARK   11  A    between atoms: N6_32  and  C24_33 
REMARK   12  A    between atoms: C24_33  and  C25_34 
ROOT
HETATM    1  N4  UNL     1      -2.177   0.226   0.566  1.00  0.00    -0.278 N 
HETATM    2  C19 UNL     1      -1.335   0.409  -0.452  1.00  0.00     0.140 A 
HETATM    3  C20 UNL     1      -0.466   1.462  -0.138  1.00  0.00     0.062 A 
HETATM    4  N7  UNL     1      -0.850   1.857   1.082  1.00  0.00    -0.287 N 
ATOM      5  H7  UNL     1      -0.427   2.613   1.620  1.00  0.00     0.188 HD
HETATM    6  N8  UNL     1      -1.873   1.104   1.480  1.00  0.00    -0.240 N 
ATOM      7  H8  UNL     1      -2.352   1.201   2.375  1.00  0.00     0.208 HD
ENDROOT
BRANCH   1   8
HETATM    8  C11 UNL     1      -3.249  -0.832   0.570  1.00  0.00     0.147 C 
BRANCH   8   9
HETATM    9  C3  UNL     1      -4.363  -0.311  -0.213  1.00  0.00     0.104 C 
BRANCH   9  10
HETATM   10  C2  UNL     1      -5.692  -0.931  -0.275  1.00  0.00     0.076 C 
BRANCH  10  11
HETATM   11  N1  UNL     1      -5.966  -2.126  -0.936  1.00  0.00    -0.347 N 
ATOM     12  H1  UNL     1      -5.235  -2.617  -1.451  1.00  0.00     0.167 HD
BRANCH  11  13
HETATM   13  C1  UNL     1      -7.289  -2.647  -0.877  1.00  0.00     0.352 C 
HETATM   14  O1  UNL     1      -8.215  -2.058  -0.247  1.00  0.00    -0.283 OA
ENDBRANCH  11  13
ENDBRANCH  10  11
ENDBRANCH   9  10
BRANCH   9  15
HETATM   15  C4  UNL     1      -4.686   1.017   0.516  1.00  0.00     0.044 A 
HETATM   16  C5  UNL     1      -5.076   1.069   1.810  1.00  0.00     0.116 A 
HETATM   17  N2  UNL     1      -5.303   2.377   2.161  1.00  0.00    -0.350 N 
HETATM   18  C6  UNL     1      -5.037   3.092   1.039  1.00  0.00     0.111 A 
ATOM     19  H2  UNL     1      -5.606   2.733   3.068  1.00  0.00     0.166 HD
HETATM   20  C7  UNL     1      -5.112   4.443   0.862  1.00  0.00     0.049 A 
HETATM   21  N3  UNL     1      -4.658   2.248   0.035  1.00  0.00    -0.310 N 
HETATM   22  C8  UNL     1      -4.798   4.975  -0.367  1.00  0.00     0.005 A 
HETATM   23  C9  UNL     1      -4.421   4.122  -1.364  1.00  0.00     0.018 A 
HETATM   24  C10 UNL     1      -4.350   2.761  -1.167  1.00  0.00     0.099 A 
ENDBRANCH   9  15
ENDBRANCH   8   9
BRANCH   8  25
HETATM   25  C12 UNL     1      -2.526  -2.081   0.505  1.00  0.00     0.012 C 
BRANCH  25  26
HETATM   26  C13 UNL     1      -3.064  -3.405   0.697  1.00  0.00    -0.038 A 
HETATM   27  C14 UNL     1      -3.163  -4.297  -0.357  1.00  0.00     0.011 A 
HETATM   28  C15 UNL     1      -3.665  -5.570  -0.239  1.00  0.00     0.001 A 
HETATM   29  C16 UNL     1      -4.090  -5.970   1.003  1.00  0.00     0.000 A 
HETATM   30  C17 UNL     1      -4.018  -5.122   2.108  1.00  0.00     0.001 A 
HETATM   31  C18 UNL     1      -3.512  -3.860   1.950  1.00  0.00     0.011 A 
ENDBRANCH  25  26
ENDBRANCH   8  25
ENDBRANCH   1   8
BRANCH   3  32
HETATM   32  C21 UNL     1       0.616   1.961  -1.013  1.00  0.00     0.186 C 
BRANCH  32  33
HETATM   33  N5  UNL     1       1.930   1.588  -0.505  1.00  0.00    -0.341 N 
HETATM   34  C22 UNL     1       2.517   0.329  -0.888  1.00  0.00     0.146 C 
HETATM   35  C23 UNL     1       3.963   0.381  -1.240  1.00  0.00     0.143 C 
HETATM   36  N6  UNL     1       4.829   0.499  -0.070  1.00  0.00    -0.374 N 
HETATM   37  C31 UNL     1       4.861   1.661   0.753  1.00  0.00     0.046 A 
HETATM   38  C32 UNL     1       6.071   1.819   1.384  1.00  0.00     0.030 A 
HETATM   39  C36 UNL     1       3.857   2.601   0.977  1.00  0.00     0.058 A 
HETATM   40  C33 UNL     1       6.251   2.893   2.211  1.00  0.00     0.002 A 
HETATM   41  C34 UNL     1       5.250   3.823   2.431  1.00  0.00     0.001 A 
HETATM   42  C35 UNL     1       4.026   3.677   1.801  1.00  0.00     0.019 A 
HETATM   43  C37 UNL     1       2.508   2.555   0.360  1.00  0.00     0.256 C 
HETATM   44  O2  UNL     1       1.794   3.563   0.687  1.00  0.00    -0.267 OA
BRANCH  36  45
HETATM   45  C24 UNL     1       5.698  -0.555   0.311  1.00  0.00     0.161 C 
BRANCH  45  46
HETATM   46  C25 UNL     1       6.789  -0.882  -0.648  1.00  0.00    -0.040 A 
HETATM   47  C26 UNL     1       7.035  -0.087  -1.716  1.00  0.00     0.009 A 
HETATM   48  C27 UNL     1       8.071  -0.455  -2.578  1.00  0.00     0.001 A 
HETATM   49  C28 UNL     1       8.824  -1.588  -2.357  1.00  0.00     0.000 A 
HETATM   50  C29 UNL     1       8.532  -2.363  -1.253  1.00  0.00     0.001 A 
HETATM   51  C30 UNL     1       7.518  -2.027  -0.387  1.00  0.00     0.009 A 
ENDBRANCH  45  46
ENDBRANCH  36  45
ENDBRANCH  32  33
ENDBRANCH   3  32
TORSDOF 12
