REMARK  5 active torsions:
REMARK  status: ('A' for Active; 'I' for Inactive)
REMARK    1  A    between atoms: C13_14  and  C14_15 
REMARK    2  A    between atoms: C14_15  and  C15_16 
REMARK    3  A    between atoms: C15_16  and  O2_17 
REMARK    4  A    between atoms: O2_17  and  S1_18 
REMARK    5  A    between atoms: C20_26  and  O6_27 
ROOT
HETATM    1  C1  UNL     1      -2.057   2.582  -2.425  1.00  0.00     0.011 C 
HETATM    2  C2  UNL     1      -2.686   1.612  -1.515  1.00  0.00    -0.007 C 
HETATM    3  C3  UNL     1      -2.284   1.688  -0.081  1.00  0.00     0.017 C 
HETATM    4  C4  UNL     1      -2.741   0.360   0.461  1.00  0.00    -0.007 C 
HETATM    5  C5  UNL     1      -3.944   0.800   1.222  1.00  0.00     0.019 C 
HETATM    6  C6  UNL     1      -1.788  -0.483   1.226  1.00  0.00     0.009 C 
HETATM    7  C7  UNL     1      -0.662   0.194   1.836  1.00  0.00     0.024 C 
HETATM    8  C8  UNL     1       0.682   0.152   1.171  1.00  0.00     0.024 C 
HETATM    9  C9  UNL     1       1.325   1.526   1.498  1.00  0.00     0.024 C 
HETATM   10  C10 UNL     1       1.520  -0.813   1.907  1.00  0.00     0.136 C 
HETATM   11  O1  UNL     1       1.079  -1.223   2.961  1.00  0.00    -0.297 OA
HETATM   12  C11 UNL     1       2.831  -1.396   1.614  1.00  0.00     0.079 C 
HETATM   13  C12 UNL     1       2.859  -1.540   0.106  1.00  0.00     0.013 C 
HETATM   14  C13 UNL     1       2.355  -0.223  -0.405  1.00  0.00    -0.003 C 
HETATM   15  C16 UNL     1       0.814  -0.192  -0.264  1.00  0.00     0.027 C 
HETATM   16  C17 UNL     1       0.113   0.445  -1.382  1.00  0.00    -0.024 C 
HETATM   17  C18 UNL     1      -1.024  -0.105  -2.117  1.00  0.00    -0.022 C 
HETATM   18  C19 UNL     1      -2.466   0.177  -1.803  1.00  0.00     0.047 C 
HETATM   19  C20 UNL     1      -3.005  -0.543  -0.718  1.00  0.00     0.079 C 
HETATM   20  C21 UNL     1      -4.220  -1.183  -0.291  1.00  0.00     0.118 C 
HETATM   21  C22 UNL     1      -3.771  -1.917   0.981  1.00  0.00     0.134 C 
HETATM   22  O7  UNL     1      -4.281  -2.984   1.216  1.00  0.00    -0.297 OA
HETATM   23  C23 UNL     1      -2.749  -1.378   1.931  1.00  0.00     0.056 C 
HETATM   24  C24 UNL     1      -2.184  -2.587   2.607  1.00  0.00     0.018 C 
ENDROOT
BRANCH  14  25
HETATM   25  C14 UNL     1       2.940   0.096  -1.701  1.00  0.00     0.033 C 
BRANCH  25  26
HETATM   26  C15 UNL     1       4.443   0.180  -1.572  1.00  0.00     0.193 C 
BRANCH  26  27
HETATM   27  O2  UNL     1       4.832   1.156  -0.658  1.00  0.00    -0.257 OA
BRANCH  27  28
HETATM   28  S1  UNL     1       6.471   1.277  -0.490  1.00  0.00     0.251 S 
HETATM   29  O3  UNL     1       6.780   1.951   0.817  1.00  0.00    -0.572 OA
HETATM   30  O4  UNL     1       7.117   2.077  -1.580  1.00  0.00    -0.572 OA
HETATM   31  O5  UNL     1       7.118  -0.282  -0.406  1.00  0.00    -0.572 OA
ENDBRANCH  27  28
ENDBRANCH  26  27
ENDBRANCH  25  26
ENDBRANCH  14  25
BRANCH  19  32
HETATM   32  O6  UNL     1      -2.245  -1.753  -0.835  1.00  0.00    -0.388 OA
ATOM     33  H6  UNL     1      -2.411  -2.322  -1.578  1.00  0.00     0.210 HD
ENDBRANCH  19  32
TORSDOF 5
