REMARK  14 active torsions:
REMARK  status: ('A' for Active; 'I' for Inactive)
REMARK    1  A    between atoms: C6_7  and  C7_8 
REMARK    2  A    between atoms: C7_8  and  C8_9 
REMARK    3  A    between atoms: C8_9  and  C9_10 
REMARK    4  A    between atoms: C9_10  and  N2_11 
REMARK    5  A    between atoms: N2_11  and  C12_14 
REMARK    6  A    between atoms: C12_14  and  C13_15 
REMARK    7  A    between atoms: C17_19  and  C18_20 
REMARK    8  A    between atoms: C21_23  and  C22_24 
REMARK    9  A    between atoms: C22_24  and  C23_25 
REMARK   10  A    between atoms: C26_28  and  C27_29 
REMARK   11  A    between atoms: C27_29  and  C28_30 
REMARK   12  A    between atoms: C31_33  and  C32_34 
REMARK   13  A    between atoms: C32_34  and  N3_35 
REMARK   14  A    between atoms: C32_34  and  N4_39 
ROOT
HETATM    1  C18 UNL     1       0.016   0.056  -2.057  1.00  0.00    -0.026 A 
HETATM    2  C19 UNL     1      -0.893   0.865  -2.694  1.00  0.00     0.013 A 
HETATM    3  C20 UNL     1      -2.264   0.586  -2.670  1.00  0.00     0.012 A 
HETATM    4  C21 UNL     1      -2.711  -0.542  -1.981  1.00  0.00    -0.035 A 
HETATM    5  C36 UNL     1      -1.811  -1.369  -1.332  1.00  0.00     0.012 A 
HETATM    6  C37 UNL     1      -0.487  -1.052  -1.386  1.00  0.00     0.013 A 
ENDROOT
BRANCH   4   7
HETATM    7  C22 UNL     1      -4.108  -0.916  -1.930  1.00  0.00     0.028 C 
BRANCH   7   8
HETATM    8  C23 UNL     1      -4.956  -0.446  -1.057  1.00  0.00     0.033 A 
HETATM    9  C24 UNL     1      -4.539   0.465  -0.109  1.00  0.00     0.019 A 
HETATM   10  C25 UNL     1      -5.453   0.964   0.829  1.00  0.00     0.030 A 
HETATM   11  C26 UNL     1      -6.761   0.535   0.788  1.00  0.00     0.035 A 
HETATM   12  N5  UNL     1      -7.144  -0.361  -0.156  1.00  0.00    -0.323 N 
HETATM   13  C35 UNL     1      -6.287  -0.854  -1.064  1.00  0.00     0.256 A 
ATOM     14  H5  UNL     1      -8.116  -0.670  -0.176  1.00  0.00     0.169 HD
HETATM   15  O1  UNL     1      -6.671  -1.697  -1.943  1.00  0.00    -0.267 OA
BRANCH  11  16
HETATM   16  C27 UNL     1      -7.625   0.993   1.657  1.00  0.00     0.041 C 
BRANCH  16  17
HETATM   17  C28 UNL     1      -9.002   0.525   1.596  1.00  0.00    -0.034 A 
HETATM   18  C29 UNL     1      -9.371  -0.678   2.198  1.00  0.00     0.012 A 
HETATM   19  C30 UNL     1     -10.671  -1.141   2.144  1.00  0.00     0.012 A 
HETATM   20  C31 UNL     1     -11.634  -0.410   1.484  1.00  0.00    -0.001 A 
HETATM   21  C33 UNL     1     -11.270   0.790   0.882  1.00  0.00     0.012 A 
HETATM   22  C34 UNL     1      -9.957   1.263   0.934  1.00  0.00     0.012 A 
BRANCH  20  23
HETATM   23  C32 UNL     1     -13.028  -0.933   1.443  1.00  0.00     0.411 C 
BRANCH  23  24
HETATM   24  N3  UNL     1     -13.515  -0.804   0.093  1.00  0.00    -0.046 N 
ATOM     25  H33 UNL     1     -13.441   0.149  -0.263  1.00  0.00     0.277 HD
ATOM     26  H32 UNL     1     -12.905  -1.253  -0.590  1.00  0.00     0.277 HD
ATOM     27  H31 UNL     1     -14.470  -1.162   0.065  1.00  0.00     0.277 HD
ENDBRANCH  23  24
BRANCH  23  28
HETATM   28  N4  UNL     1     -13.014  -2.358   1.766  1.00  0.00    -0.046 N 
ATOM     29  H43 UNL     1     -12.384  -2.886   1.162  1.00  0.00     0.277 HD
ATOM     30  H42 UNL     1     -12.554  -2.549   2.656  1.00  0.00     0.277 HD
ATOM     31  H41 UNL     1     -13.969  -2.716   1.738  1.00  0.00     0.277 HD
ENDBRANCH  23  28
ENDBRANCH  20  23
ENDBRANCH  16  17
ENDBRANCH  11  16
ENDBRANCH   7   8
ENDBRANCH   4   7
BRANCH   1  32
HETATM   32  C17 UNL     1       1.449   0.332  -2.097  1.00  0.00    -0.025 A 
HETATM   33  C16 UNL     1       2.038   0.929  -3.193  1.00  0.00     0.012 A 
HETATM   34  C15 UNL     1       3.402   1.154  -3.210  1.00  0.00     0.001 A 
HETATM   35  C14 UNL     1       4.230   0.797  -2.147  1.00  0.00     0.009 A 
HETATM   36  C13 UNL     1       3.647   0.205  -1.058  1.00  0.00    -0.032 A 
HETATM   37  C38 UNL     1       2.263  -0.018  -1.050  1.00  0.00     0.021 A 
BRANCH  36  38
HETATM   38  C12 UNL     1       4.483  -0.207   0.089  1.00  0.00     0.275 C 
BRANCH  38  39
HETATM   39  N2  UNL     1       5.300   0.783   0.679  1.00  0.00    -0.071 N 
HETATM   40  C10 UNL     1       4.818   2.111   0.400  1.00  0.00     0.272 C 
HETATM   41  C11 UNL     1       5.192   0.656   2.158  1.00  0.00     0.272 C 
BRANCH  39  42
HETATM   42  C9  UNL     1       6.721   0.707   0.371  1.00  0.00     0.237 C 
BRANCH  42  43
HETATM   43  C8  UNL     1       7.185  -0.596  -0.158  1.00  0.00     0.034 C 
BRANCH  43  44
HETATM   44  C7  UNL     1       8.671  -0.582  -0.391  1.00  0.00     0.059 C 
BRANCH  44  45
HETATM   45  C6  UNL     1       9.459  -0.456   0.816  1.00  0.00     0.010 A 
HETATM   46  N1  UNL     1      10.797  -0.207   0.695  1.00  0.00    -0.364 N 
HETATM   47  C1  UNL     1      11.329  -0.040  -0.631  1.00  0.00     0.155 C 
HETATM   48  C2  UNL     1      11.597  -0.121   1.771  1.00  0.00     0.090 A 
HETATM   49  C3  UNL     1      11.130  -0.277   3.058  1.00  0.00     0.017 A 
HETATM   50  C4  UNL     1       9.787  -0.529   3.207  1.00  0.00     0.003 A 
HETATM   51  C5  UNL     1       8.973  -0.614   2.068  1.00  0.00     0.025 A 
ENDBRANCH  44  45
ENDBRANCH  43  44
ENDBRANCH  42  43
ENDBRANCH  39  42
ENDBRANCH  38  39
ENDBRANCH  36  38
ENDBRANCH   1  32
TORSDOF 14
