REMARK  15 active torsions:
REMARK  status: ('A' for Active; 'I' for Inactive)
REMARK    1  A    between atoms: C2_2  and  C3_3 
REMARK    2  A    between atoms: C7_7  and  C8_8 
REMARK    3  A    between atoms: C8_8  and  C9_9 
REMARK    4  A    between atoms: C9_9  and  C10_10 
REMARK    5  A    between atoms: C10_10  and  N1_11 
REMARK    6  A    between atoms: C14_15  and  C15_16 
REMARK    7  A    between atoms: C15_16  and  C16_17 
REMARK    8  A    between atoms: C16_17  and  C18_19 
REMARK    9  A    between atoms: C16_17  and  C25_33 
REMARK   10  A    between atoms: C20_21  and  N2_22 
REMARK   11  A    between atoms: N2_22  and  C21_24 
REMARK   12  A    between atoms: N7_42  and  C32_43 
REMARK   13  A    between atoms: C32_43  and  C33_44 
REMARK   14  A    between atoms: C34_45  and  C35_46 
REMARK   15  A    between atoms: C35_46  and  O1_47 
ROOT
HETATM    1  C16 UNL     1      -2.215  -0.193   0.365  1.00  0.00     0.077 C 
HETATM    2  C17 UNL     1      -1.358  -0.343  -0.917  1.00  0.00     0.035 C 
ENDROOT
BRANCH   1   3
HETATM    3  C15 UNL     1      -1.313   0.417   1.341  1.00  0.00     0.009 C 
BRANCH   3   4
HETATM    4  C14 UNL     1      -0.019  -0.161   1.730  1.00  0.00    -0.023 A 
HETATM    5  C13 UNL     1       0.149  -0.972   2.823  1.00  0.00     0.014 A 
HETATM    6  C12 UNL     1       1.386  -1.473   3.146  1.00  0.00     0.018 A 
HETATM    7  C11 UNL     1       2.487  -1.178   2.391  1.00  0.00     0.090 A 
HETATM    8  N1  UNL     1       2.328  -0.379   1.316  1.00  0.00    -0.366 N 
HETATM    9  C36 UNL     1       1.141   0.116   0.986  1.00  0.00     0.101 A 
BRANCH   8  10
HETATM   10  C10 UNL     1       3.457  -0.023   0.472  1.00  0.00     0.128 C 
BRANCH  10  11
HETATM   11  C9  UNL     1       3.685  -0.959  -0.652  1.00  0.00     0.025 C 
BRANCH  11  12
HETATM   12  C8  UNL     1       4.851  -0.526  -1.470  1.00  0.00     0.040 C 
BRANCH  12  13
HETATM   13  C7  UNL     1       6.133  -0.445  -0.773  1.00  0.00    -0.058 A 
HETATM   14  C6  UNL     1       7.021  -1.500  -0.661  1.00  0.00     0.007 A 
HETATM   15  C5  UNL     1       8.232  -1.382   0.004  1.00  0.00     0.001 A 
HETATM   16  C4  UNL     1       8.564  -0.180   0.573  1.00  0.00     0.007 A 
HETATM   17  C3  UNL     1       7.708   0.896   0.485  1.00  0.00    -0.058 A 
HETATM   18  C37 UNL     1       6.500   0.746  -0.190  1.00  0.00     0.014 A 
BRANCH  17  19
HETATM   19  C2  UNL     1       8.083   2.190   1.107  1.00  0.00     0.034 C 
HETATM   20  C1  UNL     1       8.845   3.060   0.127  1.00  0.00     0.010 C 
ENDBRANCH  17  19
ENDBRANCH  12  13
ENDBRANCH  11  12
ENDBRANCH  10  11
ENDBRANCH   8  10
ENDBRANCH   3   4
ENDBRANCH   1   3
BRANCH   1  21
HETATM   21  C18 UNL     1      -2.726  -1.568   0.531  1.00  0.00     0.031 A 
HETATM   22  C19 UNL     1      -3.150  -2.271  -0.618  1.00  0.00     0.056 A 
HETATM   23  C20 UNL     1      -3.621  -3.579  -0.563  1.00  0.00     0.036 A 
HETATM   24  C23 UNL     1      -3.672  -4.199   0.659  1.00  0.00     0.046 A 
HETATM   25  C24 UNL     1      -3.267  -3.532   1.786  1.00  0.00     0.090 A 
HETATM   26  N4  UNL     1      -2.828  -2.276   1.646  1.00  0.00    -0.368 N 
ATOM     27  H4  UNL     1      -2.536  -1.806   2.503  1.00  0.00     0.165 HD
BRANCH  23  28
HETATM   28  N2  UNL     1      -4.003  -4.214  -1.598  1.00  0.00    -0.346 N 
ATOM     29  H2  UNL     1      -3.974  -3.770  -2.516  1.00  0.00     0.167 HD
BRANCH  28  30
HETATM   30  C21 UNL     1      -4.470  -5.546  -1.460  1.00  0.00     0.071 C 
HETATM   31  C22 UNL     1      -3.569  -6.726  -1.529  1.00  0.00     0.088 C 
HETATM   32  N3  UNL     1      -5.718  -5.760  -1.266  1.00  0.00    -0.389 N 
ATOM     33  H32 UNL     1      -6.336  -4.950  -1.219  1.00  0.00     0.157 HD
ATOM     34  H31 UNL     1      -6.054  -6.718  -1.167  1.00  0.00     0.157 HD
ENDBRANCH  28  30
ENDBRANCH  23  28
ENDBRANCH   1  21
BRANCH   1  35
HETATM   35  C25 UNL     1      -3.346   0.757   0.018  1.00  0.00     0.121 A 
HETATM   36  N5  UNL     1      -4.491   0.825   0.760  1.00  0.00    -0.275 N 
HETATM   37  C26 UNL     1      -4.879   0.127   1.938  1.00  0.00     0.180 C 
HETATM   38  N6  UNL     1      -5.310   1.751   0.234  1.00  0.00    -0.248 N 
HETATM   39  C27 UNL     1      -6.541   2.193   0.586  1.00  0.00     0.118 A 
HETATM   40  C31 UNL     1      -4.717   2.272  -0.815  1.00  0.00     0.131 A 
HETATM   41  C28 UNL     1      -7.212   3.181  -0.116  1.00  0.00     0.019 A 
HETATM   42  C29 UNL     1      -6.582   3.720  -1.213  1.00  0.00     0.005 A 
HETATM   43  C30 UNL     1      -5.310   3.252  -1.564  1.00  0.00     0.051 A 
HETATM   44  N7  UNL     1      -3.487   1.653  -0.952  1.00  0.00    -0.308 N 
BRANCH  44  45
HETATM   45  C32 UNL     1      -2.613   2.070  -1.978  1.00  0.00     0.225 C 
BRANCH  45  46
HETATM   46  C33 UNL     1      -1.798   3.241  -1.504  1.00  0.00    -0.084 C 
HETATM   47  C34 UNL     1      -1.126   4.168  -1.129  1.00  0.00    -0.079 C 
BRANCH  47  48
HETATM   48  C35 UNL     1      -0.289   5.283  -0.687  1.00  0.00     0.257 C 
BRANCH  48  49
HETATM   49  O1  UNL     1      -0.012   6.059  -1.832  1.00  0.00    -0.389 OA
ATOM     50  H1  UNL     1       0.532   6.783  -1.545  1.00  0.00     0.210 HD
ENDBRANCH  48  49
ENDBRANCH  47  48
ENDBRANCH  45  46
ENDBRANCH  44  45
ENDBRANCH   1  35
TORSDOF 15
