REMARK  10 active torsions:
REMARK  status: ('A' for Active; 'I' for Inactive)
REMARK    1  A    between atoms: C2_3  and  C3_4 
REMARK    2  A    between atoms: C3_4  and  C4_5 
REMARK    3  A    between atoms: C4_5  and  C5_6 
REMARK    4  A    between atoms: C5_6  and  N2_7 
REMARK    5  A    between atoms: C9_11  and  C10_12 
REMARK       I    between atoms: N3_20  and  C18_22 
REMARK    6  A    between atoms: C18_22  and  C19_24 
REMARK    7  A    between atoms: C19_24  and  C20_25 
REMARK    8  A    between atoms: C20_25  and  C21_26 
REMARK    9  A    between atoms: C21_26  and  N4_27 
REMARK   10  A    between atoms: C29_40  and  C30_41 
ROOT
HETATM    1  N2  UNL     1      -1.057  -1.441  -2.331  1.00  0.00    -0.366 N 
HETATM    2  C6  UNL     1      -1.233  -1.035  -3.598  1.00  0.00     0.090 A 
HETATM    3  C7  UNL     1      -0.290  -0.271  -4.261  1.00  0.00     0.018 A 
HETATM    4  C8  UNL     1       0.866   0.094  -3.619  1.00  0.00     0.015 A 
HETATM    5  C9  UNL     1       1.037  -0.324  -2.327  1.00  0.00    -0.010 A 
HETATM    6  C23 UNL     1       0.077  -1.084  -1.699  1.00  0.00     0.102 A 
ENDROOT
BRANCH   5   7
HETATM    7  C10 UNL     1       2.226   0.001  -1.548  1.00  0.00    -0.024 A 
HETATM    8  C11 UNL     1       2.851   1.204  -1.802  1.00  0.00     0.014 A 
HETATM    9  C12 UNL     1       3.975   1.522  -1.071  1.00  0.00     0.031 A 
HETATM   10  C13 UNL     1       4.495   0.680  -0.094  1.00  0.00     0.040 A 
HETATM   11  C14 UNL     1       3.868  -0.517   0.155  1.00  0.00    -0.024 A 
HETATM   12  N7  UNL     1       5.617   0.803   0.760  1.00  0.00    -0.345 N 
HETATM   13  C15 UNL     1       2.729  -0.837  -0.588  1.00  0.00     0.022 A 
HETATM   14  C16 UNL     1       4.589  -1.240   1.225  1.00  0.00     0.117 A 
HETATM   15  C17 UNL     1       5.712  -0.350   1.580  1.00  0.00     0.088 A 
HETATM   16  N3  UNL     1       6.630  -0.585   2.491  1.00  0.00    -0.316 N 
HETATM   17  C18 UNL     1       7.665   0.349   2.744  1.00  0.00     0.223 C 
ATOM     18  H3  UNL     1       6.597  -1.454   3.024  1.00  0.00     0.170 HD
HETATM   19  O1  UNL     1       7.561   1.165   3.688  1.00  0.00    -0.273 OA
ATOM     20  H7  UNL     1       6.257   1.597   0.782  1.00  0.00     0.167 HD
BRANCH  17  21
HETATM   21  C19 UNL     1       8.861   0.340   1.875  1.00  0.00     0.105 C 
BRANCH  21  22
HETATM   22  C20 UNL     1       9.865   1.398   2.290  1.00  0.00     0.029 C 
BRANCH  22  23
HETATM   23  C21 UNL     1      11.073   1.353   1.375  1.00  0.00     0.122 C 
BRANCH  23  24
HETATM   24  N4  UNL     1      11.723   0.075   1.422  1.00  0.00    -0.367 N 
HETATM   25  C22 UNL     1      12.118  -0.581   0.403  1.00  0.00     0.196 C 
HETATM   26  N5  UNL     1      12.749  -1.834   0.578  1.00  0.00    -0.067 NA
HETATM   27  N6  UNL     1      11.929  -0.063  -0.892  1.00  0.00    -0.067 NA
ATOM     28  H4  UNL     1      11.881  -0.340   2.340  1.00  0.00     0.161 HD
ENDBRANCH  23  24
ENDBRANCH  22  23
ENDBRANCH  21  22
ENDBRANCH  17  21
ENDBRANCH   5   7
BRANCH   1  29
HETATM   29  C5  UNL     1      -2.050  -2.230  -1.681  1.00  0.00     0.128 C 
BRANCH  29  30
HETATM   30  C4  UNL     1      -3.043  -1.379  -0.964  1.00  0.00     0.026 C 
BRANCH  30  31
HETATM   31  C3  UNL     1      -3.795  -0.423  -1.856  1.00  0.00     0.059 C 
BRANCH  31  32
HETATM   32  C2  UNL     1      -4.736   0.322  -0.970  1.00  0.00     0.011 A 
HETATM   33  N1  UNL     1      -5.991  -0.113  -0.717  1.00  0.00    -0.354 N 
HETATM   34  C1  UNL     1      -6.479  -1.339  -1.303  1.00  0.00     0.156 C 
HETATM   35  C36 UNL     1      -6.858   0.549   0.084  1.00  0.00     0.045 A 
HETATM   36  C26 UNL     1      -6.422   1.721   0.660  1.00  0.00    -0.009 A 
HETATM   37  C35 UNL     1      -8.135   0.079   0.325  1.00  0.00     0.042 A 
HETATM   38  C25 UNL     1      -5.139   2.195   0.419  1.00  0.00     0.015 A 
HETATM   39  C27 UNL     1      -7.304   2.400   1.478  1.00  0.00     0.014 A 
HETATM   40  C24 UNL     1      -4.279   1.496  -0.403  1.00  0.00     0.026 A 
HETATM   41  C28 UNL     1      -8.581   1.928   1.718  1.00  0.00     0.013 A 
HETATM   42  C29 UNL     1      -9.026   0.746   1.141  1.00  0.00    -0.024 A 
BRANCH  42  43
HETATM   43  C30 UNL     1     -10.371   0.246   1.395  1.00  0.00    -0.023 A 
HETATM   44  C31 UNL     1     -11.114  -0.485   0.493  1.00  0.00     0.029 A 
HETATM   45  C32 UNL     1     -12.392  -0.944   0.775  1.00  0.00     0.088 A 
HETATM   46  N8  UNL     1     -12.917  -0.655   1.987  1.00  0.00    -0.375 N 
HETATM   47  C33 UNL     1     -12.206   0.057   2.878  1.00  0.00     0.088 A 
ATOM     48  H8  UNL     1     -13.855  -0.978   2.226  1.00  0.00     0.164 HD
HETATM   49  C34 UNL     1     -10.935   0.525   2.623  1.00  0.00     0.029 A 
ENDBRANCH  42  43
ENDBRANCH  31  32
ENDBRANCH  30  31
ENDBRANCH  29  30
ENDBRANCH   1  29
TORSDOF 10
