REMARK  11 active torsions:
REMARK  status: ('A' for Active; 'I' for Inactive)
REMARK    1  A    between atoms: O1_2  and  C2_3 
REMARK    2  A    between atoms: C2_3  and  C4_5 
REMARK    3  A    between atoms: C4_5  and  C5_6 
REMARK    4  A    between atoms: C4_5  and  C8_14 
REMARK    5  A    between atoms: C5_6  and  O2_7 
REMARK    6  A    between atoms: C5_6  and  C6_9 
REMARK    7  A    between atoms: C6_9  and  C7_10 
REMARK    8  A    between atoms: C9_15  and  O3_16 
REMARK    9  A    between atoms: C10_18  and  O4_19 
REMARK   10  A    between atoms: C11_21  and  O5_22 
REMARK   11  A    between atoms: C13_25  and  O6_27 
ROOT
HETATM    1  C8  UNL     1      -0.285  -0.060  -0.513  1.00  0.00     0.060 C 
HETATM    2  C9  UNL     1      -0.603   1.320  -1.124  1.00  0.00     0.157 C 
HETATM    3  C10 UNL     1      -1.751   1.181  -2.117  1.00  0.00     0.176 C 
HETATM    4  C11 UNL     1      -2.930   0.541  -1.484  1.00  0.00     0.152 C 
HETATM    5  C12 UNL     1      -2.701  -0.432  -0.427  1.00  0.00     0.072 C 
HETATM    6  C13 UNL     1      -1.404  -0.483   0.351  1.00  0.00     0.066 C 
HETATM    7  C14 UNL     1      -1.626   0.421   1.553  1.00  0.00     0.046 C 
ENDROOT
BRANCH   1   8
HETATM    8  C4  UNL     1       1.136  -0.247  -0.230  1.00  0.00     0.053 C 
BRANCH   8   9
HETATM    9  C2  UNL     1       1.487  -1.647   0.336  1.00  0.00     0.123 C 
HETATM   10  C3  UNL     1       1.098  -2.767  -0.579  1.00  0.00     0.040 C 
BRANCH   9  11
HETATM   11  O1  UNL     1       1.162  -1.840   1.614  1.00  0.00    -0.391 OA
HETATM   12  C1  UNL     1       2.085  -2.070   2.566  1.00  0.00     0.202 C 
ENDBRANCH   9  11
ENDBRANCH   8   9
BRANCH   8  13
HETATM   13  C5  UNL     1       1.936   0.669   0.614  1.00  0.00     0.130 C 
BRANCH  13  14
HETATM   14  O2  UNL     1       3.335   0.146   0.446  1.00  0.00    -0.395 OA
ATOM     15  H2  UNL     1       3.848   0.734   0.988  1.00  0.00     0.210 HD
ENDBRANCH  13  14
BRANCH  13  16
HETATM   16  C6  UNL     1       2.265   2.060   0.123  1.00  0.00     0.076 C 
BRANCH  16  17
HETATM   17  C7  UNL     1       3.094   2.055  -1.128  1.00  0.00     0.055 C 
HETATM   18  N1  UNL     1       3.048   3.000  -1.984  1.00  0.00    -0.411 N 
ATOM     19  H12 UNL     1       2.419   3.781  -1.796  1.00  0.00     0.155 HD
ATOM     20  H11 UNL     1       3.611   2.997  -2.834  1.00  0.00     0.155 HD
ENDBRANCH  16  17
ENDBRANCH  13  16
ENDBRANCH   8  13
ENDBRANCH   1   8
BRANCH   2  21
HETATM   21  O3  UNL     1      -1.039   2.190  -0.137  1.00  0.00    -0.392 OA
ATOM     22  H3  UNL     1      -1.235   3.040  -0.513  1.00  0.00     0.210 HD
ENDBRANCH   2  21
BRANCH   6  23
HETATM   23  O6  UNL     1      -1.329  -1.809   0.723  1.00  0.00    -0.385 OA
HETATM   24  C15 UNL     1      -2.334  -2.336   1.469  1.00  0.00     0.202 C 
ENDBRANCH   6  23
BRANCH   3  25
HETATM   25  O4  UNL     1      -1.988   2.418  -2.685  1.00  0.00    -0.390 OA
ATOM     26  H4  UNL     1      -2.704   2.331  -3.304  1.00  0.00     0.210 HD
ENDBRANCH   3  25
BRANCH   4  27
HETATM   27  O5  UNL     1      -3.810   1.535  -0.983  1.00  0.00    -0.393 OA
ATOM     28  H5  UNL     1      -4.565   1.125  -0.578  1.00  0.00     0.210 HD
ENDBRANCH   4  27
TORSDOF 11
