REMARK  15 active torsions:
REMARK  status: ('A' for Active; 'I' for Inactive)
REMARK    1  A    between atoms: C2_2  and  C3_3 
REMARK    2  A    between atoms: C2_2  and  C4_6 
REMARK    3  A    between atoms: C3_3  and  O1_4 
REMARK    4  A    between atoms: C5_7  and  C6_8 
REMARK    5  A    between atoms: C8_13  and  O5_14 
REMARK    6  A    between atoms: C9_16  and  O6_17 
REMARK    7  A    between atoms: C10_19  and  O7_21 
REMARK    8  A    between atoms: C12_23  and  C13_24 
REMARK    9  A    between atoms: C13_24  and  C14_25 
REMARK   10  A    between atoms: C15_26  and  C17_28 
REMARK   11  A    between atoms: C17_28  and  C18_29 
REMARK   12  A    between atoms: C18_29  and  C19_30 
REMARK   13  A    between atoms: C19_30  and  C20_31 
REMARK   14  A    between atoms: C20_31  and  C21_32 
REMARK   15  A    between atoms: C21_32  and  C22_33 
ROOT
HETATM    1  C4  UNL     1      -3.760  -0.031   0.139  1.00  0.00     0.056 C 
HETATM    2  C5  UNL     1      -5.192  -0.299  -0.348  1.00  0.00     0.238 C 
HETATM    3  O4  UNL     1      -5.679   0.687  -1.201  1.00  0.00    -0.371 OA
HETATM    4  C7  UNL     1      -4.917   0.600  -2.370  1.00  0.00     0.212 C 
HETATM    5  C8  UNL     1      -3.508   0.909  -1.995  1.00  0.00     0.137 C 
HETATM    6  C9  UNL     1      -3.412   1.328  -0.520  1.00  0.00     0.174 C 
HETATM    7  C10 UNL     1      -2.647  -0.326  -1.983  1.00  0.00     0.095 C 
HETATM    8  C11 UNL     1      -3.023  -1.299  -3.074  1.00  0.00     0.049 C 
HETATM    9  C12 UNL     1      -2.846  -0.911  -0.582  1.00  0.00     0.045 C 
ENDROOT
BRANCH   9  10
HETATM   10  C13 UNL     1      -1.575  -1.395  -0.035  1.00  0.00     0.036 C 
BRANCH  10  11
HETATM   11  C14 UNL     1      -0.541  -0.454   0.358  1.00  0.00    -0.024 C 
HETATM   12  C15 UNL     1       0.741  -0.588   0.041  1.00  0.00    -0.087 C 
HETATM   13  C16 UNL     1       1.242  -1.752  -0.765  1.00  0.00     0.043 C 
BRANCH  12  14
HETATM   14  C17 UNL     1       1.767   0.431   0.475  1.00  0.00     0.033 C 
BRANCH  14  15
HETATM   15  C18 UNL     1       2.815  -0.210   1.339  1.00  0.00     0.004 C 
BRANCH  15  16
HETATM   16  C19 UNL     1       3.864   0.736   1.807  1.00  0.00     0.001 C 
BRANCH  16  17
HETATM   17  C20 UNL     1       4.635   1.397   0.713  1.00  0.00     0.004 C 
BRANCH  17  18
HETATM   18  C21 UNL     1       5.367   0.434  -0.174  1.00  0.00     0.027 C 
BRANCH  18  19
HETATM   19  C22 UNL     1       6.359  -0.391   0.580  1.00  0.00    -0.025 C 
HETATM   20  C23 UNL     1       7.638  -0.378   0.307  1.00  0.00    -0.091 C 
HETATM   21  C24 UNL     1       8.232   0.462  -0.785  1.00  0.00     0.042 C 
HETATM   22  C25 UNL     1       8.568  -1.226   1.100  1.00  0.00     0.042 C 
ENDBRANCH  18  19
ENDBRANCH  17  18
ENDBRANCH  16  17
ENDBRANCH  15  16
ENDBRANCH  14  15
ENDBRANCH  12  14
ENDBRANCH  10  11
ENDBRANCH   9  10
BRANCH   1  23
HETATM   23  C2  UNL     1      -3.662   0.134   1.587  1.00  0.00    -0.051 C 
HETATM   24  C1  UNL     1      -3.205  -0.709   2.481  1.00  0.00     0.017 C 
BRANCH  23  25
HETATM   25  C3  UNL     1      -4.206   1.431   2.161  1.00  0.00     0.198 C 
BRANCH  25  26
HETATM   26  O1  UNL     1      -4.096   1.422   3.579  1.00  0.00    -0.397 OA
ATOM     27  H1  UNL     1      -4.436   2.233   3.938  1.00  0.00     0.209 HD
ENDBRANCH  25  26
ENDBRANCH  23  25
ENDBRANCH   1  23
BRANCH   7  28
HETATM   28  O7  UNL     1      -1.361   0.099  -2.228  1.00  0.00    -0.387 OA
ATOM     29  H7  UNL     1      -0.818  -0.680  -2.220  1.00  0.00     0.210 HD
ENDBRANCH   7  28
BRANCH   2  30
HETATM   30  C6  UNL     1      -6.149  -0.620   0.725  1.00  0.00     0.204 C 
HETATM   31  O2  UNL     1      -5.967  -1.489   1.599  1.00  0.00    -0.646 OA
HETATM   32  O3  UNL     1      -7.351   0.076   0.795  1.00  0.00    -0.646 OA
ENDBRANCH   2  30
BRANCH   6  33
HETATM   33  O6  UNL     1      -4.353   2.303  -0.259  1.00  0.00    -0.391 OA
ATOM     34  H6  UNL     1      -4.140   3.136  -0.663  1.00  0.00     0.210 HD
ENDBRANCH   6  33
BRANCH   5  35
HETATM   35  O5  UNL     1      -2.934   1.887  -2.802  1.00  0.00    -0.382 OA
ATOM     36  H5  UNL     1      -2.036   2.084  -2.563  1.00  0.00     0.211 HD
ENDBRANCH   5  35
TORSDOF 15
