REMARK  15 active torsions:
REMARK  status: ('A' for Active; 'I' for Inactive)
REMARK    1  A    between atoms: C1_2  and  C2_4 
REMARK    2  A    between atoms: C5_7  and  O3_8 
REMARK    3  A    between atoms: C5_7  and  C6_10 
REMARK    4  A    between atoms: C6_10  and  C7_11 
REMARK    5  A    between atoms: C7_11  and  C8_12 
REMARK    6  A    between atoms: C8_12  and  C9_13 
REMARK    7  A    between atoms: C10_14  and  C11_15 
REMARK    8  A    between atoms: C11_15  and  C12_16 
REMARK    9  A    between atoms: C12_16  and  C13_17 
REMARK   10  A    between atoms: C13_17  and  C14_18 
REMARK   11  A    between atoms: C14_18  and  C15_19 
REMARK   12  A    between atoms: C15_19  and  C16_20 
REMARK   13  A    between atoms: C18_24  and  C19_25 
REMARK   14  A    between atoms: C19_25  and  O4_26 
REMARK   15  A    between atoms: C22_32  and  O5_33 
ROOT
HETATM    1  C8  UNL     1      -0.756   0.107  -0.930  1.00  0.00     0.027 C 
ENDROOT
BRANCH   1   2
HETATM    2  C7  UNL     1      -2.005   0.007  -0.076  1.00  0.00     0.007 C 
BRANCH   2   3
HETATM    3  C6  UNL     1      -2.996   1.031  -0.615  1.00  0.00     0.038 C 
BRANCH   3   4
HETATM    4  C5  UNL     1      -4.232   0.908   0.251  1.00  0.00     0.063 C 
HETATM    5  C4  UNL     1      -5.331   1.858  -0.143  1.00  0.00     0.039 C 
HETATM    6  C3  UNL     1      -6.588   1.153   0.281  1.00  0.00     0.024 C 
HETATM    7  C2  UNL     1      -6.238  -0.287   0.575  1.00  0.00     0.057 C 
HETATM    8  C20 UNL     1      -4.850  -0.436   0.058  1.00  0.00     0.041 C 
HETATM    9  C23 UNL     1      -7.053  -1.267  -0.201  1.00  0.00     0.053 C 
HETATM   10  C21 UNL     1      -5.051  -0.660  -1.427  1.00  0.00     0.040 C 
HETATM   11  C22 UNL     1      -6.425  -1.272  -1.561  1.00  0.00     0.120 C 
BRANCH   7  12
HETATM   12  C1  UNL     1      -6.251  -0.571   2.033  1.00  0.00     0.182 C 
HETATM   13  O1  UNL     1      -5.248  -1.038   2.625  1.00  0.00    -0.647 OA
HETATM   14  O2  UNL     1      -7.410  -0.317   2.777  1.00  0.00    -0.647 OA
ENDBRANCH   7  12
BRANCH  11  15
HETATM   15  O5  UNL     1      -6.294  -2.580  -2.060  1.00  0.00    -0.396 OA
ATOM     16  H5  UNL     1      -7.158  -2.965  -2.144  1.00  0.00     0.210 HD
ENDBRANCH  11  15
BRANCH   4  17
HETATM   17  O3  UNL     1      -3.846   1.197   1.539  1.00  0.00    -0.389 OA
ATOM     18  H3  UNL     1      -3.152   0.597   1.788  1.00  0.00     0.210 HD
ENDBRANCH   4  17
ENDBRANCH   3   4
ENDBRANCH   2   3
ENDBRANCH   1   2
BRANCH   1  19
HETATM   19  C9  UNL     1      -0.121   1.423  -0.904  1.00  0.00    -0.031 C 
HETATM   20  C10 UNL     1       1.089   1.673  -0.502  1.00  0.00    -0.031 C 
BRANCH  20  21
HETATM   21  C11 UNL     1       2.082   0.721   0.010  1.00  0.00     0.027 C 
BRANCH  21  22
HETATM   22  C12 UNL     1       3.331   0.669  -0.801  1.00  0.00     0.004 C 
BRANCH  22  23
HETATM   23  C13 UNL     1       4.288  -0.345  -0.242  1.00  0.00     0.001 C 
BRANCH  23  24
HETATM   24  C14 UNL     1       4.680  -0.012   1.143  1.00  0.00     0.006 C 
BRANCH  24  25
HETATM   25  C15 UNL     1       5.649  -1.024   1.697  1.00  0.00     0.058 C 
BRANCH  25  26
HETATM   26  C16 UNL     1       6.877  -1.061   0.891  1.00  0.00     0.026 A 
HETATM   27  C17 UNL     1       7.276  -1.805  -0.185  1.00  0.00     0.114 A 
HETATM   28  N1  UNL     1       8.514  -1.460  -0.574  1.00  0.00    -0.352 N 
HETATM   29  C18 UNL     1       8.925  -0.484   0.253  1.00  0.00     0.105 A 
ATOM     30  H1  UNL     1       9.041  -1.862  -1.349  1.00  0.00     0.166 HD
HETATM   31  N2  UNL     1       7.942  -0.239   1.138  1.00  0.00    -0.346 N 
ATOM     32  H2  UNL     1       7.985   0.457   1.883  1.00  0.00     0.167 HD
BRANCH  29  33
HETATM   33  C19 UNL     1      10.235   0.231   0.229  1.00  0.00     0.240 C 
BRANCH  33  34
HETATM   34  O4  UNL     1      10.991  -0.285  -0.817  1.00  0.00    -0.393 OA
ATOM     35  H4  UNL     1      11.825   0.170  -0.832  1.00  0.00     0.209 HD
ENDBRANCH  33  34
ENDBRANCH  29  33
ENDBRANCH  25  26
ENDBRANCH  24  25
ENDBRANCH  23  24
ENDBRANCH  22  23
ENDBRANCH  21  22
ENDBRANCH  20  21
ENDBRANCH   1  19
TORSDOF 15
