REMARK  5 active torsions:
REMARK  status: ('A' for Active; 'I' for Inactive)
REMARK    1  A    between atoms: C3_3  and  O1_5 
REMARK    2  A    between atoms: C3_3  and  O2_7 
REMARK    3  A    between atoms: O2_7  and  C5_8 
REMARK    4  A    between atoms: C5_8  and  C6_9 
REMARK    5  A    between atoms: C7_10  and  C8_11 
ROOT
HETATM    1  C1  UNL     1       5.288  -0.422  -2.326  1.00  0.00     0.017 C 
HETATM    2  C2  UNL     1       4.722  -0.286  -1.265  1.00  0.00    -0.050 C 
HETATM    3  C3  UNL     1       4.028  -0.109   0.012  1.00  0.00     0.226 C 
HETATM    4  C4  UNL     1       4.186   1.334   0.460  1.00  0.00     0.095 C 
ENDROOT
BRANCH   3   5
HETATM    5  O1  UNL     1       4.559  -0.971   0.976  1.00  0.00    -0.356 OA
ATOM      6  H1  UNL     1       4.109  -0.856   1.805  1.00  0.00     0.214 HD
ENDBRANCH   3   5
BRANCH   3   7
HETATM    7  O2  UNL     1       2.673  -0.383  -0.225  1.00  0.00    -0.333 OA
BRANCH   7   8
HETATM    8  C5  UNL     1       1.929  -0.232   0.939  1.00  0.00     0.266 C 
BRANCH   8   9
HETATM    9  C6  UNL     1       0.538  -0.537   0.594  1.00  0.00    -0.080 C 
HETATM   10  C7  UNL     1      -0.608  -0.770   0.302  1.00  0.00    -0.100 C 
BRANCH  10  11
HETATM   11  C8  UNL     1      -2.026  -1.034  -0.064  1.00  0.00     0.065 C 
HETATM   12  C9  UNL     1      -2.318  -0.244  -1.272  1.00  0.00     0.017 C 
HETATM   13  C10 UNL     1      -3.639   0.460  -1.299  1.00  0.00     0.001 C 
HETATM   14  C11 UNL     1      -3.711   1.250   0.016  1.00  0.00     0.000 C 
HETATM   15  C12 UNL     1      -3.900   0.208   1.088  1.00  0.00     0.001 C 
HETATM   16  C13 UNL     1      -2.887  -0.861   1.115  1.00  0.00     0.017 C 
ENDBRANCH  10  11
ENDBRANCH   8   9
ENDBRANCH   7   8
ENDBRANCH   3   7
TORSDOF 5
