REMARK  3 active torsions:
REMARK  status: ('A' for Active; 'I' for Inactive)
REMARK    1  A    between atoms: O1_2  and  C2_3 
REMARK       I    between atoms: N2_7  and  C4_9 
REMARK    2  A    between atoms: C7_16  and  N5_17 
REMARK    3  A    between atoms: N5_17  and  C8_19 
ROOT
HETATM    1  C2  UNL     1       2.392   1.663  -0.373  1.00  0.00     0.172 A 
HETATM    2  N1  UNL     1       2.989   0.458  -0.399  1.00  0.00    -0.321 N 
ATOM      3  H1  UNL     1       4.007   0.409  -0.439  1.00  0.00     0.169 HD
HETATM    4  C3  UNL     1       2.278  -0.686  -0.373  1.00  0.00     0.110 A 
HETATM    5  N2  UNL     1       2.940  -1.792  -0.401  1.00  0.00    -0.317 N 
ATOM      6  H2  UNL     1       3.958  -1.741  -0.441  1.00  0.00     0.170 HD
HETATM    7  C4  UNL     1       2.339  -3.070  -0.380  1.00  0.00     0.187 C 
HETATM    8  N3  UNL     1       2.225  -3.696  -1.494  1.00  0.00    -0.373 N 
ATOM      9  H31 UNL     1       1.791  -4.619  -1.479  1.00  0.00     0.158 HD
ATOM     10  H32 UNL     1       2.558  -3.286  -2.367  1.00  0.00     0.158 HD
HETATM   11  N4  UNL     1       1.877  -3.639   0.831  1.00  0.00    -0.064 NA
HETATM   12  C5  UNL     1       0.910  -0.638  -0.319  1.00  0.00     0.066 A 
HETATM   13  C6  UNL     1       0.255   0.566  -0.291  1.00  0.00     0.042 A 
HETATM   14  C7  UNL     1      -1.117   0.650  -0.237  1.00  0.00     0.115 A 
HETATM   15  N6  UNL     1      -1.662   1.878  -0.214  1.00  0.00    -0.338 N 
ATOM     16  H6  UNL     1      -2.677   1.973  -0.175  1.00  0.00     0.168 HD
HETATM   17  C11 UNL     1      -0.886   3.000  -0.242  1.00  0.00     0.182 A 
HETATM   18  N7  UNL     1       0.438   2.944  -0.294  1.00  0.00    -0.348 N 
ATOM     19  H7  UNL     1       1.000   3.795  -0.314  1.00  0.00     0.167 HD
HETATM   20  C12 UNL     1       1.023   1.718  -0.320  1.00  0.00     0.099 A 
ENDROOT
BRANCH   1  21
HETATM   21  O1  UNL     1       3.172   2.832  -0.402  1.00  0.00    -0.339 OA
HETATM   22  C1  UNL     1       3.734   3.402   0.748  1.00  0.00     0.211 C 
ENDBRANCH   1  21
BRANCH  14  23
HETATM   23  N5  UNL     1      -1.812  -0.434  -0.211  1.00  0.00    -0.372 N 
ATOM     24  H5  UNL     1      -1.318  -1.326  -0.231  1.00  0.00     0.161 HD
BRANCH  23  25
HETATM   25  C8  UNL     1      -3.258  -0.450  -0.155  1.00  0.00     0.075 C 
HETATM   26  C9  UNL     1      -3.791  -0.087   1.206  1.00  0.00     0.031 C 
HETATM   27  C10 UNL     1      -3.817  -1.791  -0.588  1.00  0.00     0.031 C 
ENDBRANCH  23  25
ENDBRANCH  14  23
TORSDOF 3
