REMARK  4 active torsions:
REMARK  status: ('A' for Active; 'I' for Inactive)
REMARK    1  A    between atoms: N1_2  and  C2_4 
REMARK    2  A    between atoms: C6_8  and  C7_9 
REMARK    3  A    between atoms: C7_9  and  N2_10 
REMARK    4  A    between atoms: N2_10  and  C8_12 
ROOT
HETATM    1  C8  UNL     1      -1.895  -0.354  -0.089  1.00  0.00     0.133 A 
HETATM    2  N3  UNL     1      -2.546  -1.474  -0.428  1.00  0.00    -0.337 N 
ATOM      3  H3  UNL     1      -2.028  -2.320  -0.665  1.00  0.00     0.168 HD
HETATM    4  C9  UNL     1      -3.909  -1.470  -0.453  1.00  0.00     0.183 A 
HETATM    5  N4  UNL     1      -4.589  -0.361  -0.143  1.00  0.00    -0.336 N 
ATOM      6  H4  UNL     1      -5.609  -0.380  -0.168  1.00  0.00     0.168 HD
HETATM    7  C10 UNL     1      -3.964   0.779   0.201  1.00  0.00     0.141 A 
HETATM    8  N5  UNL     1      -4.391   2.004   0.550  1.00  0.00    -0.292 N 
ATOM      9  H5  UNL     1      -5.367   2.292   0.615  1.00  0.00     0.172 HD
HETATM   10  C11 UNL     1      -3.326   2.794   0.801  1.00  0.00     0.326 A 
HETATM   11  O1  UNL     1      -3.350   4.006   1.154  1.00  0.00    -0.247 OA
HETATM   12  N6  UNL     1      -2.223   2.040   0.602  1.00  0.00    -0.302 N 
ATOM     13  H6  UNL     1      -1.263   2.366   0.715  1.00  0.00     0.171 HD
HETATM   14  C12 UNL     1      -2.576   0.803   0.235  1.00  0.00     0.125 A 
ENDROOT
BRANCH   1  15
HETATM   15  N2  UNL     1      -0.615  -0.360  -0.066  1.00  0.00    -0.369 N 
ATOM     16  H2  UNL     1      -0.104   0.485   0.190  1.00  0.00     0.161 HD
BRANCH  15  17
HETATM   17  C7  UNL     1       0.095  -1.555  -0.401  1.00  0.00     0.178 C 
BRANCH  17  18
HETATM   18  C6  UNL     1       1.576  -1.368  -0.360  1.00  0.00     0.028 A 
HETATM   19  C5  UNL     1       2.427  -2.410  -0.653  1.00  0.00     0.027 A 
HETATM   20  C4  UNL     1       3.801  -2.267  -0.624  1.00  0.00     0.006 A 
HETATM   21  C3  UNL     1       4.275  -1.009  -0.279  1.00  0.00     0.048 A 
HETATM   22  C2  UNL     1       3.436   0.035   0.015  1.00  0.00     0.100 A 
HETATM   23  N7  UNL     1       2.113  -0.163  -0.030  1.00  0.00    -0.345 N 
ATOM     24  H7  UNL     1       1.489   0.613   0.190  1.00  0.00     0.167 HD
BRANCH  22  25
HETATM   25  N1  UNL     1       3.933   1.165   0.324  1.00  0.00    -0.381 N 
HETATM   26  C1  UNL     1       3.171   2.343   0.654  1.00  0.00     0.147 C 
ATOM     27  H1  UNL     1       4.950   1.243   0.339  1.00  0.00     0.160 HD
ENDBRANCH  22  25
ENDBRANCH  17  18
ENDBRANCH  15  17
ENDBRANCH   1  15
TORSDOF 4
