REMARK  16 active torsions:
REMARK  status: ('A' for Active; 'I' for Inactive)
REMARK    1  A    between atoms: C2_2  and  C3_3 
REMARK    2  A    between atoms: C2_2  and  N3_29 
REMARK    3  A    between atoms: C3_3  and  O1_4 
REMARK    4  A    between atoms: O1_4  and  C4_5 
REMARK    5  A    between atoms: C4_5  and  C5_6 
REMARK    6  A    between atoms: C5_6  and  O2_7 
REMARK    7  A    between atoms: O2_7  and  C6_8 
REMARK    8  A    between atoms: C6_8  and  C7_9 
REMARK    9  A    between atoms: C7_9  and  O3_10 
REMARK   10  A    between atoms: C7_9  and  N1_12 
REMARK   11  A    between atoms: N1_12  and  C8_14 
REMARK   12  A    between atoms: C8_14  and  C9_15 
REMARK   13  A    between atoms: C9_15  and  C11_17 
REMARK   14  A    between atoms: C11_17  and  C12_18 
REMARK   15  A    between atoms: C12_18  and  C13_19 
REMARK   16  A    between atoms: N2_25  and  C19_27 
ROOT
HETATM    1  N1  UNL     1       1.196   0.114   0.286  1.00  0.00    -0.374 N 
ATOM      2  H1  UNL     1       1.203   0.333   1.282  1.00  0.00     0.161 HD
ENDROOT
BRANCH   1   3
HETATM    3  C7  UNL     1       0.145  -0.647  -0.258  1.00  0.00     0.241 C 
BRANCH   3   4
HETATM    4  C6  UNL     1      -0.681   0.093  -1.293  1.00  0.00     0.221 C 
BRANCH   4   5
HETATM    5  O2  UNL     1      -1.287   1.225  -0.828  1.00  0.00    -0.385 OA
BRANCH   5   6
HETATM    6  C5  UNL     1      -2.178   1.080   0.196  1.00  0.00     0.194 C 
BRANCH   6   7
HETATM    7  C4  UNL     1      -3.365   0.202  -0.121  1.00  0.00     0.193 C 
BRANCH   7   8
HETATM    8  O1  UNL     1      -4.108   0.683  -1.176  1.00  0.00    -0.387 OA
BRANCH   8   9
HETATM    9  C3  UNL     1      -5.211  -0.088  -1.501  1.00  0.00     0.192 C 
BRANCH   9  10
HETATM   10  C2  UNL     1      -6.202  -0.224  -0.360  1.00  0.00     0.103 C 
HETATM   11  C1  UNL     1      -7.381  -1.024  -0.927  1.00  0.00     0.034 C 
BRANCH  10  12
HETATM   12  N3  UNL     1      -6.696   1.064   0.057  1.00  0.00    -0.361 N 
HETATM   13  C20 UNL     1      -7.681   1.199   0.869  1.00  0.00     0.197 C 
HETATM   14  N4  UNL     1      -8.077   2.538   1.207  1.00  0.00    -0.067 NA
HETATM   15  N5  UNL     1      -8.345   0.072   1.405  1.00  0.00    -0.067 NA
ATOM     16  H3  UNL     1      -6.244   1.903  -0.308  1.00  0.00     0.162 HD
ENDBRANCH  10  12
ENDBRANCH   9  10
ENDBRANCH   8   9
ENDBRANCH   7   8
ENDBRANCH   6   7
ENDBRANCH   5   6
ENDBRANCH   4   5
ENDBRANCH   3   4
BRANCH   3  17
HETATM   17  O3  UNL     1       0.546  -1.834  -0.818  1.00  0.00    -0.375 OA
ATOM     18  H3  UNL     1       1.063  -2.297  -0.170  1.00  0.00     0.212 HD
ENDBRANCH   3  17
ENDBRANCH   1   3
BRANCH   1  19
HETATM   19  C8  UNL     1       2.236   0.573  -0.541  1.00  0.00     0.068 C 
BRANCH  19  20
HETATM   20  C9  UNL     1       3.220  -0.416  -1.071  1.00  0.00     0.066 C 
HETATM   21  C10 UNL     1       4.219   0.311  -1.940  1.00  0.00     0.022 C 
BRANCH  20  22
HETATM   22  C11 UNL     1       3.908  -1.201  -0.046  1.00  0.00     0.002 C 
HETATM   23  N2  UNL     1       3.884  -2.511  -0.180  1.00  0.00    -0.341 N 
ATOM     24  H2  UNL     1       3.387  -2.887  -0.988  1.00  0.00     0.167 HD
BRANCH  22  25
HETATM   25  C12 UNL     1       4.645  -0.695   1.101  1.00  0.00     0.091 C 
BRANCH  25  26
HETATM   26  C13 UNL     1       5.850   0.081   0.874  1.00  0.00    -0.053 A 
HETATM   27  C14 UNL     1       5.829   1.451   0.846  1.00  0.00     0.007 A 
HETATM   28  C15 UNL     1       7.003   2.189   0.641  1.00  0.00     0.001 A 
HETATM   29  C16 UNL     1       8.205   1.534   0.462  1.00  0.00     0.000 A 
HETATM   30  C17 UNL     1       8.234   0.144   0.489  1.00  0.00     0.001 A 
HETATM   31  C18 UNL     1       7.060  -0.546   0.694  1.00  0.00     0.007 A 
ENDBRANCH  25  26
ENDBRANCH  22  25
BRANCH  23  32
HETATM   32  C19 UNL     1       4.475  -3.425   0.681  1.00  0.00     0.352 C 
HETATM   33  O4  UNL     1       3.817  -4.465   1.021  1.00  0.00    -0.283 OA
ENDBRANCH  23  32
ENDBRANCH  20  22
ENDBRANCH  19  20
ENDBRANCH   1  19
TORSDOF 16
