REMARK  10 active torsions:
REMARK  status: ('A' for Active; 'I' for Inactive)
REMARK       I    between atoms: C1_2  and  N1_3 
REMARK    1  A    between atoms: C1_2  and  C8_13 
REMARK    2  A    between atoms: N1_3  and  C2_5 
REMARK    3  A    between atoms: C2_5  and  C3_6 
REMARK    4  A    between atoms: C12_17  and  N3_18 
REMARK    5  A    between atoms: N3_18  and  C13_20 
REMARK    6  A    between atoms: C14_23  and  N5_24 
REMARK    7  A    between atoms: N5_24  and  C15_26 
REMARK    8  A    between atoms: C15_26  and  C16_27 
REMARK    9  A    between atoms: C22_35  and  N7_36 
REMARK   10  A    between atoms: N7_36  and  C23_38 
ROOT
HETATM    1  C13 UNL     1      -1.357  -0.700   0.077  1.00  0.00     0.711 A 
HETATM    2  N4  UNL     1      -2.013   0.421   0.377  1.00  0.00    -0.021 N 
ATOM      3  H4  UNL     1      -1.519   1.311   0.442  1.00  0.00     0.203 HD
HETATM    4  C14 UNL     1      -3.348   0.356   0.594  1.00  0.00     0.707 A 
HETATM    5  N6  UNL     1      -3.995  -0.809   0.508  1.00  0.00    -0.021 N 
ATOM      6  H6  UNL     1      -5.001  -0.825   0.676  1.00  0.00     0.203 HD
HETATM    7  C22 UNL     1      -3.368  -1.970   0.206  1.00  0.00     0.711 A 
HETATM    8  N8  UNL     1      -2.058  -1.888  -0.003  1.00  0.00    -0.021 N 
ATOM      9  H8  UNL     1      -1.547  -2.740  -0.233  1.00  0.00     0.203 HD
ENDROOT
BRANCH   1  10
HETATM   10  N3  UNL     1      -0.120  -0.722  -0.146  1.00  0.00    -0.191 N 
ATOM     11  H3  UNL     1       0.212  -1.663  -0.357  1.00  0.00     0.184 HD
BRANCH  10  12
HETATM   12  C12 UNL     1       0.897   0.199  -0.178  1.00  0.00     0.050 A 
HETATM   13  C11 UNL     1       0.788   1.379  -0.911  1.00  0.00     0.030 A 
HETATM   14  C10 UNL     1       1.831   2.274  -0.953  1.00  0.00     0.003 A 
HETATM   15  C9  UNL     1       3.002   2.022  -0.274  1.00  0.00     0.017 A 
HETATM   16  C8  UNL     1       3.148   0.869   0.460  1.00  0.00     0.034 A 
HETATM   17  C29 UNL     1       2.110  -0.016   0.500  1.00  0.00     0.047 A 
BRANCH  16  18
HETATM   18  C1  UNL     1       4.384   0.541   1.195  1.00  0.00     0.252 C 
HETATM   19  O1  UNL     1       4.305  -0.026   2.317  1.00  0.00    -0.268 OA
HETATM   20  N1  UNL     1       5.669   0.848   0.664  1.00  0.00    -0.351 N 
ATOM     21  H1  UNL     1       5.768   1.303  -0.244  1.00  0.00     0.163 HD
BRANCH  20  22
HETATM   22  C2  UNL     1       6.840   0.492   1.459  1.00  0.00     0.179 C 
BRANCH  22  23
HETATM   23  C3  UNL     1       8.106   0.599   0.744  1.00  0.00     0.026 A 
HETATM   24  C4  UNL     1       8.290   1.537  -0.240  1.00  0.00     0.027 A 
HETATM   25  C5  UNL     1       9.511   1.631  -0.921  1.00  0.00     0.003 A 
HETATM   26  C6  UNL     1      10.532   0.769  -0.592  1.00  0.00     0.017 A 
HETATM   27  C7  UNL     1      10.323  -0.165   0.401  1.00  0.00     0.088 A 
HETATM   28  N2  UNL     1       9.137  -0.230   1.037  1.00  0.00    -0.368 N 
ATOM     29  H2  UNL     1       9.010  -0.931   1.767  1.00  0.00     0.165 HD
ENDBRANCH  22  23
ENDBRANCH  20  22
ENDBRANCH  16  18
ENDBRANCH  10  12
ENDBRANCH   1  10
BRANCH   4  30
HETATM   30  N5  UNL     1      -3.936   1.445   0.878  1.00  0.00    -0.221 N 
ATOM     31  H5  UNL     1      -3.334   2.268   0.915  1.00  0.00     0.178 HD
BRANCH  30  32
HETATM   32  C15 UNL     1      -5.311   1.686   1.152  1.00  0.00     0.176 C 
BRANCH  32  33
HETATM   33  C16 UNL     1      -5.800   2.777   0.236  1.00  0.00    -0.040 A 
HETATM   34  C17 UNL     1      -6.583   2.449  -0.862  1.00  0.00     0.009 A 
HETATM   35  C18 UNL     1      -7.044   3.448  -1.704  1.00  0.00     0.001 A 
HETATM   36  C19 UNL     1      -6.748   4.779  -1.487  1.00  0.00     0.000 A 
HETATM   37  C20 UNL     1      -5.974   5.089  -0.399  1.00  0.00     0.001 A 
HETATM   38  C21 UNL     1      -5.508   4.100   0.449  1.00  0.00     0.009 A 
ENDBRANCH  32  33
ENDBRANCH  30  32
ENDBRANCH   4  30
BRANCH   7  39
HETATM   39  N7  UNL     1      -4.046  -3.019   0.144  1.00  0.00    -0.191 N 
ATOM     40  H7  UNL     1      -5.038  -2.879   0.338  1.00  0.00     0.184 HD
BRANCH  39  41
HETATM   41  C23 UNL     1      -3.712  -4.337  -0.137  1.00  0.00     0.049 A 
HETATM   42  C24 UNL     1      -3.806  -4.818  -1.428  1.00  0.00     0.030 A 
HETATM   43  C25 UNL     1      -3.492  -6.122  -1.771  1.00  0.00     0.002 A 
HETATM   44  C26 UNL     1      -3.065  -6.980  -0.778  1.00  0.00     0.000 A 
HETATM   45  C27 UNL     1      -2.954  -6.544   0.533  1.00  0.00     0.002 A 
HETATM   46  C28 UNL     1      -3.278  -5.236   0.830  1.00  0.00     0.030 A 
ENDBRANCH  39  41
ENDBRANCH   7  39
TORSDOF 10
