REMARK  0 active torsions:
REMARK  status: ('A' for Active; 'I' for Inactive)
ROOT
HETATM    1  C1  UNL     1      -1.729   0.215   0.719  1.00  0.00     0.143 C 
HETATM    2  N1  UNL     1      -1.080   0.481  -0.536  1.00  0.00    -0.200 NA
HETATM    3  C2  UNL     1      -0.493  -0.662  -1.151  1.00  0.00     0.139 C 
HETATM    4  C3  UNL     1       0.363  -1.510  -0.306  1.00  0.00     0.130 C 
HETATM    5  N2  UNL     1       1.287  -0.803   0.492  1.00  0.00    -0.418 N 
ATOM      6  H2  UNL     1       1.625  -1.200   1.369  1.00  0.00     0.153 HD
HETATM    7  C4  UNL     1       1.730   0.447   0.062  1.00  0.00     0.142 C 
HETATM    8  C5  UNL     1       0.688   1.485   0.500  1.00  0.00     0.213 C 
HETATM    9  O1  UNL     1      -0.253   1.556  -0.483  1.00  0.00    -0.302 OA
ENDROOT
TORSDOF 0
