REMARK  1 active torsions:
REMARK  status: ('A' for Active; 'I' for Inactive)
REMARK    1  A    between atoms: N2_12  and  C9_14 
ROOT
HETATM    1  C1  UNL     1      -0.524  -0.479  -0.775  1.00  0.00     0.141 A 
HETATM    2  N1  UNL     1       0.749  -0.564  -0.895  1.00  0.00    -0.364 N 
ATOM      3  H1  UNL     1       1.229  -1.023  -1.670  1.00  0.00     0.162 HD
HETATM    4  C2  UNL     1       1.409   0.075   0.210  1.00  0.00     0.141 A 
HETATM    5  C3  UNL     1       2.271  -0.956   0.893  1.00  0.00     0.061 C 
HETATM    6  C4  UNL     1       3.372  -1.339  -0.084  1.00  0.00     0.005 C 
HETATM    7  C5  UNL     1       4.242  -0.145  -0.419  1.00  0.00     0.000 C 
HETATM    8  C6  UNL     1       3.371   0.856  -1.147  1.00  0.00     0.005 C 
HETATM    9  C7  UNL     1       2.250   1.256  -0.234  1.00  0.00     0.061 C 
HETATM   10  O1  UNL     1       0.390   0.571   1.036  1.00  0.00    -0.303 OA
HETATM   11  C8  UNL     1      -0.821   0.243   0.452  1.00  0.00     0.157 A 
HETATM   12  N2  UNL     1      -2.021   0.520   0.900  1.00  0.00    -0.347 N 
ATOM     13  H2  UNL     1      -2.142   1.033   1.773  1.00  0.00     0.163 HD
ENDROOT
BRANCH  12  14
HETATM   14  C9  UNL     1      -3.158   0.091   0.145  1.00  0.00     0.200 C 
HETATM   15  C10 UNL     1      -4.393   0.927   0.436  1.00  0.00     0.069 C 
HETATM   16  C11 UNL     1      -5.471  -0.112   0.231  1.00  0.00     0.143 C 
HETATM   17  N3  UNL     1      -4.827  -1.333   0.521  1.00  0.00    -0.339 N 
HETATM   18  N4  UNL     1      -3.608  -1.209   0.471  1.00  0.00    -0.317 N 
ATOM     19  H3  UNL     1      -5.311  -2.203   0.743  1.00  0.00     0.179 HD
ATOM     20  H4  UNL     1      -2.969  -1.983   0.651  1.00  0.00     0.182 HD
ENDBRANCH  12  14
TORSDOF 1
