REMARK  9 active torsions:
REMARK  status: ('A' for Active; 'I' for Inactive)
REMARK    1  A    between atoms: O1_2  and  C2_3 
REMARK    2  A    between atoms: C6_9  and  O3_10 
REMARK    3  A    between atoms: C8_14  and  O4_15 
REMARK    4  A    between atoms: C12_20  and  O5_21 
REMARK    5  A    between atoms: C12_20  and  O6_23 
REMARK    6  A    between atoms: O6_23  and  C13_24 
REMARK    7  A    between atoms: C13_24  and  C14_25 
REMARK    8  A    between atoms: C14_25  and  C16_27 
REMARK    9  A    between atoms: C19_30  and  O7_31 
ROOT
HETATM    1  C2  UNL     1      -1.132  -1.664   1.339  1.00  0.00     0.139 C 
HETATM    2  C3  UNL     1      -2.160  -1.974   2.131  1.00  0.00     0.120 C 
HETATM    3 CL1  UNL     1      -2.061  -3.483   3.058  1.00  0.00    -0.077 Cl
HETATM    4  C4  UNL     1      -3.426  -1.272   2.066  1.00  0.00     0.210 C 
HETATM    5  O2  UNL     1      -4.352  -1.596   2.848  1.00  0.00    -0.285 OA
HETATM    6  C5  UNL     1      -3.548  -0.214   1.078  1.00  0.00     0.064 A 
HETATM    7  C6  UNL     1      -4.819   0.363   0.884  1.00  0.00     0.101 A 
HETATM    8  C7  UNL     1      -4.999   1.266  -0.189  1.00  0.00     0.080 A 
HETATM    9 BR1  UNL     1      -6.690   2.082  -0.509  1.00  0.00    -0.045 Br
HETATM   10  C8  UNL     1      -3.928   1.539  -0.990  1.00  0.00     0.110 A 
HETATM   11  C10 UNL     1      -2.704   0.954  -0.761  1.00  0.00     0.082 A 
HETATM   12 CL2  UNL     1      -1.427   1.353  -1.846  1.00  0.00    -0.081 Cl
HETATM   13  C11 UNL     1      -2.479   0.075   0.268  1.00  0.00     0.052 A 
HETATM   14  C12 UNL     1      -1.114  -0.429   0.603  1.00  0.00     0.247 C 
ENDROOT
BRANCH  14  15
HETATM   15  O5  UNL     1      -0.863   0.591   1.745  1.00  0.00    -0.356 OA
ATOM     16  H5  UNL     1      -0.851   1.407   1.259  1.00  0.00     0.214 HD
ENDBRANCH  14  15
BRANCH  14  17
HETATM   17  O6  UNL     1      -0.166  -0.034  -0.211  1.00  0.00    -0.345 OA
BRANCH  17  18
HETATM   18  C13 UNL     1       1.119   0.097  -0.147  1.00  0.00     0.181 C 
BRANCH  18  19
HETATM   19  C14 UNL     1       2.191  -0.901  -0.086  1.00  0.00     0.038 C 
HETATM   20  C15 UNL     1       2.284  -1.827  -1.285  1.00  0.00     0.017 C 
BRANCH  19  21
HETATM   21  C16 UNL     1       3.492  -0.094  -0.207  1.00  0.00    -0.052 A 
HETATM   22  C17 UNL     1       4.403  -0.046   0.800  1.00  0.00     0.010 A 
HETATM   23  C18 UNL     1       5.557   0.681   0.658  1.00  0.00     0.037 A 
HETATM   24  C19 UNL     1       5.843   1.385  -0.489  1.00  0.00     0.065 A 
HETATM   25  C20 UNL     1       4.927   1.343  -1.517  1.00  0.00     0.037 A 
HETATM   26  C21 UNL     1       3.760   0.604  -1.367  1.00  0.00     0.010 A 
BRANCH  24  27
HETATM   27  O7  UNL     1       7.030   2.106  -0.578  1.00  0.00    -0.361 OA
ATOM     28  H7  UNL     1       7.227   2.592  -1.370  1.00  0.00     0.217 HD
ENDBRANCH  24  27
ENDBRANCH  19  21
ENDBRANCH  18  19
ENDBRANCH  17  18
ENDBRANCH  14  17
BRANCH   1  29
HETATM   29  O1  UNL     1      -0.078  -2.640   1.321  1.00  0.00    -0.353 OA
HETATM   30  C1  UNL     1      -0.245  -3.820   0.548  1.00  0.00     0.209 C 
ENDBRANCH   1  29
BRANCH   7  31
HETATM   31  O3  UNL     1      -5.909   0.137   1.635  1.00  0.00    -0.358 OA
ATOM     32  H3  UNL     1      -6.766   0.526   1.504  1.00  0.00     0.217 HD
ENDBRANCH   7  31
BRANCH  10  33
HETATM   33  O4  UNL     1      -4.090   2.418  -2.044  1.00  0.00    -0.353 OA
HETATM   34  C9  UNL     1      -3.887   3.812  -1.944  1.00  0.00     0.210 C 
ENDBRANCH  10  33
TORSDOF 9
