REMARK  8 active torsions:
REMARK  status: ('A' for Active; 'I' for Inactive)
REMARK    1  A    between atoms: C1_2  and  C2_4 
REMARK       I    between atoms: N2_8  and  C6_9 
REMARK       I    between atoms: C6_9  and  N3_11 
REMARK    2  A    between atoms: N3_11  and  C7_12 
REMARK    3  A    between atoms: N3_11  and  C15_28 
REMARK    4  A    between atoms: C7_12  and  C8_13 
REMARK    5  A    between atoms: C10_15  and  C11_16 
REMARK    6  A    between atoms: C11_16  and  O3_17 
REMARK    7  A    between atoms: C12_19  and  S1_20 
REMARK    8  A    between atoms: C15_28  and  C16_29 
ROOT
HETATM    1  C2  UNL     1      -3.382  -1.989  -0.734  1.00  0.00     0.178 C 
HETATM    2  C3  UNL     1      -4.745  -1.519  -1.173  1.00  0.00     0.036 C 
HETATM    3  C4  UNL     1      -4.465  -0.092  -1.621  1.00  0.00     0.022 C 
HETATM    4  C5  UNL     1      -3.444   0.348  -0.630  1.00  0.00     0.129 C 
HETATM    5  N2  UNL     1      -2.740  -0.794  -0.144  1.00  0.00    -0.321 N 
HETATM    6  C6  UNL     1      -1.657  -0.846   0.747  1.00  0.00     0.321 C 
HETATM    7  O2  UNL     1      -1.275  -2.049   1.042  1.00  0.00    -0.247 OA
HETATM    8  N3  UNL     1      -0.907   0.163   1.386  1.00  0.00    -0.327 N 
ENDROOT
BRANCH   8   9
HETATM    9  C7  UNL     1       0.143  -0.253   2.331  1.00  0.00     0.168 C 
BRANCH   9  10
HETATM   10  C8  UNL     1       1.425  -0.598   1.806  1.00  0.00    -0.016 A 
HETATM   11  C9  UNL     1       1.731  -0.732   0.484  1.00  0.00     0.021 A 
HETATM   12  C10 UNL     1       2.956  -1.147  -0.009  1.00  0.00    -0.008 A 
HETATM   13  C12 UNL     1       3.959  -1.453   0.882  1.00  0.00     0.112 A 
HETATM   14  C13 UNL     1       3.669  -1.323   2.237  1.00  0.00     0.081 A 
HETATM   15 CL1  UNL     1       4.924  -1.703   3.414  1.00  0.00    -0.081 Cl
HETATM   16  C14 UNL     1       2.444  -0.909   2.703  1.00  0.00     0.065 A 
HETATM   17 CL2  UNL     1       2.185  -0.779   4.449  1.00  0.00    -0.082 Cl
BRANCH  12  18
HETATM   18  C11 UNL     1       3.202  -1.269  -1.479  1.00  0.00     0.204 C 
BRANCH  18  19
HETATM   19  O3  UNL     1       2.035  -0.894  -2.181  1.00  0.00    -0.396 OA
ATOM     20  H3  UNL     1       2.191  -0.972  -3.115  1.00  0.00     0.209 HD
ENDBRANCH  18  19
ENDBRANCH  12  18
BRANCH  13  21
HETATM   21  S1  UNL     1       5.548  -1.983   0.394  1.00  0.00     0.140 S 
HETATM   22  O4  UNL     1       6.132  -2.769   1.543  1.00  0.00    -0.591 OA
HETATM   23  O5  UNL     1       5.546  -2.879  -0.786  1.00  0.00    -0.591 OA
HETATM   24  O6  UNL     1       6.554  -0.633   0.185  1.00  0.00    -0.591 OA
ENDBRANCH  13  21
ENDBRANCH   9  10
ENDBRANCH   8   9
BRANCH   8  25
HETATM   25  C15 UNL     1      -1.131   1.570   1.276  1.00  0.00     0.159 C 
BRANCH  25  26
HETATM   26  C16 UNL     1      -0.403   2.382   0.281  1.00  0.00     0.139 C 
HETATM   27  C17 UNL     1      -0.975   3.794   0.171  1.00  0.00     0.035 C 
HETATM   28  C18 UNL     1       0.188   4.498  -0.511  1.00  0.00     0.029 C 
HETATM   29  C19 UNL     1       1.359   3.766   0.125  1.00  0.00     0.168 C 
HETATM   30  O7  UNL     1       0.936   2.503   0.425  1.00  0.00    -0.384 OA
ENDBRANCH  25  26
ENDBRANCH   8  25
BRANCH   1  31
HETATM   31  C1  UNL     1      -2.641  -2.471  -1.899  1.00  0.00     0.254 C 
HETATM   32  N1  UNL     1      -3.092  -3.604  -2.600  1.00  0.00    -0.060 NA
HETATM   33  O1  UNL     1      -1.608  -1.885  -2.281  1.00  0.00    -0.275 OA
ENDBRANCH   1  31
TORSDOF 8
