REMARK  7 active torsions:
REMARK  status: ('A' for Active; 'I' for Inactive)
REMARK    1  A    between atoms: C2_2  and  O1_3 
REMARK    2  A    between atoms: O1_3  and  C3_4 
REMARK    3  A    between atoms: C3_4  and  C4_6 
REMARK    4  A    between atoms: C13_16  and  O4_17 
REMARK    5  A    between atoms: C14_20  and  C16_22 
REMARK    6  A    between atoms: C26_35  and  O6_36 
REMARK    7  A    between atoms: C32_43  and  O7_44 
ROOT
HETATM    1  C4  UNL     1      -4.327  -0.341   0.253  1.00  0.00     0.162 C 
HETATM    2  C5  UNL     1      -5.144  -1.556   0.658  1.00  0.00     0.050 C 
HETATM    3  C6  UNL     1      -5.145  -2.563  -0.424  1.00  0.00     0.012 C 
HETATM    4  C7  UNL     1      -3.771  -3.081  -0.671  1.00  0.00    -0.047 C 
HETATM    5  C8  UNL     1      -3.575  -4.481  -0.125  1.00  0.00     0.015 C 
HETATM    6  C9  UNL     1      -3.546  -3.169  -2.177  1.00  0.00     0.015 C 
HETATM    7  C10 UNL     1      -2.668  -2.157  -0.131  1.00  0.00     0.019 C 
HETATM    8  C11 UNL     1      -3.053  -0.739  -0.469  1.00  0.00     0.061 C 
HETATM    9  C12 UNL     1      -1.981   0.280  -0.383  1.00  0.00     0.142 C 
HETATM   10  O3  UNL     1      -2.114   1.218   0.601  1.00  0.00    -0.302 OA
HETATM   11  C13 UNL     1      -3.068   1.193   1.507  1.00  0.00     0.416 C 
HETATM   12  O5  UNL     1      -2.459   1.024   2.759  1.00  0.00    -0.292 OA
HETATM   13  C14 UNL     1      -1.062   1.287   2.713  1.00  0.00     0.097 C 
HETATM   14  C15 UNL     1      -0.734   2.674   2.350  1.00  0.00     0.052 C 
HETATM   15  C17 UNL     1      -0.310   0.177   2.087  1.00  0.00     0.049 C 
HETATM   16  C18 UNL     1       0.282   0.346   0.749  1.00  0.00     0.004 C 
HETATM   17  C19 UNL     1      -0.566  -0.156  -0.412  1.00  0.00     0.020 C 
HETATM   18  C20 UNL     1       0.111   0.587  -1.584  1.00  0.00     0.008 C 
HETATM   19  C21 UNL     1       1.492   0.147  -1.842  1.00  0.00     0.007 C 
HETATM   20  C22 UNL     1       2.166  -0.566  -0.709  1.00  0.00     0.003 C 
HETATM   21  C23 UNL     1       1.629  -0.365   0.643  1.00  0.00    -0.033 C 
HETATM   22  C24 UNL     1       1.429  -1.721   1.346  1.00  0.00     0.016 C 
HETATM   23  C25 UNL     1       2.544   0.419   1.575  1.00  0.00     0.042 C 
HETATM   24  C26 UNL     1       3.440   1.372   0.847  1.00  0.00     0.128 C 
HETATM   25  C27 UNL     1       4.358   0.602  -0.113  1.00  0.00    -0.010 C 
HETATM   26  C28 UNL     1       5.469   0.144   0.855  1.00  0.00     0.018 C 
HETATM   27  C29 UNL     1       4.986   1.651  -0.980  1.00  0.00     0.019 C 
HETATM   28  C30 UNL     1       5.732   1.182  -2.159  1.00  0.00     0.011 C 
HETATM   29  C31 UNL     1       7.254   1.310  -2.002  1.00  0.00     0.012 C 
HETATM   30  C32 UNL     1       5.445  -0.190  -2.629  1.00  0.00     0.122 C 
HETATM   31  C33 UNL     1       4.076  -0.687  -2.269  1.00  0.00     0.042 C 
HETATM   32  C34 UNL     1       3.698  -0.509  -0.806  1.00  0.00    -0.028 C 
HETATM   33  C35 UNL     1       4.246  -1.808  -0.182  1.00  0.00     0.016 C 
HETATM   34  O8  UNL     1      -4.119   0.351   1.431  1.00  0.00    -0.286 OA
ENDROOT
BRANCH   1  35
HETATM   35  C3  UNL     1      -5.194   0.498  -0.617  1.00  0.00     0.294 C 
HETATM   36  O2  UNL     1      -5.514   0.196  -1.799  1.00  0.00    -0.262 OA
BRANCH  35  37
HETATM   37  O1  UNL     1      -5.693   1.680  -0.131  1.00  0.00    -0.319 OA
BRANCH  37  38
HETATM   38  C2  UNL     1      -6.526   2.571  -0.838  1.00  0.00     0.174 C 
HETATM   39  C1  UNL     1      -6.825   3.739   0.105  1.00  0.00     0.034 C 
ENDBRANCH  37  38
ENDBRANCH  35  37
ENDBRANCH   1  35
BRANCH  11  40
HETATM   40  O4  UNL     1      -3.599   2.513   1.601  1.00  0.00    -0.319 OA
ATOM     41  H4  UNL     1      -4.288   2.495   2.255  1.00  0.00     0.218 HD
ENDBRANCH  11  40
BRANCH  13  42
HETATM   42  C16 UNL     1      -0.738   1.209   4.204  1.00  0.00     0.091 C 
HETATM   43  N1  UNL     1      -0.354   0.123   4.724  1.00  0.00    -0.409 N 
ATOM     44  H12 UNL     1      -0.265  -0.700   4.128  1.00  0.00     0.155 HD
ATOM     45  H11 UNL     1      -0.138   0.071   5.719  1.00  0.00     0.155 HD
ENDBRANCH  13  42
BRANCH  24  46
HETATM   46  O6  UNL     1       2.766   2.402   0.239  1.00  0.00    -0.395 OA
ATOM     47  H6  UNL     1       3.335   3.007  -0.223  1.00  0.00     0.210 HD
ENDBRANCH  24  46
BRANCH  30  48
HETATM   48  O7  UNL     1       6.464  -1.123  -2.374  1.00  0.00    -0.395 OA
ATOM     49  H7  UNL     1       6.280  -2.005  -2.676  1.00  0.00     0.210 HD
ENDBRANCH  30  48
TORSDOF 7
