REMARK  5 active torsions:
REMARK  status: ('A' for Active; 'I' for Inactive)
REMARK    1  A    between atoms: O1_2  and  C2_3 
REMARK    2  A    between atoms: N1_6  and  C5_7 
REMARK    3  A    between atoms: C5_7  and  C6_8 
REMARK    4  A    between atoms: C6_8  and  C7_9 
REMARK    5  A    between atoms: C15_17  and  O2_18 
ROOT
HETATM    1  C5  UNL     1      -1.166  -1.033   0.268  1.00  0.00     0.135 C 
ENDROOT
BRANCH   1   2
HETATM    2  N1  UNL     1      -2.569  -0.679   0.249  1.00  0.00    -0.335 N 
HETATM    3  C4  UNL     1      -3.311  -0.448   1.343  1.00  0.00     0.096 A 
HETATM    4  C3  UNL     1      -4.602  -0.137   0.969  1.00  0.00     0.058 A 
HETATM    5  C2  UNL     1      -4.666  -0.174  -0.393  1.00  0.00     0.120 A 
HETATM    6  C15 UNL     1      -3.368  -0.519  -0.794  1.00  0.00     0.176 A 
BRANCH   5   7
HETATM    7  O1  UNL     1      -5.755   0.069  -1.192  1.00  0.00    -0.352 OA
HETATM    8  C1  UNL     1      -6.983   0.404  -0.576  1.00  0.00     0.210 C 
ENDBRANCH   5   7
BRANCH   6   9
HETATM    9  O2  UNL     1      -2.958  -0.675  -2.116  1.00  0.00    -0.344 OA
ATOM     10  H2  UNL     1      -2.078  -0.909  -2.388  1.00  0.00     0.219 HD
ENDBRANCH   6   9
ENDBRANCH   1   2
BRANCH   1  11
HETATM   11  C6  UNL     1      -0.374   0.268   0.218  1.00  0.00     0.054 C 
BRANCH  11  12
HETATM   12  C7  UNL     1       1.070   0.046   0.232  1.00  0.00    -0.082 C 
HETATM   13  C8  UNL     1       1.807   0.553   1.210  1.00  0.00    -0.023 C 
HETATM   14  C9  UNL     1       3.273   0.331   1.230  1.00  0.00     0.036 C 
HETATM   15  C10 UNL     1       3.906   0.257  -0.123  1.00  0.00    -0.044 C 
HETATM   16  C11 UNL     1       4.642   1.563  -0.449  1.00  0.00     0.015 C 
HETATM   17  C12 UNL     1       4.995  -0.822  -0.043  1.00  0.00     0.015 C 
HETATM   18  C13 UNL     1       2.962  -0.002  -1.249  1.00  0.00     0.013 C 
HETATM   19  C14 UNL     1       1.710  -0.748  -0.851  1.00  0.00     0.034 C 
ENDBRANCH  11  12
ENDBRANCH   1  11
TORSDOF 5
