REMARK  8 active torsions:
REMARK  status: ('A' for Active; 'I' for Inactive)
REMARK    1  A    between atoms: N1_2  and  N2_3 
REMARK    2  A    between atoms: N1_2  and  C2_7 
REMARK    3  A    between atoms: N2_3  and  O1_5 
REMARK    4  A    between atoms: C2_7  and  C3_8 
REMARK    5  A    between atoms: C3_8  and  C4_9 
REMARK    6  A    between atoms: C4_9  and  N4_13 
REMARK    7  A    between atoms: N4_13  and  C5_15 
REMARK    8  A    between atoms: N5_19  and  C9_21 
ROOT
HETATM    1  C2  UNL     1       1.002   0.681  -0.154  1.00  0.00     0.103 C 
HETATM    2  N5  UNL     1       1.564  -0.426  -0.001  1.00  0.00    -0.370 N 
ATOM      3  H5  UNL     1       0.967  -1.222  -0.226  1.00  0.00     0.161 HD
ENDROOT
BRANCH   1   4
HETATM    4  N1  UNL     1       1.687   1.886   0.116  1.00  0.00    -0.265 N 
HETATM    5  C1  UNL     1       2.140   2.705  -0.972  1.00  0.00     0.181 C 
BRANCH   4   6
HETATM    6  N2  UNL     1       1.917   2.286   1.417  1.00  0.00    -0.207 N 
ATOM      7  H2  UNL     1       1.279   2.004   2.161  1.00  0.00     0.216 HD
BRANCH   6   8
HETATM    8  O1  UNL     1       2.900   2.987   1.673  1.00  0.00    -0.274 OA
ATOM      9  H1  UNL     1       3.058   3.262   2.568  1.00  0.00     0.246 HD
ENDBRANCH   6   8
ENDBRANCH   4   6
ENDBRANCH   1   4
BRANCH   1  10
HETATM   10  C3  UNL     1      -0.392   0.836  -0.616  1.00  0.00     0.153 C 
BRANCH  10  11
HETATM   11  C4  UNL     1      -1.130  -0.393  -0.879  1.00  0.00     0.078 C 
HETATM   12  N3  UNL     1      -0.596  -1.545  -0.700  1.00  0.00    -0.389 N 
ATOM     13  H32 UNL     1       0.369  -1.539  -0.368  1.00  0.00     0.157 HD
ATOM     14  H31 UNL     1      -1.112  -2.405  -0.884  1.00  0.00     0.157 HD
BRANCH  11  15
HETATM   15  N4  UNL     1      -2.482  -0.401  -1.344  1.00  0.00    -0.372 N 
ATOM     16  H4  UNL     1      -2.644  -0.499  -2.346  1.00  0.00     0.161 HD
BRANCH  15  17
HETATM   17  C5  UNL     1      -3.617  -0.280  -0.491  1.00  0.00     0.020 C 
HETATM   18  C6  UNL     1      -4.879  -0.327  -1.312  1.00  0.00     0.037 C 
HETATM   19  C7  UNL     1      -3.678  -1.476   0.462  1.00  0.00     0.037 C 
HETATM   20  C8  UNL     1      -3.575   0.952   0.382  1.00  0.00     0.037 C 
ENDBRANCH  15  17
ENDBRANCH  11  15
ENDBRANCH  10  11
ENDBRANCH   1  10
BRANCH   2  21
HETATM   21  C9  UNL     1       2.862  -0.795   0.422  1.00  0.00     0.020 C 
HETATM   22  C10 UNL     1       3.031  -2.275   0.023  1.00  0.00     0.037 C 
HETATM   23  C11 UNL     1       3.101  -0.710   1.891  1.00  0.00     0.037 C 
HETATM   24  C12 UNL     1       3.997  -0.084  -0.300  1.00  0.00     0.037 C 
ENDBRANCH   2  21
TORSDOF 8
