REMARK  12 active torsions:
REMARK  status: ('A' for Active; 'I' for Inactive)
REMARK    1  A    between atoms: C2_2  and  C3_3 
REMARK    2  A    between atoms: C3_3  and  C4_4 
REMARK    3  A    between atoms: C7_7  and  C8_8 
REMARK    4  A    between atoms: C8_8  and  N1_9 
REMARK    5  A    between atoms: N1_9  and  C9_12 
REMARK    6  A    between atoms: C9_12  and  C10_13 
REMARK    7  A    between atoms: C10_13  and  O1_14 
REMARK    8  A    between atoms: C10_13  and  C11_16 
REMARK    9  A    between atoms: C11_16  and  O2_17 
REMARK   10  A    between atoms: O2_17  and  C12_18 
REMARK   11  A    between atoms: C15_21  and  N2_22 
REMARK   12  A    between atoms: C17_30  and  O3_31 
ROOT
HETATM    1  C9  UNL     1      -1.166   0.263   1.511  1.00  0.00     0.266 C 
ENDROOT
BRANCH   1   2
HETATM    2  N1  UNL     1       0.221   0.445   1.125  1.00  0.00    -0.069 N 
ATOM      3  H12 UNL     1       0.827   0.563   1.937  1.00  0.00     0.277 HD
ATOM      4  H11 UNL     1       0.375   1.353   0.686  1.00  0.00     0.277 HD
BRANCH   2   5
HETATM    5  C8  UNL     1       0.656  -0.626   0.292  1.00  0.00     0.271 C 
BRANCH   5   6
HETATM    6  C7  UNL     1       2.086  -0.520  -0.137  1.00  0.00    -0.030 A 
HETATM    7  C6  UNL     1       2.573  -1.302  -1.172  1.00  0.00     0.009 A 
HETATM    8  C5  UNL     1       3.887  -1.224  -1.583  1.00  0.00     0.011 A 
HETATM    9  C4  UNL     1       4.783  -0.363  -0.981  1.00  0.00    -0.021 A 
HETATM   10  C17 UNL     1       4.308   0.418   0.049  1.00  0.00     0.075 A 
HETATM   11  C16 UNL     1       2.972   0.342   0.470  1.00  0.00     0.046 A 
BRANCH   9  12
HETATM   12  C3  UNL     1       6.205  -0.316  -1.450  1.00  0.00     0.067 C 
BRANCH  12  13
HETATM   13  C2  UNL     1       7.105  -1.071  -0.547  1.00  0.00    -0.032 C 
HETATM   14  C1  UNL     1       8.129  -0.575   0.103  1.00  0.00     0.007 C 
ENDBRANCH  12  13
ENDBRANCH   9  12
BRANCH  10  15
HETATM   15  O3  UNL     1       5.192   1.281   0.657  1.00  0.00    -0.355 OA
HETATM   16  C18 UNL     1       4.855   2.145   1.725  1.00  0.00     0.210 C 
ENDBRANCH  10  15
ENDBRANCH   5   6
ENDBRANCH   2   5
ENDBRANCH   1   2
BRANCH   1  17
HETATM   17  C10 UNL     1      -2.123   0.402   0.375  1.00  0.00     0.168 C 
BRANCH  17  18
HETATM   18  O1  UNL     1      -2.058   1.637  -0.208  1.00  0.00    -0.392 OA
ATOM     19  H1  UNL     1      -2.667   1.726  -0.931  1.00  0.00     0.210 HD
ENDBRANCH  17  18
BRANCH  17  20
HETATM   20  C11 UNL     1      -3.549   0.150   0.875  1.00  0.00     0.210 C 
BRANCH  20  21
HETATM   21  O2  UNL     1      -4.449   0.153  -0.189  1.00  0.00    -0.332 OA
BRANCH  21  22
HETATM   22  C12 UNL     1      -5.812  -0.044  -0.126  1.00  0.00     0.157 A 
HETATM   23  C13 UNL     1      -6.563  -0.012  -1.310  1.00  0.00     0.061 A 
HETATM   24  C14 UNL     1      -7.926  -0.205  -1.279  1.00  0.00     0.053 A 
HETATM   25  C15 UNL     1      -8.582  -0.434  -0.088  1.00  0.00     0.113 A 
HETATM   26  N3  UNL     1      -7.824  -0.456   1.023  1.00  0.00    -0.284 N 
HETATM   27  N4  UNL     1      -6.500  -0.269   1.003  1.00  0.00    -0.278 N 
ATOM     28  H3  UNL     1      -8.279  -0.623   1.920  1.00  0.00     0.188 HD
ATOM     29  H4  UNL     1      -5.990  -0.299   1.886  1.00  0.00     0.189 HD
BRANCH  25  30
HETATM   30  N2  UNL     1      -9.859  -0.624  -0.006  1.00  0.00    -0.384 N 
ATOM     31  H22 UNL     1     -10.434  -0.607  -0.848  1.00  0.00     0.157 HD
ATOM     32  H21 UNL     1     -10.344  -0.793   0.875  1.00  0.00     0.157 HD
ENDBRANCH  25  30
ENDBRANCH  21  22
ENDBRANCH  20  21
ENDBRANCH  17  20
ENDBRANCH   1  17
TORSDOF 12
