REMARK  3 active torsions:
REMARK  status: ('A' for Active; 'I' for Inactive)
REMARK    1  A    between atoms: C11_12  and  O2_13 
REMARK    2  A    between atoms: C18_21  and  O3_22 
REMARK    3  A    between atoms: O3_22  and  C19_23 
REMARK       I    between atoms: C19_23  and  N1_25 
ROOT
HETATM    1  C1  UNL     1      -0.184   5.074   0.185  1.00  0.00     0.039 C 
HETATM    2  C2  UNL     1       0.853   3.972   0.348  1.00  0.00     0.120 C 
HETATM    3  C3  UNL     1       0.365   2.828   1.171  1.00  0.00     0.076 C 
HETATM    4  C4  UNL     1       0.450   1.641   0.205  1.00  0.00     0.189 C 
HETATM    5  C5  UNL     1       0.755   2.261  -1.090  1.00  0.00     0.210 C 
HETATM    6  O1  UNL     1       1.329   3.497  -0.844  1.00  0.00    -0.384 OA
HETATM    7  C6  UNL     1      -0.826   0.888   0.313  1.00  0.00     0.032 C 
HETATM    8  C7  UNL     1      -2.028   1.585  -0.211  1.00  0.00     0.008 C 
HETATM    9  C8  UNL     1      -2.821   0.741  -1.205  1.00  0.00     0.013 C 
HETATM   10  C9  UNL     1      -3.194  -0.569  -0.572  1.00  0.00    -0.010 C 
HETATM   11  C10 UNL     1      -4.378  -0.372   0.373  1.00  0.00     0.018 C 
HETATM   12  C11 UNL     1      -3.636  -1.575  -1.606  1.00  0.00     0.127 C 
HETATM   13  C12 UNL     1      -3.420  -2.890  -0.900  1.00  0.00     0.033 C 
HETATM   14  C13 UNL     1      -2.032  -2.663  -0.284  1.00  0.00     0.013 C 
HETATM   15  C14 UNL     1      -2.034  -1.218   0.155  1.00  0.00    -0.030 C 
HETATM   16  C15 UNL     1      -2.210  -1.168   1.637  1.00  0.00     0.016 C 
HETATM   17  C16 UNL     1      -0.758  -0.500  -0.302  1.00  0.00     0.005 C 
HETATM   18  C17 UNL     1       0.466  -1.253   0.119  1.00  0.00     0.070 C 
HETATM   19  C18 UNL     1       1.680  -0.405  -0.088  1.00  0.00     0.369 C 
HETATM   20  N2  UNL     1       1.536   0.820   0.639  1.00  0.00     0.126 N 
HETATM   21  C22 UNL     1       2.808   1.493   0.669  1.00  0.00     0.314 C 
ENDROOT
BRANCH  19  22
HETATM   22  O3  UNL     1       2.785  -1.108   0.501  1.00  0.00    -0.267 OA
BRANCH  22  23
HETATM   23  C19 UNL     1       3.867  -1.498  -0.276  1.00  0.00     0.364 C 
HETATM   24  O4  UNL     1       3.870  -1.227  -1.502  1.00  0.00    -0.238 OA
HETATM   25  N1  UNL     1       4.963  -2.193   0.293  1.00  0.00    -0.337 N 
HETATM   26  C20 UNL     1       6.070  -2.581  -0.545  1.00  0.00     0.154 C 
HETATM   27  C21 UNL     1       4.933  -2.495   1.724  1.00  0.00     0.154 C 
ENDBRANCH  22  23
ENDBRANCH  19  22
BRANCH  12  28
HETATM   28  O2  UNL     1      -4.995  -1.482  -1.898  1.00  0.00    -0.395 OA
ATOM     29  H2  UNL     1      -5.273  -2.115  -2.549  1.00  0.00     0.210 HD
ENDBRANCH  12  28
TORSDOF 3
