REMARK  1 active torsions:
REMARK  status: ('A' for Active; 'I' for Inactive)
REMARK    1  A    between atoms: O1_1  and  C1_3 
ROOT
HETATM    1  C1  UNL     1       1.343  -0.080   0.035  1.00  0.00     0.059 C 
HETATM    2  C2  UNL     1       0.977   1.349  -0.267  1.00  0.00     0.042 C 
HETATM    3  C3  UNL     1      -0.520   1.467  -0.239  1.00  0.00    -0.011 C 
HETATM    4  C4  UNL     1      -1.044   1.002   1.115  1.00  0.00     0.009 C 
HETATM    5  C5  UNL     1      -0.692  -0.424   1.346  1.00  0.00    -0.011 C 
HETATM    6  C6  UNL     1      -1.194  -1.374   0.309  1.00  0.00     0.009 C 
HETATM    7  C7  UNL     1      -0.732  -0.858  -1.052  1.00  0.00    -0.011 C 
HETATM    8  C8  UNL     1      -1.155   0.566  -1.274  1.00  0.00     0.009 C 
HETATM    9  C9  UNL     1       0.770  -0.976  -1.039  1.00  0.00     0.042 C 
HETATM   10  C10 UNL     1       0.838  -0.549   1.361  1.00  0.00     0.042 C 
ENDROOT
BRANCH   1  11
HETATM   11  O1  UNL     1       2.732  -0.178  -0.016  1.00  0.00    -0.390 OA
ATOM     12  H1  UNL     1       2.963  -1.080   0.175  1.00  0.00     0.210 HD
ENDBRANCH   1  11
TORSDOF 1
