REMARK  5 active torsions:
REMARK  status: ('A' for Active; 'I' for Inactive)
REMARK    1  A    between atoms: C4_4  and  N1_5 
REMARK       I    between atoms: N1_5  and  C5_7 
REMARK    2  A    between atoms: C5_7  and  C6_9 
REMARK    3  A    between atoms: C9_12  and  N2_13 
REMARK    4  A    between atoms: C11_18  and  N4_19 
REMARK    5  A    between atoms: N4_19  and  C12_21 
ROOT
HETATM    1  N2  UNL     1      -1.546  -1.440   1.318  1.00  0.00    -0.337 N 
ATOM      2  H2  UNL     1      -1.803  -2.233   1.906  1.00  0.00     0.167 HD
HETATM    3  C10 UNL     1      -2.489  -0.840   0.734  1.00  0.00     0.164 A 
HETATM    4  N3  UNL     1      -3.782  -1.260   0.903  1.00  0.00    -0.173 N 
ATOM      5  H3  UNL     1      -3.953  -2.063   1.508  1.00  0.00     0.186 HD
HETATM    6  C11 UNL     1      -4.833  -0.674   0.318  1.00  0.00     0.685 A 
HETATM    7  N5  UNL     1      -4.640   0.380  -0.479  1.00  0.00    -0.175 N 
ATOM      8  H5  UNL     1      -5.433   0.836  -0.930  1.00  0.00     0.185 HD
HETATM    9  C18 UNL     1      -3.391   0.834  -0.681  1.00  0.00     0.174 A 
HETATM   10  N6  UNL     1      -3.208   1.957  -1.534  1.00  0.00    -0.079 NA
HETATM   11  C19 UNL     1      -2.275   0.245  -0.085  1.00  0.00     0.202 A 
HETATM   12  F2  UNL     1      -1.086   0.781  -0.358  1.00  0.00    -0.198 F 
ENDROOT
BRANCH   1  13
HETATM   13  C9  UNL     1      -0.186  -1.131   1.243  1.00  0.00     0.072 A 
HETATM   14  C8  UNL     1       0.627  -1.706   0.276  1.00  0.00     0.034 A 
HETATM   15  C7  UNL     1       1.981  -1.402   0.215  1.00  0.00     0.019 A 
HETATM   16  C6  UNL     1       2.519  -0.526   1.116  1.00  0.00     0.035 A 
HETATM   17  C21 UNL     1       1.729   0.073   2.103  1.00  0.00     0.061 A 
HETATM   18  C20 UNL     1       0.390  -0.236   2.155  1.00  0.00     0.144 A 
HETATM   19  F3  UNL     1      -0.413   0.317   3.090  1.00  0.00    -0.204 F 
BRANCH  16  20
HETATM   20  C5  UNL     1       3.957  -0.178   1.062  1.00  0.00     0.256 C 
HETATM   21  N1  UNL     1       4.691  -0.307  -0.120  1.00  0.00    -0.321 N 
ATOM     22  H1  UNL     1       4.156  -0.650  -0.917  1.00  0.00     0.169 HD
HETATM   23  O1  UNL     1       4.466   0.233   2.126  1.00  0.00    -0.267 OA
BRANCH  21  24
HETATM   24  C4  UNL     1       6.037  -0.044  -0.392  1.00  0.00     0.057 A 
HETATM   25  C3  UNL     1       6.910   0.423   0.550  1.00  0.00     0.039 A 
HETATM   26  C2  UNL     1       8.255   0.677   0.240  1.00  0.00    -0.042 A 
HETATM   27  C1  UNL     1       9.189   1.184   1.278  1.00  0.00     0.049 C 
HETATM   28  C24 UNL     1       8.723   0.457  -1.030  1.00  0.00     0.018 A 
HETATM   29  C23 UNL     1       7.838  -0.010  -1.963  1.00  0.00     0.046 A 
HETATM   30 BR1  UNL     1      10.553   0.810  -1.422  1.00  0.00    -0.051 Br
HETATM   31  C22 UNL     1       6.519  -0.265  -1.682  1.00  0.00     0.062 A 
HETATM   32 CL2  UNL     1       5.471  -0.865  -2.963  1.00  0.00    -0.082 Cl
ENDBRANCH  21  24
ENDBRANCH  16  20
ENDBRANCH   1  13
BRANCH   6  33
HETATM   33  N4  UNL     1      -6.029  -1.154   0.546  1.00  0.00    -0.187 N 
ATOM     34  H4  UNL     1      -6.144  -1.960   1.160  1.00  0.00     0.184 HD
BRANCH  33  35
HETATM   35  C12 UNL     1      -7.169  -0.556  -0.059  1.00  0.00     0.109 A 
HETATM   36  C13 UNL     1      -7.904   0.314   0.697  1.00  0.00     0.145 A 
HETATM   37  F1  UNL     1      -7.546   0.582   1.961  1.00  0.00    -0.204 F 
HETATM   38  C14 UNL     1      -9.017   0.920   0.157  1.00  0.00     0.045 A 
HETATM   39  C15 UNL     1      -9.378   0.639  -1.145  1.00  0.00     0.005 A 
HETATM   40  C16 UNL     1      -8.639  -0.238  -1.910  1.00  0.00     0.026 A 
HETATM   41  C17 UNL     1      -7.535  -0.826  -1.345  1.00  0.00     0.064 A 
HETATM   42 CL1  UNL     1      -6.585  -1.949  -2.315  1.00  0.00    -0.082 Cl
ENDBRANCH  33  35
ENDBRANCH   6  33
TORSDOF 5
