REMARK  4 active torsions:
REMARK  status: ('A' for Active; 'I' for Inactive)
REMARK    1  A    between atoms: C1_2  and  C2_3 
REMARK       I    between atoms: C1_2  and  N1_5 
REMARK    2  A    between atoms: C6_13  and  N3_14 
REMARK    3  A    between atoms: N3_14  and  C7_16 
REMARK    4  A    between atoms: C7_16  and  C8_17 
ROOT
HETATM    1  O1  UNL     1      -5.503  -0.924   1.330  1.00  0.00    -0.271 OA
HETATM    2  C1  UNL     1      -5.088   0.110   0.708  1.00  0.00     0.249 C 
HETATM    3  N1  UNL     1      -3.777   0.495   0.586  1.00  0.00    -0.159 N 
ATOM      4  H1  UNL     1      -3.664   1.505   0.668  1.00  0.00     0.187 HD
HETATM    5  C3  UNL     1      -2.692  -0.083   0.400  1.00  0.00     0.687 A 
HETATM    6  N2  UNL     1      -2.654  -1.464   0.259  1.00  0.00    -0.181 N 
ATOM      7  H2  UNL     1      -3.495  -2.020   0.415  1.00  0.00     0.185 HD
HETATM    8  C4  UNL     1      -1.497  -2.065  -0.086  1.00  0.00     0.122 A 
HETATM    9 CL2  UNL     1      -1.482  -3.832  -0.290  1.00  0.00    -0.064 Cl
HETATM   10  C5  UNL     1      -0.330  -1.413  -0.295  1.00  0.00     0.091 A 
HETATM   11  C6  UNL     1      -0.417   0.004  -0.129  1.00  0.00     0.123 A 
HETATM   12  N5  UNL     1      -1.541   0.555   0.201  1.00  0.00    -0.176 N 
ATOM     13  H5  UNL     1      -1.545   1.568   0.319  1.00  0.00     0.186 HD
ENDROOT
BRANCH  11  14
HETATM   14  N3  UNL     1       0.734   0.624  -0.350  1.00  0.00    -0.350 N 
ATOM     15  H3  UNL     1       0.788   1.637  -0.247  1.00  0.00     0.166 HD
BRANCH  14  16
HETATM   16  C7  UNL     1       1.856  -0.082  -0.716  1.00  0.00     0.121 C 
BRANCH  16  17
HETATM   17  C8  UNL     1       3.125   0.435  -0.129  1.00  0.00     0.069 A 
HETATM   18  N4  UNL     1       3.713   1.602  -0.540  1.00  0.00    -0.362 N 
HETATM   19  C9  UNL     1       4.997   1.903  -0.227  1.00  0.00     0.112 A 
ATOM     20  H4  UNL     1       3.170   2.262  -1.097  1.00  0.00     0.165 HD
HETATM   21  C10 UNL     1       5.790   1.032   0.554  1.00  0.00     0.051 A 
HETATM   22 CL3  UNL     1       7.402   1.511   0.968  1.00  0.00    -0.083 Cl
HETATM   23  C11 UNL     1       5.195  -0.116   0.973  1.00  0.00     0.051 A 
HETATM   24  C12 UNL     1       3.901  -0.405   0.631  1.00  0.00     0.063 A 
HETATM   25 CL4  UNL     1       3.194  -1.874   1.299  1.00  0.00    -0.082 Cl
ENDBRANCH  16  17
ENDBRANCH  14  16
ENDBRANCH  11  14
BRANCH   2  26
HETATM   26  C2  UNL     1      -6.220   0.905   0.100  1.00  0.00     0.218 C 
HETATM   27 CL1  UNL     1      -5.555   2.427  -0.572  1.00  0.00    -0.121 Cl
ENDBRANCH   2  26
TORSDOF 4
