REMARK  4 active torsions:
REMARK  status: ('A' for Active; 'I' for Inactive)
REMARK    1  A    between atoms: C2_2  and  O1_4 
REMARK    2  A    between atoms: O1_4  and  C4_5 
REMARK    3  A    between atoms: C4_5  and  C6_8 
REMARK       I    between atoms: C6_8  and  N2_10 
REMARK    4  A    between atoms: N2_10  and  C7_12 
ROOT
HETATM    1  C4  UNL     1       1.892  -0.220  -0.254  1.00  0.00     0.319 C 
HETATM    2  C5  UNL     1       2.091  -0.468  -1.693  1.00  0.00     0.101 C 
HETATM    3  N1  UNL     1       2.264  -0.679  -2.828  1.00  0.00    -0.194 NA
ENDROOT
BRANCH   1   4
HETATM    4  O1  UNL     1       2.845  -0.973   0.415  1.00  0.00    -0.358 OA
BRANCH   4   5
HETATM    5  C2  UNL     1       3.773  -0.197   1.102  1.00  0.00     0.115 C 
HETATM    6  C1  UNL     1       5.189  -0.494   0.673  1.00  0.00     0.039 C 
HETATM    7  C3  UNL     1       3.667  -0.629   2.569  1.00  0.00     0.039 C 
ENDBRANCH   4   5
ENDBRANCH   1   4
BRANCH   1   8
HETATM    8  C6  UNL     1       0.530  -0.597   0.172  1.00  0.00     0.261 C 
HETATM    9  O2  UNL     1       0.384  -1.491   1.032  1.00  0.00    -0.269 OA
HETATM   10  N2  UNL     1      -0.606   0.029  -0.368  1.00  0.00    -0.353 N 
ATOM     11  H2  UNL     1      -0.472   0.758  -1.069  1.00  0.00     0.163 HD
BRANCH  10  12
HETATM   12  C7  UNL     1      -1.968  -0.313   0.026  1.00  0.00     0.084 C 
HETATM   13  C8  UNL     1      -2.566   0.876   0.679  1.00  0.00     0.025 C 
HETATM   14  C9  UNL     1      -3.356   1.775  -0.201  1.00  0.00     0.002 C 
HETATM   15  C10 UNL     1      -4.424   0.909  -0.885  1.00  0.00     0.000 C 
HETATM   16  C11 UNL     1      -3.607   0.049  -1.854  1.00  0.00     0.002 C 
HETATM   17  C12 UNL     1      -2.713  -0.881  -1.130  1.00  0.00     0.025 C 
ENDBRANCH  10  12
ENDBRANCH   1   8
TORSDOF 4
