REMARK  5 active torsions:
REMARK  status: ('A' for Active; 'I' for Inactive)
REMARK    1  A    between atoms: C1_2  and  C2_3 
REMARK    2  A    between atoms: C1_2  and  C9_12 
REMARK    3  A    between atoms: C2_3  and  N1_4 
REMARK    4  A    between atoms: N1_4  and  C3_6 
REMARK    5  A    between atoms: C9_12  and  N2_13 
ROOT
HETATM    1  C2  UNL     1       0.415   0.972  -0.726  1.00  0.00     0.194 C 
ENDROOT
BRANCH   1   2
HETATM    2  C1  UNL     1      -0.862   0.217  -0.698  1.00  0.00     0.172 C 
HETATM    3  O1  UNL     1      -0.994  -0.957  -0.984  1.00  0.00    -0.294 OA
BRANCH   2   4
HETATM    4  C9  UNL     1      -2.075   0.995  -0.275  1.00  0.00     0.352 C 
BRANCH   4   5
HETATM    5  N2  UNL     1      -3.254   0.212  -0.269  1.00  0.00     0.095 N 
HETATM    6  C10 UNL     1      -3.377  -0.806   0.701  1.00  0.00     0.273 C 
HETATM    7  C11 UNL     1      -4.328  -0.294   1.728  1.00  0.00     0.032 C 
HETATM    8  C12 UNL     1      -5.334   0.468   0.852  1.00  0.00     0.032 C 
HETATM    9  C13 UNL     1      -4.433   0.995  -0.242  1.00  0.00     0.273 C 
ENDBRANCH   4   5
ENDBRANCH   2   4
ENDBRANCH   1   2
BRANCH   1  10
HETATM   10  N1  UNL     1       1.554   0.185  -1.135  1.00  0.00    -0.410 N 
ATOM     11  H1  UNL     1       2.030   0.331  -2.025  1.00  0.00     0.154 HD
BRANCH  10  12
HETATM   12  C3  UNL     1       1.964  -0.815  -0.199  1.00  0.00     0.077 C 
HETATM   13  C4  UNL     1       2.448  -0.239   1.116  1.00  0.00     0.024 C 
HETATM   14  C5  UNL     1       3.747   0.485   1.011  1.00  0.00     0.002 C 
HETATM   15  C6  UNL     1       4.794  -0.265   0.264  1.00  0.00     0.000 C 
HETATM   16  C7  UNL     1       4.263  -0.797  -1.058  1.00  0.00     0.002 C 
HETATM   17  C8  UNL     1       3.065  -1.651  -0.784  1.00  0.00     0.024 C 
ENDBRANCH  10  12
ENDBRANCH   1  10
TORSDOF 5
