REMARK  8 active torsions:
REMARK  status: ('A' for Active; 'I' for Inactive)
REMARK       I    between atoms: C1_2  and  N1_3 
REMARK       I    between atoms: C1_2  and  N3_21 
REMARK    1  A    between atoms: N1_3  and  C2_4 
REMARK    2  A    between atoms: C2_4  and  C3_5 
REMARK    3  A    between atoms: C3_5  and  O2_6 
REMARK    4  A    between atoms: N2_10  and  C6_11 
REMARK    5  A    between atoms: C6_11  and  C7_12 
REMARK    6  A    between atoms: C7_12  and  C8_13 
REMARK    7  A    between atoms: N3_21  and  C15_23 
REMARK    8  A    between atoms: C15_23  and  C16_24 
ROOT
HETATM    1  C3  UNL     1       0.092   0.981  -0.331  1.00  0.00     0.105 C 
HETATM    2  C4  UNL     1       0.087  -0.336   0.434  1.00  0.00     0.064 C 
HETATM    3  C5  UNL     1      -1.143  -0.470   1.291  1.00  0.00     0.120 C 
HETATM    4  N2  UNL     1      -2.328   0.095   0.745  1.00  0.00    -0.412 N 
HETATM    5  C13 UNL     1      -2.254   1.340   0.118  1.00  0.00     0.120 C 
HETATM    6  C14 UNL     1      -1.216   1.271  -1.009  1.00  0.00     0.064 C 
ENDROOT
BRANCH   1   7
HETATM    7  C2  UNL     1       1.176   0.965  -1.388  1.00  0.00     0.198 C 
BRANCH   7   8
HETATM    8  N1  UNL     1       2.466   0.718  -0.894  1.00  0.00    -0.366 NA
HETATM    9  C1  UNL     1       3.686   0.483  -0.426  1.00  0.00     0.394 C 
HETATM   10  O1  UNL     1       4.054  -0.585   0.187  1.00  0.00    -0.230 OA
HETATM   11  N3  UNL     1       4.807   1.406  -0.537  1.00  0.00    -0.303 N 
ATOM     12  H3  UNL     1       4.654   2.307  -0.989  1.00  0.00     0.167 HD
BRANCH  11  13
HETATM   13  C15 UNL     1       6.110   1.105  -0.041  1.00  0.00     0.204 C 
HETATM   14  C17 UNL     1       6.744  -0.107  -0.685  1.00  0.00     0.219 C 
HETATM   15  O4  UNL     1       6.803  -1.152   0.189  1.00  0.00    -0.387 OA
HETATM   16  C18 UNL     1       7.823  -1.139   1.103  1.00  0.00     0.178 C 
HETATM   17  C19 UNL     1       7.617  -0.088   2.181  1.00  0.00     0.103 C 
HETATM   18  S1  UNL     1       6.151   0.877   1.752  1.00  0.00    -0.124 SA
BRANCH  13  19
HETATM   19  C16 UNL     1       7.000   2.342  -0.313  1.00  0.00     0.424 C 
HETATM   20  F1  UNL     1       7.049   2.606  -1.670  1.00  0.00    -0.167 F 
HETATM   21  F2  UNL     1       8.266   2.040   0.143  1.00  0.00    -0.167 F 
HETATM   22  F3  UNL     1       6.524   3.407   0.412  1.00  0.00    -0.167 F 
ENDBRANCH  13  19
ENDBRANCH  11  13
ENDBRANCH   7   8
ENDBRANCH   1   7
BRANCH   1  23
HETATM   23  O2  UNL     1       0.322   1.992   0.608  1.00  0.00    -0.383 OA
ATOM     24  H2  UNL     1      -0.358   2.002   1.271  1.00  0.00     0.211 HD
ENDBRANCH   1  23
BRANCH   4  25
HETATM   25  C6  UNL     1      -3.293  -0.855   0.320  1.00  0.00     0.117 C 
BRANCH  25  26
HETATM   26  C7  UNL     1      -4.532  -0.210  -0.205  1.00  0.00     0.024 C 
BRANCH  26  27
HETATM   27  C8  UNL     1      -5.555  -1.241  -0.625  1.00  0.00    -0.009 C 
HETATM   28  C9  UNL     1      -5.954  -2.097   0.540  1.00  0.00     0.031 C 
HETATM   29  C10 UNL     1      -6.970  -1.338   1.388  1.00  0.00     0.168 C 
HETATM   30  O3  UNL     1      -8.217  -1.369   0.752  1.00  0.00    -0.391 OA
HETATM   31  C11 UNL     1      -8.043  -1.337  -0.637  1.00  0.00     0.168 C 
HETATM   32  C12 UNL     1      -6.847  -0.487  -1.016  1.00  0.00     0.031 C 
ENDBRANCH  26  27
ENDBRANCH  25  26
ENDBRANCH   4  25
TORSDOF 8
