REMARK  11 active torsions:
REMARK  status: ('A' for Active; 'I' for Inactive)
REMARK    1  A    between atoms: N1_1  and  C1_4 
REMARK    2  A    between atoms: N4_13  and  C4_14 
REMARK    3  A    between atoms: C4_14  and  C5_15 
REMARK    4  A    between atoms: C5_15  and  C6_16 
REMARK    5  A    between atoms: C5_15  and  N8_30 
REMARK    6  A    between atoms: C6_16  and  C7_17 
REMARK    7  A    between atoms: C7_17  and  N5_18 
REMARK    8  A    between atoms: C7_17  and  C8_22 
REMARK    9  A    between atoms: C8_22  and  N6_23 
REMARK   10  A    between atoms: C8_22  and  C9_27 
REMARK   11  A    between atoms: N8_30  and  C10_32 
ROOT
HETATM    1  C5  UNL     1       0.330  -0.867   0.134  1.00  0.00     0.105 C 
ENDROOT
BRANCH   1   2
HETATM    2  C4  UNL     1       0.858   0.486  -0.198  1.00  0.00     0.177 C 
BRANCH   2   3
HETATM    3  N4  UNL     1       2.225   0.729   0.125  1.00  0.00    -0.131 N 
HETATM    4  C1  UNL     1       3.190   0.531  -0.771  1.00  0.00     0.686 A 
HETATM    5  N2  UNL     1       4.499   0.745  -0.466  1.00  0.00    -0.141 N 
HETATM    6  C2  UNL     1       4.842   1.163   0.748  1.00  0.00     0.342 A 
ATOM      7  H2  UNL     1       5.219   0.584  -1.171  1.00  0.00     0.189 HD
HETATM    8  O1  UNL     1       6.035   1.385   1.111  1.00  0.00    -0.246 OA
HETATM    9  N3  UNL     1       3.878   1.373   1.679  1.00  0.00    -0.259 N 
HETATM   10  C3  UNL     1       2.590   1.156   1.362  1.00  0.00     0.344 A 
ATOM     11  H3  UNL     1       4.129   1.694   2.614  1.00  0.00     0.175 HD
HETATM   12  O2  UNL     1       1.737   1.369   2.268  1.00  0.00    -0.246 OA
BRANCH   4  13
HETATM   13  N1  UNL     1       2.976   0.144  -1.982  1.00  0.00    -0.234 N 
ATOM     14  H12 UNL     1       3.715  -0.008  -2.668  1.00  0.00     0.174 HD
ATOM     15  H11 UNL     1       1.995  -0.016  -2.211  1.00  0.00     0.174 HD
ENDBRANCH   4  13
ENDBRANCH   2   3
ENDBRANCH   1   2
BRANCH   1  16
HETATM   16  C6  UNL     1      -1.115  -0.967  -0.258  1.00  0.00     0.062 C 
BRANCH  16  17
HETATM   17  C7  UNL     1      -1.955   0.037   0.473  1.00  0.00     0.224 C 
BRANCH  17  18
HETATM   18  N5  UNL     1      -1.804  -0.228   1.897  1.00  0.00    -0.072 N 
ATOM     19  H53 UNL     1      -2.024  -1.192   2.149  1.00  0.00     0.274 HD
ATOM     20  H52 UNL     1      -0.830  -0.231   2.201  1.00  0.00     0.274 HD
ATOM     21  H51 UNL     1      -2.375   0.455   2.394  1.00  0.00     0.274 HD
ENDBRANCH  17  18
BRANCH  17  22
HETATM   22  C8  UNL     1      -3.425  -0.214   0.094  1.00  0.00     0.302 C 
BRANCH  22  23
HETATM   23  N6  UNL     1      -3.612  -0.066  -1.321  1.00  0.00    -0.065 N 
ATOM     24  H63 UNL     1      -3.284   0.841  -1.654  1.00  0.00     0.275 HD
ATOM     25  H62 UNL     1      -2.977  -0.662  -1.852  1.00  0.00     0.275 HD
ATOM     26  H61 UNL     1      -4.586  -0.232  -1.572  1.00  0.00     0.275 HD
ENDBRANCH  22  23
BRANCH  22  27
HETATM   27  C9  UNL     1      -4.314   0.738   0.783  1.00  0.00     0.263 C 
HETATM   28  N7  UNL     1      -5.175   1.615   0.079  1.00  0.00    -0.060 NA
HETATM   29  O3  UNL     1      -4.318   0.785   2.036  1.00  0.00    -0.275 OA
ENDBRANCH  22  27
ENDBRANCH  17  22
ENDBRANCH  16  17
ENDBRANCH   1  16
BRANCH   1  30
HETATM   30  N8  UNL     1       1.014  -1.917  -0.608  1.00  0.00    -0.362 N 
ATOM     31  H8  UNL     1       0.919  -1.932  -1.623  1.00  0.00     0.162 HD
BRANCH  30  32
HETATM   32  C10 UNL     1       1.802  -2.915   0.005  1.00  0.00     0.348 C 
HETATM   33  O4  UNL     1       1.977  -2.974   1.260  1.00  0.00    -0.284 OA
ENDBRANCH  30  32
ENDBRANCH   1  30
TORSDOF 11
