REMARK  11 active torsions:
REMARK  status: ('A' for Active; 'I' for Inactive)
REMARK    1  A    between atoms: C1_4  and  C2_5 
REMARK    2  A    between atoms: C1_4  and  N5_15 
REMARK    3  A    between atoms: C2_5  and  N2_6 
REMARK    4  A    between atoms: C3_8  and  C4_9 
REMARK    5  A    between atoms: N5_15  and  C6_17 
REMARK    6  A    between atoms: C6_17  and  C7_18 
REMARK    7  A    between atoms: C7_18  and  N6_19 
REMARK    8  A    between atoms: C7_18  and  C8_23 
REMARK    9  A    between atoms: C8_23  and  N7_24 
REMARK   10  A    between atoms: N7_24  and  S1_26 
REMARK   11  A    between atoms: S1_26  and  N8_27 
ROOT
HETATM    1  N5  UNL     1       0.135  -0.631  -0.231  1.00  0.00    -0.377 N 
ATOM      2  H5  UNL     1       0.405  -0.286   0.690  1.00  0.00     0.160 HD
ENDROOT
BRANCH   1   3
HETATM    3  C1  UNL     1       1.092  -1.203  -1.093  1.00  0.00     0.088 C 
HETATM    4  N1  UNL     1       0.730  -2.048  -1.976  1.00  0.00    -0.388 N 
ATOM      5  H12 UNL     1       1.423  -2.462  -2.600  1.00  0.00     0.157 HD
ATOM      6  H11 UNL     1      -0.248  -2.320  -2.070  1.00  0.00     0.157 HD
BRANCH   3   7
HETATM    7  C2  UNL     1       2.511  -0.808  -0.956  1.00  0.00     0.194 C 
BRANCH   7   8
HETATM    8  N2  UNL     1       2.942  -1.148   0.368  1.00  0.00    -0.393 N 
HETATM    9  C3  UNL     1       4.115  -0.837   0.732  1.00  0.00     0.088 C 
ATOM     10  H2  UNL     1       2.313  -1.633   1.008  1.00  0.00     0.159 HD
BRANCH   9  11
HETATM   11  C4  UNL     1       5.019  -0.142  -0.179  1.00  0.00     0.230 C 
HETATM   12  N3  UNL     1       5.529   1.132   0.353  1.00  0.00    -0.119 NA
HETATM   13  N4  UNL     1       6.730   0.840  -0.282  1.00  0.00    -0.271 N 
HETATM   14  C5  UNL     1       6.449  -0.535  -0.108  1.00  0.00     0.259 C 
ATOM     15  H4  UNL     1       7.488   1.383  -0.695  1.00  0.00     0.185 HD
HETATM   16  O1  UNL     1       7.159  -1.559   0.034  1.00  0.00    -0.270 OA
ENDBRANCH   9  11
ENDBRANCH   7   8
ENDBRANCH   3   7
ENDBRANCH   1   3
BRANCH   1  17
HETATM   17  C6  UNL     1      -1.235  -0.543  -0.678  1.00  0.00     0.155 C 
BRANCH  17  18
HETATM   18  C7  UNL     1      -2.105   0.106   0.389  1.00  0.00     0.219 C 
BRANCH  18  19
HETATM   19  N6  UNL     1      -1.622   1.462   0.684  1.00  0.00    -0.072 N 
ATOM     20  H63 UNL     1      -0.635   1.467   0.943  1.00  0.00     0.274 HD
ATOM     21  H62 UNL     1      -1.560   2.035  -0.157  1.00  0.00     0.274 HD
ATOM     22  H61 UNL     1      -2.205   1.897   1.399  1.00  0.00     0.274 HD
ENDBRANCH  18  19
BRANCH  18  23
HETATM   23  C8  UNL     1      -3.480   0.275  -0.220  1.00  0.00     0.168 C 
BRANCH  23  24
HETATM   24  N7  UNL     1      -4.341   0.892   0.771  1.00  0.00    -0.301 N 
ATOM     25  H7  UNL     1      -4.050   1.158   1.712  1.00  0.00     0.173 HD
BRANCH  24  26
HETATM   26  S1  UNL     1      -5.934   1.112   0.128  1.00  0.00     0.312 S 
HETATM   27  O2  UNL     1      -5.762   1.375  -1.354  1.00  0.00    -0.183 OA
HETATM   28  O3  UNL     1      -6.539   2.342   0.746  1.00  0.00    -0.183 OA
BRANCH  26  29
HETATM   29  N8  UNL     1      -6.932  -0.243   0.428  1.00  0.00    -0.312 N 
ATOM     30  H82 UNL     1      -6.613  -1.073   0.927  1.00  0.00     0.170 HD
ATOM     31  H81 UNL     1      -7.870  -0.113   0.049  1.00  0.00     0.170 HD
ENDBRANCH  26  29
ENDBRANCH  24  26
ENDBRANCH  23  24
ENDBRANCH  18  23
ENDBRANCH  17  18
ENDBRANCH   1  17
TORSDOF 11
