REMARK  5 active torsions:
REMARK  status: ('A' for Active; 'I' for Inactive)
REMARK    1  A    between atoms: C2_2  and  C4_4 
REMARK    2  A    between atoms: C2_2  and  C11_13 
REMARK    3  A    between atoms: C5_5  and  C6_6 
REMARK    4  A    between atoms: C6_6  and  N1_7 
REMARK    5  A    between atoms: C11_13  and  N2_14 
ROOT
HETATM    1  C4  UNL     1      -1.402  -0.693   0.017  1.00  0.00    -0.019 C 
HETATM    2  C5  UNL     1      -0.291  -0.125   0.537  1.00  0.00    -0.000 C 
ENDROOT
BRANCH   1   3
HETATM    3  C2  UNL     1      -2.739  -0.105   0.206  1.00  0.00    -0.007 C 
HETATM    4  C1  UNL     1      -2.921   0.092   1.718  1.00  0.00     0.021 C 
HETATM    5  C3  UNL     1      -3.785  -1.063  -0.314  1.00  0.00     0.021 C 
BRANCH   3   6
HETATM    6  C11 UNL     1      -2.928   1.212  -0.514  1.00  0.00     0.242 C 
BRANCH   6   7
HETATM    7  N2  UNL     1      -2.753   0.993  -1.929  1.00  0.00    -0.078 N 
ATOM      8  H23 UNL     1      -1.860   0.552  -2.149  1.00  0.00     0.274 HD
ATOM      9  H22 UNL     1      -3.364   0.260  -2.289  1.00  0.00     0.274 HD
ATOM     10  H21 UNL     1      -2.880   1.881  -2.414  1.00  0.00     0.274 HD
ENDBRANCH   6   7
ENDBRANCH   3   6
ENDBRANCH   1   3
BRANCH   2  11
HETATM   11  C6  UNL     1       0.971  -0.801   0.280  1.00  0.00     0.299 C 
BRANCH  11  12
HETATM   12  N1  UNL     1       1.958  -0.048  -0.430  1.00  0.00     0.096 N 
HETATM   13  C7  UNL     1       2.502   1.062   0.304  1.00  0.00     0.299 C 
HETATM   14  C8  UNL     1       3.709   0.649   1.147  1.00  0.00     0.198 C 
HETATM   15  O1  UNL     1       4.777   0.256   0.357  1.00  0.00    -0.388 OA
HETATM   16  C9  UNL     1       4.371  -0.280  -0.858  1.00  0.00     0.198 C 
HETATM   17  C10 UNL     1       3.067  -0.985  -0.658  1.00  0.00     0.299 C 
ENDBRANCH  11  12
ENDBRANCH   2  11
TORSDOF 5
