REMARK  1 active torsions:
REMARK  status: ('A' for Active; 'I' for Inactive)
REMARK    1  A    between atoms: N2_5  and  O1_6 
ROOT
HETATM    1  C1  UNL     1       1.949   0.070   0.431  1.00  0.00     0.043 C 
HETATM    2  C2  UNL     1       0.574   0.486  -0.010  1.00  0.00     0.161 C 
HETATM    3  C3  UNL     1      -0.010  -0.552  -0.965  1.00  0.00     0.167 C 
HETATM    4  N1  UNL     1      -1.415  -0.616  -0.539  1.00  0.00    -0.110 NA
HETATM    5  N2  UNL     1      -1.514   0.450   0.328  1.00  0.00     0.029 NA
HETATM    6  O2  UNL     1      -0.359   0.446   1.024  1.00  0.00    -0.258 OA
ENDROOT
BRANCH   5   7
HETATM    7  O1  UNL     1      -2.608   0.503   1.061  1.00  0.00    -0.274 OA
ATOM      8  H1  UNL     1      -2.676   1.238   1.659  1.00  0.00     0.241 HD
ENDBRANCH   5   7
TORSDOF 1
