REMARK  3 active torsions:
REMARK  status: ('A' for Active; 'I' for Inactive)
REMARK    1  A    between atoms: C2_2  and  C4_4 
REMARK    2  A    between atoms: C4_4  and  O1_5 
REMARK    3  A    between atoms: N1_7  and  O2_9 
ROOT
HETATM    1  C4  UNL     1       0.684  -0.890   0.238  1.00  0.00     0.165 C 
HETATM    2  N1  UNL     1       1.852  -0.371   0.382  1.00  0.00    -0.247 N 
ATOM      3  H1  UNL     1       2.635  -1.010   0.523  1.00  0.00     0.196 HD
ENDROOT
BRANCH   1   4
HETATM    4  C2  UNL     1      -0.528  -0.120   0.031  1.00  0.00    -0.019 C 
HETATM    5  C1  UNL     1      -1.690  -0.713  -0.109  1.00  0.00     0.023 C 
HETATM    6  C3  UNL     1      -0.474   1.359  -0.028  1.00  0.00     0.052 C 
ENDBRANCH   1   4
BRANCH   1   7
HETATM    7  O1  UNL     1       0.556  -2.287   0.282  1.00  0.00    -0.344 OA
ATOM      8  H1  UNL     1       1.350  -2.791   0.418  1.00  0.00     0.219 HD
ENDBRANCH   1   7
BRANCH   2   9
HETATM    9  O2  UNL     1       2.127   0.958   0.362  1.00  0.00    -0.288 OA
ATOM     10  H2  UNL     1       2.990   1.341   0.468  1.00  0.00     0.244 HD
ENDBRANCH   2   9
TORSDOF 3
