REMARK  13 active torsions:
REMARK  status: ('A' for Active; 'I' for Inactive)
REMARK    1  A    between atoms: N1_1  and  C1_5 
REMARK    2  A    between atoms: N2_9  and  C5_10 
REMARK    3  A    between atoms: C5_10  and  C6_11 
REMARK    4  A    between atoms: C6_11  and  C7_12 
REMARK    5  A    between atoms: C7_12  and  C8_13 
REMARK    6  A    between atoms: C8_13  and  C9_14 
REMARK    7  A    between atoms: C9_14  and  C10_15 
REMARK    8  A    between atoms: C10_15  and  C11_16 
REMARK    9  A    between atoms: C11_16  and  N3_17 
REMARK   10  A    between atoms: C13_19  and  O1_20 
REMARK   11  A    between atoms: C14_22  and  O2_23 
REMARK   12  A    between atoms: C15_25  and  O3_26 
REMARK   13  A    between atoms: C16_28  and  O4_29 
ROOT
HETATM    1  C10 UNL     1      -1.683  -0.946  -0.687  1.00  0.00     0.019 C 
ENDROOT
BRANCH   1   2
HETATM    2  C9  UNL     1      -0.410  -0.140  -0.996  1.00  0.00     0.002 C 
BRANCH   2   3
HETATM    3  C8  UNL     1       0.800  -0.986  -0.821  1.00  0.00     0.000 C 
BRANCH   3   4
HETATM    4  C7  UNL     1       2.072  -0.208  -1.100  1.00  0.00     0.002 C 
BRANCH   4   5
HETATM    5  C6  UNL     1       3.263  -1.146  -0.922  1.00  0.00     0.030 C 
BRANCH   5   6
HETATM    6  C5  UNL     1       4.551  -0.471  -1.151  1.00  0.00     0.275 C 
BRANCH   6   7
HETATM    7  N2  UNL     1       4.840   0.630  -0.276  1.00  0.00     0.119 N 
HETATM    8  C1  UNL     1       6.159   1.177  -0.489  1.00  0.00     0.417 C 
HETATM    9  C2  UNL     1       7.061   0.508   0.527  1.00  0.00     0.067 C 
HETATM   10  C3  UNL     1       6.124  -0.186   1.480  1.00  0.00     0.034 C 
HETATM   11  C4  UNL     1       4.741   0.307   1.121  1.00  0.00     0.275 C 
BRANCH   8  12
HETATM   12  N1  UNL     1       6.093   2.604  -0.197  1.00  0.00    -0.048 N 
ATOM     13  H13 UNL     1       5.803   2.791   0.763  1.00  0.00     0.276 HD
ATOM     14  H12 UNL     1       7.016   3.035  -0.154  1.00  0.00     0.276 HD
ATOM     15  H11 UNL     1       5.485   3.055  -0.881  1.00  0.00     0.276 HD
ENDBRANCH   8  12
ENDBRANCH   6   7
ENDBRANCH   5   6
ENDBRANCH   4   5
ENDBRANCH   3   4
ENDBRANCH   2   3
ENDBRANCH   1   2
BRANCH   1  16
HETATM   16  C11 UNL     1      -2.917  -0.132  -0.858  1.00  0.00     0.119 C 
BRANCH  16  17
HETATM   17  N3  UNL     1      -4.103  -0.871  -0.588  1.00  0.00    -0.383 N 
HETATM   18  C12 UNL     1      -4.339  -1.253   0.756  1.00  0.00     0.153 C 
HETATM   19  C13 UNL     1      -5.024  -0.221   1.587  1.00  0.00     0.167 C 
HETATM   20  C14 UNL     1      -6.302   0.192   0.908  1.00  0.00     0.181 C 
HETATM   21  C15 UNL     1      -6.070   0.589  -0.511  1.00  0.00     0.197 C 
HETATM   22  C16 UNL     1      -5.275  -0.429  -1.293  1.00  0.00     0.247 C 
BRANCH  19  23
HETATM   23  O1  UNL     1      -4.245   0.910   1.807  1.00  0.00    -0.391 OA
ATOM     24  H1  UNL     1      -4.681   1.567   2.336  1.00  0.00     0.210 HD
ENDBRANCH  19  23
BRANCH  20  25
HETATM   25  O2  UNL     1      -6.741   1.344   1.602  1.00  0.00    -0.390 OA
ATOM     26  H2  UNL     1      -7.548   1.605   1.173  1.00  0.00     0.210 HD
ENDBRANCH  20  25
BRANCH  21  27
HETATM   27  O3  UNL     1      -5.527   1.847  -0.595  1.00  0.00    -0.389 OA
ATOM     28  H3  UNL     1      -5.379   2.100  -1.499  1.00  0.00     0.210 HD
ENDBRANCH  21  27
BRANCH  22  29
HETATM   29  O4  UNL     1      -6.088  -1.514  -1.617  1.00  0.00    -0.374 OA
ATOM     30  H4  UNL     1      -6.863  -1.222  -2.083  1.00  0.00     0.212 HD
ENDBRANCH  22  29
ENDBRANCH  16  17
ENDBRANCH   1  16
TORSDOF 13
