REMARK  2 active torsions:
REMARK  status: ('A' for Active; 'I' for Inactive)
REMARK    1  A    between atoms: C2_2  and  O1_3 
REMARK    2  A    between atoms: O1_3  and  C3_4 
ROOT
HETATM    1  C3  UNL     1       0.935  -0.046  -0.014  1.00  0.00     0.164 C 
HETATM    2  C4  UNL     1       0.205  -1.005   0.905  1.00  0.00     0.038 C 
HETATM    3  C5  UNL     1      -1.143  -1.300   0.258  1.00  0.00     0.044 C 
HETATM    4  C6  UNL     1      -1.909  -0.018   0.159  1.00  0.00     0.110 C 
HETATM    5  C7  UNL     1      -3.014   0.029  -0.841  1.00  0.00     0.272 C 
HETATM    6  N1  UNL     1      -3.885   0.645   0.170  1.00  0.00    -0.069 N 
ATOM      7  H11 UNL     1      -4.894   0.497   0.159  1.00  0.00     0.277 HD
ATOM      8  H12 UNL     1      -4.057   1.650   0.176  1.00  0.00     0.277 HD
HETATM    9  C8  UNL     1      -3.050   0.024   1.170  1.00  0.00     0.272 C 
HETATM   10  O2  UNL     1      -1.167   1.117   0.230  1.00  0.00    -0.355 OA
HETATM   11  C9  UNL     1       0.046   1.102  -0.390  1.00  0.00     0.257 C 
HETATM   12  C10 UNL     1      -0.083   1.130  -1.862  1.00  0.00     0.094 C 
HETATM   13  N2  UNL     1      -0.165   1.157  -3.018  1.00  0.00    -0.194 NA
ENDROOT
BRANCH   1  14
HETATM   14  O1  UNL     1       2.111   0.425   0.511  1.00  0.00    -0.383 OA
BRANCH  14  15
HETATM   15  C2  UNL     1       3.228   0.019  -0.213  1.00  0.00     0.164 C 
HETATM   16  C1  UNL     1       4.492   0.554   0.393  1.00  0.00     0.033 C 
ENDBRANCH  14  15
ENDBRANCH   1  14
TORSDOF 2
