REMARK  7 active torsions:
REMARK  status: ('A' for Active; 'I' for Inactive)
REMARK    1  A    between atoms: N1_1  and  C1_5 
REMARK    2  A    between atoms: C1_5  and  C2_6 
REMARK       I    between atoms: C2_6  and  N2_8 
REMARK    3  A    between atoms: N2_8  and  C3_10 
REMARK    4  A    between atoms: C4_13  and  N5_14 
REMARK    5  A    between atoms: N6_17  and  N7_18 
REMARK       I    between atoms: N7_18  and  C7_20 
REMARK    6  A    between atoms: C10_25  and  O3_26 
REMARK    7  A    between atoms: C10_25  and  O4_28 
ROOT
HETATM    1  C3  UNL     1       1.998   0.842   0.390  1.00  0.00     0.261 C 
HETATM    2  N3  UNL     1       1.370   1.017   1.651  1.00  0.00    -0.115 NA
HETATM    3  N4  UNL     1       0.090   0.545   1.617  1.00  0.00    -0.115 NA
HETATM    4  C4  UNL     1      -0.130  -0.022   0.279  1.00  0.00     0.260 C 
HETATM    5  C10 UNL     1       1.279  -0.397  -0.149  1.00  0.00     0.234 C 
ENDROOT
BRANCH   4   6
HETATM    6  N5  UNL     1      -1.064  -1.036   0.354  1.00  0.00    -0.363 N 
HETATM    7  C5  UNL     1      -1.491  -1.793  -0.728  1.00  0.00     0.106 C 
HETATM    8  C6  UNL     1      -2.981  -1.788  -1.027  1.00  0.00     0.127 C 
HETATM    9  N6  UNL     1      -3.780  -1.497   0.090  1.00  0.00    -0.297 N 
HETATM   10  C8  UNL     1      -3.146  -1.848   1.356  1.00  0.00     0.168 C 
HETATM   11  C9  UNL     1      -1.909  -0.980   1.482  1.00  0.00     0.146 C 
BRANCH   9  12
HETATM   12  N7  UNL     1      -4.464  -0.337   0.181  1.00  0.00    -0.252 N 
HETATM   13  C7  UNL     1      -4.533   0.805  -0.633  1.00  0.00     0.347 C 
HETATM   14  N8  UNL     1      -5.368   1.931  -0.288  1.00  0.00    -0.038 NA
HETATM   15  O2  UNL     1      -3.899   0.940  -1.693  1.00  0.00    -0.249 OA
ATOM     16  H7  UNL     1      -5.052  -0.278   1.012  1.00  0.00     0.191 HD
ENDBRANCH   9  12
ENDBRANCH   4   6
BRANCH   5  17
HETATM   17  O3  UNL     1       1.440  -0.408  -1.513  1.00  0.00    -0.360 OA
ATOM     18  H3  UNL     1       0.994  -1.177  -1.848  1.00  0.00     0.213 HD
ENDBRANCH   5  17
BRANCH   5  19
HETATM   19  O4  UNL     1       1.655  -1.540   0.497  1.00  0.00    -0.360 OA
ATOM     20  H4  UNL     1       1.209  -2.309   0.162  1.00  0.00     0.213 HD
ENDBRANCH   5  19
BRANCH   1  21
HETATM   21  N2  UNL     1       3.426   0.671   0.477  1.00  0.00    -0.335 N 
HETATM   22  C2  UNL     1       4.262   1.449  -0.349  1.00  0.00     0.244 C 
HETATM   23  O1  UNL     1       3.757   2.268  -1.146  1.00  0.00    -0.272 OA
ATOM     24  H2  UNL     1       3.827  -0.004   1.128  1.00  0.00     0.164 HD
BRANCH  22  25
HETATM   25  C1  UNL     1       5.724   1.306  -0.281  1.00  0.00     0.332 C 
BRANCH  25  26
HETATM   26  N1  UNL     1       6.416   2.185  -1.208  1.00  0.00    -0.071 N 
ATOM     27  H13 UNL     1       6.079   2.050  -2.161  1.00  0.00     0.274 HD
ATOM     28  H12 UNL     1       6.136   3.156  -1.070  1.00  0.00     0.274 HD
ATOM     29  H11 UNL     1       7.430   2.086  -1.161  1.00  0.00     0.274 HD
ENDBRANCH  25  26
ENDBRANCH  22  25
ENDBRANCH   1  21
TORSDOF 7
