REMARK  6 active torsions:
REMARK  status: ('A' for Active; 'I' for Inactive)
REMARK    1  A    between atoms: N1_1  and  C1_4 
REMARK    2  A    between atoms: C2_9  and  S1_10 
REMARK    3  A    between atoms: S1_10  and  N4_13 
REMARK    4  A    between atoms: N4_13  and  C3_15 
REMARK    5  A    between atoms: C3_15  and  N5_16 
REMARK    6  A    between atoms: C3_15  and  C4_20 
ROOT
HETATM    1  N4  UNL     1      -0.089   0.334  -1.861  1.00  0.00    -0.280 N 
ATOM      2  H4  UNL     1       0.142   0.804  -2.736  1.00  0.00     0.175 HD
ENDROOT
BRANCH   1   3
HETATM    3  S1  UNL     1       0.365  -1.287  -1.519  1.00  0.00     0.283 S 
HETATM    4  O1  UNL     1       1.153  -1.797  -2.706  1.00  0.00    -0.199 OA
HETATM    5  O2  UNL     1      -0.837  -2.169  -1.345  1.00  0.00    -0.199 OA
BRANCH   3   6
HETATM    6  C2  UNL     1       1.412  -1.318  -0.117  1.00  0.00     0.233 A 
HETATM    7  N3  UNL     1       0.835  -1.446   1.100  1.00  0.00    -0.270 N 
HETATM    8  N2  UNL     1       1.584  -1.474   2.189  1.00  0.00    -0.131 N 
ATOM      9  H3  UNL     1      -0.179  -1.521   1.177  1.00  0.00     0.188 HD
HETATM   10  C1  UNL     1       2.928  -1.380   2.166  1.00  0.00     0.693 A 
ATOM     11  H2  UNL     1       1.121  -1.572   3.093  1.00  0.00     0.205 HD
HETATM   12  N9  UNL     1       3.506  -1.253   0.955  1.00  0.00    -0.153 N 
HETATM   13  C6  UNL     1       2.768  -1.221  -0.172  1.00  0.00     0.301 A 
ATOM     14  H9  UNL     1       4.521  -1.180   0.890  1.00  0.00     0.187 HD
HETATM   15  O4  UNL     1       3.310  -1.102  -1.308  1.00  0.00    -0.264 OA
BRANCH  10  16
HETATM   16  N1  UNL     1       3.623  -1.410   3.228  1.00  0.00    -0.233 N 
ATOM     17  H12 UNL     1       3.186  -1.506   4.144  1.00  0.00     0.174 HD
ATOM     18  H11 UNL     1       4.640  -1.339   3.211  1.00  0.00     0.174 HD
ENDBRANCH  10  16
ENDBRANCH   3   6
ENDBRANCH   1   3
BRANCH   1  19
HETATM   19  C3  UNL     1      -0.820   0.963  -0.808  1.00  0.00     0.347 C 
BRANCH  19  20
HETATM   20  N5  UNL     1      -0.106   2.110  -0.280  1.00  0.00    -0.052 N 
ATOM     21  H53 UNL     1       0.837   1.859   0.018  1.00  0.00     0.277 HD
ATOM     22  H52 UNL     1       0.133   2.773  -1.017  1.00  0.00     0.277 HD
ATOM     23  H51 UNL     1      -0.628   2.559   0.472  1.00  0.00     0.277 HD
ENDBRANCH  19  20
BRANCH  19  24
HETATM   24  C4  UNL     1      -2.202   1.352  -1.236  1.00  0.00     0.129 A 
HETATM   25  N6  UNL     1      -2.550   1.964  -2.396  1.00  0.00    -0.238 N 
HETATM   26  O3  UNL     1      -3.838   2.133  -2.399  1.00  0.00    -0.155 OA
ATOM     27  H6  UNL     1      -1.909   2.244  -3.139  1.00  0.00     0.196 HD
HETATM   28  N7  UNL     1      -4.373   1.673  -1.314  1.00  0.00    -0.224 N 
HETATM   29  C5  UNL     1      -3.391   1.174  -0.555  1.00  0.00     0.150 A 
ATOM     30  H7  UNL     1      -5.366   1.688  -1.080  1.00  0.00     0.198 HD
HETATM   31  N8  UNL     1      -3.492   0.615   0.617  1.00  0.00    -0.382 N 
ATOM     32  H82 UNL     1      -2.743   0.235   1.196  1.00  0.00     0.157 HD
ATOM     33  H81 UNL     1      -4.370   0.484   1.120  1.00  0.00     0.157 HD
ENDBRANCH  19  24
ENDBRANCH   1  19
TORSDOF 6
