REMARK  14 active torsions:
REMARK  status: ('A' for Active; 'I' for Inactive)
REMARK    1  A    between atoms: C2_2  and  C3_3 
REMARK    2  A    between atoms: C3_3  and  C4_4 
REMARK    3  A    between atoms: C4_4  and  S1_8 
REMARK    4  A    between atoms: S1_8  and  C5_11 
REMARK    5  A    between atoms: C5_11  and  C6_12 
REMARK    6  A    between atoms: C6_12  and  C7_13 
REMARK    7  A    between atoms: C7_13  and  C8_14 
REMARK    8  A    between atoms: C8_14  and  C9_15 
REMARK    9  A    between atoms: C9_15  and  C10_16 
REMARK   10  A    between atoms: C12_21  and  C13_22 
REMARK   11  A    between atoms: C13_22  and  C14_23 
REMARK   12  A    between atoms: C14_23  and  C15_24 
REMARK   13  A    between atoms: C17_26  and  N3_27 
REMARK   14  A    between atoms: C18_32  and  N5_33 
ROOT
HETATM    1  C10 UNL     1      -1.294  -0.520   0.349  1.00  0.00     0.176 C 
HETATM    2  N2  UNL     1      -1.246   0.739  -0.360  1.00  0.00    -0.346 N 
ATOM      3  H2  UNL     1      -0.612   0.832  -1.154  1.00  0.00     0.163 HD
HETATM    4  C11 UNL     1      -2.050   1.852   0.009  1.00  0.00     0.241 C 
HETATM    5  O3  UNL     1      -2.015   2.916  -0.660  1.00  0.00    -0.271 OA
HETATM    6  C12 UNL     1      -2.914   1.703   1.192  1.00  0.00     0.177 C 
HETATM    7  N7  UNL     1      -2.219   0.903   2.182  1.00  0.00    -0.346 N 
ATOM      8  H7  UNL     1      -2.116   1.227   3.144  1.00  0.00     0.163 HD
HETATM    9  C19 UNL     1      -1.686  -0.348   1.766  1.00  0.00     0.241 C 
HETATM   10  O4  UNL     1      -1.547  -1.299   2.588  1.00  0.00    -0.271 OA
ENDROOT
BRANCH   6  11
HETATM   11  C13 UNL     1      -4.191   0.930   0.836  1.00  0.00     0.041 C 
BRANCH  11  12
HETATM   12  C14 UNL     1      -4.981   1.662  -0.240  1.00  0.00     0.060 C 
BRANCH  12  13
HETATM   13  C15 UNL     1      -6.186   0.837  -0.507  1.00  0.00     0.030 A 
HETATM   14  C16 UNL     1      -7.373   1.014   0.192  1.00  0.00     0.074 A 
HETATM   15  C17 UNL     1      -8.488   0.249  -0.057  1.00  0.00     0.116 A 
HETATM   16  N4  UNL     1      -8.433  -0.698  -1.001  1.00  0.00    -0.177 N 
HETATM   17  C18 UNL     1      -7.284  -0.876  -1.684  1.00  0.00     0.677 A 
ATOM     18  H4  UNL     1      -9.249  -1.277  -1.201  1.00  0.00     0.185 HD
HETATM   19  N6  UNL     1      -6.174  -0.124  -1.446  1.00  0.00    -0.196 N 
ATOM     20  H6  UNL     1      -5.325  -0.292  -1.986  1.00  0.00     0.184 HD
BRANCH  15  21
HETATM   21  N3  UNL     1      -9.588   0.407   0.585  1.00  0.00    -0.385 N 
ATOM     22  H32 UNL     1      -9.630   1.129   1.304  1.00  0.00     0.157 HD
ATOM     23  H31 UNL     1     -10.415  -0.161   0.400  1.00  0.00     0.157 HD
ENDBRANCH  15  21
BRANCH  17  24
HETATM   24  N5  UNL     1      -7.199  -1.777  -2.597  1.00  0.00    -0.234 N 
ATOM     25  H52 UNL     1      -8.030  -2.340  -2.775  1.00  0.00     0.174 HD
ATOM     26  H51 UNL     1      -6.330  -1.912  -3.114  1.00  0.00     0.174 HD
ENDBRANCH  17  24
ENDBRANCH  12  13
ENDBRANCH  11  12
ENDBRANCH   6  11
BRANCH   1  27
HETATM   27  C9  UNL     1       0.148  -1.067   0.388  1.00  0.00     0.035 C 
BRANCH  27  28
HETATM   28  C8  UNL     1       0.945  -0.022   1.116  1.00  0.00     0.002 C 
BRANCH  28  29
HETATM   29  C7  UNL     1       2.396  -0.516   1.211  1.00  0.00     0.001 C 
BRANCH  29  30
HETATM   30  C6  UNL     1       3.007  -0.723  -0.131  1.00  0.00     0.015 C 
BRANCH  30  31
HETATM   31  C5  UNL     1       4.408  -1.238  -0.081  1.00  0.00     0.147 C 
BRANCH  31  32
HETATM   32  S1  UNL     1       5.519  -0.168   0.767  1.00  0.00     0.186 S 
HETATM   33  O1  UNL     1       5.448   1.245   0.348  1.00  0.00    -0.222 OA
HETATM   34  O2  UNL     1       5.122  -0.231   2.246  1.00  0.00    -0.222 OA
BRANCH  32  35
HETATM   35  C4  UNL     1       7.160  -0.781   0.729  1.00  0.00     0.099 C 
HETATM   36  N1  UNL     1       7.447  -1.723   1.603  1.00  0.00    -0.393 N 
ATOM     37  H12 UNL     1       8.402  -2.080   1.581  1.00  0.00     0.156 HD
ATOM     38  H11 UNL     1       6.693  -2.009   2.227  1.00  0.00     0.156 HD
BRANCH  35  39
HETATM   39  C3  UNL     1       8.233  -0.374  -0.159  1.00  0.00     0.069 C 
BRANCH  39  40
HETATM   40  C2  UNL     1       8.056  -0.397  -1.630  1.00  0.00     0.002 C 
HETATM   41  C1  UNL     1       7.071   0.529  -2.233  1.00  0.00     0.005 C 
ENDBRANCH  39  40
ENDBRANCH  35  39
ENDBRANCH  32  35
ENDBRANCH  31  32
ENDBRANCH  30  31
ENDBRANCH  29  30
ENDBRANCH  28  29
ENDBRANCH  27  28
ENDBRANCH   1  27
TORSDOF 14
