REMARK  7 active torsions:
REMARK  status: ('A' for Active; 'I' for Inactive)
REMARK    1  A    between atoms: C4_6  and  O1_7 
REMARK    2  A    between atoms: C6_11  and  O2_12 
REMARK    3  A    between atoms: C8_15  and  C9_16 
REMARK    4  A    between atoms: C9_16  and  C10_17 
REMARK    5  A    between atoms: C10_17  and  C11_18 
REMARK    6  A    between atoms: C11_18  and  C12_19 
REMARK    7  A    between atoms: C17_25  and  O3_26 
ROOT
HETATM    1  C1  UNL     1      -3.107   3.446  -2.160  1.00  0.00     0.071 C 
HETATM    2  C2  UNL     1      -2.842   2.184  -1.415  1.00  0.00     0.040 A 
HETATM    3  N1  UNL     1      -3.641   1.767  -0.423  1.00  0.00    -0.353 N 
ATOM      4  H1  UNL     1      -4.448   2.345  -0.188  1.00  0.00     0.166 HD
HETATM    5  C3  UNL     1      -3.453   0.650   0.276  1.00  0.00     0.099 A 
HETATM    6  C4  UNL     1      -4.091  -0.007   1.304  1.00  0.00     0.172 A 
HETATM    7  N2  UNL     1      -3.439  -1.136   1.612  1.00  0.00    -0.310 N 
HETATM    8  C5  UNL     1      -3.809  -2.107   2.655  1.00  0.00     0.160 C 
HETATM    9  C6  UNL     1      -2.381  -1.222   0.793  1.00  0.00     0.157 A 
HETATM   10  C7  UNL     1      -2.347  -0.133  -0.054  1.00  0.00     0.055 A 
HETATM   11  C8  UNL     1      -1.492   0.255  -1.072  1.00  0.00    -0.006 A 
HETATM   12  C17 UNL     1      -1.730   1.426  -1.770  1.00  0.00     0.095 A 
ENDROOT
BRANCH  11  13
HETATM   13  C9  UNL     1      -0.307  -0.554  -1.402  1.00  0.00     0.042 C 
BRANCH  13  14
HETATM   14  C10 UNL     1       0.805  -0.286  -0.443  1.00  0.00     0.005 C 
BRANCH  14  15
HETATM   15  C11 UNL     1       2.044  -1.125  -0.755  1.00  0.00     0.005 C 
BRANCH  15  16
HETATM   16  C12 UNL     1       3.074  -0.760   0.277  1.00  0.00    -0.013 C 
HETATM   17  C13 UNL     1       4.373  -1.527   0.091  1.00  0.00     0.006 C 
HETATM   18  C14 UNL     1       5.245  -0.764   1.099  1.00  0.00     0.020 C 
HETATM   19  C15 UNL     1       4.820   0.691   0.902  1.00  0.00     0.082 C 
HETATM   20 CL1  UNL     1       4.502   1.490   2.457  1.00  0.00    -0.125 Cl
HETATM   21  C16 UNL     1       3.542   0.668   0.108  1.00  0.00     0.024 C 
ENDBRANCH  15  16
ENDBRANCH  14  15
ENDBRANCH  13  14
ENDBRANCH  11  13
BRANCH  12  22
HETATM   22  O3  UNL     1      -0.879   1.823  -2.792  1.00  0.00    -0.358 OA
ATOM     23  H3  UNL     1      -0.120   1.306  -3.034  1.00  0.00     0.217 HD
ENDBRANCH  12  22
BRANCH   9  24
HETATM   24  O2  UNL     1      -1.475  -2.288   0.838  1.00  0.00    -0.345 OA
ATOM     25  H2  UNL     1      -0.725  -2.349   0.258  1.00  0.00     0.219 HD
ENDBRANCH   9  24
BRANCH   6  26
HETATM   26  O1  UNL     1      -5.243   0.408   1.953  1.00  0.00    -0.344 OA
ATOM     27  H1  UNL     1      -5.683  -0.045   2.662  1.00  0.00     0.219 HD
ENDBRANCH   6  26
TORSDOF 7
