REMARK  11 active torsions:
REMARK  status: ('A' for Active; 'I' for Inactive)
REMARK    1  A    between atoms: C2_2  and  C3_3 
REMARK    2  A    between atoms: C3_3  and  N1_4 
REMARK    3  A    between atoms: C6_9  and  C7_10 
REMARK    4  A    between atoms: C7_10  and  C8_11 
REMARK    5  A    between atoms: C10_18  and  S1_19 
REMARK    6  A    between atoms: S1_19  and  C11_20 
REMARK    7  A    between atoms: C11_20  and  C12_21 
REMARK    8  A    between atoms: C12_21  and  C13_22 
REMARK    9  A    between atoms: C13_22  and  C14_23 
REMARK   10  A    between atoms: C14_23  and  C15_24 
REMARK   11  A    between atoms: C15_24  and  C16_25 
ROOT
HETATM    1  C8  UNL     1       2.524  -0.804  -0.779  1.00  0.00     0.162 A 
HETATM    2  N3  UNL     1       3.182  -2.072  -0.807  1.00  0.00    -0.099 NA
HETATM    3  N4  UNL     1       2.631  -2.484   0.389  1.00  0.00    -0.050 NA
HETATM    4  N5  UNL     1       1.856  -1.341   0.380  1.00  0.00    -0.163 NA
HETATM    5  C9  UNL     1       0.460  -1.550   0.050  1.00  0.00     0.195 A 
HETATM    6  N6  UNL     1      -0.318  -0.977   1.000  1.00  0.00    -0.360 N 
ATOM      7  H6  UNL     1      -0.217  -1.272   1.971  1.00  0.00     0.162 HD
HETATM    8  C10 UNL     1      -1.165  -0.087   0.712  1.00  0.00     0.105 A 
HETATM    9  S2  UNL     1      -1.057   0.160  -1.057  1.00  0.00    -0.094 SA
HETATM   10  C18 UNL     1       0.207  -1.111  -1.327  1.00  0.00     0.136 A 
HETATM   11  C19 UNL     1       1.484  -0.581  -1.852  1.00  0.00     0.154 A 
HETATM   12  C20 UNL     1       1.438   0.822  -2.358  1.00  0.00     0.057 C 
HETATM   13  F1  UNL     1       1.866  -1.390  -2.932  1.00  0.00    -0.238 F 
ENDROOT
BRANCH   8  14
HETATM   14  S1  UNL     1      -2.173   0.653   1.960  1.00  0.00    -0.105 SA
BRANCH  14  15
HETATM   15  C11 UNL     1      -3.551   1.543   1.356  1.00  0.00     0.081 C 
BRANCH  15  16
HETATM   16  C12 UNL     1      -4.700   0.629   0.989  1.00  0.00     0.010 C 
BRANCH  16  17
HETATM   17  C13 UNL     1      -4.455  -0.381  -0.053  1.00  0.00     0.001 C 
BRANCH  17  18
HETATM   18  C14 UNL     1      -5.561  -1.280  -0.464  1.00  0.00     0.006 C 
BRANCH  18  19
HETATM   19  C15 UNL     1      -6.723  -0.806  -1.194  1.00  0.00     0.060 C 
BRANCH  19  20
HETATM   20  C16 UNL     1      -7.576   0.238  -0.678  1.00  0.00     0.044 A 
HETATM   21  C17 UNL     1      -7.569   1.593  -1.034  1.00  0.00     0.135 A 
HETATM   22  N7  UNL     1      -8.518   2.177  -0.311  1.00  0.00    -0.296 N 
HETATM   23  N8  UNL     1      -9.119   1.302   0.470  1.00  0.00    -0.243 N 
ATOM     24  H7  UNL     1      -8.750   3.169  -0.354  1.00  0.00     0.187 HD
HETATM   25  N9  UNL     1      -8.558   0.136   0.253  1.00  0.00    -0.289 N 
ATOM     26  H8  UNL     1      -9.879   1.495   1.122  1.00  0.00     0.208 HD
ATOM     27  H9  UNL     1      -8.824  -0.730   0.721  1.00  0.00     0.188 HD
ENDBRANCH  19  20
ENDBRANCH  18  19
ENDBRANCH  17  18
ENDBRANCH  16  17
ENDBRANCH  15  16
ENDBRANCH  14  15
ENDBRANCH   8  14
BRANCH   1  28
HETATM   28  C7  UNL     1       3.366   0.402  -0.502  1.00  0.00     0.108 C 
BRANCH  28  29
HETATM   29  C6  UNL     1       4.018   0.262   0.836  1.00  0.00     0.033 A 
HETATM   30  N1  UNL     1       5.246  -0.203   1.078  1.00  0.00    -0.297 N 
HETATM   31  N2  UNL     1       5.418  -0.193   2.396  1.00  0.00    -0.310 N 
HETATM   32  C4  UNL     1       4.341   0.265   3.028  1.00  0.00     0.109 A 
ATOM     33  H2  UNL     1       6.271  -0.499   2.865  1.00  0.00     0.186 HD
HETATM   34  C5  UNL     1       3.427   0.565   2.050  1.00  0.00     0.045 A 
BRANCH  30  35
HETATM   35  C3  UNL     1       6.293  -0.631   0.166  1.00  0.00     0.148 C 
BRANCH  35  36
HETATM   36  C2  UNL     1       7.170   0.585  -0.153  1.00  0.00     0.017 C 
HETATM   37  C1  UNL     1       7.767   1.100   1.158  1.00  0.00     0.007 C 
ENDBRANCH  35  36
ENDBRANCH  30  35
ENDBRANCH  28  29
ENDBRANCH   1  28
TORSDOF 11
