REMARK  10 active torsions:
REMARK  status: ('A' for Active; 'I' for Inactive)
REMARK    1  A    between atoms: C4_5  and  C5_6 
REMARK    2  A    between atoms: C6_9  and  C7_10 
REMARK    3  A    between atoms: C7_10  and  N2_11 
REMARK    4  A    between atoms: N2_11  and  C8_12 
REMARK    5  A    between atoms: N2_11  and  C10_16 
REMARK    6  A    between atoms: C8_12  and  C9_13 
REMARK    7  A    between atoms: C9_13  and  O1_14 
REMARK    8  A    between atoms: C10_16  and  O2_18 
REMARK    9  A    between atoms: O2_18  and  C11_19 
REMARK   10  A    between atoms: C11_19  and  C12_20 
ROOT
HETATM    1  C5  UNL     1       2.628  -0.708  -1.025  1.00  0.00     0.108 A 
HETATM    2  N1  UNL     1       1.986  -0.633   0.105  1.00  0.00    -0.350 N 
ATOM      3  H1  UNL     1       2.485  -0.794   0.980  1.00  0.00     0.166 HD
HETATM    4  C6  UNL     1       0.718  -0.356   0.130  1.00  0.00     0.034 A 
HETATM    5  C15 UNL     1       0.106  -0.149  -1.100  1.00  0.00     0.078 A 
HETATM    6  S3  UNL     1       1.406  -0.372  -2.172  1.00  0.00    -0.079 SA
ENDROOT
BRANCH   4   7
HETATM    7  C7  UNL     1      -0.076  -0.235   1.412  1.00  0.00     0.183 C 
BRANCH   7   8
HETATM    8  N2  UNL     1      -1.300  -0.951   1.373  1.00  0.00    -0.345 N 
BRANCH   8   9
HETATM    9  C8  UNL     1      -1.357  -2.385   1.423  1.00  0.00     0.152 C 
BRANCH   9  10
HETATM   10  C9  UNL     1      -0.856  -3.130   0.243  1.00  0.00     0.184 C 
BRANCH  10  11
HETATM   11  O1  UNL     1      -1.023  -4.506   0.529  1.00  0.00    -0.399 OA
ATOM     12  H1  UNL     1      -0.702  -4.983  -0.227  1.00  0.00     0.209 HD
ENDBRANCH  10  11
ENDBRANCH   9  10
ENDBRANCH   8   9
BRANCH   8  13
HETATM   13  C10 UNL     1      -2.535  -0.253   1.274  1.00  0.00     0.212 C 
HETATM   14  S2  UNL     1      -3.926  -1.075   1.231  1.00  0.00    -0.033 SA
BRANCH  13  15
HETATM   15  O2  UNL     1      -2.522   1.121   1.216  1.00  0.00    -0.327 OA
BRANCH  15  16
HETATM   16  C11 UNL     1      -3.607   1.914   1.698  1.00  0.00     0.182 C 
BRANCH  16  17
HETATM   17  C12 UNL     1      -3.341   3.379   1.511  1.00  0.00     0.002 C 
HETATM   18  C13 UNL     1      -4.561   4.126   2.066  1.00  0.00     0.011 C 
HETATM   19  C14 UNL     1      -3.235   3.636   0.013  1.00  0.00     0.011 C 
ENDBRANCH  16  17
ENDBRANCH  15  16
ENDBRANCH  13  15
ENDBRANCH   8  13
ENDBRANCH   7   8
ENDBRANCH   4   7
BRANCH   1  20
HETATM   20  C4  UNL     1       4.061  -1.018  -1.286  1.00  0.00     0.108 A 
HETATM   21  S1  UNL     1       5.293  -1.366  -0.167  1.00  0.00    -0.080 SA
HETATM   22  C3  UNL     1       6.588  -1.583  -1.289  1.00  0.00     0.076 A 
HETATM   23  C2  UNL     1       5.944  -1.362  -2.480  1.00  0.00     0.012 A 
HETATM   24  C1  UNL     1       6.730  -1.452  -3.778  1.00  0.00     0.068 C 
HETATM   25  N3  UNL     1       4.682  -1.082  -2.438  1.00  0.00    -0.352 N 
ATOM     26  H3  UNL     1       4.169  -0.911  -3.303  1.00  0.00     0.166 HD
ENDBRANCH   1  20
TORSDOF 10
