REMARK  17 active torsions:
REMARK  status: ('A' for Active; 'I' for Inactive)
REMARK    1  A    between atoms: C2_2  and  C3_3 
REMARK    2  A    between atoms: C3_3  and  C4_4 
REMARK    3  A    between atoms: C4_4  and  C5_5 
REMARK    4  A    between atoms: C5_5  and  C6_6 
REMARK    5  A    between atoms: C6_6  and  C7_7 
REMARK    6  A    between atoms: C6_6  and  C8_12 
REMARK    7  A    between atoms: C7_7  and  N1_8 
REMARK    8  A    between atoms: C8_12  and  O1_13 
REMARK    9  A    between atoms: O1_13  and  C9_14 
REMARK   10  A    between atoms: C9_14  and  C10_15 
REMARK   11  A    between atoms: C11_16  and  C12_17 
REMARK   12  A    between atoms: C13_20  and  N3_21 
REMARK   13  A    between atoms: C15_28  and  C16_29 
REMARK   14  A    between atoms: C16_29  and  S1_30 
REMARK   15  A    between atoms: S1_30  and  C17_31 
REMARK   16  A    between atoms: C17_31  and  C18_32 
REMARK       I    between atoms: C18_32  and  N5_34 
REMARK   17  A    between atoms: N5_34  and  C19_36 
ROOT
HETATM    1  C12 UNL     1      -0.512   1.666  -0.227  1.00  0.00     0.115 A 
HETATM    2  N2  UNL     1      -0.075   2.737   0.445  1.00  0.00    -0.183 N 
ATOM      3  H2  UNL     1       0.905   2.771   0.726  1.00  0.00     0.185 HD
HETATM    4  C13 UNL     1      -0.871   3.770   0.766  1.00  0.00     0.679 A 
HETATM    5  N4  UNL     1      -2.163   3.761   0.413  1.00  0.00    -0.156 N 
ATOM      6  H4  UNL     1      -2.770   4.545   0.655  1.00  0.00     0.187 HD
HETATM    7  C14 UNL     1      -2.658   2.691  -0.274  1.00  0.00     0.269 A 
HETATM    8  O2  UNL     1      -3.869   2.744  -0.580  1.00  0.00    -0.267 OA
HETATM    9  C15 UNL     1      -1.863   1.640  -0.603  1.00  0.00     0.056 A 
ENDROOT
BRANCH   1  10
HETATM   10  C11 UNL     1       0.335   0.560  -0.569  1.00  0.00    -0.045 C 
HETATM   11  C10 UNL     1       1.040  -0.395  -0.854  1.00  0.00    -0.073 C 
BRANCH  11  12
HETATM   12  C9  UNL     1       1.871  -1.560  -1.184  1.00  0.00     0.261 C 
BRANCH  12  13
HETATM   13  O1  UNL     1       2.985  -1.639  -0.376  1.00  0.00    -0.379 OA
BRANCH  13  14
HETATM   14  C8  UNL     1       3.783  -0.529  -0.499  1.00  0.00     0.175 C 
BRANCH  14  15
HETATM   15  C6  UNL     1       4.996  -0.736   0.455  1.00  0.00     0.035 C 
BRANCH  15  16
HETATM   16  C5  UNL     1       5.827   0.464   0.300  1.00  0.00     0.008 C 
BRANCH  16  17
HETATM   17  C4  UNL     1       7.052   0.639   1.090  1.00  0.00     0.000 C 
BRANCH  17  18
HETATM   18  C3  UNL     1       8.218  -0.241   0.914  1.00  0.00    -0.000 C 
BRANCH  18  19
HETATM   19  C2  UNL     1       8.868  -0.161  -0.455  1.00  0.00    -0.005 C 
HETATM   20  C1  UNL     1      10.032  -1.128  -0.464  1.00  0.00     0.005 C 
ENDBRANCH  18  19
ENDBRANCH  17  18
ENDBRANCH  16  17
ENDBRANCH  15  16
BRANCH  15  21
HETATM   21  C7  UNL     1       5.515  -2.083   0.162  1.00  0.00     0.236 C 
BRANCH  21  22
HETATM   22  N1  UNL     1       5.937  -2.292  -1.195  1.00  0.00    -0.079 N 
ATOM     23  H13 UNL     1       5.180  -2.059  -1.838  1.00  0.00     0.274 HD
ATOM     24  H12 UNL     1       6.622  -1.585  -1.463  1.00  0.00     0.274 HD
ATOM     25  H11 UNL     1       6.296  -3.225  -1.398  1.00  0.00     0.274 HD
ENDBRANCH  21  22
ENDBRANCH  15  21
ENDBRANCH  14  15
ENDBRANCH  13  14
ENDBRANCH  12  13
ENDBRANCH  11  12
ENDBRANCH   1  10
BRANCH   9  26
HETATM   26  C16 UNL     1      -2.311   0.491  -1.373  1.00  0.00     0.121 C 
BRANCH  26  27
HETATM   27  S1  UNL     1      -4.061   0.405  -1.754  1.00  0.00    -0.155 SA
BRANCH  27  28
HETATM   28  C17 UNL     1      -5.081  -0.060  -0.352  1.00  0.00     0.176 C 
BRANCH  28  29
HETATM   29  C18 UNL     1      -6.533  -0.048  -0.707  1.00  0.00     0.227 C 
HETATM   30  O3  UNL     1      -6.822   0.286  -1.891  1.00  0.00    -0.273 OA
HETATM   31  N5  UNL     1      -7.532  -0.396   0.239  1.00  0.00    -0.354 N 
ATOM     32  H5  UNL     1      -7.276  -0.663   1.190  1.00  0.00     0.162 HD
BRANCH  31  33
HETATM   33  C19 UNL     1      -8.910  -0.366  -0.167  1.00  0.00     0.111 C 
HETATM   34  C20 UNL     1      -9.460  -1.769   0.005  1.00  0.00     0.054 C 
HETATM   35  C21 UNL     1     -10.194  -1.754   1.322  1.00  0.00     0.234 C 
HETATM   36  N6  UNL     1     -10.510  -0.394   1.611  1.00  0.00    -0.073 N 
HETATM   37  C22 UNL     1      -9.761   0.452   0.742  1.00  0.00     0.257 C 
ATOM     38  H62 UNL     1     -11.512  -0.210   1.563  1.00  0.00     0.277 HD
ATOM     39  H61 UNL     1     -10.369  -0.163   2.594  1.00  0.00     0.277 HD
ENDBRANCH  31  33
ENDBRANCH  28  29
ENDBRANCH  27  28
ENDBRANCH  26  27
ENDBRANCH   9  26
BRANCH   4  40
HETATM   40  N3  UNL     1      -0.405   4.780   1.413  1.00  0.00    -0.234 N 
ATOM     41  H32 UNL     1       0.579   4.787   1.682  1.00  0.00     0.174 HD
ATOM     42  H31 UNL     1      -1.010   5.565   1.657  1.00  0.00     0.174 HD
ENDBRANCH   4  40
TORSDOF 17
