REMARK  4 active torsions:
REMARK  status: ('A' for Active; 'I' for Inactive)
REMARK    1  A    between atoms: C4_5  and  C5_6 
REMARK    2  A    between atoms: C5_6  and  C6_7 
REMARK    3  A    between atoms: C6_7  and  N2_8 
REMARK    4  A    between atoms: N2_8  and  C7_10 
ROOT
HETATM    1  C7  UNL     1      -1.481  -1.019   0.662  1.00  0.00     0.114 A 
HETATM    2  N3  UNL     1      -1.737  -2.311   0.390  1.00  0.00    -0.338 N 
ATOM      3  H3  UNL     1      -1.077  -3.035   0.674  1.00  0.00     0.168 HD
HETATM    4  C8  UNL     1      -2.877  -2.646  -0.263  1.00  0.00     0.182 A 
HETATM    5  N4  UNL     1      -3.769  -1.718  -0.651  1.00  0.00    -0.352 N 
ATOM      6  H4  UNL     1      -4.620  -1.994  -1.141  1.00  0.00     0.166 HD
HETATM    7  C9  UNL     1      -3.528  -0.431  -0.388  1.00  0.00     0.047 A 
HETATM    8  C10 UNL     1      -4.490   0.482  -0.816  1.00  0.00     0.030 A 
HETATM    9  C11 UNL     1      -4.272   1.801  -0.562  1.00  0.00     0.002 A 
HETATM   10  C12 UNL     1      -3.122   2.211   0.103  1.00  0.00     0.001 A 
HETATM   11  C13 UNL     1      -2.173   1.294   0.524  1.00  0.00     0.017 A 
HETATM   12  C14 UNL     1      -2.383  -0.040   0.273  1.00  0.00     0.034 A 
ENDROOT
BRANCH   1  13
HETATM   13  N2  UNL     1      -0.407  -0.671   1.281  1.00  0.00    -0.375 N 
ATOM     14  H2  UNL     1      -0.254   0.320   1.466  1.00  0.00     0.161 HD
BRANCH  13  15
HETATM   15  C6  UNL     1       0.593  -1.616   1.727  1.00  0.00     0.126 C 
BRANCH  15  16
HETATM   16  C5  UNL     1       1.557  -1.936   0.579  1.00  0.00     0.058 C 
BRANCH  16  17
HETATM   17  C4  UNL     1       2.227  -0.690   0.135  1.00  0.00    -0.057 A 
HETATM   18  C3  UNL     1       3.426  -0.307   0.736  1.00  0.00     0.009 A 
HETATM   19  C2  UNL     1       4.052   0.851   0.326  1.00  0.00     0.027 A 
HETATM   20  C1  UNL     1       3.551   1.668  -0.666  1.00  0.00     0.046 A 
HETATM   21  N1  UNL     1       4.238   2.848  -1.048  1.00  0.00    -0.102 NA
HETATM   22  C16 UNL     1       2.364   1.273  -1.249  1.00  0.00     0.027 A 
HETATM   23  C15 UNL     1       1.715   0.118  -0.857  1.00  0.00     0.009 A 
ENDBRANCH  16  17
ENDBRANCH  15  16
ENDBRANCH  13  15
ENDBRANCH   1  13
TORSDOF 4
