REMARK  6 active torsions:
REMARK  status: ('A' for Active; 'I' for Inactive)
REMARK    1  A    between atoms: O1_2  and  C2_3 
REMARK    2  A    between atoms: C4_5  and  C5_6 
REMARK    3  A    between atoms: N1_7  and  C6_9 
REMARK    4  A    between atoms: C13_16  and  O2_17 
REMARK    5  A    between atoms: C14_19  and  O3_20 
REMARK    6  A    between atoms: C16_22  and  O4_23 
ROOT
HETATM    1  C2  UNL     1      -3.444  -0.982  -0.811  1.00  0.00     0.105 A 
HETATM    2  C3  UNL     1      -2.089  -1.128  -1.022  1.00  0.00     0.055 A 
HETATM    3  C4  UNL     1      -1.160  -0.238  -0.529  1.00  0.00     0.018 A 
HETATM    4  C13 UNL     1      -1.637   0.832   0.201  1.00  0.00     0.113 A 
HETATM    5  C14 UNL     1      -3.008   0.981   0.415  1.00  0.00     0.138 A 
HETATM    6  C16 UNL     1      -3.929   0.084  -0.083  1.00  0.00     0.138 A 
ENDROOT
BRANCH   3   7
HETATM    7  C5  UNL     1       0.279  -0.417  -0.769  1.00  0.00     0.097 C 
HETATM    8  N1  UNL     1       1.139   0.418  -0.305  1.00  0.00    -0.393 N 
ATOM      9  H1  UNL     1       0.835   1.224   0.241  1.00  0.00     0.159 HD
BRANCH   8  10
HETATM   10  C6  UNL     1       2.544   0.198  -0.569  1.00  0.00     0.081 C 
HETATM   11  C7  UNL     1       3.240   1.534  -0.554  1.00  0.00     0.025 C 
HETATM   12  C8  UNL     1       4.710   1.282  -0.796  1.00  0.00     0.002 C 
HETATM   13  C9  UNL     1       5.304   0.507   0.325  1.00  0.00     0.004 C 
HETATM   14  C10 UNL     1       4.385  -0.413   1.031  1.00  0.00    -0.017 C 
HETATM   15  C11 UNL     1       5.179  -1.684   1.364  1.00  0.00     0.010 C 
HETATM   16  C12 UNL     1       3.171  -0.826   0.296  1.00  0.00     0.029 C 
ENDBRANCH   8  10
ENDBRANCH   3   7
BRANCH   4  17
HETATM   17  O2  UNL     1      -0.742   1.753   0.717  1.00  0.00    -0.357 OA
ATOM     18  H2  UNL     1      -1.070   2.489   1.219  1.00  0.00     0.217 HD
ENDBRANCH   4  17
BRANCH   1  19
HETATM   19  O1  UNL     1      -4.354  -1.888  -1.316  1.00  0.00    -0.353 OA
HETATM   20  C1  UNL     1      -3.904  -2.999  -2.070  1.00  0.00     0.210 C 
ENDBRANCH   1  19
BRANCH   5  21
HETATM   21  O3  UNL     1      -3.508   2.055   1.151  1.00  0.00    -0.351 OA
HETATM   22  C15 UNL     1      -3.647   1.861   2.563  1.00  0.00     0.210 C 
ENDBRANCH   5  21
BRANCH   6  23
HETATM   23  O4  UNL     1      -5.285   0.271   0.155  1.00  0.00    -0.351 OA
HETATM   24  C17 UNL     1      -6.116   1.020  -0.717  1.00  0.00     0.210 C 
ENDBRANCH   6  23
TORSDOF 6
