REMARK  2 active torsions:
REMARK  status: ('A' for Active; 'I' for Inactive)
REMARK       I    between atoms: C1_4  and  N3_6 
REMARK    1  A    between atoms: C2_8  and  C3_9 
REMARK    2  A    between atoms: C2_8  and  N4_11 
ROOT
HETATM    1  N1  UNL     1       3.571  -1.250  -0.623  1.00  0.00    -0.373 N 
ATOM      2  H11 UNL     1       2.991  -2.075  -0.773  1.00  0.00     0.158 HD
ATOM      3  H12 UNL     1       4.560  -1.231  -0.870  1.00  0.00     0.158 HD
HETATM    4  C1  UNL     1       3.064  -0.189  -0.108  1.00  0.00     0.187 C 
HETATM    5  N2  UNL     1       3.876   0.966   0.102  1.00  0.00    -0.064 NA
HETATM    6  N3  UNL     1       1.692  -0.216   0.235  1.00  0.00    -0.320 N 
ATOM      7  H3  UNL     1       1.436  -0.245   1.222  1.00  0.00     0.169 HD
HETATM    8  C2  UNL     1       0.756  -0.205  -0.643  1.00  0.00     0.095 C 
ENDROOT
BRANCH   8   9
HETATM    9  C3  UNL     1       1.027  -0.161  -2.119  1.00  0.00     0.191 C 
HETATM   10 CL1  UNL     1       0.340  -1.591  -2.923  1.00  0.00    -0.122 Cl
ENDBRANCH   8   9
BRANCH   8  11
HETATM   11  N4  UNL     1      -0.597  -0.234  -0.233  1.00  0.00    -0.370 N 
HETATM   12  C4  UNL     1      -1.460   0.885  -0.549  1.00  0.00     0.124 C 
HETATM   13  C5  UNL     1      -1.980   1.391   0.802  1.00  0.00     0.020 C 
HETATM   14  C6  UNL     1      -2.849   0.275   1.342  1.00  0.00     0.003 C 
HETATM   15  C7  UNL     1      -1.966  -0.882   1.679  1.00  0.00     0.020 C 
HETATM   16  C8  UNL     1      -1.165  -1.348   0.497  1.00  0.00     0.124 C 
ENDBRANCH   8  11
TORSDOF 2
