REMARK  3 active torsions:
REMARK  status: ('A' for Active; 'I' for Inactive)
REMARK    1  A    between atoms: N1_1  and  N2_4 
REMARK    2  A    between atoms: N2_4  and  C1_6 
REMARK    3  A    between atoms: C2_9  and  N4_10 
ROOT
HETATM    1  C1  UNL     1       2.546  -0.295  -0.415  1.00  0.00     0.697 A 
HETATM    2  N3  UNL     1       1.346   0.272  -0.158  1.00  0.00    -0.175 N 
ATOM      3  H3  UNL     1       1.299   1.255   0.110  1.00  0.00     0.186 HD
HETATM    4  C2  UNL     1       0.210  -0.449  -0.252  1.00  0.00     0.121 A 
HETATM    5  C6  UNL     1       0.306  -1.774  -0.615  1.00  0.00     0.066 A 
HETATM    6  C7  UNL     1       1.522  -2.320  -0.868  1.00  0.00     0.110 A 
HETATM    7  N6  UNL     1       2.631  -1.575  -0.765  1.00  0.00    -0.200 N 
ATOM      8  H6  UNL     1       3.543  -1.991  -0.956  1.00  0.00     0.183 HD
ENDROOT
BRANCH   4   9
HETATM    9  N4  UNL     1      -1.042   0.165   0.022  1.00  0.00    -0.342 N 
HETATM   10  C3  UNL     1      -2.327  -0.488  -0.040  1.00  0.00     0.153 C 
HETATM   11  C4  UNL     1      -3.253   0.393   0.740  1.00  0.00     0.254 C 
HETATM   12  N5  UNL     1      -2.504   1.531   1.160  1.00  0.00    -0.058 N 
HETATM   13  C5  UNL     1      -1.291   1.535   0.411  1.00  0.00     0.358 C 
ATOM     14  H52 UNL     1      -3.025   2.404   1.082  1.00  0.00     0.279 HD
ATOM     15  H51 UNL     1      -2.352   1.560   2.168  1.00  0.00     0.279 HD
ENDBRANCH   4   9
BRANCH   1  16
HETATM   16  N2  UNL     1       3.643   0.378  -0.331  1.00  0.00    -0.138 N 
ATOM     17  H2  UNL     1       4.541  -0.064  -0.529  1.00  0.00     0.205 HD
BRANCH  16  18
HETATM   18  N1  UNL     1       3.579   1.711   0.032  1.00  0.00    -0.331 N 
ATOM     19  H12 UNL     1       2.674   2.139   0.226  1.00  0.00     0.177 HD
ATOM     20  H11 UNL     1       4.447   2.243   0.098  1.00  0.00     0.177 HD
ENDBRANCH  16  18
ENDBRANCH   1  16
TORSDOF 3
