REMARK  6 active torsions:
REMARK  status: ('A' for Active; 'I' for Inactive)
REMARK    1  A    between atoms: C2_2  and  O2_4 
REMARK    2  A    between atoms: O2_4  and  C3_5 
REMARK    3  A    between atoms: C4_6  and  O3_7 
REMARK    4  A    between atoms: C14_21  and  C15_22 
REMARK    5  A    between atoms: C14_21  and  C16_24 
REMARK    6  A    between atoms: C19_27  and  O5_28 
ROOT
HETATM    1  C3  UNL     1       4.245  -0.468   0.356  1.00  0.00     0.169 C 
HETATM    2  C4  UNL     1       4.183  -1.925   0.711  1.00  0.00     0.148 C 
HETATM    3  C5  UNL     1       2.728  -2.211   0.293  1.00  0.00     0.040 C 
HETATM    4  C6  UNL     1       2.054  -1.042   1.020  1.00  0.00     0.005 C 
HETATM    5  C7  UNL     1       0.665  -0.836   0.574  1.00  0.00     0.021 C 
HETATM    6  C8  UNL     1      -0.135  -0.030   1.557  1.00  0.00     0.238 C 
HETATM    7  N1  UNL     1      -1.530  -0.351   1.214  1.00  0.00    -0.069 N 
ATOM      8  H11 UNL     1      -2.174  -0.064   1.951  1.00  0.00     0.277 HD
ATOM      9  H12 UNL     1      -1.702  -1.356   1.240  1.00  0.00     0.277 HD
HETATM   10  C9  UNL     1      -1.891   0.217  -0.058  1.00  0.00     0.210 C 
HETATM   11  C10 UNL     1      -0.813   0.427  -1.033  1.00  0.00    -0.010 C 
HETATM   12  C11 UNL     1      -0.692   1.945  -1.268  1.00  0.00     0.018 C 
HETATM   13  C12 UNL     1      -1.391  -0.075  -2.369  1.00  0.00     0.013 C 
HETATM   14  C13 UNL     1      -2.831  -0.327  -2.169  1.00  0.00     0.020 C 
HETATM   15  C14 UNL     1      -2.973  -0.632  -0.691  1.00  0.00     0.046 C 
HETATM   16  C21 UNL     1       0.513  -0.210  -0.785  1.00  0.00     0.002 C 
HETATM   17  C22 UNL     1       1.689   0.664  -1.164  1.00  0.00     0.007 C 
HETATM   18  C23 UNL     1       2.469   1.186   0.005  1.00  0.00     0.012 C 
HETATM   19  C24 UNL     1       2.970   0.112   0.926  1.00  0.00    -0.011 C 
HETATM   20  C25 UNL     1       3.202   0.734   2.289  1.00  0.00     0.018 C 
ENDROOT
BRANCH  15  21
HETATM   21  C15 UNL     1      -2.783  -2.069  -0.454  1.00  0.00     0.243 C 
HETATM   22  O4  UNL     1      -2.198  -2.753  -1.260  1.00  0.00    -0.306 OA
ENDBRANCH  15  21
BRANCH  15  23
HETATM   23  C16 UNL     1      -4.359  -0.267  -0.310  1.00  0.00     0.005 C 
HETATM   24  C17 UNL     1      -4.826   1.096  -0.652  1.00  0.00     0.008 C 
HETATM   25  C18 UNL     1      -6.037   1.313   0.263  1.00  0.00     0.032 C 
HETATM   26  C19 UNL     1      -6.047   0.187   1.243  1.00  0.00     0.118 C 
HETATM   27  C20 UNL     1      -4.671  -0.456   1.150  1.00  0.00     0.037 C 
BRANCH  26  28
HETATM   28  O5  UNL     1      -7.016  -0.758   0.840  1.00  0.00    -0.396 OA
ATOM     29  H5  UNL     1      -7.022  -1.475   1.464  1.00  0.00     0.210 HD
ENDBRANCH  26  28
ENDBRANCH  15  23
BRANCH   2  30
HETATM   30  O3  UNL     1       5.072  -2.710   0.020  1.00  0.00    -0.393 OA
ATOM     31  H3  UNL     1       5.033  -3.632   0.245  1.00  0.00     0.210 HD
ENDBRANCH   2  30
BRANCH   1  32
HETATM   32  O2  UNL     1       5.393   0.200   0.712  1.00  0.00    -0.313 OA
BRANCH  32  33
HETATM   33  C2  UNL     1       6.287   0.843  -0.106  1.00  0.00     0.255 C 
HETATM   34  C1  UNL     1       7.479   1.513   0.473  1.00  0.00     0.126 C 
HETATM   35  O1  UNL     1       6.025   0.817  -1.321  1.00  0.00    -0.266 OA
ENDBRANCH  32  33
ENDBRANCH   1  32
TORSDOF 6
