REMARK  10 active torsions:
REMARK  status: ('A' for Active; 'I' for Inactive)
REMARK    1  A    between atoms: C2_2  and  O1_3 
REMARK    2  A    between atoms: C2_2  and  C3_5 
REMARK    3  A    between atoms: C3_5  and  C4_6 
REMARK    4  A    between atoms: C4_6  and  C6_8 
REMARK    5  A    between atoms: C4_6  and  C16_26 
REMARK    6  A    between atoms: C8_10  and  C9_11 
REMARK    7  A    between atoms: C13_15  and  O2_16 
REMARK    8  A    between atoms: C14_18  and  O3_19 
REMARK    9  A    between atoms: C15_21  and  N1_22 
REMARK   10  A    between atoms: N1_22  and  N2_23 
ROOT
HETATM    1  C6  UNL     1      -0.378   0.235   0.725  1.00  0.00    -0.003 A 
HETATM    2  C7  UNL     1       0.737   0.233  -0.137  1.00  0.00     0.022 A 
HETATM    3  C8  UNL     1       2.035   0.205   0.324  1.00  0.00    -0.014 A 
HETATM    4  C13 UNL     1       2.330   0.177   1.669  1.00  0.00     0.109 A 
HETATM    5  C14 UNL     1       1.285   0.180   2.530  1.00  0.00     0.143 A 
HETATM    6  C15 UNL     1      -0.025   0.211   2.048  1.00  0.00     0.173 A 
ENDROOT
BRANCH   1   7
HETATM    7  C4  UNL     1      -1.719   0.085   0.154  1.00  0.00    -0.004 C 
HETATM    8  C5  UNL     1      -2.850   0.831   0.675  1.00  0.00     0.021 C 
BRANCH   7   9
HETATM    9  C3  UNL     1      -1.588   0.399  -1.323  1.00  0.00     0.046 C 
BRANCH   9  10
HETATM   10  C2  UNL     1      -1.342   1.777  -1.758  1.00  0.00     0.115 C 
HETATM   11  C1  UNL     1      -2.341   2.850  -1.476  1.00  0.00     0.039 C 
BRANCH  10  12
HETATM   12  O1  UNL     1      -1.206   1.782  -3.189  1.00  0.00    -0.396 OA
ATOM     13  H1  UNL     1      -0.570   1.099  -3.368  1.00  0.00     0.210 HD
ENDBRANCH  10  12
ENDBRANCH   9  10
ENDBRANCH   7   9
BRANCH   7  14
HETATM   14  C16 UNL     1      -2.130  -1.401   0.096  1.00  0.00    -0.040 C 
HETATM   15  C17 UNL     1      -2.361  -2.081   1.392  1.00  0.00     0.015 C 
HETATM   16  C18 UNL     1      -3.406  -1.538  -0.701  1.00  0.00     0.015 C 
HETATM   17  C19 UNL     1      -1.115  -2.273  -0.611  1.00  0.00     0.015 C 
ENDBRANCH   7  14
ENDBRANCH   1   7
BRANCH   6  18
HETATM   18  N1  UNL     1      -1.021   0.360   2.990  1.00  0.00    -0.330 NA
BRANCH  18  19
HETATM   19  N2  UNL     1      -1.807   0.515   3.772  1.00  0.00    -0.280 N 
ATOM     20  H22 UNL     1      -1.017   1.159   3.811  1.00  0.00     0.191 HD
ATOM     21  H21 UNL     1      -2.544   0.625   4.469  1.00  0.00     0.191 HD
ENDBRANCH  18  19
ENDBRANCH   6  18
BRANCH   3  22
HETATM   22  C9  UNL     1       3.214   0.205  -0.612  1.00  0.00    -0.021 C 
HETATM   23  C10 UNL     1       3.967  -1.086  -0.305  1.00  0.00     0.019 C 
HETATM   24  C11 UNL     1       4.077   1.423  -0.425  1.00  0.00     0.019 C 
HETATM   25  C12 UNL     1       2.771   0.113  -2.041  1.00  0.00     0.019 C 
ENDBRANCH   3  22
BRANCH   5  26
HETATM   26  O3  UNL     1       1.469   0.152   3.907  1.00  0.00    -0.355 OA
ATOM     27  H3  UNL     1       0.736   0.154   4.511  1.00  0.00     0.218 HD
ENDBRANCH   5  26
BRANCH   4  28
HETATM   28  O2  UNL     1       3.652   0.147   2.102  1.00  0.00    -0.357 OA
ATOM     29  H2  UNL     1       3.855   0.128   3.030  1.00  0.00     0.217 HD
ENDBRANCH   4  28
TORSDOF 10
