REMARK  2 active torsions:
REMARK  status: ('A' for Active; 'I' for Inactive)
REMARK    1  A    between atoms: S1_2  and  C2_3 
REMARK    2  A    between atoms: C6_7  and  N1_8 
ROOT
HETATM    1  C2  UNL     1       0.935   0.413  -0.173  1.00  0.00     0.014 C 
HETATM    2  C3  UNL     1       0.220   1.696   0.233  1.00  0.00     0.053 C 
HETATM    3  C4  UNL     1      -1.151   1.362   0.755  1.00  0.00     0.190 C 
HETATM    4  C5  UNL     1      -1.948   0.823  -0.408  1.00  0.00     0.071 C 
HETATM    5  C6  UNL     1      -1.298  -0.479  -0.854  1.00  0.00     0.129 C 
HETATM    6  C7  UNL     1      -1.343  -1.415   0.325  1.00  0.00     0.071 C 
HETATM    7  C8  UNL     1      -0.470  -0.815   1.404  1.00  0.00     0.190 C 
HETATM    8  C9  UNL     1       0.943  -0.579   0.948  1.00  0.00     0.053 C 
HETATM    9  N2  UNL     1      -1.137   0.404   1.827  1.00  0.00    -0.066 N 
ATOM     10  H21 UNL     1      -2.074   0.220   2.186  1.00  0.00     0.278 HD
ATOM     11  H22 UNL     1      -0.724   0.789   2.676  1.00  0.00     0.278 HD
HETATM   12  C10 UNL     1       0.108  -0.192  -1.300  1.00  0.00     0.059 C 
ENDROOT
BRANCH   5  13
HETATM   13  N1  UNL     1      -2.019  -1.089  -1.940  1.00  0.00    -0.070 N 
ATOM     14  H13 UNL     1      -3.002  -1.226  -1.704  1.00  0.00     0.275 HD
ATOM     15  H12 UNL     1      -2.132  -0.443  -2.721  1.00  0.00     0.275 HD
ATOM     16  H11 UNL     1      -1.583  -1.962  -2.239  1.00  0.00     0.275 HD
ENDBRANCH   5  13
BRANCH   1  17
HETATM   17  S1  UNL     1       2.553   0.859  -0.788  1.00  0.00    -0.163 SA
HETATM   18  C1  UNL     1       3.894  -0.124  -0.104  1.00  0.00     0.090 C 
ENDBRANCH   1  17
TORSDOF 2
