REMARK  5 active torsions:
REMARK  status: ('A' for Active; 'I' for Inactive)
REMARK    1  A    between atoms: C2_2  and  N1_5 
REMARK    2  A    between atoms: N1_5  and  C5_6 
REMARK    3  A    between atoms: N1_5  and  C10_12 
REMARK    4  A    between atoms: N2_16  and  C14_17 
REMARK    5  A    between atoms: C14_17  and  C15_18 
ROOT
HETATM    1  N1  UNL     1      -0.618  -0.353   0.320  1.00  0.00    -0.368 N 
ENDROOT
BRANCH   1   2
HETATM    2  C2  UNL     1      -0.737  -1.760   0.179  1.00  0.00     0.022 C 
HETATM    3  C1  UNL     1      -1.924  -2.286   1.043  1.00  0.00     0.037 C 
HETATM    4  C3  UNL     1      -1.050  -2.326  -1.158  1.00  0.00     0.037 C 
HETATM    5  C4  UNL     1       0.373  -2.598   0.805  1.00  0.00     0.037 C 
ENDBRANCH   1   2
BRANCH   1   6
HETATM    6  C5  UNL     1      -1.746   0.415  -0.090  1.00  0.00    -0.013 C 
HETATM    7  C6  UNL     1      -2.059   0.464  -1.550  1.00  0.00     0.062 C 
HETATM    8  C7  UNL     1      -2.869   1.713  -1.914  1.00  0.00     0.079 C 
HETATM    9  S1  UNL     1      -4.286   1.943  -0.816  1.00  0.00    -0.168 SA
HETATM   10  C8  UNL     1      -3.665   1.709   0.889  1.00  0.00     0.079 C 
HETATM   11  C9  UNL     1      -2.123   1.635   0.693  1.00  0.00     0.062 C 
ENDBRANCH   1   6
BRANCH   1  12
HETATM   12  C10 UNL     1       0.631   0.240   0.403  1.00  0.00     0.057 C 
HETATM   13  C11 UNL     1       1.462  -0.084   1.624  1.00  0.00     0.040 C 
HETATM   14  C12 UNL     1       0.675   1.772   0.290  1.00  0.00     0.063 C 
HETATM   15  C13 UNL     1       2.130   2.083  -0.033  1.00  0.00     0.275 C 
HETATM   16  N2  UNL     1       2.730   0.780  -0.292  1.00  0.00     0.101 N 
HETATM   17  C16 UNL     1       1.562   0.084  -0.796  1.00  0.00     0.303 C 
BRANCH  16  18
HETATM   18  C14 UNL     1       3.756   0.889  -1.309  1.00  0.00     0.385 C 
BRANCH  18  19
HETATM   19  C15 UNL     1       4.422  -0.416  -1.475  1.00  0.00     0.202 C 
HETATM   20  O1  UNL     1       5.309  -0.593  -2.390  1.00  0.00    -0.647 OA
HETATM   21  O2  UNL     1       4.099  -1.467  -0.641  1.00  0.00    -0.647 OA
ENDBRANCH  18  19
ENDBRANCH  16  18
ENDBRANCH   1  12
TORSDOF 5
