REMARK  5 active torsions:
REMARK  status: ('A' for Active; 'I' for Inactive)
REMARK    1  A    between atoms: C2_2  and  N1_4 
REMARK    2  A    between atoms: C6_7  and  N2_8 
REMARK    3  A    between atoms: N2_8  and  C7_10 
REMARK    4  A    between atoms: C7_10  and  N3_12 
REMARK    5  A    between atoms: N3_12  and  C8_14 
ROOT
HETATM    1  N1  UNL     1       2.905  -0.036  -0.186  1.00  0.00     0.096 N 
HETATM    2  C4  UNL     1       2.218   0.553   0.919  1.00  0.00     0.275 C 
HETATM    3  C5  UNL     1       0.736   0.647   0.516  1.00  0.00     0.055 C 
HETATM    4  C6  UNL     1       0.206  -0.708   0.207  1.00  0.00     0.087 C 
HETATM    5  C12 UNL     1       1.134  -1.533  -0.654  1.00  0.00     0.060 C 
HETATM    6  C13 UNL     1       2.590  -1.431  -0.219  1.00  0.00     0.221 C 
HETATM    7  C14 UNL     1       3.417  -2.236  -1.170  1.00  0.00     0.043 C 
ENDROOT
BRANCH   4   8
HETATM    8  N2  UNL     1      -1.059  -0.585  -0.480  1.00  0.00    -0.363 N 
ATOM      9  H2  UNL     1      -1.091  -0.853  -1.464  1.00  0.00     0.162 HD
BRANCH   8  10
HETATM   10  C7  UNL     1      -2.256  -0.120   0.113  1.00  0.00     0.168 C 
HETATM   11  S1  UNL     1      -2.271   0.282   1.686  1.00  0.00    -0.041 SA
BRANCH  10  12
HETATM   12  N3  UNL     1      -3.462  -0.016  -0.632  1.00  0.00    -0.359 N 
ATOM     13  H3  UNL     1      -3.443  -0.289  -1.615  1.00  0.00     0.162 HD
BRANCH  12  14
HETATM   14  C8  UNL     1      -4.711   0.452  -0.082  1.00  0.00     0.021 C 
HETATM   15  C9  UNL     1      -5.164  -0.423   1.079  1.00  0.00     0.037 C 
HETATM   16  C10 UNL     1      -4.659   1.891   0.383  1.00  0.00     0.037 C 
HETATM   17  C11 UNL     1      -5.775   0.373  -1.167  1.00  0.00     0.037 C 
ENDBRANCH  12  14
ENDBRANCH  10  12
ENDBRANCH   8  10
ENDBRANCH   4   8
BRANCH   1  18
HETATM   18  C2  UNL     1       4.285   0.301  -0.298  1.00  0.00     0.215 C 
HETATM   19  C1  UNL     1       4.369   1.815  -0.520  1.00  0.00     0.042 C 
HETATM   20  C3  UNL     1       5.058   0.012   0.980  1.00  0.00     0.042 C 
ENDBRANCH   1  18
TORSDOF 5
