REMARK  4 active torsions:
REMARK  status: ('A' for Active; 'I' for Inactive)
REMARK    1  A    between atoms: C4_4  and  C6_6 
REMARK    2  A    between atoms: C13_17  and  O5_18 
REMARK    3  A    between atoms: C20_27  and  N1_28 
REMARK    4  A    between atoms: N1_28  and  O7_30 
ROOT
HETATM    1  C1  UNL     1      -2.833   3.328  -1.601  1.00  0.00     0.013 C 
HETATM    2  C2  UNL     1      -2.145   2.098  -0.947  1.00  0.00     0.020 C 
HETATM    3  C3  UNL     1      -3.110   0.988  -1.256  1.00  0.00     0.032 C 
HETATM    4  C4  UNL     1      -2.882  -0.348  -0.517  1.00  0.00     0.075 C 
HETATM    5  C5  UNL     1      -3.497  -1.435  -1.353  1.00  0.00     0.032 C 
HETATM    6  C7  UNL     1      -1.411  -0.459  -0.293  1.00  0.00     0.006 C 
HETATM    7  C8  UNL     1      -0.783  -0.514  -1.615  1.00  0.00     0.135 C 
HETATM    8  O3  UNL     1      -0.881  -1.796  -2.106  1.00  0.00    -0.274 OA
HETATM    9  C9  UNL     1      -0.277  -2.745  -1.228  1.00  0.00     0.277 C 
HETATM   10  O4  UNL     1      -0.151  -3.930  -1.712  1.00  0.00    -0.264 OA
HETATM   11  C10 UNL     1       0.168  -2.384   0.144  1.00  0.00     0.075 C 
HETATM   12  C11 UNL     1      -0.281  -3.681   0.923  1.00  0.00     0.031 C 
HETATM   13  C12 UNL     1       1.580  -2.298   0.439  1.00  0.00     0.059 C 
HETATM   14  C13 UNL     1       2.636  -1.634  -0.310  1.00  0.00     0.153 C 
HETATM   15  C14 UNL     1       2.917  -0.146  -0.038  1.00  0.00     0.083 C 
HETATM   16  C15 UNL     1       4.128  -0.114   0.918  1.00  0.00     0.048 C 
HETATM   17  C16 UNL     1       3.544   0.357  -1.361  1.00  0.00     0.048 C 
HETATM   18  O6  UNL     1       2.006   0.625   0.330  1.00  0.00    -0.342 OA
HETATM   19  C17 UNL     1       1.249   1.649   0.089  1.00  0.00     0.167 C 
HETATM   20  C18 UNL     1       2.191   2.880  -0.062  1.00  0.00     0.079 C 
HETATM   21  C19 UNL     1       0.594   1.724   1.514  1.00  0.00     0.127 C 
HETATM   22  C20 UNL     1       0.437   0.441   2.188  1.00  0.00     0.037 C 
HETATM   23  C21 UNL     1      -0.349  -0.725   1.992  1.00  0.00     0.036 C 
HETATM   24  C22 UNL     1      -0.796  -1.328   0.730  1.00  0.00    -0.028 C 
HETATM   25  O8  UNL     1       0.318   1.898  -0.741  1.00  0.00    -0.342 OA
HETATM   26  C23 UNL     1      -0.735   1.982  -1.430  1.00  0.00     0.205 C 
HETATM   27  C24 UNL     1      -0.919   0.733  -2.326  1.00  0.00     0.212 C 
HETATM   28  O9  UNL     1      -1.145   0.844  -3.470  1.00  0.00    -0.287 OA
ENDROOT
BRANCH   4  29
HETATM   29  C6  UNL     1      -3.670  -0.268   0.741  1.00  0.00     0.186 C 
HETATM   30  O1  UNL     1      -4.492  -1.167   1.049  1.00  0.00    -0.647 OA
HETATM   31  O2  UNL     1      -3.555   0.786   1.643  1.00  0.00    -0.647 OA
ENDBRANCH   4  29
BRANCH  22  32
HETATM   32  N1  UNL     1       1.210   0.337   3.270  1.00  0.00    -0.273 N 
ATOM     33  H1  UNL     1       1.166  -0.529   3.807  1.00  0.00     0.193 HD
BRANCH  32  34
HETATM   34  O7  UNL     1       2.044   1.302   3.697  1.00  0.00    -0.290 OA
ATOM     35  H7  UNL     1       2.595   1.228   4.468  1.00  0.00     0.244 HD
ENDBRANCH  32  34
ENDBRANCH  22  32
BRANCH  14  36
HETATM   36  O5  UNL     1       3.889  -2.276  -0.270  1.00  0.00    -0.393 OA
ATOM     37  H5  UNL     1       4.578  -1.842  -0.759  1.00  0.00     0.210 HD
ENDBRANCH  14  36
TORSDOF 4
