REMARK  17 active torsions:
REMARK  status: ('A' for Active; 'I' for Inactive)
REMARK    1  A    between atoms: C2_2  and  C3_3 
REMARK    2  A    between atoms: C3_3  and  C4_4 
REMARK    3  A    between atoms: C4_4  and  N1_5 
REMARK    4  A    between atoms: N1_5  and  C5_7 
REMARK    5  A    between atoms: C6_10  and  N3_11 
REMARK    6  A    between atoms: N3_11  and  C7_12 
REMARK    7  A    between atoms: C7_12  and  C8_13 
REMARK    8  A    between atoms: C9_14  and  C10_15 
REMARK    9  A    between atoms: C10_15  and  O1_16 
REMARK   10  A    between atoms: C10_15  and  C11_18 
REMARK   11  A    between atoms: C11_18  and  O2_19 
REMARK   12  A    between atoms: C12_23  and  N5_24 
REMARK   13  A    between atoms: N5_24  and  C13_26 
REMARK   14  A    between atoms: C13_26  and  C14_27 
REMARK   15  A    between atoms: C14_27  and  C15_28 
REMARK   16  A    between atoms: C15_28  and  N6_29 
REMARK   17  A    between atoms: N6_29  and  C16_32 
ROOT
HETATM    1  C5  UNL     1      -2.109   1.962  -0.083  1.00  0.00     0.696 A 
HETATM    2  N2  UNL     1      -2.815   0.873   0.260  1.00  0.00    -0.148 N 
ATOM      3  H2  UNL     1      -3.818   0.862   0.075  1.00  0.00     0.188 HD
HETATM    4  C6  UNL     1      -2.242  -0.227   0.850  1.00  0.00     0.287 A 
HETATM    5  N4  UNL     1      -0.892  -0.120   1.058  1.00  0.00    -0.148 N 
ATOM      6  H4  UNL     1      -0.410  -0.906   1.493  1.00  0.00     0.188 HD
HETATM    7  C12 UNL     1      -0.173   0.949   0.726  1.00  0.00     0.696 A 
HETATM    8  N7  UNL     1      -0.796   2.001   0.148  1.00  0.00    -0.022 N 
ATOM      9  H7  UNL     1      -0.259   2.828  -0.113  1.00  0.00     0.203 HD
ENDROOT
BRANCH   7  10
HETATM   10  N5  UNL     1       1.096   1.084   0.910  1.00  0.00    -0.225 N 
ATOM     11  H5  UNL     1       1.515   1.962   0.605  1.00  0.00     0.177 HD
BRANCH  10  12
HETATM   12  C13 UNL     1       1.973   0.120   1.501  1.00  0.00     0.139 C 
BRANCH  12  13
HETATM   13  C14 UNL     1       2.829  -0.470   0.374  1.00  0.00     0.048 C 
BRANCH  13  14
HETATM   14  C15 UNL     1       3.604   0.677  -0.243  1.00  0.00     0.234 C 
BRANCH  14  15
HETATM   15  N6  UNL     1       4.457   0.299  -1.318  1.00  0.00    -0.071 N 
ATOM     16  H62 UNL     1       3.938  -0.165  -2.063  1.00  0.00     0.277 HD
ATOM     17  H61 UNL     1       4.786   1.112  -1.839  1.00  0.00     0.277 HD
BRANCH  15  18
HETATM   18  C16 UNL     1       5.546  -0.506  -0.856  1.00  0.00     0.185 C 
HETATM   19  C17 UNL     1       6.446   0.210   0.091  1.00  0.00     0.033 C 
HETATM   20  C18 UNL     1       7.631  -0.681   0.408  1.00  0.00     0.002 C 
HETATM   21  C19 UNL     1       7.413  -2.109  -0.048  1.00  0.00     0.000 C 
HETATM   22  C20 UNL     1       7.166  -2.180  -1.541  1.00  0.00     0.002 C 
HETATM   23  C21 UNL     1       6.438  -0.946  -2.036  1.00  0.00     0.033 C 
ENDBRANCH  15  18
ENDBRANCH  14  15
ENDBRANCH  13  14
ENDBRANCH  12  13
ENDBRANCH  10  12
ENDBRANCH   7  10
BRANCH   4  24
HETATM   24  N3  UNL     1      -2.830  -1.208   1.166  1.00  0.00    -0.383 NA
BRANCH  24  25
HETATM   25  C7  UNL     1      -3.516  -2.296   1.511  1.00  0.00     0.186 C 
BRANCH  25  26
HETATM   26  C8  UNL     1      -3.494  -3.465   0.585  1.00  0.00     0.030 C 
HETATM   27  C9  UNL     1      -4.569  -3.930   0.043  1.00  0.00     0.009 C 
BRANCH  27  28
HETATM   28  C10 UNL     1      -5.939  -3.442   0.208  1.00  0.00     0.164 C 
BRANCH  28  29
HETATM   29  O1  UNL     1      -6.089  -2.062   0.064  1.00  0.00    -0.390 OA
ATOM     30  H1  UNL     1      -6.978  -1.745   0.171  1.00  0.00     0.210 HD
ENDBRANCH  28  29
BRANCH  28  31
HETATM   31  C11 UNL     1      -6.641  -3.954   1.452  1.00  0.00     0.199 C 
BRANCH  31  32
HETATM   32  O2  UNL     1      -6.478  -5.318   1.580  1.00  0.00    -0.398 OA
ATOM     33  H2  UNL     1      -6.918  -5.639   2.359  1.00  0.00     0.209 HD
ENDBRANCH  31  32
ENDBRANCH  28  31
ENDBRANCH  27  28
ENDBRANCH  25  26
ENDBRANCH  24  25
ENDBRANCH   4  24
BRANCH   1  34
HETATM   34  N1  UNL     1      -2.689   2.970  -0.632  1.00  0.00    -0.225 N 
ATOM     35  H1  UNL     1      -3.694   2.903  -0.792  1.00  0.00     0.177 HD
BRANCH  34  36
HETATM   36  C4  UNL     1      -2.039   4.176  -1.035  1.00  0.00     0.138 C 
BRANCH  36  37
HETATM   37  C3  UNL     1      -3.016   5.142  -1.633  1.00  0.00     0.020 C 
BRANCH  37  38
HETATM   38  C2  UNL     1      -4.124   5.558  -0.710  1.00  0.00    -0.003 C 
HETATM   39  C1  UNL     1      -4.987   4.441  -0.222  1.00  0.00     0.005 C 
ENDBRANCH  37  38
ENDBRANCH  36  37
ENDBRANCH  34  36
ENDBRANCH   1  34
TORSDOF 17
