REMARK  14 active torsions:
REMARK  status: ('A' for Active; 'I' for Inactive)
REMARK    1  A    between atoms: C2_2  and  C3_3 
REMARK    2  A    between atoms: C3_3  and  C4_4 
REMARK    3  A    between atoms: C4_4  and  N1_5 
REMARK    4  A    between atoms: N1_5  and  C5_7 
REMARK    5  A    between atoms: C6_10  and  N3_11 
REMARK    6  A    between atoms: N6_22  and  C10_24 
REMARK    7  A    between atoms: C10_24  and  C11_25 
REMARK    8  A    between atoms: C11_25  and  N7_26 
REMARK    9  A    between atoms: C11_25  and  C12_30 
REMARK   10  A    between atoms: C12_30  and  C13_31 
REMARK   11  A    between atoms: C13_31  and  C14_32 
REMARK   12  A    between atoms: C14_32  and  N8_33 
REMARK   13  A    between atoms: N8_33  and  C15_34 
REMARK   14  A    between atoms: N8_33  and  C17_36 
ROOT
HETATM    1  C5  UNL     1       4.058  -0.431  -0.087  1.00  0.00     0.680 A 
HETATM    2  N2  UNL     1       4.747  -0.358  -1.203  1.00  0.00    -0.175 N 
ATOM      3  H2  UNL     1       5.758  -0.481  -1.145  1.00  0.00     0.186 HD
HETATM    4  C6  UNL     1       4.203  -0.128  -2.441  1.00  0.00     0.144 A 
HETATM    5  C7  UNL     1       2.840   0.033  -2.492  1.00  0.00     0.112 A 
HETATM    6  N4  UNL     1       2.201   0.260  -3.655  1.00  0.00    -0.303 N 
ATOM      7  H4  UNL     1       2.730   0.318  -4.525  1.00  0.00     0.171 HD
HETATM    8  C8  UNL     1       0.864   0.410  -3.669  1.00  0.00     0.326 A 
HETATM    9  O1  UNL     1       0.299   0.626  -4.804  1.00  0.00    -0.247 OA
HETATM   10  N5  UNL     1       0.157   0.341  -2.561  1.00  0.00    -0.293 N 
ATOM     11  H5  UNL     1      -0.854   0.463  -2.627  1.00  0.00     0.172 HD
HETATM   12  C9  UNL     1       0.708   0.112  -1.305  1.00  0.00     0.135 A 
HETATM   13  N6  UNL     1      -0.022   0.069  -0.343  1.00  0.00    -0.372 N 
ATOM     14  H6  UNL     1      -0.935   0.228  -0.768  1.00  0.00     0.161 HD
HETATM   15  C19 UNL     1       2.108  -0.043  -1.318  1.00  0.00     0.123 A 
HETATM   16  N9  UNL     1       2.699  -0.270  -0.141  1.00  0.00    -0.186 N 
ATOM     17  H9  UNL     1       2.142  -0.323   0.712  1.00  0.00     0.184 HD
ENDROOT
BRANCH  13  18
HETATM   18  C10 UNL     1      -0.341  -0.063   0.944  1.00  0.00     0.154 C 
BRANCH  18  19
HETATM   19  C11 UNL     1      -1.857   0.189   1.250  1.00  0.00     0.201 C 
BRANCH  19  20
HETATM   20  N7  UNL     1      -2.127   1.536   0.840  1.00  0.00    -0.073 N 
ATOM     21  H73 UNL     1      -1.506   2.223   1.268  1.00  0.00     0.274 HD
ATOM     22  H72 UNL     1      -1.871   1.725  -0.129  1.00  0.00     0.274 HD
ATOM     23  H71 UNL     1      -3.114   1.700   1.039  1.00  0.00     0.274 HD
ENDBRANCH  19  20
BRANCH  19  24
HETATM   24  C12 UNL     1      -2.572  -0.890   0.553  1.00  0.00     0.039 C 
BRANCH  24  25
HETATM   25  C13 UNL     1      -4.050  -0.984   0.632  1.00  0.00     0.047 C 
BRANCH  25  26
HETATM   26  C14 UNL     1      -4.726   0.207   0.052  1.00  0.00     0.063 C 
BRANCH  26  27
HETATM   27  N8  UNL     1      -6.127   0.160  -0.009  1.00  0.00    -0.375 N 
BRANCH  27  28
HETATM   28  C15 UNL     1      -6.861   0.236   1.189  1.00  0.00     0.058 C 
HETATM   29  C16 UNL     1      -6.825  -0.955   2.099  1.00  0.00     0.055 C 
ENDBRANCH  27  28
BRANCH  27  30
HETATM   30  C17 UNL     1      -6.766   0.860  -1.075  1.00  0.00     0.122 C 
HETATM   31  C18 UNL     1      -6.521   0.268  -2.437  1.00  0.00     0.027 C 
ENDBRANCH  27  30
ENDBRANCH  26  27
ENDBRANCH  25  26
ENDBRANCH  24  25
ENDBRANCH  19  24
ENDBRANCH  18  19
ENDBRANCH  13  18
BRANCH   4  32
HETATM   32  N3  UNL     1       4.950  -0.074  -3.455  1.00  0.00    -0.383 N 
ATOM     33  H32 UNL     1       5.962  -0.194  -3.417  1.00  0.00     0.157 HD
ATOM     34  H31 UNL     1       4.545   0.097  -4.376  1.00  0.00     0.157 HD
ENDBRANCH   4  32
BRANCH   1  35
HETATM   35  N1  UNL     1       4.523  -0.641   1.091  1.00  0.00    -0.226 N 
ATOM     36  H1  UNL     1       3.866  -0.672   1.871  1.00  0.00     0.177 HD
BRANCH  35  37
HETATM   37  C4  UNL     1       5.900  -0.832   1.365  1.00  0.00     0.138 C 
BRANCH  37  38
HETATM   38  C3  UNL     1       6.348  -0.094   2.629  1.00  0.00     0.020 C 
BRANCH  38  39
HETATM   39  C2  UNL     1       7.838  -0.389   2.769  1.00  0.00    -0.003 C 
HETATM   40  C1  UNL     1       8.553   0.124   1.525  1.00  0.00     0.005 C 
ENDBRANCH  38  39
ENDBRANCH  37  38
ENDBRANCH  35  37
ENDBRANCH   1  35
TORSDOF 14
