REMARK  2 active torsions:
REMARK  status: ('A' for Active; 'I' for Inactive)
REMARK    1  A    between atoms: C2_2  and  C3_3 
REMARK    2  A    between atoms: C3_3  and  C4_4 
ROOT
HETATM    1  C4  UNL     1      -2.152  -0.186   0.143  1.00  0.00     0.026 C 
HETATM    2  C5  UNL     1      -2.912  -1.454   0.445  1.00  0.00     0.087 C 
HETATM    3  S1  UNL     1      -3.001  -2.562  -0.967  1.00  0.00    -0.167 SA
HETATM    4  C6  UNL     1      -1.478  -3.258  -1.498  1.00  0.00     0.104 C 
HETATM    5  C7  UNL     1      -0.266  -2.913  -0.703  1.00  0.00     0.286 C 
HETATM    6  N1  UNL     1      -0.427  -1.688  -0.051  1.00  0.00     0.131 N 
HETATM    7  C8  UNL     1       0.679  -1.012   0.451  1.00  0.00     0.481 C 
HETATM    8  C9  UNL     1       1.660  -1.491   1.401  1.00  0.00     0.239 C 
HETATM    9  O1  UNL     1       2.465  -0.386   1.693  1.00  0.00    -0.358 OA
HETATM   10  C10 UNL     1       2.948   0.331   0.623  1.00  0.00     0.171 C 
HETATM   11  C11 UNL     1       3.940   1.309   1.217  1.00  0.00     0.059 C 
HETATM   12  C12 UNL     1       4.996   1.627   0.235  1.00  0.00     0.014 C 
HETATM   13  C13 UNL     1       5.522   0.385  -0.401  1.00  0.00     0.077 C 
HETATM   14  S2  UNL     1       3.998  -0.629  -0.477  1.00  0.00    -0.123 SA
HETATM   15  C14 UNL     1       1.925   1.145  -0.090  1.00  0.00     0.205 C 
HETATM   16  O2  UNL     1       2.398   1.952  -0.859  1.00  0.00    -0.291 OA
HETATM   17  C15 UNL     1       0.430   1.190  -0.070  1.00  0.00     0.301 C 
HETATM   18  C16 UNL     1      -0.212   0.488  -1.264  1.00  0.00     0.080 C 
HETATM   19  C17 UNL     1      -1.102  -0.662  -0.880  1.00  0.00     0.239 C 
HETATM   20  N2  UNL     1       0.128   0.230   1.007  1.00  0.00     0.137 N 
HETATM   21  C18 UNL     1      -1.249   0.169   1.343  1.00  0.00     0.288 C 
ENDROOT
BRANCH   1  22
HETATM   22  C3  UNL     1      -2.940   0.957  -0.325  1.00  0.00     0.014 C 
BRANCH  22  23
HETATM   23  C2  UNL     1      -3.955   1.364   0.696  1.00  0.00    -0.004 C 
HETATM   24  C1  UNL     1      -4.753   2.578   0.173  1.00  0.00     0.005 C 
ENDBRANCH  22  23
ENDBRANCH   1  22
TORSDOF 2
