REMARK  8 active torsions:
REMARK  status: ('A' for Active; 'I' for Inactive)
REMARK    1  A    between atoms: C2_2  and  O1_3 
REMARK    2  A    between atoms: O1_3  and  C3_4 
REMARK    3  A    between atoms: C3_4  and  C4_6 
REMARK    4  A    between atoms: N2_9  and  C5_10 
REMARK    5  A    between atoms: N6_21  and  N7_23 
REMARK       I    between atoms: N7_23  and  C8_25 
REMARK    6  A    between atoms: C8_25  and  C9_27 
REMARK    7  A    between atoms: C10_30  and  N9_31 
REMARK    8  A    between atoms: C11_34  and  N10_35 
ROOT
HETATM    1  C4  UNL     1       3.600  -0.348   1.284  1.00  0.00     0.212 A 
HETATM    2  N1  UNL     1       3.145   0.209   0.161  1.00  0.00    -0.257 N 
ATOM      3  H1  UNL     1       3.711   0.753  -0.491  1.00  0.00     0.190 HD
HETATM    4  N2  UNL     1       1.854  -0.045   0.013  1.00  0.00    -0.061 N 
HETATM    5  C7  UNL     1       1.468  -0.783   1.066  1.00  0.00     0.722 A 
HETATM    6  N6  UNL     1       0.308  -1.258   1.344  1.00  0.00    -0.127 N 
ATOM      7  H6  UNL     1       0.239  -1.796   2.208  1.00  0.00     0.205 HD
HETATM    8  N12 UNL     1       2.562  -0.962   1.845  1.00  0.00    -0.166 N 
ATOM      9  H12 UNL     1       2.586  -1.484   2.721  1.00  0.00     0.186 HD
ENDROOT
BRANCH   4  10
HETATM   10  C5  UNL     1       1.084   0.413  -1.085  1.00  0.00     0.212 A 
HETATM   11  N3  UNL     1       0.157   1.362  -1.160  1.00  0.00    -0.220 N 
HETATM   12  O3  UNL     1      -0.261   1.417  -2.382  1.00  0.00    -0.153 OA
ATOM     13  H3  UNL     1      -0.168   1.945  -0.389  1.00  0.00     0.198 HD
HETATM   14  N4  UNL     1       0.343   0.551  -3.120  1.00  0.00    -0.222 N 
HETATM   15  C6  UNL     1       1.215  -0.128  -2.369  1.00  0.00     0.170 A 
ATOM     16  H4  UNL     1       0.182   0.407  -4.117  1.00  0.00     0.198 HD
HETATM   17  N5  UNL     1       2.012  -1.079  -2.735  1.00  0.00    -0.381 N 
ATOM     18  H52 UNL     1       2.678  -1.597  -2.162  1.00  0.00     0.157 HD
ATOM     19  H51 UNL     1       2.107  -1.473  -3.671  1.00  0.00     0.157 HD
ENDBRANCH   4  10
BRANCH   6  20
HETATM   20  N7  UNL     1      -0.847  -1.129   0.621  1.00  0.00    -0.249 N 
HETATM   21  C8  UNL     1      -2.057  -0.630   1.184  1.00  0.00     0.304 C 
HETATM   22  O4  UNL     1      -2.047  -0.300   2.396  1.00  0.00    -0.263 OA
ATOM     23  H7  UNL     1      -0.841  -1.401  -0.362  1.00  0.00     0.191 HD
BRANCH  21  24
HETATM   24  C9  UNL     1      -3.277  -0.498   0.403  1.00  0.00     0.178 A 
HETATM   25  N8  UNL     1      -3.341  -0.836  -0.892  1.00  0.00    -0.322 N 
HETATM   26  C10 UNL     1      -4.467  -0.715  -1.614  1.00  0.00     0.136 A 
ATOM     27  H8  UNL     1      -2.503  -1.199  -1.347  1.00  0.00     0.169 HD
HETATM   28  C11 UNL     1      -5.626  -0.225  -1.032  1.00  0.00     0.168 A 
HETATM   29  C12 UNL     1      -5.568   0.123   0.297  1.00  0.00     0.044 A 
HETATM   30  C13 UNL     1      -6.753   0.649   0.986  1.00  0.00     0.071 C 
HETATM   31  N11 UNL     1      -4.392  -0.025   0.975  1.00  0.00    -0.339 N 
ATOM     32  H11 UNL     1      -4.361   0.236   1.961  1.00  0.00     0.167 HD
BRANCH  26  33
HETATM   33  N9  UNL     1      -4.530  -1.040  -2.863  1.00  0.00    -0.383 N 
ATOM     34  H92 UNL     1      -3.677  -1.401  -3.291  1.00  0.00     0.157 HD
ATOM     35  H91 UNL     1      -5.385  -0.948  -3.411  1.00  0.00     0.157 HD
ENDBRANCH  26  33
BRANCH  28  36
HETATM   36  N10 UNL     1      -6.811  -0.102  -1.808  1.00  0.00    -0.110 N 
HETATM   37  O5  UNL     1      -6.793  -0.437  -3.009  1.00  0.00    -0.532 OA
HETATM   38  O6  UNL     1      -7.999   0.368  -1.325  1.00  0.00    -0.532 OA
ENDBRANCH  28  36
ENDBRANCH  21  24
ENDBRANCH   6  20
BRANCH   1  39
HETATM   39  C3  UNL     1       4.965  -0.320   1.839  1.00  0.00     0.329 C 
HETATM   40  O2  UNL     1       5.221  -0.905   2.921  1.00  0.00    -0.256 OA
BRANCH  39  41
HETATM   41  O1  UNL     1       6.002   0.333   1.212  1.00  0.00    -0.316 OA
BRANCH  41  42
HETATM   42  C2  UNL     1       7.323   0.377   1.721  1.00  0.00     0.175 C 
HETATM   43  C1  UNL     1       8.141   1.189   0.736  1.00  0.00     0.034 C 
ENDBRANCH  41  42
ENDBRANCH  39  41
ENDBRANCH   1  39
TORSDOF 8
