REMARK  7 active torsions:
REMARK  status: ('A' for Active; 'I' for Inactive)
REMARK    1  A    between atoms: C2_2  and  C14_17 
REMARK    2  A    between atoms: C3_3  and  C4_4 
REMARK    3  A    between atoms: C4_4  and  N1_5 
REMARK    4  A    between atoms: C14_17  and  C15_18 
REMARK    5  A    between atoms: C15_18  and  C16_19 
REMARK    6  A    between atoms: C16_19  and  C17_20 
REMARK    7  A    between atoms: C19_23  and  N3_24 
ROOT
HETATM    1  C1  UNL     1       2.144  -1.777  -1.928  1.00  0.00     0.043 C 
HETATM    2  C2  UNL     1       1.602  -0.869  -0.843  1.00  0.00    -0.086 C 
HETATM    3  C3  UNL     1       0.565  -1.254  -0.135  1.00  0.00     0.005 C 
ENDROOT
BRANCH   3   4
HETATM    4  C4  UNL     1      -0.110  -0.536   0.950  1.00  0.00     0.300 C 
BRANCH   4   5
HETATM    5  N1  UNL     1      -1.524  -0.270   0.649  1.00  0.00     0.094 N 
HETATM    6  C5  UNL     1      -1.710   0.672  -0.399  1.00  0.00     0.296 C 
HETATM    7  C6  UNL     1      -2.892   0.458  -1.283  1.00  0.00     0.101 C 
HETATM    8  C7  UNL     1      -2.509  -0.543  -2.387  1.00  0.00     0.033 C 
HETATM    9  N2  UNL     1      -4.119   0.219  -0.680  1.00  0.00    -0.407 N 
HETATM   10  C8  UNL     1      -4.280  -0.244   0.621  1.00  0.00     0.023 C 
ATOM     11  H2  UNL     1      -4.960   0.395  -1.229  1.00  0.00     0.154 HD
HETATM   12  C9  UNL     1      -4.005  -1.712   0.841  1.00  0.00     0.038 C 
HETATM   13  C10 UNL     1      -5.781  -0.066   0.953  1.00  0.00     0.038 C 
HETATM   14  C11 UNL     1      -3.582   0.559   1.689  1.00  0.00     0.037 C 
HETATM   15  C12 UNL     1      -3.892   2.017   1.527  1.00  0.00     0.014 C 
HETATM   16  C13 UNL     1      -2.131   0.262   1.853  1.00  0.00     0.279 C 
ENDBRANCH   4   5
ENDBRANCH   3   4
BRANCH   2  17
HETATM   17  C14 UNL     1       2.288   0.421  -0.643  1.00  0.00     0.034 C 
BRANCH  17  18
HETATM   18  C15 UNL     1       3.725   0.111  -0.285  1.00  0.00     0.009 C 
BRANCH  18  19
HETATM   19  C16 UNL     1       4.537   1.385  -0.061  1.00  0.00     0.048 C 
BRANCH  19  20
HETATM   20  C17 UNL     1       5.920   0.887   0.279  1.00  0.00     0.009 A 
HETATM   21  C18 UNL     1       6.436   0.591   1.514  1.00  0.00     0.159 A 
HETATM   22  O1  UNL     1       7.626   0.183   1.577  1.00  0.00    -0.299 OA
HETATM   23  C19 UNL     1       8.345   0.044   0.521  1.00  0.00     0.184 A 
HETATM   24  S1  UNL     1       7.263   0.531  -0.720  1.00  0.00    -0.050 SA
BRANCH  23  25
HETATM   25  N3  UNL     1       9.589  -0.365   0.409  1.00  0.00    -0.374 N 
ATOM     26  H32 UNL     1      10.232  -0.654   1.146  1.00  0.00     0.158 HD
ATOM     27  H31 UNL     1      10.160  -0.475  -0.429  1.00  0.00     0.158 HD
ENDBRANCH  23  25
ENDBRANCH  19  20
ENDBRANCH  18  19
ENDBRANCH  17  18
ENDBRANCH   2  17
TORSDOF 7
