REMARK  8 active torsions:
REMARK  status: ('A' for Active; 'I' for Inactive)
REMARK    1  A    between atoms: O1_1  and  N1_3 
REMARK    2  A    between atoms: C1_5  and  O2_6 
REMARK    3  A    between atoms: C1_5  and  C2_8 
REMARK    4  A    between atoms: C2_8  and  C3_9 
REMARK    5  A    between atoms: C5_11  and  C6_12 
REMARK    6  A    between atoms: C6_12  and  C7_13 
REMARK    7  A    between atoms: C10_16  and  O3_17 
REMARK    8  A    between atoms: C12_20  and  O4_21 
ROOT
HETATM    1  C3  UNL     1      -1.413   0.044   0.764  1.00  0.00     0.138 C 
HETATM    2  C4  UNL     1      -0.488  -1.061   0.321  1.00  0.00     0.040 C 
HETATM    3  C5  UNL     1       0.869  -0.349   0.570  1.00  0.00     0.016 C 
HETATM    4  C13 UNL     1       0.537   1.045   0.214  1.00  0.00     0.173 C 
HETATM    5  O5  UNL     1      -0.796   1.249   0.604  1.00  0.00    -0.384 OA
ENDROOT
BRANCH   1   6
HETATM    6  C2  UNL     1      -2.712   0.031   0.003  1.00  0.00     0.052 C 
HETATM    7  C14 UNL     1      -2.477   0.338  -1.467  1.00  0.00     0.020 C 
HETATM    8  C15 UNL     1      -2.894   1.785  -1.620  1.00  0.00     0.001 C 
HETATM    9  C16 UNL     1      -4.143   1.798  -0.729  1.00  0.00     0.001 C 
HETATM   10  C17 UNL     1      -3.575   1.184   0.533  1.00  0.00     0.020 C 
BRANCH   6  11
HETATM   11  C1  UNL     1      -3.487  -1.209   0.182  1.00  0.00     0.146 C 
HETATM   12  N1  UNL     1      -3.033  -2.159   0.893  1.00  0.00    -0.250 N 
ATOM     13  H1  UNL     1      -2.118  -2.000   1.315  1.00  0.00     0.196 HD
BRANCH  12  14
HETATM   14  O1  UNL     1      -3.604  -3.351   1.162  1.00  0.00    -0.288 OA
ATOM     15  H1  UNL     1      -3.265  -4.061   1.694  1.00  0.00     0.244 HD
ENDBRANCH  12  14
BRANCH  11  16
HETATM   16  O2  UNL     1      -4.713  -1.336  -0.427  1.00  0.00    -0.347 OA
ATOM     17  H2  UNL     1      -5.052  -0.626  -0.959  1.00  0.00     0.219 HD
ENDBRANCH  11  16
ENDBRANCH   6  11
ENDBRANCH   1   6
BRANCH   3  18
HETATM   18  C6  UNL     1       1.896  -1.092  -0.176  1.00  0.00     0.048 C 
BRANCH  18  19
HETATM   19  C7  UNL     1       3.273  -0.614  -0.093  1.00  0.00    -0.024 A 
HETATM   20  C8  UNL     1       4.055  -1.103   0.957  1.00  0.00     0.012 A 
HETATM   21  C9  UNL     1       5.342  -0.677   1.202  1.00  0.00     0.037 A 
HETATM   22  C10 UNL     1       5.915   0.278   0.388  1.00  0.00     0.068 A 
HETATM   23  C11 UNL     1       5.153   0.759  -0.645  1.00  0.00     0.073 A 
HETATM   24  C12 UNL     1       3.836   0.325  -0.900  1.00  0.00     0.074 A 
BRANCH  22  25
HETATM   25  O3  UNL     1       7.218   0.727   0.617  1.00  0.00    -0.361 OA
ATOM     26  H3  UNL     1       7.613   1.385   0.056  1.00  0.00     0.217 HD
ENDBRANCH  22  25
BRANCH  24  27
HETATM   27  O4  UNL     1       3.165   0.864  -1.969  1.00  0.00    -0.360 OA
ATOM     28  H4  UNL     1       3.558   1.520  -2.533  1.00  0.00     0.217 HD
ENDBRANCH  24  27
ENDBRANCH  18  19
ENDBRANCH   3  18
TORSDOF 8
