REMARK  7 active torsions:
REMARK  status: ('A' for Active; 'I' for Inactive)
REMARK    1  A    between atoms: O1_1  and  N1_3 
REMARK    2  A    between atoms: C1_5  and  O2_6 
REMARK    3  A    between atoms: C1_5  and  C2_8 
REMARK    4  A    between atoms: C7_13  and  O3_14 
REMARK    5  A    between atoms: C9_17  and  N2_18 
REMARK    6  A    between atoms: C10_20  and  C11_21 
REMARK    7  A    between atoms: C11_21  and  N3_22 
ROOT
HETATM    1  C2  UNL     1       3.731   1.487  -0.630  1.00  0.00     0.181 A 
HETATM    2  C3  UNL     1       4.810   0.556  -0.986  1.00  0.00     0.007 A 
HETATM    3  C4  UNL     1       4.621  -0.737  -1.083  1.00  0.00     0.012 A 
HETATM    4  C5  UNL     1       3.323  -1.341  -0.841  1.00  0.00    -0.005 A 
HETATM    5  C6  UNL     1       3.111  -2.703  -0.952  1.00  0.00     0.050 A 
HETATM    6  C7  UNL     1       1.868  -3.256  -0.723  1.00  0.00     0.068 A 
HETATM    7  C8  UNL     1       0.813  -2.433  -0.376  1.00  0.00     0.068 A 
HETATM    8  C9  UNL     1       1.008  -1.072  -0.261  1.00  0.00     0.062 A 
HETATM    9  C17 UNL     1       2.295  -0.512  -0.501  1.00  0.00     0.066 A 
HETATM   10  N4  UNL     1       2.468   0.899  -0.379  1.00  0.00    -0.372 N 
ATOM     11  H4  UNL     1       1.679   1.486  -0.110  1.00  0.00     0.161 HD
ENDROOT
BRANCH   8  12
HETATM   12  N2  UNL     1      -0.007  -0.217   0.096  1.00  0.00    -0.366 N 
HETATM   13  C10 UNL     1      -1.217  -0.188   0.225  1.00  0.00     0.081 C 
ATOM     14  H2  UNL     1       0.383   0.696   0.331  1.00  0.00     0.165 HD
BRANCH  13  15
HETATM   15  C11 UNL     1      -2.209  -1.230   0.012  1.00  0.00     0.171 C 
BRANCH  15  16
HETATM   16  N3  UNL     1      -3.573  -0.788   0.105  1.00  0.00    -0.369 N 
HETATM   17  C12 UNL     1      -4.040  -0.406   1.374  1.00  0.00     0.063 C 
HETATM   18  C13 UNL     1      -4.438   1.021   1.536  1.00  0.00     0.045 C 
HETATM   19  C14 UNL     1      -5.138   1.539   0.310  1.00  0.00     0.010 C 
HETATM   20  C15 UNL     1      -4.386   1.270  -0.953  1.00  0.00     0.045 C 
HETATM   21  C16 UNL     1      -4.142  -0.219  -1.047  1.00  0.00     0.063 C 
ENDBRANCH  15  16
ENDBRANCH  13  15
ENDBRANCH   8  12
BRANCH   6  22
HETATM   22  O3  UNL     1       1.609  -4.614  -0.823  1.00  0.00    -0.361 OA
ATOM     23  H3  UNL     1       0.753  -4.995  -0.665  1.00  0.00     0.217 HD
ENDBRANCH   6  22
BRANCH   1  24
HETATM   24  C1  UNL     1       4.228   2.360   0.471  1.00  0.00     0.162 C 
HETATM   25  N1  UNL     1       3.713   2.438   1.633  1.00  0.00    -0.249 N 
ATOM     26  H1  UNL     1       2.896   1.868   1.851  1.00  0.00     0.196 HD
BRANCH  25  27
HETATM   27  O1  UNL     1       4.218   3.255   2.587  1.00  0.00    -0.288 OA
ATOM     28  H1  UNL     1       3.834   3.313   3.454  1.00  0.00     0.244 HD
ENDBRANCH  25  27
BRANCH  24  29
HETATM   29  O2  UNL     1       5.338   3.133   0.173  1.00  0.00    -0.346 OA
ATOM     30  H2  UNL     1       5.722   3.075  -0.694  1.00  0.00     0.219 HD
ENDBRANCH  24  29
ENDBRANCH   1  24
TORSDOF 7
