REMARK  6 active torsions:
REMARK  status: ('A' for Active; 'I' for Inactive)
REMARK    1  A    between atoms: C2_2  and  C3_3 
REMARK    2  A    between atoms: N1_4  and  O1_6 
REMARK    3  A    between atoms: O1_6  and  C4_7 
REMARK    4  A    between atoms: C15_20  and  O2_21 
REMARK    5  A    between atoms: O2_21  and  S1_22 
REMARK    6  A    between atoms: S1_22  and  N3_23 
ROOT
HETATM    1  C4  UNL     1      -6.476  -0.119   1.217  1.00  0.00     0.324 C 
HETATM    2  C5  UNL     1      -7.658   0.245   1.967  1.00  0.00     0.087 C 
HETATM    3  N2  UNL     1      -8.616   0.527   2.553  1.00  0.00    -0.195 NA
ENDROOT
BRANCH   1   4
HETATM    4  O1  UNL     1      -5.294   0.002   1.986  1.00  0.00    -0.267 OA
BRANCH   4   5
HETATM    5  N1  UNL     1      -4.066  -0.292   1.470  1.00  0.00    -0.280 N 
HETATM    6  C3  UNL     1      -3.926  -0.520   0.215  1.00  0.00     0.097 C 
ATOM      7  H1  UNL     1      -3.254  -0.331   2.086  1.00  0.00     0.193 HD
BRANCH   6   8
HETATM    8  C2  UNL     1      -2.586  -0.835  -0.312  1.00  0.00    -0.002 C 
HETATM    9  C1  UNL     1      -2.240  -2.246   0.052  1.00  0.00     0.021 C 
HETATM   10  C6  UNL     1      -2.633  -0.760  -1.845  1.00  0.00     0.016 C 
HETATM   11  C7  UNL     1      -1.292  -0.210  -2.286  1.00  0.00     0.007 C 
HETATM   12  C8  UNL     1      -0.487  -0.184  -1.059  1.00  0.00    -0.001 C 
HETATM   13  C9  UNL     1       0.575   0.864  -0.955  1.00  0.00    -0.005 C 
HETATM   14  C19 UNL     1      -1.543   0.170  -0.000  1.00  0.00    -0.028 C 
HETATM   15  C10 UNL     1       1.346   1.098  -2.194  1.00  0.00     0.006 C 
HETATM   16  C16 UNL     1       1.371   0.534   0.269  1.00  0.00     0.002 C 
HETATM   17  C11 UNL     1       2.788   0.727  -2.157  1.00  0.00     0.017 C 
HETATM   18  C12 UNL     1       2.864  -0.606  -1.398  1.00  0.00     0.069 C 
HETATM   19 BR1  UNL     1       4.507  -1.513  -1.677  1.00  0.00    -0.090 Br
HETATM   20  C13 UNL     1       2.619  -0.246   0.042  1.00  0.00     0.007 A 
HETATM   21  C14 UNL     1       3.055  -1.185   1.116  1.00  0.00     0.048 A 
HETATM   22  C15 UNL     1       3.800   0.071   0.909  1.00  0.00     0.155 A 
HETATM   23  C17 UNL     1       0.566  -0.200   1.307  1.00  0.00     0.007 C 
HETATM   24  C18 UNL     1      -0.889   0.111   1.315  1.00  0.00     0.011 C 
HETATM   25  C20 UNL     1      -2.118   1.548  -0.273  1.00  0.00     0.016 C 
BRANCH  22  26
HETATM   26  O2  UNL     1       5.086  -0.036   0.454  1.00  0.00    -0.253 OA
BRANCH  26  27
HETATM   27  S1  UNL     1       6.109   1.142   1.067  1.00  0.00     0.355 S 
HETATM   28  O3  UNL     1       7.137   1.455   0.016  1.00  0.00    -0.176 OA
HETATM   29  O4  UNL     1       5.296   2.337   1.435  1.00  0.00    -0.176 OA
BRANCH  27  30
HETATM   30  N3  UNL     1       6.947   0.598   2.470  1.00  0.00    -0.306 N 
ATOM     31  H32 UNL     1       6.824  -0.333   2.868  1.00  0.00     0.171 HD
ATOM     32  H31 UNL     1       7.569   1.315   2.843  1.00  0.00     0.171 HD
ENDBRANCH  27  30
ENDBRANCH  26  27
ENDBRANCH  22  26
ENDBRANCH   6   8
ENDBRANCH   4   5
ENDBRANCH   1   4
TORSDOF 6
