REMARK  7 active torsions:
REMARK  status: ('A' for Active; 'I' for Inactive)
REMARK    1  A    between atoms: N1_1  and  S1_4 
REMARK    2  A    between atoms: S1_4  and  C1_7 
REMARK    3  A    between atoms: C4_10  and  C5_11 
REMARK    4  A    between atoms: C6_12  and  C7_13 
REMARK    5  A    between atoms: C14_22  and  C15_23 
REMARK    6  A    between atoms: C18_26  and  C19_27 
REMARK    7  A    between atoms: C19_27  and  N2_28 
ROOT
HETATM    1  C5  UNL     1       0.887  -0.831  -0.033  1.00  0.00     0.123 A 
HETATM    2  C6  UNL     1       0.215   0.286  -0.123  1.00  0.00     0.123 A 
HETATM    3  O3  UNL     1      -1.145  -0.036  -0.133  1.00  0.00    -0.284 OA
HETATM    4  C13 UNL     1      -1.307  -1.407  -0.046  1.00  0.00     0.192 A 
HETATM    5  C14 UNL     1      -2.435  -2.112  -0.028  1.00  0.00     0.075 C 
HETATM    6  O6  UNL     1      -0.024  -1.906   0.017  1.00  0.00    -0.284 OA
ENDROOT
BRANCH   1   7
HETATM    7  C4  UNL     1       2.328  -1.054   0.012  1.00  0.00     0.001 A 
HETATM    8  C3  UNL     1       3.207  -0.449  -0.858  1.00  0.00     0.016 A 
HETATM    9  C2  UNL     1       4.580  -0.690  -0.766  1.00  0.00     0.026 A 
HETATM   10  C1  UNL     1       5.083  -1.533   0.190  1.00  0.00     0.079 A 
HETATM   11  C23 UNL     1       4.212  -2.139   1.061  1.00  0.00     0.026 A 
HETATM   12  C22 UNL     1       2.850  -1.894   0.963  1.00  0.00     0.016 A 
BRANCH  10  13
HETATM   13  S1  UNL     1       6.822  -1.857   0.293  1.00  0.00     0.256 S 
HETATM   14  O1  UNL     1       7.447  -2.023  -1.039  1.00  0.00    -0.201 OA
HETATM   15  O2  UNL     1       7.000  -3.108   1.145  1.00  0.00    -0.201 OA
BRANCH  13  16
HETATM   16  N1  UNL     1       7.533  -0.564   1.214  1.00  0.00    -0.324 N 
ATOM     17  H12 UNL     1       8.298   0.010   0.860  1.00  0.00     0.169 HD
ATOM     18  H11 UNL     1       7.102  -0.450   2.132  1.00  0.00     0.169 HD
ENDBRANCH  13  16
ENDBRANCH  10  13
ENDBRANCH   1   7
BRANCH   2  19
HETATM   19  C7  UNL     1       0.781   1.642  -0.199  1.00  0.00     0.001 A 
HETATM   20  C8  UNL     1       0.262   2.500  -1.139  1.00  0.00     0.016 A 
HETATM   21  C9  UNL     1       0.734   3.799  -1.257  1.00  0.00     0.024 A 
HETATM   22  C10 UNL     1       1.746   4.252  -0.417  1.00  0.00     0.034 A 
HETATM   23 CL1  UNL     1       2.338   5.900  -0.574  1.00  0.00    -0.084 Cl
HETATM   24  C11 UNL     1       2.273   3.398   0.530  1.00  0.00     0.024 A 
HETATM   25  C12 UNL     1       1.778   2.105   0.622  1.00  0.00     0.016 A 
ENDBRANCH   2  19
BRANCH   5  26
HETATM   26  C15 UNL     1      -3.703  -1.445  -0.101  1.00  0.00    -0.032 A 
HETATM   27  C16 UNL     1      -4.694  -1.924  -0.913  1.00  0.00     0.012 A 
HETATM   28  C17 UNL     1      -5.945  -1.270  -0.974  1.00  0.00     0.014 A 
HETATM   29  C18 UNL     1      -6.183  -0.163  -0.232  1.00  0.00    -0.015 A 
HETATM   30  C20 UNL     1      -5.157   0.294   0.580  1.00  0.00     0.014 A 
HETATM   31  C21 UNL     1      -3.943  -0.328   0.648  1.00  0.00     0.012 A 
BRANCH  29  32
HETATM   32  C19 UNL     1      -7.413   0.568  -0.255  1.00  0.00     0.178 C 
BRANCH  32  33
HETATM   33  N2  UNL     1      -8.419   0.346  -0.980  1.00  0.00    -0.127 N 
HETATM   34  O4  UNL     1      -8.568  -0.640  -1.908  1.00  0.00    -0.532 OA
HETATM   35  O5  UNL     1      -9.533   1.184  -0.851  1.00  0.00    -0.532 OA
ENDBRANCH  32  33
ENDBRANCH  29  32
ENDBRANCH   5  26
TORSDOF 7
