REMARK  6 active torsions:
REMARK  status: ('A' for Active; 'I' for Inactive)
REMARK    1  A    between atoms: C2_2  and  N1_3 
REMARK    2  A    between atoms: N1_3  and  C3_5 
REMARK    3  A    between atoms: C7_12  and  N3_13 
REMARK    4  A    between atoms: N4_18  and  C12_19 
REMARK    5  A    between atoms: C12_19  and  C13_20 
REMARK    6  A    between atoms: C13_20  and  N5_21 
ROOT
HETATM    1  N3  UNL     1      -3.165  -1.816  -0.179  1.00  0.00    -0.376 N 
HETATM    2  C8  UNL     1      -2.587  -1.538   1.139  1.00  0.00     0.130 C 
HETATM    3  C9  UNL     1      -1.814  -2.820   1.398  1.00  0.00     0.040 C 
HETATM    4  C10 UNL     1      -0.657  -2.480   2.283  1.00  0.00     0.038 C 
HETATM    5  C11 UNL     1       0.415  -1.921   1.349  1.00  0.00     0.274 C 
HETATM    6  N4  UNL     1      -0.074  -2.112   0.020  1.00  0.00     0.099 N 
HETATM    7  C24 UNL     1      -1.148  -3.033   0.050  1.00  0.00     0.246 C 
HETATM    8  C25 UNL     1      -2.306  -2.724  -0.881  1.00  0.00     0.159 C 
ENDROOT
BRANCH   1   9
HETATM    9  C7  UNL     1      -4.379  -1.219  -0.586  1.00  0.00     0.072 A 
HETATM   10  C6  UNL     1      -4.911  -1.517  -1.820  1.00  0.00     0.145 A 
HETATM   11  C5  UNL     1      -6.106  -0.936  -2.233  1.00  0.00     0.077 A 
HETATM   12  F1  UNL     1      -4.241  -2.391  -2.609  1.00  0.00    -0.204 F 
HETATM   13  C4  UNL     1      -6.769  -0.050  -1.400  1.00  0.00     0.072 A 
HETATM   14  N2  UNL     1      -7.907   0.660  -1.492  1.00  0.00    -0.320 N 
HETATM   15  C27 UNL     1      -6.260   0.271  -0.151  1.00  0.00     0.108 A 
HETATM   16  C3  UNL     1      -8.091   1.384  -0.356  1.00  0.00     0.225 A 
ATOM     17  H2  UNL     1      -8.538   0.656  -2.294  1.00  0.00     0.169 HD
HETATM   18  O2  UNL     1      -7.077   1.113   0.409  1.00  0.00    -0.277 OA
HETATM   19  C26 UNL     1      -5.075  -0.320   0.229  1.00  0.00     0.072 A 
BRANCH  16  20
HETATM   20  N1  UNL     1      -9.086   2.176  -0.111  1.00  0.00    -0.356 N 
ATOM     21  H1  UNL     1      -9.805   2.274  -0.828  1.00  0.00     0.163 HD
BRANCH  20  22
HETATM   22  C2  UNL     1      -9.243   2.921   1.098  1.00  0.00     0.118 C 
HETATM   23  C1  UNL     1      -8.702   4.316   0.884  1.00  0.00     0.026 C 
ENDBRANCH  20  22
ENDBRANCH  16  20
ENDBRANCH   1   9
BRANCH   6  24
HETATM   24  C12 UNL     1       0.979  -2.408  -0.893  1.00  0.00     0.317 C 
BRANCH  24  25
HETATM   25  C13 UNL     1       1.903  -1.310  -1.259  1.00  0.00     0.093 C 
BRANCH  25  26
HETATM   26  N5  UNL     1       2.679  -0.669  -0.286  1.00  0.00    -0.372 N 
HETATM   27  C14 UNL     1       3.748  -1.335   0.334  1.00  0.00     0.067 C 
HETATM   28  C15 UNL     1       5.136  -0.973  -0.016  1.00  0.00     0.095 C 
HETATM   29  C16 UNL     1       5.351   0.460  -0.450  1.00  0.00     0.118 C 
HETATM   30  C17 UNL     1       5.428   1.475   0.538  1.00  0.00    -0.145 C 
HETATM   31  O1  UNL     1       6.543   0.434  -1.254  1.00  0.00    -0.368 OA
HETATM   32  C22 UNL     1       4.236   0.659  -1.503  1.00  0.00     0.071 C 
HETATM   33  C18 UNL     1       5.807   2.524   1.409  1.00  0.00     0.083 C 
HETATM   34  C19 UNL     1       7.265   2.951   1.054  1.00  0.00     0.013 C 
HETATM   35  C20 UNL     1       7.660   2.465  -0.342  1.00  0.00     0.027 C 
HETATM   36  C21 UNL     1       7.628   1.058  -0.672  1.00  0.00     0.170 C 
HETATM   37  C23 UNL     1       2.965   0.697  -0.685  1.00  0.00     0.131 C 
ENDBRANCH  25  26
ENDBRANCH  24  25
ENDBRANCH   6  24
TORSDOF 6
