REMARK  6 active torsions:
REMARK  status: ('A' for Active; 'I' for Inactive)
REMARK    1  A    between atoms: C2_2  and  N1_3 
REMARK    2  A    between atoms: N1_3  and  C3_4 
REMARK       I    between atoms: N1_3  and  C9_10 
REMARK    3  A    between atoms: C3_4  and  C4_5 
REMARK       I    between atoms: C9_10  and  N2_12 
REMARK    4  A    between atoms: C10_14  and  C11_15 
REMARK    5  A    between atoms: C11_15  and  C12_17 
REMARK       I    between atoms: C12_17  and  N3_19 
REMARK    6  A    between atoms: N3_19  and  C13_21 
ROOT
HETATM    1  C11 UNL     1       0.132   0.245  -0.485  1.00  0.00     0.254 C 
HETATM    2  O2  UNL     1      -0.163  -0.303   0.601  1.00  0.00    -0.281 OA
ENDROOT
BRANCH   1   3
HETATM    3  C10 UNL     1      -0.928   0.773  -1.318  1.00  0.00     0.153 C 
HETATM    4  N2  UNL     1      -2.144   0.663  -0.917  1.00  0.00    -0.315 N 
HETATM    5  C9  UNL     1      -3.203   1.166  -1.703  1.00  0.00     0.322 C 
ATOM      6  H2  UNL     1      -2.345   0.210  -0.026  1.00  0.00     0.170 HD
HETATM    7  N1  UNL     1      -4.428   1.507  -1.094  1.00  0.00    -0.334 N 
HETATM    8  O1  UNL     1      -3.006   1.298  -2.953  1.00  0.00    -0.247 OA
BRANCH   7   9
HETATM    9  C2  UNL     1      -5.454   2.067  -1.981  1.00  0.00     0.123 C 
HETATM   10  C1  UNL     1      -5.358   3.559  -2.062  1.00  0.00     0.026 C 
ENDBRANCH   7   9
BRANCH   7  11
HETATM   11  C3  UNL     1      -4.711   1.307   0.306  1.00  0.00     0.132 C 
BRANCH  11  12
HETATM   12  C4  UNL     1      -5.386   0.005   0.519  1.00  0.00     0.004 C 
HETATM   13  C5  UNL     1      -5.711  -0.223   2.012  1.00  0.00     0.006 C 
HETATM   14  C6  UNL     1      -6.263  -1.644   1.934  1.00  0.00     0.000 C 
HETATM   15  C7  UNL     1      -5.429  -2.305   0.883  1.00  0.00     0.000 C 
HETATM   16  C8  UNL     1      -4.543  -1.218   0.277  1.00  0.00     0.006 C 
ENDBRANCH  11  12
ENDBRANCH   7  11
ENDBRANCH   1   3
BRANCH   1  17
HETATM   17  C12 UNL     1       1.528   0.339  -0.884  1.00  0.00     0.293 C 
HETATM   18  O3  UNL     1       1.873   0.882  -1.965  1.00  0.00    -0.264 OA
HETATM   19  N3  UNL     1       2.530  -0.186  -0.046  1.00  0.00    -0.349 N 
ATOM     20  H3  UNL     1       2.270  -0.628   0.836  1.00  0.00     0.163 HD
BRANCH  19  21
HETATM   21  C13 UNL     1       3.913  -0.105  -0.420  1.00  0.00     0.093 C 
HETATM   22  C14 UNL     1       4.643   0.742   0.628  1.00  0.00     0.009 C 
HETATM   23  C15 UNL     1       4.660   0.054   1.971  1.00  0.00     0.011 C 
HETATM   24  C19 UNL     1       6.043   0.941   0.125  1.00  0.00     0.011 C 
HETATM   25  C16 UNL     1       5.337  -1.291   1.840  1.00  0.00    -0.013 C 
HETATM   26  C17 UNL     1       6.747  -1.041   1.366  1.00  0.00     0.009 C 
HETATM   27  C22 UNL     1       4.612  -2.145   0.853  1.00  0.00     0.011 C 
HETATM   28  C18 UNL     1       6.726  -0.405   0.008  1.00  0.00    -0.013 C 
HETATM   29  C20 UNL     1       5.987  -1.276  -0.967  1.00  0.00     0.011 C 
HETATM   30  C21 UNL     1       4.568  -1.465  -0.481  1.00  0.00     0.009 C 
ENDBRANCH  19  21
ENDBRANCH   1  17
TORSDOF 6
