REMARK  5 active torsions:
REMARK  status: ('A' for Active; 'I' for Inactive)
REMARK    1  A    between atoms: C2_2  and  C4_4 
REMARK    2  A    between atoms: C4_4  and  C5_5 
REMARK    3  A    between atoms: C4_4  and  C19_24 
REMARK       I    between atoms: C5_5  and  N1_7 
REMARK    4  A    between atoms: C10_12  and  C11_13 
REMARK       I    between atoms: C11_13  and  N2_15 
REMARK    5  A    between atoms: N2_15  and  C12_17 
ROOT
HETATM    1  C5  UNL     1      -1.373  -0.668   0.336  1.00  0.00     0.225 C 
HETATM    2  O1  UNL     1      -1.096  -1.345   1.384  1.00  0.00    -0.273 OA
HETATM    3  N1  UNL     1      -0.761  -0.962  -0.888  1.00  0.00    -0.338 N 
HETATM    4  C6  UNL     1      -0.918  -0.302  -2.151  1.00  0.00     0.127 C 
HETATM    5  C7  UNL     1      -0.715  -1.382  -3.200  1.00  0.00     0.027 C 
HETATM    6  C8  UNL     1       0.027  -2.487  -2.532  1.00  0.00     0.015 C 
HETATM    7  C9  UNL     1      -0.703  -3.811  -2.622  1.00  0.00     0.012 C 
HETATM    8  C10 UNL     1       0.175  -2.040  -1.099  1.00  0.00     0.183 C 
ENDROOT
BRANCH   8   9
HETATM    9  C11 UNL     1       1.587  -1.651  -0.839  1.00  0.00     0.241 C 
HETATM   10  O2  UNL     1       2.434  -2.582  -1.057  1.00  0.00    -0.271 OA
HETATM   11  N2  UNL     1       1.994  -0.368  -0.389  1.00  0.00    -0.354 N 
ATOM     12  H2  UNL     1       1.307   0.367  -0.219  1.00  0.00     0.162 HD
BRANCH  11  13
HETATM   13  C12 UNL     1       3.384  -0.129  -0.180  1.00  0.00     0.089 C 
HETATM   14  C13 UNL     1       3.941   0.965  -1.105  1.00  0.00     0.030 C 
HETATM   15  C14 UNL     1       4.782   1.862  -0.250  1.00  0.00    -0.012 C 
HETATM   16  C15 UNL     1       3.846   2.782   0.498  1.00  0.00     0.005 C 
HETATM   17  C18 UNL     1       5.171   0.901   0.886  1.00  0.00     0.011 C 
HETATM   18  C16 UNL     1       3.047   1.764   1.328  1.00  0.00     0.007 C 
HETATM   19  C17 UNL     1       3.727   0.446   1.174  1.00  0.00     0.009 C 
ENDBRANCH  11  13
ENDBRANCH   8   9
BRANCH   1  20
HETATM   20  C4  UNL     1      -2.385   0.434   0.527  1.00  0.00     0.085 C 
BRANCH  20  21
HETATM   21  C2  UNL     1      -2.302   0.862   1.957  1.00  0.00    -0.009 C 
HETATM   22  C1  UNL     1      -3.210   1.960   2.379  1.00  0.00     0.010 C 
HETATM   23  C3  UNL     1      -0.870   1.370   2.157  1.00  0.00     0.010 C 
ENDBRANCH  20  21
BRANCH  20  24
HETATM   24  C19 UNL     1      -3.698  -0.168   0.125  1.00  0.00    -0.009 C 
HETATM   25  C20 UNL     1      -4.898   0.723   0.265  1.00  0.00     0.010 C 
HETATM   26  C21 UNL     1      -3.991  -1.464   0.846  1.00  0.00     0.010 C 
ENDBRANCH  20  24
ENDBRANCH   1  20
TORSDOF 5
