REMARK  0 active torsions:
REMARK  status: ('A' for Active; 'I' for Inactive)
ROOT
HETATM    1  C1  UNL     1      -4.342  -0.762   0.252  1.00  0.00     0.015 C 
HETATM    2  C2  UNL     1      -3.132  -0.453  -0.135  1.00  0.00    -0.081 C 
HETATM    3  C3  UNL     1      -2.677  -0.213  -1.515  1.00  0.00     0.034 C 
HETATM    4  C4  UNL     1      -1.477   0.720  -1.373  1.00  0.00     0.010 C 
HETATM    5  C5  UNL     1      -1.254   0.878   0.072  1.00  0.00     0.002 C 
HETATM    6  C6  UNL     1       0.145   1.049   0.555  1.00  0.00    -0.004 C 
HETATM    7  C7  UNL     1       0.864   2.163  -0.137  1.00  0.00     0.005 C 
HETATM    8  C8  UNL     1       1.833   1.822  -1.180  1.00  0.00     0.002 C 
HETATM    9  C9  UNL     1       2.351   0.430  -1.210  1.00  0.00     0.021 C 
HETATM   10  C10 UNL     1       2.320  -0.143   0.174  1.00  0.00     0.013 C 
HETATM   11  C11 UNL     1       3.084  -1.417   0.266  1.00  0.00     0.031 C 
HETATM   12  C12 UNL     1       4.401  -0.711   0.599  1.00  0.00     0.076 C 
HETATM   13  S1  UNL     1       3.486   0.741   1.245  1.00  0.00    -0.159 SA
HETATM   14  C13 UNL     1       0.922  -0.204   0.747  1.00  0.00     0.009 C 
HETATM   15  C14 UNL     1       0.213  -1.442   0.208  1.00  0.00     0.007 C 
HETATM   16  C15 UNL     1      -1.178  -1.554   0.733  1.00  0.00     0.014 C 
HETATM   17  C16 UNL     1      -1.954  -0.276   0.737  1.00  0.00    -0.017 C 
HETATM   18  C17 UNL     1      -2.363   0.127   2.152  1.00  0.00     0.020 C 
ENDROOT
TORSDOF 0
