REMARK  9 active torsions:
REMARK  status: ('A' for Active; 'I' for Inactive)
REMARK    1  A    between atoms: C2_2  and  N1_3 
REMARK    2  A    between atoms: N1_3  and  C3_4 
REMARK       I    between atoms: N1_3  and  C21_30 
REMARK    3  A    between atoms: C3_4  and  C4_5 
REMARK    4  A    between atoms: C8_11  and  O1_12 
REMARK    5  A    between atoms: O1_12  and  C9_13 
REMARK    6  A    between atoms: C9_13  and  C10_14 
REMARK    7  A    between atoms: C21_30  and  C22_32 
REMARK    8  A    between atoms: C25_35  and  O4_36 
REMARK    9  A    between atoms: C25_35  and  C26_38 
ROOT
HETATM    1  C4  UNL     1       1.373  -0.840  -0.423  1.00  0.00     0.147 C 
HETATM    2  C5  UNL     1       1.248   0.394   0.329  1.00  0.00     0.040 C 
HETATM    3  C6  UNL     1       2.290   0.713   1.379  1.00  0.00     0.061 C 
HETATM    4  C7  UNL     1       3.647   0.882   0.859  1.00  0.00     0.025 A 
HETATM    5  N2  UNL     1       4.529   0.736   1.828  1.00  0.00    -0.325 N 
ATOM      6  H2  UNL     1       4.208   0.568   2.781  1.00  0.00     0.169 HD
HETATM    7  C8  UNL     1       5.870   0.808   1.568  1.00  0.00     0.223 A 
HETATM    8  N3  UNL     1       6.290   1.029   0.313  1.00  0.00    -0.331 N 
ATOM      9  H3  UNL     1       7.295   1.078   0.147  1.00  0.00     0.168 HD
HETATM   10  C13 UNL     1       5.467   1.190  -0.742  1.00  0.00     0.106 A 
HETATM   11  C14 UNL     1       4.141   1.112  -0.432  1.00  0.00     0.018 A 
HETATM   12  C15 UNL     1       3.472   1.302  -1.700  1.00  0.00     0.052 A 
HETATM   13  C16 UNL     1       4.015   2.409  -2.229  1.00  0.00     0.130 A 
HETATM   14  F1  UNL     1       4.876   3.289  -1.712  1.00  0.00    -0.205 F 
HETATM   15  C17 UNL     1       3.525   2.733  -3.513  1.00  0.00     0.046 A 
HETATM   16  C18 UNL     1       2.572   1.973  -4.149  1.00  0.00     0.048 A 
HETATM   17  C19 UNL     1       2.048   0.827  -3.524  1.00  0.00     0.150 A 
HETATM   18  F2  UNL     1       1.111   0.046  -4.102  1.00  0.00    -0.203 F 
HETATM   19  C20 UNL     1       2.499   0.505  -2.312  1.00  0.00     0.122 A 
HETATM   20  O2  UNL     1       1.885  -0.654  -1.796  1.00  0.00    -0.340 OA
ENDROOT
BRANCH   1  21
HETATM   21  C3  UNL     1       0.105  -1.599  -0.636  1.00  0.00     0.158 C 
BRANCH  21  22
HETATM   22  N1  UNL     1      -0.701  -1.910   0.481  1.00  0.00    -0.350 N 
HETATM   23  C21 UNL     1      -1.844  -1.198   0.895  1.00  0.00     0.224 C 
HETATM   24  O3  UNL     1      -2.309  -1.553   2.047  1.00  0.00    -0.273 OA
BRANCH  22  25
HETATM   25  C2  UNL     1      -0.246  -3.044   1.334  1.00  0.00     0.121 C 
HETATM   26  C1  UNL     1      -0.955  -4.299   0.828  1.00  0.00     0.026 C 
ENDBRANCH  22  25
BRANCH  23  27
HETATM   27  C22 UNL     1      -2.539  -0.124   0.151  1.00  0.00     0.078 C 
HETATM   28  C23 UNL     1      -3.672   0.386   1.056  1.00  0.00     0.017 C 
HETATM   29  C24 UNL     1      -4.788  -0.621   0.977  1.00  0.00     0.039 C 
HETATM   30  C25 UNL     1      -5.592  -0.255  -0.282  1.00  0.00     0.061 C 
HETATM   31  C31 UNL     1      -4.578   0.121  -1.315  1.00  0.00     0.039 C 
HETATM   32  C32 UNL     1      -3.256  -0.634  -1.098  1.00  0.00     0.017 C 
BRANCH  30  33
HETATM   33  O4  UNL     1      -6.326  -1.346  -0.743  1.00  0.00    -0.389 OA
ATOM     34  H4  UNL     1      -6.823  -1.120  -1.521  1.00  0.00     0.210 HD
ENDBRANCH  30  33
BRANCH  30  35
HETATM   35  C26 UNL     1      -6.504   0.874   0.093  1.00  0.00     0.020 C 
HETATM   36  C27 UNL     1      -7.451   0.503   1.205  1.00  0.00     0.007 C 
HETATM   37  C28 UNL     1      -8.717   1.295   0.970  1.00  0.00     0.000 C 
HETATM   38  C29 UNL     1      -8.455   2.120  -0.282  1.00  0.00     0.000 C 
HETATM   39  C30 UNL     1      -7.463   1.232  -1.023  1.00  0.00     0.007 C 
ENDBRANCH  30  35
ENDBRANCH  23  27
ENDBRANCH  21  22
ENDBRANCH   1  21
BRANCH   7  40
HETATM   40  O1  UNL     1       6.744   0.651   2.622  1.00  0.00    -0.322 OA
BRANCH  40  41
HETATM   41  C9  UNL     1       8.132   0.709   2.437  1.00  0.00     0.183 C 
BRANCH  41  42
HETATM   42  C10 UNL     1       8.698  -0.345   1.533  1.00  0.00     0.010 A 
HETATM   43  C11 UNL     1      10.188  -0.353   1.272  1.00  0.00     0.007 A 
HETATM   44  C12 UNL     1       9.614  -1.315   2.217  1.00  0.00     0.007 A 
ENDBRANCH  41  42
ENDBRANCH  40  41
ENDBRANCH   7  40
TORSDOF 9
