REMARK  7 active torsions:
REMARK  status: ('A' for Active; 'I' for Inactive)
REMARK    1  A    between atoms: N2_15  and  C13_16 
REMARK    2  A    between atoms: C13_16  and  C14_17 
REMARK    3  A    between atoms: C15_20  and  C16_21 
REMARK    4  A    between atoms: C16_21  and  N3_22 
REMARK    5  A    between atoms: C21_30  and  C22_31 
REMARK    6  A    between atoms: C22_31  and  C23_32 
REMARK    7  A    between atoms: C23_32  and  O3_33 
ROOT
HETATM    1  C1  UNL     1      -4.822   0.491   0.760  1.00  0.00     0.021 C 
HETATM    2  C2  UNL     1      -4.072   0.866  -0.464  1.00  0.00    -0.004 C 
HETATM    3  C3  UNL     1      -4.588   2.192  -0.947  1.00  0.00     0.021 C 
HETATM    4  C4  UNL     1      -4.211  -0.131  -1.623  1.00  0.00     0.016 C 
HETATM    5  C5  UNL     1      -3.809  -1.397  -1.008  1.00  0.00     0.015 C 
HETATM    6  C6  UNL     1      -2.282  -1.570  -0.782  1.00  0.00    -0.016 C 
HETATM    7  C7  UNL     1      -1.927  -2.023  -2.188  1.00  0.00     0.020 C 
HETATM    8  C8  UNL     1      -2.354  -2.659   0.245  1.00  0.00     0.020 C 
HETATM    9  C9  UNL     1      -1.776  -0.273  -0.381  1.00  0.00     0.002 A 
HETATM   10  C10 UNL     1      -2.611   0.856  -0.219  1.00  0.00     0.027 A 
HETATM   11  N1  UNL     1      -1.889   1.914   0.168  1.00  0.00    -0.358 N 
ATOM     12  H1  UNL     1      -2.258   2.847   0.353  1.00  0.00     0.165 HD
HETATM   13  C11 UNL     1      -0.606   1.551   0.273  1.00  0.00     0.059 A 
HETATM   14  C12 UNL     1      -0.519   0.199  -0.064  1.00  0.00     0.066 A 
HETATM   15  N2  UNL     1       0.815  -0.389  -0.006  1.00  0.00    -0.346 N 
HETATM   16  C15 UNL     1       1.931   0.514  -0.046  1.00  0.00     0.209 C 
HETATM   17  N4  UNL     1       1.659   1.903  -0.111  1.00  0.00    -0.390 N 
ATOM     18  H4  UNL     1       2.215   2.529  -0.694  1.00  0.00     0.156 HD
HETATM   19  C21 UNL     1       0.594   2.376   0.660  1.00  0.00     0.133 C 
ENDROOT
BRANCH  16  20
HETATM   20  C16 UNL     1       3.058   0.246  -0.985  1.00  0.00     0.318 C 
BRANCH  20  21
HETATM   21  N3  UNL     1       3.863  -0.902  -0.841  1.00  0.00     0.093 N 
HETATM   22  C17 UNL     1       4.720  -0.876   0.329  1.00  0.00     0.274 C 
HETATM   23  C18 UNL     1       6.054  -1.382  -0.150  1.00  0.00     0.052 C 
HETATM   24  C19 UNL     1       6.116  -0.845  -1.563  1.00  0.00     0.112 C 
HETATM   25 CL1  UNL     1       6.515   0.876  -1.586  1.00  0.00    -0.123 Cl
HETATM   26  C20 UNL     1       4.674  -1.076  -2.004  1.00  0.00     0.292 C 
ENDBRANCH  20  21
ENDBRANCH  16  20
BRANCH  15  27
HETATM   27  C13 UNL     1       0.906  -1.791   0.143  1.00  0.00     0.238 C 
BRANCH  27  28
HETATM   28  C14 UNL     1       1.308  -2.273   1.500  1.00  0.00     0.191 C 
HETATM   29  O1  UNL     1       1.424  -3.514   1.629  1.00  0.00    -0.647 OA
HETATM   30  O2  UNL     1       1.519  -1.347   2.488  1.00  0.00    -0.647 OA
ENDBRANCH  27  28
ENDBRANCH  15  27
BRANCH  19  31
HETATM   31  C22 UNL     1       0.772   2.429   2.140  1.00  0.00     0.057 C 
BRANCH  31  32
HETATM   32  C23 UNL     1      -0.443   3.048   2.817  1.00  0.00     0.166 C 
BRANCH  32  33
HETATM   33  O3  UNL     1      -0.260   3.095   4.199  1.00  0.00    -0.401 OA
ATOM     34  H3  UNL     1      -1.018   3.481   4.621  1.00  0.00     0.209 HD
ENDBRANCH  32  33
ENDBRANCH  31  32
ENDBRANCH  19  31
TORSDOF 7
