REMARK  9 active torsions:
REMARK  status: ('A' for Active; 'I' for Inactive)
REMARK    1  A    between atoms: O1_2  and  C2_3 
REMARK    2  A    between atoms: C4_5  and  O2_6 
REMARK    3  A    between atoms: O2_6  and  C5_7 
REMARK    4  A    between atoms: C8_12  and  C9_13 
REMARK    5  A    between atoms: C12_18  and  N3_19 
REMARK    6  A    between atoms: C13_24  and  N5_25 
REMARK    7  A    between atoms: N5_25  and  C14_26 
REMARK    8  A    between atoms: C21_33  and  N6_34 
REMARK    9  A    between atoms: C23_38  and  O5_39 
ROOT
HETATM    1  C5  UNL     1       1.527  -1.522  -0.302  1.00  0.00     0.103 A 
HETATM    2  C6  UNL     1       2.323  -2.571  -0.791  1.00  0.00     0.125 A 
HETATM    3  N1  UNL     1       1.498  -3.487  -1.297  1.00  0.00    -0.372 N 
ATOM      4  H1  UNL     1       1.786  -4.366  -1.727  1.00  0.00     0.164 HD
HETATM    5  C7  UNL     1       0.207  -3.066  -1.151  1.00  0.00     0.102 A 
HETATM    6  C8  UNL     1       0.223  -1.844  -0.532  1.00  0.00     0.025 A 
ENDROOT
BRANCH   6   7
HETATM    7  C9  UNL     1      -0.959  -1.071  -0.186  1.00  0.00    -0.014 A 
HETATM    8  C10 UNL     1      -1.140  -0.600   1.107  1.00  0.00     0.044 A 
HETATM    9  C11 UNL     1      -2.241   0.103   1.501  1.00  0.00     0.065 A 
HETATM   10  N2  UNL     1      -2.419   0.554   2.763  1.00  0.00    -0.191 N 
HETATM   11  C17 UNL     1      -3.249   0.377   0.581  1.00  0.00     0.050 A 
HETATM   12  C12 UNL     1      -3.503   1.238   3.156  1.00  0.00     0.678 A 
ATOM     13  H2  UNL     1      -1.691   0.364   3.452  1.00  0.00     0.184 HD
HETATM   14  N4  UNL     1      -4.457   1.487   2.254  1.00  0.00    -0.164 N 
HETATM   15  C13 UNL     1      -4.376   1.074   0.942  1.00  0.00     0.200 A 
ATOM     16  H4  UNL     1      -5.283   2.007   2.550  1.00  0.00     0.187 HD
HETATM   17  C18 UNL     1      -3.062  -0.096  -0.710  1.00  0.00     0.026 A 
HETATM   18  C19 UNL     1      -1.948  -0.804  -1.097  1.00  0.00    -0.050 A 
HETATM   19  C20 UNL     1      -1.802  -1.266  -2.497  1.00  0.00     0.049 C 
BRANCH  12  20
HETATM   20  N3  UNL     1      -3.606   1.638   4.380  1.00  0.00    -0.234 N 
ATOM     21  H32 UNL     1      -2.878   1.448   5.068  1.00  0.00     0.174 HD
ATOM     22  H31 UNL     1      -4.431   2.158   4.679  1.00  0.00     0.174 HD
ENDBRANCH  12  20
BRANCH  15  23
HETATM   23  N5  UNL     1      -5.290   1.348   0.209  1.00  0.00    -0.424 NA
BRANCH  23  24
HETATM   24  C14 UNL     1      -6.062   1.444  -0.889  1.00  0.00     0.157 C 
HETATM   25  C15 UNL     1      -6.900   0.159  -1.064  1.00  0.00     0.047 C 
HETATM   26  C16 UNL     1      -7.094   2.601  -0.849  1.00  0.00     0.047 C 
ENDBRANCH  23  24
ENDBRANCH  15  23
ENDBRANCH   6   7
BRANCH   1  27
HETATM   27  O2  UNL     1       2.000  -0.337   0.319  1.00  0.00    -0.306 OA
BRANCH  27  28
HETATM   28  C4  UNL     1       3.349  -0.192   0.562  1.00  0.00     0.112 A 
HETATM   29  C3  UNL     1       4.005   0.663  -0.363  1.00  0.00     0.079 A 
HETATM   30  C2  UNL     1       5.349   0.873  -0.221  1.00  0.00     0.104 A 
HETATM   31  C23 UNL     1       6.026   0.240   0.828  1.00  0.00     0.104 A 
HETATM   32  C22 UNL     1       5.381  -0.577   1.712  1.00  0.00     0.078 A 
HETATM   33  C21 UNL     1       3.989  -0.803   1.580  1.00  0.00     0.139 A 
BRANCH  30  34
HETATM   34  O1  UNL     1       6.101   1.672  -1.045  1.00  0.00    -0.353 OA
HETATM   35  C1  UNL     1       5.610   2.392  -2.117  1.00  0.00     0.210 C 
ENDBRANCH  30  34
BRANCH  31  36
HETATM   36  O5  UNL     1       7.385   0.471   0.940  1.00  0.00    -0.353 OA
HETATM   37  C24 UNL     1       8.104  -0.148   1.982  1.00  0.00     0.210 C 
ENDBRANCH  31  36
BRANCH  33  38
HETATM   38  N6  UNL     1       3.354  -1.558   2.583  1.00  0.00    -0.113 N 
HETATM   39  O3  UNL     1       3.943  -1.491   3.735  1.00  0.00    -0.532 OA
HETATM   40  O4  UNL     1       2.243  -2.321   2.547  1.00  0.00    -0.532 OA
ENDBRANCH  33  38
ENDBRANCH  27  28
ENDBRANCH   1  27
TORSDOF 9
