REMARK  10 active torsions:
REMARK  status: ('A' for Active; 'I' for Inactive)
REMARK    1  A    between atoms: O1_1  and  N1_3 
REMARK    2  A    between atoms: C1_5  and  O2_6 
REMARK    3  A    between atoms: C1_5  and  C2_8 
REMARK    4  A    between atoms: C2_8  and  C3_9 
REMARK    5  A    between atoms: C3_9  and  C4_10 
REMARK    6  A    between atoms: C3_9  and  C10_20 
REMARK    7  A    between atoms: C4_10  and  C5_11 
REMARK    8  A    between atoms: C5_11  and  O3_12 
REMARK    9  A    between atoms: C5_11  and  C6_14 
REMARK   10  A    between atoms: C8_16  and  O4_17 
ROOT
HETATM    1  C3  UNL     1      -0.890   1.285   0.181  1.00  0.00     0.025 C 
ENDROOT
BRANCH   1   2
HETATM    2  C2  UNL     1      -0.630   2.799   0.010  1.00  0.00     0.093 C 
BRANCH   2   3
HETATM    3  C1  UNL     1      -0.011   3.235  -1.204  1.00  0.00     0.135 C 
HETATM    4  N1  UNL     1       1.109   3.929  -1.165  1.00  0.00    -0.251 N 
ATOM      5  H1  UNL     1       1.528   4.227  -2.046  1.00  0.00     0.196 HD
BRANCH   4   6
HETATM    6  O1  UNL     1       1.733   4.267   0.001  1.00  0.00    -0.288 OA
ATOM      7  H1  UNL     1       2.540   4.767   0.029  1.00  0.00     0.244 HD
ENDBRANCH   4   6
BRANCH   3   8
HETATM    8  O2  UNL     1      -0.469   3.007  -2.487  1.00  0.00    -0.348 OA
ATOM      9  H2  UNL     1      -1.276   2.507  -2.515  1.00  0.00     0.219 HD
ENDBRANCH   3   8
ENDBRANCH   2   3
ENDBRANCH   1   2
BRANCH   1  10
HETATM   10  C4  UNL     1      -1.791   0.783  -0.863  1.00  0.00     0.039 C 
BRANCH  10  11
HETATM   11  C5  UNL     1      -2.204  -0.662  -0.826  1.00  0.00     0.122 C 
BRANCH  11  12
HETATM   12  O3  UNL     1      -3.065  -0.844  -1.947  1.00  0.00    -0.395 OA
ATOM     13  H3  UNL     1      -3.326  -1.757  -1.924  1.00  0.00     0.210 HD
ENDBRANCH  11  12
BRANCH  11  14
HETATM   14  C6  UNL     1      -3.131  -0.932   0.371  1.00  0.00     0.019 C 
HETATM   15  C7  UNL     1      -3.508  -2.409   0.346  1.00  0.00     0.039 C 
HETATM   16  C8  UNL     1      -4.934  -2.000   0.614  1.00  0.00     0.119 C 
HETATM   17  C9  UNL     1      -4.565  -0.608   0.110  1.00  0.00     0.039 C 
BRANCH  16  18
HETATM   18  O4  UNL     1      -5.848  -2.649  -0.235  1.00  0.00    -0.396 OA
ATOM     19  H4  UNL     1      -6.747  -2.391  -0.066  1.00  0.00     0.210 HD
ENDBRANCH  16  18
ENDBRANCH  11  14
ENDBRANCH  10  11
ENDBRANCH   1  10
BRANCH   1  20
HETATM   20  C10 UNL     1       0.421   0.671   0.415  1.00  0.00     0.127 C 
HETATM   21  C11 UNL     1       0.608  -0.752   0.647  1.00  0.00     0.044 C 
HETATM   22  C12 UNL     1       1.900  -0.827   1.485  1.00  0.00     0.051 C 
HETATM   23  C13 UNL     1       3.054  -1.268   0.697  1.00  0.00    -0.043 A 
HETATM   24  C20 UNL     1       2.147   0.592   1.818  1.00  0.00     0.135 C 
HETATM   25  C14 UNL     1       3.459  -2.527   0.234  1.00  0.00     0.009 A 
HETATM   26  C18 UNL     1       3.872  -0.211   0.374  1.00  0.00    -0.026 A 
HETATM   27  C15 UNL     1       4.615  -2.671  -0.501  1.00  0.00     0.021 A 
HETATM   28  C16 UNL     1       5.422  -1.603  -0.815  1.00  0.00     0.033 A 
HETATM   29 BR1  UNL     1       7.019  -1.843  -1.838  1.00  0.00    -0.049 Br
HETATM   30  C17 UNL     1       5.030  -0.359  -0.363  1.00  0.00     0.058 A 
HETATM   31 CL1  UNL     1       6.042   1.035  -0.747  1.00  0.00    -0.082 Cl
HETATM   32  C19 UNL     1       3.290   1.010   0.936  1.00  0.00     0.073 C 
HETATM   33  O5  UNL     1       1.031   1.354   1.482  1.00  0.00    -0.379 OA
ENDBRANCH   1  20
TORSDOF 10
