REMARK  8 active torsions:
REMARK  status: ('A' for Active; 'I' for Inactive)
REMARK    1  A    between atoms: O1_2  and  C2_3 
REMARK    2  A    between atoms: C7_8  and  O2_9 
REMARK    3  A    between atoms: C11_16  and  O3_17 
REMARK    4  A    between atoms: O3_17  and  C12_18 
REMARK    5  A    between atoms: C12_18  and  C13_19 
REMARK    6  A    between atoms: C13_19  and  C14_20 
REMARK    7  A    between atoms: C14_20  and  N2_21 
REMARK    8  A    between atoms: C24_35  and  O4_36 
ROOT
HETATM    1  C2  UNL     1      -1.027  -2.969   2.716  1.00  0.00     0.102 A 
HETATM    2  C3  UNL     1      -1.871  -2.066   2.107  1.00  0.00     0.052 A 
HETATM    3  C4  UNL     1      -1.410  -1.114   1.192  1.00  0.00    -0.013 A 
HETATM    4  C5  UNL     1      -0.090  -1.050   0.869  1.00  0.00    -0.011 A 
HETATM    5  C6  UNL     1       0.765  -1.974   1.495  1.00  0.00     0.050 A 
HETATM    6  C7  UNL     1       0.314  -2.912   2.396  1.00  0.00     0.099 A 
HETATM    7  C8  UNL     1       0.170   0.030  -0.111  1.00  0.00     0.086 A 
HETATM    8  N1  UNL     1       0.951   1.008   0.544  1.00  0.00    -0.398 N 
ATOM      9  H1  UNL     1       0.689   1.298   1.486  1.00  0.00     0.155 HD
HETATM   10  C9  UNL     1       2.068   1.590  -0.054  1.00  0.00     0.103 C 
HETATM   11  C10 UNL     1       1.840   3.003  -0.576  1.00  0.00     0.034 C 
HETATM   12  C11 UNL     1       2.813   0.801  -1.081  1.00  0.00     0.143 C 
HETATM   13  C15 UNL     1       1.792   0.238  -2.039  1.00  0.00     0.041 C 
HETATM   14  C16 UNL     1       0.755  -0.581  -1.353  1.00  0.00     0.021 C 
HETATM   15  C17 UNL     1      -0.321  -0.921  -2.373  1.00  0.00     0.013 C 
HETATM   16  C18 UNL     1      -1.173   0.610  -0.351  1.00  0.00    -0.013 A 
HETATM   17  C19 UNL     1      -1.626   1.643  -1.161  1.00  0.00     0.023 A 
HETATM   18  C20 UNL     1      -2.956   1.959  -1.172  1.00  0.00    -0.020 A 
HETATM   19  C21 UNL     1      -3.432   2.976  -1.963  1.00  0.00     0.054 A 
HETATM   20  C22 UNL     1      -4.764   3.281  -1.963  1.00  0.00     0.119 A 
HETATM   21  F1  UNL     1      -5.233   4.296  -2.755  1.00  0.00    -0.206 F 
HETATM   22  C23 UNL     1      -5.690   2.606  -1.191  1.00  0.00     0.079 A 
HETATM   23  C24 UNL     1      -5.228   1.586  -0.394  1.00  0.00     0.082 A 
HETATM   24  C26 UNL     1      -3.877   1.267  -0.385  1.00  0.00     0.009 A 
HETATM   25  C27 UNL     1      -3.455   0.244   0.423  1.00  0.00     0.028 A 
HETATM   26  C28 UNL     1      -2.080  -0.060   0.413  1.00  0.00    -0.015 A 
ENDROOT
BRANCH   6  27
HETATM   27  O2  UNL     1       1.250  -3.783   2.958  1.00  0.00    -0.358 OA
ATOM     28  H2  UNL     1       2.173  -3.744   2.738  1.00  0.00     0.217 HD
ENDBRANCH   6  27
BRANCH  12  29
HETATM   29  O3  UNL     1       3.608  -0.183  -0.525  1.00  0.00    -0.384 OA
BRANCH  29  30
HETATM   30  C12 UNL     1       4.950   0.004  -0.861  1.00  0.00     0.170 C 
BRANCH  30  31
HETATM   31  C13 UNL     1       5.759  -1.116  -0.213  1.00  0.00     0.053 C 
BRANCH  31  32
HETATM   32  C14 UNL     1       7.191  -0.900  -0.584  1.00  0.00     0.231 C 
BRANCH  32  33
HETATM   33  N2  UNL     1       7.592   0.407  -0.075  1.00  0.00    -0.079 N 
ATOM     34  H23 UNL     1       6.983   1.160  -0.395  1.00  0.00     0.274 HD
ATOM     35  H22 UNL     1       7.423   0.511   0.925  1.00  0.00     0.274 HD
ATOM     36  H21 UNL     1       8.569   0.554  -0.328  1.00  0.00     0.274 HD
ENDBRANCH  32  33
ENDBRANCH  31  32
ENDBRANCH  30  31
ENDBRANCH  29  30
ENDBRANCH  12  29
BRANCH   1  37
HETATM   37  O1  UNL     1      -1.453  -3.919   3.623  1.00  0.00    -0.353 OA
HETATM   38  C1  UNL     1      -2.791  -4.076   4.029  1.00  0.00     0.210 C 
ENDBRANCH   1  37
BRANCH  23  39
HETATM   39  O4  UNL     1      -6.108   0.886   0.392  1.00  0.00    -0.355 OA
HETATM   40  C25 UNL     1      -7.488   1.195   0.397  1.00  0.00     0.210 C 
ENDBRANCH  23  39
TORSDOF 8
