REMARK  12 active torsions:
REMARK  status: ('A' for Active; 'I' for Inactive)
REMARK    1  A    between atoms: C2_2  and  C3_3 
REMARK    2  A    between atoms: C3_3  and  O1_4 
REMARK    3  A    between atoms: C4_6  and  O2_7 
REMARK    4  A    between atoms: C17_21  and  O3_22 
REMARK    5  A    between atoms: C17_21  and  C18_24 
REMARK    6  A    between atoms: C18_24  and  C19_25 
REMARK    7  A    between atoms: C19_25  and  C21_27 
REMARK    8  A    between atoms: C21_27  and  C22_28 
REMARK    9  A    between atoms: C22_28  and  O4_29 
REMARK   10  A    between atoms: C22_28  and  C23_31 
REMARK   11  A    between atoms: C23_31  and  N1_33 
REMARK   12  A    between atoms: C27_36  and  O5_37 
ROOT
HETATM    1  C3  UNL     1      -5.872   0.437   1.074  1.00  0.00     0.088 C 
HETATM    2  C4  UNL     1      -7.004  -0.361   0.517  1.00  0.00     0.153 C 
HETATM    3  C5  UNL     1      -6.957  -0.522  -0.969  1.00  0.00     0.036 C 
HETATM    4  C6  UNL     1      -5.762   0.169  -1.518  1.00  0.00     0.016 C 
HETATM    5  C7  UNL     1      -4.450  -0.295  -0.898  1.00  0.00    -0.020 C 
HETATM    6  C8  UNL     1      -4.545  -1.807  -1.040  1.00  0.00     0.020 C 
HETATM    7  C9  UNL     1      -3.268   0.207  -1.651  1.00  0.00    -0.020 C 
HETATM    8  C10 UNL     1      -2.276   1.101  -1.121  1.00  0.00    -0.017 C 
HETATM    9  C11 UNL     1      -1.136   0.853  -0.284  1.00  0.00     0.010 C 
HETATM   10  C12 UNL     1      -0.699   2.211   0.266  1.00  0.00     0.023 C 
HETATM   11  C13 UNL     1      -1.222   0.022   0.961  1.00  0.00     0.019 C 
HETATM   12  C14 UNL     1      -0.820  -1.316   0.428  1.00  0.00     0.014 C 
HETATM   13  C15 UNL     1       0.483  -0.872  -0.284  1.00  0.00     0.017 C 
HETATM   14  C16 UNL     1       0.992  -2.054  -1.070  1.00  0.00     0.013 C 
HETATM   15  C17 UNL     1       0.117   0.309  -1.018  1.00  0.00     0.072 C 
HETATM   16  C30 UNL     1      -2.405   0.084   1.796  1.00  0.00     0.088 C 
HETATM   17 CL1  UNL     1      -2.048  -0.440   3.462  1.00  0.00    -0.125 Cl
HETATM   18  C31 UNL     1      -3.607  -0.698   1.324  1.00  0.00     0.029 C 
HETATM   19  C32 UNL     1      -4.523   0.163   0.531  1.00  0.00     0.036 C 
ENDROOT
BRANCH  15  20
HETATM   20  O3  UNL     1      -0.361  -0.138  -2.305  1.00  0.00    -0.388 OA
ATOM     21  H3  UNL     1       0.407  -0.471  -2.755  1.00  0.00     0.210 HD
ENDBRANCH  15  20
BRANCH  15  22
HETATM   22  C18 UNL     1       1.050   1.376  -1.362  1.00  0.00     0.043 C 
BRANCH  22  23
HETATM   23  C19 UNL     1       2.356   1.135  -2.027  1.00  0.00    -0.013 C 
HETATM   24  C20 UNL     1       2.961   2.577  -2.354  1.00  0.00     0.010 C 
BRANCH  23  25
HETATM   25  C21 UNL     1       3.436   0.560  -1.076  1.00  0.00     0.038 C 
BRANCH  25  26
HETATM   26  C22 UNL     1       4.716   0.346  -1.869  1.00  0.00     0.140 C 
BRANCH  26  27
HETATM   27  O4  UNL     1       4.277  -0.572  -2.892  1.00  0.00    -0.394 OA
ATOM     28  H4  UNL     1       5.077  -0.706  -3.387  1.00  0.00     0.210 HD
ENDBRANCH  26  27
BRANCH  26  29
HETATM   29  C23 UNL     1       5.790  -0.317  -1.066  1.00  0.00     0.103 C 
HETATM   30  C24 UNL     1       5.383  -1.722  -0.640  1.00  0.00     0.034 C 
BRANCH  29  31
HETATM   31  N1  UNL     1       6.388   0.439  -0.057  1.00  0.00    -0.406 N 
HETATM   32  C25 UNL     1       5.690   0.922   1.051  1.00  0.00     0.119 C 
HETATM   33  C26 UNL     1       6.644   0.948   2.260  1.00  0.00     0.051 C 
HETATM   34  C27 UNL     1       7.133  -0.472   2.431  1.00  0.00     0.121 C 
HETATM   35  C28 UNL     1       8.082  -0.732   1.281  1.00  0.00     0.051 C 
HETATM   36  C29 UNL     1       7.807   0.200   0.121  1.00  0.00     0.119 C 
BRANCH  34  37
HETATM   37  O5  UNL     1       7.742  -0.663   3.670  1.00  0.00    -0.395 OA
ATOM     38  H5  UNL     1       8.049  -1.555   3.777  1.00  0.00     0.210 HD
ENDBRANCH  34  37
ENDBRANCH  29  31
ENDBRANCH  26  29
ENDBRANCH  25  26
ENDBRANCH  23  25
ENDBRANCH  22  23
ENDBRANCH  15  22
BRANCH   1  39
HETATM   39  C2  UNL     1      -5.945   0.356   2.586  1.00  0.00     0.036 C 
HETATM   40  C1  UNL     1      -7.376   0.718   3.029  1.00  0.00     0.008 C 
ENDBRANCH   1  39
BRANCH   1  41
HETATM   41  O1  UNL     1      -6.227   1.802   0.831  1.00  0.00    -0.387 OA
ATOM     42  H1  UNL     1      -6.181   1.853  -0.117  1.00  0.00     0.210 HD
ENDBRANCH   1  41
BRANCH   2  43
HETATM   43  O2  UNL     1      -7.240  -1.564   1.210  1.00  0.00    -0.393 OA
ATOM     44  H2  UNL     1      -7.960  -2.072   0.856  1.00  0.00     0.210 HD
ENDBRANCH   2  43
TORSDOF 12
