REMARK  14 active torsions:
REMARK  status: ('A' for Active; 'I' for Inactive)
REMARK    1  A    between atoms: C2_2  and  N1_3 
REMARK       I    between atoms: N1_3  and  C3_5 
REMARK    2  A    between atoms: C3_5  and  O2_7 
REMARK    3  A    between atoms: O2_7  and  C4_8 
REMARK    4  A    between atoms: C4_8  and  C5_9 
REMARK    5  A    between atoms: C8_12  and  C9_13 
REMARK    6  A    between atoms: C9_13  and  C10_14 
REMARK    7  A    between atoms: C11_15  and  C12_16 
REMARK    8  A    between atoms: C12_16  and  O3_17 
REMARK    9  A    between atoms: N2_19  and  O4_21 
REMARK   10  A    between atoms: C13_23  and  N3_24 
REMARK   11  A    between atoms: N3_24  and  N4_26 
REMARK   12  A    between atoms: N4_26  and  N5_27 
REMARK   13  A    between atoms: C14_30  and  C15_31 
REMARK       I    between atoms: N6_32  and  C16_34 
REMARK   14  A    between atoms: C16_34  and  C17_36 
ROOT
HETATM    1  C5  UNL     1       0.249   1.108  -1.793  1.00  0.00     0.021 C 
HETATM    2  C6  UNL     1       1.247   0.936  -2.858  1.00  0.00     0.008 C 
HETATM    3  C7  UNL     1       2.515   0.277  -2.561  1.00  0.00     0.007 C 
HETATM    4  C8  UNL     1       2.680  -0.328  -1.184  1.00  0.00     0.015 C 
HETATM    5  C13 UNL     1       1.323  -0.819  -0.769  1.00  0.00     0.128 C 
HETATM    6  C14 UNL     1       0.555   0.487  -0.477  1.00  0.00     0.056 C 
ENDROOT
BRANCH   4   7
HETATM    7  C9  UNL     1       3.754  -1.390  -1.184  1.00  0.00     0.034 C 
BRANCH   7   8
HETATM    8  C10 UNL     1       3.877  -1.934   0.183  1.00  0.00    -0.022 C 
HETATM    9  C11 UNL     1       4.910  -1.932   0.969  1.00  0.00     0.053 C 
BRANCH   9  10
HETATM   10  C12 UNL     1       6.236  -1.426   0.798  1.00  0.00     0.159 C 
HETATM   11  N2  UNL     1       7.149  -1.529   1.741  1.00  0.00    -0.248 N 
ATOM     12  H2  UNL     1       8.084  -1.154   1.579  1.00  0.00     0.196 HD
BRANCH  10  13
HETATM   13  O3  UNL     1       6.651  -0.802  -0.348  1.00  0.00    -0.345 OA
ATOM     14  H3  UNL     1       7.532  -0.466  -0.462  1.00  0.00     0.219 HD
ENDBRANCH  10  13
BRANCH  11  15
HETATM   15  O4  UNL     1       6.861  -2.133   2.938  1.00  0.00    -0.288 OA
ATOM     16  H4  UNL     1       7.520  -2.207   3.618  1.00  0.00     0.244 HD
ENDBRANCH  11  15
ENDBRANCH   9  10
ENDBRANCH   7   8
ENDBRANCH   4   7
BRANCH   5  17
HETATM   17  N3  UNL     1       0.597  -1.432  -1.863  1.00  0.00    -0.247 N 
ATOM     18  H3  UNL     1      -0.014  -0.835  -2.421  1.00  0.00     0.197 HD
BRANCH  17  19
HETATM   19  N4  UNL     1       0.665  -2.605  -2.161  1.00  0.00    -0.248 NA
BRANCH  19  20
HETATM   20  N5  UNL     1       0.619  -3.823  -2.124  1.00  0.00    -0.261 N 
ATOM     21  H52 UNL     1       0.293  -3.863  -1.158  1.00  0.00     0.193 HD
ATOM     22  H51 UNL     1       0.676  -4.810  -2.375  1.00  0.00     0.193 HD
ENDBRANCH  19  20
ENDBRANCH  17  19
ENDBRANCH   5  17
BRANCH   6  23
HETATM   23  C15 UNL     1      -0.679   0.199   0.281  1.00  0.00     0.071 C 
HETATM   24  N6  UNL     1      -1.624  -0.527  -0.195  1.00  0.00    -0.340 N 
HETATM   25  C16 UNL     1      -2.805  -0.802   0.534  1.00  0.00     0.225 C 
ATOM     26  H6  UNL     1      -1.520  -0.919  -1.131  1.00  0.00     0.167 HD
HETATM   27  O5  UNL     1      -3.314   0.076   1.256  1.00  0.00    -0.273 OA
BRANCH  25  28
HETATM   28  C17 UNL     1      -3.434  -2.139   0.435  1.00  0.00     0.078 C 
HETATM   29  C18 UNL     1      -4.655  -2.175   1.289  1.00  0.00     0.014 C 
HETATM   30  C19 UNL     1      -4.676  -3.512   1.988  1.00  0.00     0.001 C 
HETATM   31  C20 UNL     1      -3.370  -4.188   1.712  1.00  0.00     0.001 C 
HETATM   32  C21 UNL     1      -2.515  -3.232   0.922  1.00  0.00     0.014 C 
ENDBRANCH  25  28
ENDBRANCH   6  23
BRANCH   1  33
HETATM   33  C4  UNL     1      -0.020   2.596  -1.522  1.00  0.00     0.185 C 
BRANCH  33  34
HETATM   34  O2  UNL     1      -0.996   2.721  -0.481  1.00  0.00    -0.304 OA
BRANCH  34  35
HETATM   35  C3  UNL     1      -1.439   3.929  -0.020  1.00  0.00     0.360 C 
HETATM   36  N1  UNL     1      -2.412   4.068   1.019  1.00  0.00    -0.337 N 
ATOM     37  H1  UNL     1      -2.807   3.233   1.451  1.00  0.00     0.164 HD
HETATM   38  O1  UNL     1      -0.968   4.974  -0.536  1.00  0.00    -0.239 OA
BRANCH  36  39
HETATM   39  C2  UNL     1      -2.849   5.383   1.471  1.00  0.00     0.120 C 
HETATM   40  C1  UNL     1      -3.471   6.188   0.377  1.00  0.00     0.026 C 
ENDBRANCH  36  39
ENDBRANCH  34  35
ENDBRANCH  33  34
ENDBRANCH   1  33
TORSDOF 14
