REMARK  9 active torsions:
REMARK  status: ('A' for Active; 'I' for Inactive)
REMARK    1  A    between atoms: C3_3  and  N1_4 
REMARK    2  A    between atoms: N1_4  and  C4_6 
REMARK    3  A    between atoms: C5_9  and  C6_10 
REMARK    4  A    between atoms: C11_19  and  N5_20 
REMARK    5  A    between atoms: N5_20  and  C12_21 
REMARK    6  A    between atoms: C15_24  and  S1_25 
REMARK    7  A    between atoms: S1_25  and  N6_28 
REMARK    8  A    between atoms: N6_28  and  C16_30 
REMARK    9  A    between atoms: C23_37  and  C24_38 
ROOT
HETATM    1  C1  UNL     1       5.470   5.108  -0.412  1.00  0.00     0.014 C 
HETATM    2  C2  UNL     1       5.005   4.495   0.517  1.00  0.00    -0.097 C 
HETATM    3  C3  UNL     1       4.410   3.747   1.652  1.00  0.00     0.231 C 
ENDROOT
BRANCH   3   4
HETATM    4  N1  UNL     1       3.179   3.135   1.292  1.00  0.00    -0.215 N 
ATOM      5  H1  UNL     1       2.322   3.596   1.597  1.00  0.00     0.178 HD
BRANCH   4   6
HETATM    6  C4  UNL     1       3.054   2.054   0.617  1.00  0.00     0.684 A 
HETATM    7  N2  UNL     1       4.179   1.411   0.192  1.00  0.00    -0.174 N 
HETATM    8  C5  UNL     1       4.073   0.291  -0.512  1.00  0.00     0.151 A 
ATOM      9  H2  UNL     1       5.099   1.790   0.415  1.00  0.00     0.186 HD
HETATM   10  N4  UNL     1       2.848  -0.190  -0.794  1.00  0.00    -0.299 N 
HETATM   11  C11 UNL     1       1.684   0.408  -0.397  1.00  0.00     0.275 A 
ATOM     12  H4  UNL     1       2.784  -1.052  -1.336  1.00  0.00     0.171 HD
HETATM   13  N7  UNL     1       1.847   1.561   0.328  1.00  0.00    -0.149 N 
ATOM     14  H7  UNL     1       1.019   2.058   0.657  1.00  0.00     0.188 HD
BRANCH   8  15
HETATM   15  C6  UNL     1       5.270  -0.394  -0.967  1.00  0.00     0.077 A 
HETATM   16  C7  UNL     1       6.502   0.109  -0.675  1.00  0.00     0.033 A 
HETATM   17  C8  UNL     1       7.680  -0.528  -1.101  1.00  0.00     0.004 A 
HETATM   18  C9  UNL     1       7.565  -1.674  -1.822  1.00  0.00     0.017 A 
HETATM   19  C10 UNL     1       6.315  -2.174  -2.111  1.00  0.00     0.088 A 
HETATM   20  N3  UNL     1       5.211  -1.536  -1.685  1.00  0.00    -0.363 N 
ATOM     21  H3  UNL     1       4.297  -1.928  -1.912  1.00  0.00     0.165 HD
ENDBRANCH   8  15
BRANCH  11  22
HETATM   22  N5  UNL     1       0.593  -0.018  -0.658  1.00  0.00    -0.370 NA
BRANCH  22  23
HETATM   23  C12 UNL     1      -0.624  -0.416  -0.900  1.00  0.00     0.118 A 
HETATM   24  C13 UNL     1      -1.154  -0.026  -2.182  1.00  0.00     0.047 A 
HETATM   25  C14 UNL     1      -2.404  -0.355  -2.555  1.00  0.00     0.028 A 
HETATM   26  C15 UNL     1      -3.192  -1.070  -1.710  1.00  0.00     0.080 A 
HETATM   27  C22 UNL     1      -2.701  -1.440  -0.504  1.00  0.00     0.036 A 
HETATM   28  C23 UNL     1      -1.408  -1.143  -0.030  1.00  0.00    -0.007 A 
BRANCH  26  29
HETATM   29  S1  UNL     1      -4.828  -1.524  -2.160  1.00  0.00     0.263 S 
HETATM   30  O1  UNL     1      -4.810  -1.798  -3.634  1.00  0.00    -0.200 OA
HETATM   31  O2  UNL     1      -5.103  -2.842  -1.479  1.00  0.00    -0.200 OA
BRANCH  29  32
HETATM   32  N6  UNL     1      -5.981  -0.337  -1.769  1.00  0.00    -0.281 N 
ATOM     33  H6  UNL     1      -6.509   0.076  -2.537  1.00  0.00     0.179 HD
BRANCH  32  34
HETATM   34  C16 UNL     1      -6.263   0.119  -0.470  1.00  0.00     0.042 A 
HETATM   35  C17 UNL     1      -6.391   1.467  -0.256  1.00  0.00     0.030 A 
HETATM   36  C18 UNL     1      -6.669   2.026   0.981  1.00  0.00     0.002 A 
HETATM   37  C19 UNL     1      -6.819   1.133   2.031  1.00  0.00     0.000 A 
HETATM   38  C20 UNL     1      -6.696  -0.222   1.841  1.00  0.00     0.002 A 
HETATM   39  C21 UNL     1      -6.419  -0.732   0.594  1.00  0.00     0.030 A 
ENDBRANCH  32  34
ENDBRANCH  29  32
ENDBRANCH  26  29
BRANCH  28  40
HETATM   40  C24 UNL     1      -1.018  -1.617   1.268  1.00  0.00    -0.013 A 
HETATM   41  C25 UNL     1      -2.173  -2.400   1.988  1.00  0.00     0.020 C 
HETATM   42  C26 UNL     1       0.089  -1.373   2.130  1.00  0.00     0.015 A 
HETATM   43  C27 UNL     1       0.247  -2.542   1.209  1.00  0.00     0.015 A 
ENDBRANCH  28  40
ENDBRANCH  22  23
ENDBRANCH  11  22
ENDBRANCH   4   6
ENDBRANCH   3   4
TORSDOF 9
