REMARK  11 active torsions:
REMARK  status: ('A' for Active; 'I' for Inactive)
REMARK    1  A    between atoms: N1_1  and  C1_5 
REMARK    2  A    between atoms: C1_5  and  C2_6 
REMARK    3  A    between atoms: C2_6  and  N2_7 
REMARK    4  A    between atoms: N2_7  and  C3_10 
REMARK    5  A    between atoms: C3_10  and  C4_11 
REMARK    6  A    between atoms: C5_12  and  N3_13 
REMARK    7  A    between atoms: C6_17  and  O1_18 
REMARK    8  A    between atoms: O1_18  and  C7_19 
REMARK    9  A    between atoms: C9_24  and  N5_25 
REMARK   10  A    between atoms: C10_29  and  N6_30 
REMARK   11  A    between atoms: C11_34  and  O2_35 
ROOT
HETATM    1  C4  UNL     1       1.246   0.675   0.361  1.00  0.00     0.075 A 
HETATM    2  C5  UNL     1       0.251   0.720  -0.777  1.00  0.00     0.223 A 
HETATM    3  C6  UNL     1      -0.476  -0.478  -0.183  1.00  0.00     0.184 A 
HETATM    4  C11 UNL     1       0.546  -0.512   0.912  1.00  0.00     0.157 A 
ENDROOT
BRANCH   3   5
HETATM    5  O1  UNL     1      -1.754  -0.067   0.150  1.00  0.00    -0.347 OA
BRANCH   5   6
HETATM    6  C7  UNL     1      -2.774  -0.758  -0.428  1.00  0.00     0.354 C 
HETATM    7  N4  UNL     1      -3.557  -1.304   0.704  1.00  0.00    -0.045 N 
HETATM    8  C8  UNL     1      -4.033  -0.024   1.256  1.00  0.00     0.270 C 
ATOM      9  H42 UNL     1      -4.269  -1.998   0.476  1.00  0.00     0.280 HD
ATOM     10  H41 UNL     1      -3.063  -1.925   1.346  1.00  0.00     0.280 HD
HETATM   11  C9  UNL     1      -4.785   0.508   0.024  1.00  0.00     0.243 C 
HETATM   12  C10 UNL     1      -3.840   0.087  -1.081  1.00  0.00     0.271 C 
BRANCH  11  13
HETATM   13  N5  UNL     1      -6.039  -0.198   0.015  1.00  0.00    -0.071 N 
ATOM     14  H53 UNL     1      -5.941  -1.213   0.031  1.00  0.00     0.274 HD
ATOM     15  H52 UNL     1      -6.564  -0.116   0.886  1.00  0.00     0.274 HD
ATOM     16  H51 UNL     1      -6.538   0.155  -0.802  1.00  0.00     0.274 HD
ENDBRANCH  11  13
BRANCH  12  17
HETATM   17  N6  UNL     1      -4.614  -0.721  -2.020  1.00  0.00    -0.069 N 
ATOM     18  H63 UNL     1      -4.019  -1.183  -2.707  1.00  0.00     0.275 HD
ATOM     19  H62 UNL     1      -5.004  -1.553  -1.577  1.00  0.00     0.275 HD
ATOM     20  H61 UNL     1      -5.335  -0.150  -2.461  1.00  0.00     0.275 HD
ENDBRANCH  12  17
ENDBRANCH   5   6
ENDBRANCH   3   5
BRANCH   2  21
HETATM   21  N3  UNL     1      -0.486   1.955  -0.776  1.00  0.00    -0.072 N 
ATOM     22  H33 UNL     1      -0.937   2.121   0.123  1.00  0.00     0.274 HD
ATOM     23  H32 UNL     1       0.136   2.763  -0.790  1.00  0.00     0.274 HD
ATOM     24  H31 UNL     1      -1.157   1.985  -1.544  1.00  0.00     0.274 HD
ENDBRANCH   2  21
BRANCH   4  25
HETATM   25  O2  UNL     1       1.346  -1.648   0.804  1.00  0.00    -0.392 OA
ATOM     26  H2  UNL     1       0.898  -2.408   1.157  1.00  0.00     0.210 HD
ENDBRANCH   4  25
BRANCH   1  27
HETATM   27  C3  UNL     1       2.624   0.528  -0.190  1.00  0.00     0.241 C 
BRANCH  27  28
HETATM   28  N2  UNL     1       3.665   0.433   0.820  1.00  0.00    -0.073 N 
ATOM     29  H22 UNL     1       3.537  -0.357   1.452  1.00  0.00     0.277 HD
ATOM     30  H21 UNL     1       3.610   1.172   1.521  1.00  0.00     0.277 HD
BRANCH  28  31
HETATM   31  C2  UNL     1       4.955   0.403   0.114  1.00  0.00     0.259 C 
BRANCH  31  32
HETATM   32  C1  UNL     1       6.076   0.129   1.091  1.00  0.00     0.257 C 
BRANCH  32  33
HETATM   33  N1  UNL     1       7.349   0.093   0.443  1.00  0.00    -0.078 N 
ATOM     34  H13 UNL     1       7.355  -0.577  -0.326  1.00  0.00     0.274 HD
ATOM     35  H12 UNL     1       7.520   0.947  -0.088  1.00  0.00     0.274 HD
ATOM     36  H11 UNL     1       8.105  -0.092   1.102  1.00  0.00     0.274 HD
ENDBRANCH  32  33
ENDBRANCH  31  32
ENDBRANCH  28  31
ENDBRANCH  27  28
ENDBRANCH   1  27
TORSDOF 11
