REMARK  6 active torsions:
REMARK  status: ('A' for Active; 'I' for Inactive)
REMARK    1  A    between atoms: N3_8  and  C4_10 
REMARK    2  A    between atoms: C4_10  and  C5_11 
REMARK    3  A    between atoms: C5_11  and  C6_12 
REMARK    4  A    between atoms: N5_21  and  C13_23 
REMARK    5  A    between atoms: C13_23  and  C14_24 
REMARK    6  A    between atoms: C14_24  and  O1_25 
ROOT
HETATM    1  C1  UNL     1       3.334   2.615   0.925  1.00  0.00     0.048 C 
HETATM    2  C2  UNL     1       2.240   1.880   1.050  1.00  0.00     0.083 A 
HETATM    3  N1  UNL     1       1.234   2.256   1.972  1.00  0.00    -0.284 N 
ATOM      4  H1  UNL     1       1.354   3.095   2.540  1.00  0.00     0.187 HD
HETATM    5  N2  UNL     1       0.065   1.477   2.110  1.00  0.00    -0.132 N 
ATOM      6  H2  UNL     1      -0.643   1.771   2.783  1.00  0.00     0.205 HD
HETATM    7  C3  UNL     1      -0.161   0.314   1.358  1.00  0.00     0.694 A 
HETATM    8  N3  UNL     1      -1.213  -0.374   1.493  1.00  0.00    -0.224 N 
ATOM      9  H3  UNL     1      -1.291  -1.204   0.906  1.00  0.00     0.177 HD
HETATM   10  N4  UNL     1       0.833  -0.090   0.423  1.00  0.00    -0.173 N 
ATOM     11  H4  UNL     1       0.688  -0.933  -0.132  1.00  0.00     0.186 HD
HETATM   12  C12 UNL     1       2.043   0.676   0.249  1.00  0.00     0.144 A 
HETATM   13  N5  UNL     1       2.956   0.347  -0.579  1.00  0.00    -0.372 N 
ATOM     14  H5  UNL     1       3.779   0.947  -0.638  1.00  0.00     0.161 HD
ENDROOT
BRANCH   8  15
HETATM   15  C4  UNL     1      -2.302  -0.116   2.377  1.00  0.00     0.142 C 
BRANCH  15  16
HETATM   16  C5  UNL     1      -3.572  -0.814   1.941  1.00  0.00     0.058 C 
BRANCH  16  17
HETATM   17  C6  UNL     1      -4.033  -0.411   0.610  1.00  0.00    -0.057 A 
HETATM   18  C7  UNL     1      -4.903   0.650   0.402  1.00  0.00     0.007 A 
HETATM   19  C8  UNL     1      -5.305   0.987  -0.871  1.00  0.00     0.001 A 
HETATM   20  C9  UNL     1      -4.862   0.289  -1.992  1.00  0.00     0.000 A 
HETATM   21  C10 UNL     1      -3.992  -0.771  -1.788  1.00  0.00     0.001 A 
HETATM   22  C11 UNL     1      -3.594  -1.104  -0.504  1.00  0.00     0.007 A 
ENDBRANCH  16  17
ENDBRANCH  15  16
ENDBRANCH   8  15
BRANCH  13  23
HETATM   23  C13 UNL     1       2.910  -0.806  -1.435  1.00  0.00     0.147 C 
BRANCH  23  24
HETATM   24  C14 UNL     1       3.852  -0.653  -2.615  1.00  0.00     0.186 C 
BRANCH  24  25
HETATM   25  O1  UNL     1       5.162  -0.494  -2.227  1.00  0.00    -0.394 OA
HETATM   26  C15 UNL     1       5.671  -1.540  -1.495  1.00  0.00     0.201 C 
ENDBRANCH  24  25
ENDBRANCH  23  24
ENDBRANCH  13  23
TORSDOF 6
