REMARK  4 active torsions:
REMARK  status: ('A' for Active; 'I' for Inactive)
REMARK    1  A    between atoms: N1_3  and  C3_4 
REMARK    2  A    between atoms: C3_4  and  C4_5 
REMARK    3  A    between atoms: C4_5  and  N2_6 
REMARK       I    between atoms: N4_19  and  C14_20 
REMARK       I    between atoms: C14_20  and  N5_22 
REMARK    4  A    between atoms: N5_22  and  C15_24 
ROOT
HETATM    1  C1  UNL     1      -1.235  -0.701  -1.891  1.00  0.00     0.041 C 
HETATM    2  C2  UNL     1      -0.728   0.255  -1.147  1.00  0.00     0.035 C 
HETATM    3  N1  UNL     1      -1.444   1.057  -0.238  1.00  0.00    -0.381 N 
HETATM    4  C10 UNL     1      -0.682   2.258   0.020  1.00  0.00     0.126 C 
HETATM    5  C11 UNL     1       0.589   2.141  -0.771  1.00  0.00     0.067 C 
HETATM    6  C12 UNL     1       0.698   0.689  -1.093  1.00  0.00     0.131 C 
HETATM    7  C13 UNL     1       1.477  -0.103  -0.107  1.00  0.00     0.184 C 
HETATM    8  N4  UNL     1       2.806  -0.247  -0.716  1.00  0.00    -0.242 N 
HETATM    9  C14 UNL     1       3.920  -0.831  -0.036  1.00  0.00     0.327 C 
HETATM   10  O1  UNL     1       3.823  -1.244   1.151  1.00  0.00    -0.247 OA
HETATM   11  N5  UNL     1       5.168  -0.965  -0.677  1.00  0.00    -0.338 N 
ATOM     12  H5  UNL     1       5.277  -0.637  -1.637  1.00  0.00     0.164 HD
HETATM   13  C20 UNL     1       2.693   0.292  -2.013  1.00  0.00     0.372 C 
HETATM   14  O2  UNL     1       3.662   0.584  -2.761  1.00  0.00    -0.238 OA
HETATM   15  O3  UNL     1       1.337   0.447  -2.330  1.00  0.00    -0.284 OA
ENDROOT
BRANCH   3  16
HETATM   16  C3  UNL     1      -2.740   0.806   0.381  1.00  0.00     0.142 C 
BRANCH  16  17
HETATM   17  C4  UNL     1      -3.680   1.819  -0.225  1.00  0.00     0.140 C 
BRANCH  17  18
HETATM   18  N2  UNL     1      -5.019   1.723   0.255  1.00  0.00    -0.378 N 
HETATM   19  C5  UNL     1      -5.557   0.737   0.849  1.00  0.00     0.072 C 
HETATM   20  C6  UNL     1      -6.132  -0.318   1.485  1.00  0.00     0.076 C 
HETATM   21  N3  UNL     1      -7.034   1.658   0.860  1.00  0.00    -0.380 N 
HETATM   22  C7  UNL     1      -6.837   0.046   2.805  1.00  0.00     0.009 C 
HETATM   23  C8  UNL     1      -8.303   0.235   2.344  1.00  0.00     0.020 C 
HETATM   24  C9  UNL     1      -8.178   0.912   0.955  1.00  0.00     0.121 C 
ATOM     25  H3  UNL     1      -7.046   2.676   0.800  1.00  0.00     0.160 HD
ATOM     26  H2  UNL     1      -5.613   2.539   0.104  1.00  0.00     0.160 HD
ENDBRANCH  17  18
ENDBRANCH  16  17
ENDBRANCH   3  16
BRANCH  11  27
HETATM   27  C15 UNL     1       6.317  -1.571   0.015  1.00  0.00     0.086 C 
HETATM   28  C16 UNL     1       6.684  -2.809  -0.768  1.00  0.00     0.025 C 
HETATM   29  C17 UNL     1       8.087  -2.606  -1.270  1.00  0.00     0.002 C 
HETATM   30  C18 UNL     1       8.655  -1.559  -0.366  1.00  0.00     0.002 C 
HETATM   31  C19 UNL     1       7.476  -0.631  -0.095  1.00  0.00     0.025 C 
ENDBRANCH  11  27
TORSDOF 4
