REMARK  7 active torsions:
REMARK  status: ('A' for Active; 'I' for Inactive)
REMARK    1  A    between atoms: C7_9  and  C8_10 
REMARK    2  A    between atoms: C8_10  and  O3_11 
REMARK    3  A    between atoms: O3_11  and  C9_12 
REMARK    4  A    between atoms: C9_12  and  C10_13 
REMARK    5  A    between atoms: C10_13  and  C11_14 
REMARK    6  A    between atoms: N1_15  and  O4_17 
REMARK    7  A    between atoms: C15_25  and  O5_26 
ROOT
HETATM    1  C1  UNL     1      -4.341   2.917  -0.745  1.00  0.00     0.078 C 
HETATM    2  C2  UNL     1      -4.347   1.406  -0.747  1.00  0.00     0.159 C 
HETATM    3  C3  UNL     1      -5.711   0.982  -1.306  1.00  0.00     0.078 C 
HETATM    4  O1  UNL     1      -3.315   0.956  -1.521  1.00  0.00    -0.337 OA
HETATM    5  C4  UNL     1      -2.252   0.887  -0.613  1.00  0.00     0.225 C 
HETATM    6  C5  UNL     1      -1.242  -0.064  -0.812  1.00  0.00    -0.115 C 
HETATM    7  C6  UNL     1      -0.143  -0.748  -1.348  1.00  0.00     0.227 C 
HETATM    8  O2  UNL     1       1.118  -0.192  -1.194  1.00  0.00    -0.338 OA
HETATM    9  C7  UNL     1       1.933  -1.285  -1.351  1.00  0.00     0.347 C 
HETATM   10  N2  UNL     1       1.373  -2.263  -0.462  1.00  0.00    -0.036 N 
ATOM     11  H21 UNL     1       1.773  -2.236   0.476  1.00  0.00     0.281 HD
ATOM     12  H22 UNL     1       1.647  -3.220  -0.686  1.00  0.00     0.281 HD
HETATM   13  C12 UNL     1      -0.053  -2.054  -0.484  1.00  0.00     0.251 C 
HETATM   14  C13 UNL     1      -0.532  -1.933   0.900  1.00  0.00     0.008 C 
HETATM   15  C14 UNL     1      -1.916  -1.919   1.347  1.00  0.00     0.005 C 
HETATM   16  C15 UNL     1      -2.985  -1.050   0.907  1.00  0.00     0.173 C 
HETATM   17  C16 UNL     1      -2.975   0.387   0.685  1.00  0.00     0.197 C 
HETATM   18  O6  UNL     1      -4.247   0.855   0.512  1.00  0.00    -0.344 OA
ENDROOT
BRANCH   9  19
HETATM   19  C8  UNL     1       3.369  -0.948  -1.020  1.00  0.00     0.229 C 
BRANCH  19  20
HETATM   20  O3  UNL     1       3.520  -0.438   0.243  1.00  0.00    -0.387 OA
BRANCH  20  21
HETATM   21  C9  UNL     1       4.826  -0.139   0.532  1.00  0.00     0.173 C 
BRANCH  21  22
HETATM   22  C10 UNL     1       5.468   0.870  -0.362  1.00  0.00     0.073 C 
BRANCH  22  23
HETATM   23  C11 UNL     1       6.877   1.058   0.113  1.00  0.00     0.089 C 
HETATM   24  N1  UNL     1       7.559   2.124  -0.142  1.00  0.00    -0.284 N 
ATOM     25  H1  UNL     1       8.512   2.174   0.218  1.00  0.00     0.192 HD
BRANCH  24  26
HETATM   26  O4  UNL     1       7.099   3.185  -0.856  1.00  0.00    -0.291 OA
ATOM     27  H4  UNL     1       7.601   3.969  -1.044  1.00  0.00     0.244 HD
ENDBRANCH  24  26
ENDBRANCH  22  23
ENDBRANCH  21  22
ENDBRANCH  20  21
ENDBRANCH  19  20
ENDBRANCH   9  19
BRANCH  16  28
HETATM   28  O5  UNL     1      -4.022  -1.200   1.902  1.00  0.00    -0.389 OA
ATOM     29  H5  UNL     1      -4.724  -0.629   1.613  1.00  0.00     0.210 HD
ENDBRANCH  16  28
TORSDOF 7
