REMARK  8 active torsions:
REMARK  status: ('A' for Active; 'I' for Inactive)
REMARK    1  A    between atoms: O1_2  and  C2_3 
REMARK    2  A    between atoms: C2_3  and  C3_4 
REMARK    3  A    between atoms: C3_4  and  C5_12 
REMARK    4  A    between atoms: N1_5  and  N2_7 
REMARK    5  A    between atoms: N2_7  and  C4_9 
REMARK    6  A    between atoms: C7_14  and  C8_15 
REMARK    7  A    between atoms: C9_16  and  C10_17 
REMARK    8  A    between atoms: C13_23  and  C14_24 
ROOT
HETATM    1  C5  UNL     1      -0.520   0.066   0.344  1.00  0.00     0.016 A 
HETATM    2  C6  UNL     1       0.662  -0.682   0.248  1.00  0.00     0.054 A 
HETATM    3  C7  UNL     1       1.741   0.135   0.461  1.00  0.00     0.088 A 
HETATM    4  N4  UNL     1       1.264   1.350   0.683  1.00  0.00    -0.351 N 
ATOM      5  H4  UNL     1       1.832   2.175   0.875  1.00  0.00     0.166 HD
HETATM    6  C13 UNL     1      -0.112   1.335   0.616  1.00  0.00     0.026 A 
ENDROOT
BRANCH   1   7
HETATM    7  C3  UNL     1      -1.850  -0.542   0.208  1.00  0.00     0.061 C 
HETATM    8  N1  UNL     1      -1.878  -1.790  -0.086  1.00  0.00    -0.300 N 
ATOM      9  H1  UNL     1      -0.979  -2.253  -0.217  1.00  0.00     0.186 HD
BRANCH   7  10
HETATM   10  C2  UNL     1      -3.116   0.180   0.412  1.00  0.00     0.226 C 
BRANCH  10  11
HETATM   11  O1  UNL     1      -4.255  -0.615   0.236  1.00  0.00    -0.390 OA
HETATM   12  C1  UNL     1      -5.420   0.085   0.439  1.00  0.00     0.201 C 
ENDBRANCH  10  11
ENDBRANCH   7  10
BRANCH   8  13
HETATM   13  N2  UNL     1      -2.988  -2.554  -0.239  1.00  0.00    -0.278 N 
ATOM     14  H2  UNL     1      -3.499  -2.830   0.600  1.00  0.00     0.189 HD
BRANCH  13  15
HETATM   15  C4  UNL     1      -3.487  -2.998  -1.509  1.00  0.00     0.199 C 
HETATM   16  N3  UNL     1      -4.648  -3.792  -1.667  1.00  0.00    -0.068 NA
HETATM   17  S1  UNL     1      -2.658  -2.558  -2.836  1.00  0.00    -0.043 SA
ENDBRANCH  13  15
ENDBRANCH   8  13
ENDBRANCH   1   7
BRANCH   6  18
HETATM   18  C14 UNL     1      -0.921   2.551   0.777  1.00  0.00     0.028 C 
HETATM   19  C15 UNL     1      -0.097   3.654   1.468  1.00  0.00     0.016 C 
HETATM   20  C16 UNL     1      -1.159   3.139  -0.631  1.00  0.00     0.016 C 
ENDBRANCH   6  18
BRANCH   3  21
HETATM   21  C8  UNL     1       3.131  -0.302   0.435  1.00  0.00    -0.047 C 
HETATM   22  C9  UNL     1       4.280  -0.681   0.398  1.00  0.00    -0.074 C 
BRANCH  22  23
HETATM   23  C10 UNL     1       5.667  -1.152   0.337  1.00  0.00     0.093 C 
HETATM   24  C11 UNL     1       6.623  -0.045  -0.034  1.00  0.00     0.046 C 
HETATM   25  C12 UNL     1       5.731  -2.177  -0.785  1.00  0.00     0.046 C 
HETATM   26 CL1  UNL     1       6.194  -1.882   1.864  1.00  0.00    -0.106 Cl
ENDBRANCH  22  23
ENDBRANCH   3  21
TORSDOF 8
