REMARK  7 active torsions:
REMARK  status: ('A' for Active; 'I' for Inactive)
REMARK    1  A    between atoms: C5_8  and  N2_9 
REMARK    2  A    between atoms: C6_11  and  C7_12 
REMARK    3  A    between atoms: C7_12  and  C8_13 
REMARK    4  A    between atoms: C8_13  and  C9_14 
REMARK    5  A    between atoms: C9_14  and  N3_15 
REMARK    6  A    between atoms: N3_15  and  C10_17 
REMARK    7  A    between atoms: C16_25  and  C17_26 
ROOT
HETATM    1  C8  UNL     1       0.611   0.246  -1.237  1.00  0.00     0.049 C 
ENDROOT
BRANCH   1   2
HETATM    2  C7  UNL     1       2.093   0.139  -0.774  1.00  0.00     0.050 C 
BRANCH   2   3
HETATM    3  C6  UNL     1       2.529  -1.299  -0.659  1.00  0.00     0.079 C 
HETATM    4  N2  UNL     1       3.761  -1.493  -0.131  1.00  0.00    -0.205 N 
ATOM      5  H2  UNL     1       3.634  -2.397   0.323  1.00  0.00     0.183 HD
BRANCH   4   6
HETATM    6  C5  UNL     1       4.904  -1.268   0.136  1.00  0.00     0.684 A 
HETATM    7  N1  UNL     1       5.626  -2.177   0.894  1.00  0.00    -0.156 N 
HETATM    8  C4  UNL     1       6.896  -1.955   1.223  1.00  0.00     0.261 A 
ATOM      9  H1  UNL     1       5.173  -3.036   1.207  1.00  0.00     0.187 HD
HETATM   10  C3  UNL     1       7.504  -0.796   0.803  1.00  0.00     0.100 A 
HETATM   11  O1  UNL     1       7.568  -2.787   1.917  1.00  0.00    -0.268 OA
HETATM   12  C2  UNL     1       6.813   0.126   0.046  1.00  0.00     0.028 A 
HETATM   13  C1  UNL     1       7.510   1.376  -0.423  1.00  0.00     0.069 C 
HETATM   14  N5  UNL     1       5.533  -0.130  -0.269  1.00  0.00    -0.196 N 
ATOM     15  H5  UNL     1       5.016   0.548  -0.829  1.00  0.00     0.184 HD
ENDBRANCH   4   6
ENDBRANCH   2   3
ENDBRANCH   1   2
BRANCH   1  16
HETATM   16  C9  UNL     1      -0.227  -0.346  -0.175  1.00  0.00     0.063 C 
BRANCH  16  17
HETATM   17  N3  UNL     1      -1.615  -0.438  -0.288  1.00  0.00    -0.355 N 
ATOM     18  H3  UNL     1      -1.968  -1.307  -0.690  1.00  0.00     0.166 HD
BRANCH  17  19
HETATM   19  C10 UNL     1      -2.512   0.425   0.046  1.00  0.00     0.112 A 
HETATM   20  N4  UNL     1      -2.193   1.618   0.563  1.00  0.00    -0.346 N 
HETATM   21  C11 UNL     1      -3.123   2.431   1.099  1.00  0.00     0.007 A 
ATOM     22  H4  UNL     1      -1.219   1.919   0.551  1.00  0.00     0.167 HD
HETATM   23  C12 UNL     1      -2.739   3.758   1.661  1.00  0.00     0.068 C 
HETATM   24  C13 UNL     1      -4.406   1.976   1.084  1.00  0.00     0.032 A 
HETATM   25  C14 UNL     1      -4.808   0.728   0.553  1.00  0.00    -0.050 A 
HETATM   26  C15 UNL     1      -6.228   0.394   0.489  1.00  0.00     0.049 C 
HETATM   27  C16 UNL     1      -3.837  -0.073   0.019  1.00  0.00    -0.005 A 
BRANCH  27  28
HETATM   28  C17 UNL     1      -4.102  -1.359  -0.610  1.00  0.00     0.015 C 
HETATM   29  C18 UNL     1      -4.944  -2.284   0.294  1.00  0.00     0.015 C 
HETATM   30  C19 UNL     1      -4.869  -1.231  -1.951  1.00  0.00     0.015 C 
ENDBRANCH  27  28
ENDBRANCH  17  19
ENDBRANCH  16  17
ENDBRANCH   1  16
TORSDOF 7
