REMARK  5 active torsions:
REMARK  status: ('A' for Active; 'I' for Inactive)
REMARK       I    between atoms: C1_2  and  N1_3 
REMARK    1  A    between atoms: C1_2  and  C9_11 
REMARK    2  A    between atoms: N1_3  and  C2_4 
REMARK    3  A    between atoms: C2_4  and  C3_5 
REMARK    4  A    between atoms: C11_17  and  C12_18 
REMARK       I    between atoms: C12_18  and  N4_20 
REMARK    5  A    between atoms: N4_20  and  C13_22 
ROOT
HETATM    1  C9  UNL     1      -0.524   0.768  -1.231  1.00  0.00     0.149 A 
HETATM    2  N2  UNL     1      -1.462   1.730  -1.025  1.00  0.00    -0.345 N 
ATOM      3  H2  UNL     1      -2.425   1.724  -1.361  1.00  0.00     0.167 HD
HETATM    4  C10 UNL     1      -0.887   2.669  -0.310  1.00  0.00     0.181 A 
HETATM    5  N3  UNL     1       0.389   2.372  -0.035  1.00  0.00    -0.346 N 
ATOM      6  H3  UNL     1       1.049   2.936   0.501  1.00  0.00     0.167 HD
HETATM    7  C11 UNL     1       0.627   1.157  -0.620  1.00  0.00     0.135 A 
ENDROOT
BRANCH   7   8
HETATM    8  C12 UNL     1       1.903   0.435  -0.527  1.00  0.00     0.271 C 
HETATM    9  O2  UNL     1       2.143  -0.698  -0.969  1.00  0.00    -0.266 OA
HETATM   10  N4  UNL     1       2.982   1.100   0.143  1.00  0.00    -0.351 N 
ATOM     11  H4  UNL     1       2.851   2.037   0.524  1.00  0.00     0.163 HD
BRANCH  10  12
HETATM   12  C13 UNL     1       4.247   0.438   0.274  1.00  0.00     0.085 C 
HETATM   13  C14 UNL     1       5.354   1.274  -0.390  1.00  0.00     0.028 C 
HETATM   14  C15 UNL     1       6.573   0.394  -0.478  1.00  0.00     0.039 C 
HETATM   15  C16 UNL     1       7.047   0.054   0.917  1.00  0.00     0.170 C 
HETATM   16  F1  UNL     1       8.047  -0.897   0.812  1.00  0.00    -0.249 F 
HETATM   17  C17 UNL     1       5.944  -0.541   1.759  1.00  0.00     0.039 C 
HETATM   18  C18 UNL     1       4.674   0.261   1.712  1.00  0.00     0.028 C 
ENDBRANCH  10  12
ENDBRANCH   7   8
BRANCH   1  19
HETATM   19  C1  UNL     1      -0.811  -0.511  -1.968  1.00  0.00     0.344 C 
HETATM   20  O1  UNL     1       0.154  -1.010  -2.610  1.00  0.00    -0.249 OA
HETATM   21  N1  UNL     1      -2.056  -1.071  -1.914  1.00  0.00    -0.382 NA
BRANCH  21  22
HETATM   22  C2  UNL     1      -3.295  -1.637  -1.865  1.00  0.00     0.164 C 
BRANCH  22  23
HETATM   23  C3  UNL     1      -4.309  -0.884  -1.004  1.00  0.00     0.038 C 
HETATM   24  C4  UNL     1      -3.871  -0.853   0.407  1.00  0.00     0.011 C 
HETATM   25  C5  UNL     1      -4.896  -0.390   1.388  1.00  0.00     0.001 C 
HETATM   26  C6  UNL     1      -6.313  -0.508   0.954  1.00  0.00     0.000 C 
HETATM   27  C7  UNL     1      -6.600  -0.399  -0.493  1.00  0.00     0.001 C 
HETATM   28  C8  UNL     1      -5.702  -1.422  -1.214  1.00  0.00     0.011 C 
ENDBRANCH  22  23
ENDBRANCH  21  22
ENDBRANCH   1  19
TORSDOF 5
