REMARK  7 active torsions:
REMARK  status: ('A' for Active; 'I' for Inactive)
REMARK    1  A    between atoms: N2_13  and  C9_14 
REMARK    2  A    between atoms: C9_14  and  C10_15 
REMARK    3  A    between atoms: C10_15  and  C11_16 
REMARK    4  A    between atoms: C11_16  and  N3_17 
REMARK    5  A    between atoms: N3_17  and  C12_20 
REMARK    6  A    between atoms: C12_20  and  C13_21 
REMARK    7  A    between atoms: C13_21  and  O2_22 
ROOT
HETATM    1  O1  UNL     1      -0.504   0.447   1.987  1.00  0.00    -0.273 OA
HETATM    2  C1  UNL     1      -1.045  -0.317   1.182  1.00  0.00     0.228 C 
HETATM    3  C2  UNL     1      -2.541  -0.272   1.052  1.00  0.00     0.134 C 
HETATM    4  C3  UNL     1      -2.935  -0.131  -0.406  1.00  0.00     0.040 C 
HETATM    5  C4  UNL     1      -4.412  -0.489  -0.532  1.00  0.00     0.031 C 
HETATM    6  C5  UNL     1      -5.161   0.798  -0.580  1.00  0.00     0.002 C 
HETATM    7  C6  UNL     1      -4.156   1.874  -0.266  1.00  0.00     0.002 C 
HETATM    8  C7  UNL     1      -2.844   1.338  -0.808  1.00  0.00     0.031 C 
HETATM    9  N1  UNL     1      -2.206  -1.002  -1.267  1.00  0.00    -0.357 N 
ATOM     10  H1  UNL     1      -2.580  -1.205  -2.194  1.00  0.00     0.162 HD
HETATM   11  C8  UNL     1      -0.996  -1.587  -0.883  1.00  0.00     0.177 C 
HETATM   12  S1  UNL     1      -0.254  -2.684  -1.878  1.00  0.00    -0.041 SA
HETATM   13  N2  UNL     1      -0.384  -1.257   0.353  1.00  0.00    -0.295 N 
ENDROOT
BRANCH  13  14
HETATM   14  C9  UNL     1       0.878  -1.840   0.736  1.00  0.00     0.136 C 
BRANCH  14  15
HETATM   15  C10 UNL     1       2.100  -1.168   0.214  1.00  0.00     0.048 C 
BRANCH  15  16
HETATM   16  C11 UNL     1       2.337   0.243   0.576  1.00  0.00     0.234 C 
BRANCH  16  17
HETATM   17  N3  UNL     1       3.575   0.771  -0.002  1.00  0.00    -0.073 N 
ATOM     18  H32 UNL     1       3.574   0.652  -1.015  1.00  0.00     0.277 HD
ATOM     19  H31 UNL     1       3.588   1.789   0.054  1.00  0.00     0.277 HD
BRANCH  17  20
HETATM   20  C12 UNL     1       4.764   0.228   0.561  1.00  0.00     0.258 C 
BRANCH  20  21
HETATM   21  C13 UNL     1       5.985   0.769  -0.198  1.00  0.00     0.191 C 
BRANCH  21  22
HETATM   22  O2  UNL     1       7.144   0.240   0.349  1.00  0.00    -0.399 OA
ATOM     23  H2  UNL     1       7.899   0.575  -0.120  1.00  0.00     0.209 HD
ENDBRANCH  21  22
ENDBRANCH  20  21
ENDBRANCH  17  20
ENDBRANCH  16  17
ENDBRANCH  15  16
ENDBRANCH  14  15
ENDBRANCH  13  14
TORSDOF 7
