REMARK  8 active torsions:
REMARK  status: ('A' for Active; 'I' for Inactive)
REMARK    1  A    between atoms: C2_2  and  N1_3 
REMARK    2  A    between atoms: C2_2  and  C3_7 
REMARK    3  A    between atoms: C2_2  and  C5_13 
REMARK    4  A    between atoms: C3_7  and  C4_8 
REMARK    5  A    between atoms: C4_8  and  N2_9 
REMARK    6  A    between atoms: N3_17  and  C9_18 
REMARK    7  A    between atoms: C9_18  and  C10_19 
REMARK    8  A    between atoms: C10_19  and  N4_20 
ROOT
HETATM    1  C5  UNL     1       2.210   0.565   0.100  1.00  0.00    -0.007 A 
HETATM    2  C6  UNL     1       2.470   1.911   0.377  1.00  0.00     0.012 A 
HETATM    3  C7  UNL     1       1.428   2.804   0.289  1.00  0.00     0.018 A 
HETATM    4  C8  UNL     1       0.163   2.414  -0.058  1.00  0.00     0.090 A 
HETATM    5  N3  UNL     1      -0.093   1.098  -0.330  1.00  0.00    -0.364 N 
HETATM    6  C16 UNL     1       0.924   0.238  -0.242  1.00  0.00     0.100 A 
ENDROOT
BRANCH   1   7
HETATM    7  C2  UNL     1       3.329  -0.402   0.213  1.00  0.00     0.150 C 
HETATM    8  C1  UNL     1       2.757  -1.738   0.678  1.00  0.00     0.051 C 
BRANCH   7   9
HETATM    9  N1  UNL     1       4.213   0.034   1.285  1.00  0.00    -0.066 N 
ATOM     10  H13 UNL     1       3.761   0.076   2.198  1.00  0.00     0.275 HD
ATOM     11  H12 UNL     1       4.925  -0.653   1.535  1.00  0.00     0.275 HD
ATOM     12  H11 UNL     1       4.595   0.927   0.974  1.00  0.00     0.275 HD
ENDBRANCH   7   9
BRANCH   7  13
HETATM   13  C3  UNL     1       4.024  -0.528  -1.097  1.00  0.00     0.070 C 
BRANCH  13  14
HETATM   14  C4  UNL     1       5.184  -1.507  -1.043  1.00  0.00     0.232 C 
BRANCH  14  15
HETATM   15  N2  UNL     1       6.137  -1.041  -0.080  1.00  0.00    -0.079 N 
ATOM     16  H23 UNL     1       6.442  -0.085  -0.265  1.00  0.00     0.274 HD
ATOM     17  H22 UNL     1       5.719  -0.882   0.837  1.00  0.00     0.274 HD
ATOM     18  H21 UNL     1       6.916  -1.698  -0.044  1.00  0.00     0.274 HD
ENDBRANCH  14  15
ENDBRANCH  13  14
ENDBRANCH   7  13
ENDBRANCH   1   7
BRANCH   5  19
HETATM   19  C9  UNL     1      -1.455   0.769  -0.691  1.00  0.00     0.148 C 
BRANCH  19  20
HETATM   20  C10 UNL     1      -2.284   0.427   0.502  1.00  0.00     0.148 C 
BRANCH  20  21
HETATM   21  N4  UNL     1      -3.670   0.164   0.233  1.00  0.00    -0.365 N 
HETATM   22  C11 UNL     1      -4.074  -1.076  -0.059  1.00  0.00     0.092 A 
HETATM   23  C12 UNL     1      -5.406  -1.406  -0.324  1.00  0.00     0.043 A 
HETATM   24  C13 UNL     1      -6.362  -0.426  -0.291  1.00  0.00     0.049 A 
HETATM   25  N5  UNL     1      -7.736  -0.665  -0.550  1.00  0.00    -0.102 NA
HETATM   26  C14 UNL     1      -5.933   0.869   0.015  1.00  0.00     0.043 A 
HETATM   27  C15 UNL     1      -4.615   1.115   0.263  1.00  0.00     0.092 A 
ENDBRANCH  20  21
ENDBRANCH  19  20
ENDBRANCH   5  19
TORSDOF 8
