REMARK  9 active torsions:
REMARK  status: ('A' for Active; 'I' for Inactive)
REMARK    1  A    between atoms: C3_6  and  N3_7 
REMARK    2  A    between atoms: N3_7  and  C4_9 
REMARK    3  A    between atoms: C4_9  and  C5_10 
REMARK    4  A    between atoms: C5_10  and  C6_11 
REMARK    5  A    between atoms: C6_11  and  O1_12 
REMARK    6  A    between atoms: C7_16  and  N5_17 
REMARK    7  A    between atoms: N5_17  and  C8_19 
REMARK    8  A    between atoms: C8_19  and  C9_20 
REMARK    9  A    between atoms: C9_20  and  C10_21 
ROOT
HETATM    1  C1  UNL     1       0.827  -2.729  -0.744  1.00  0.00     0.176 C 
HETATM    2  N1  UNL     1      -0.371  -1.945  -0.524  1.00  0.00    -0.182 N 
HETATM    3  C2  UNL     1      -1.594  -2.536  -0.682  1.00  0.00     0.217 A 
HETATM    4  N2  UNL     1      -2.723  -1.868  -0.495  1.00  0.00    -0.187 N 
ATOM      5  H2  UNL     1      -3.627  -2.324  -0.618  1.00  0.00     0.185 HD
HETATM    6  C3  UNL     1      -2.647  -0.591  -0.144  1.00  0.00     0.693 A 
HETATM    7  N4  UNL     1      -1.464  -0.010   0.010  1.00  0.00    -0.022 N 
ATOM      8  H4  UNL     1      -1.443   0.974   0.279  1.00  0.00     0.203 HD
HETATM    9  C7  UNL     1      -0.269  -0.655  -0.171  1.00  0.00     0.699 A 
ENDROOT
BRANCH   9  10
HETATM   10  N5  UNL     1       0.753   0.032   0.013  1.00  0.00    -0.204 N 
ATOM     11  H5  UNL     1       0.517   0.989   0.276  1.00  0.00     0.183 HD
BRANCH  10  12
HETATM   12  C8  UNL     1       2.138  -0.157  -0.044  1.00  0.00     0.083 C 
BRANCH  12  13
HETATM   13  C9  UNL     1       2.833   1.194   0.007  1.00  0.00     0.083 C 
BRANCH  13  14
HETATM   14  C10 UNL     1       4.280   1.113  -0.046  1.00  0.00    -0.053 A 
HETATM   15  C11 UNL     1       4.942   1.138  -1.246  1.00  0.00     0.007 A 
HETATM   16  C12 UNL     1       6.315   1.063  -1.346  1.00  0.00     0.001 A 
HETATM   17  C13 UNL     1       7.034   0.957  -0.152  1.00  0.00     0.000 A 
HETATM   18  C14 UNL     1       6.405   0.928   1.072  1.00  0.00     0.001 A 
HETATM   19  C15 UNL     1       5.020   1.007   1.107  1.00  0.00     0.007 A 
ENDBRANCH  13  14
ENDBRANCH  12  13
ENDBRANCH  10  12
ENDBRANCH   9  10
BRANCH   6  20
HETATM   20  N3  UNL     1      -3.732   0.088   0.045  1.00  0.00    -0.225 N 
ATOM     21  H3  UNL     1      -3.650   1.069   0.312  1.00  0.00     0.177 HD
BRANCH  20  22
HETATM   22  C4  UNL     1      -5.048  -0.472  -0.103  1.00  0.00     0.140 C 
BRANCH  22  23
HETATM   23  C5  UNL     1      -6.018   0.443   0.654  1.00  0.00     0.046 C 
BRANCH  23  24
HETATM   24  C6  UNL     1      -5.960   1.838   0.062  1.00  0.00     0.165 C 
BRANCH  24  25
HETATM   25  O1  UNL     1      -6.872   2.617   0.804  1.00  0.00    -0.401 OA
ATOM     26  H1  UNL     1      -6.836   3.491   0.433  1.00  0.00     0.209 HD
ENDBRANCH  24  25
ENDBRANCH  23  24
ENDBRANCH  22  23
ENDBRANCH  20  22
ENDBRANCH   6  20
TORSDOF 9
