REMARK  6 active torsions:
REMARK  status: ('A' for Active; 'I' for Inactive)
REMARK    1  A    between atoms: N2_8  and  C5_10 
REMARK    2  A    between atoms: C5_10  and  C6_11 
REMARK    3  A    between atoms: C6_11  and  C7_12 
REMARK    4  A    between atoms: C7_12  and  C8_13 
REMARK    5  A    between atoms: C8_13  and  C9_14 
REMARK    6  A    between atoms: C9_14  and  C10_15 
ROOT
HETATM    1  C1  UNL     1      -6.997   0.381   0.105  1.00  0.00     0.064 C 
HETATM    2  C2  UNL     1      -5.751  -0.033   0.023  1.00  0.00     0.101 A 
HETATM    3  N1  UNL     1      -5.414  -1.134  -0.810  1.00  0.00    -0.308 N 
ATOM      4  H1  UNL     1      -6.128  -1.618  -1.354  1.00  0.00     0.170 HD
HETATM    5  C3  UNL     1      -4.065  -1.537  -0.862  1.00  0.00     0.279 A 
HETATM    6  O1  UNL     1      -3.760  -2.508  -1.595  1.00  0.00    -0.265 OA
HETATM    7  C4  UNL     1      -2.979  -0.888  -0.106  1.00  0.00     0.165 A 
HETATM    8  N2  UNL     1      -1.784  -1.320  -0.213  1.00  0.00    -0.381 N 
ATOM      9  H2  UNL     1      -1.694  -2.114  -0.846  1.00  0.00     0.160 HD
HETATM   10  C14 UNL     1      -3.367   0.233   0.734  1.00  0.00     0.279 A 
HETATM   11  O2  UNL     1      -2.524   0.878   1.437  1.00  0.00    -0.265 OA
HETATM   12  N4  UNL     1      -4.749   0.623   0.768  1.00  0.00    -0.308 N 
ATOM     13  H4  UNL     1      -5.018   1.410   1.358  1.00  0.00     0.170 HD
ENDROOT
BRANCH   8  14
HETATM   14  C5  UNL     1      -0.573  -0.925   0.362  1.00  0.00     0.120 C 
BRANCH  14  15
HETATM   15  C6  UNL     1       0.176   0.125  -0.476  1.00  0.00     0.020 C 
BRANCH  15  16
HETATM   16  C7  UNL     1       1.436   0.457   0.248  1.00  0.00     0.002 C 
BRANCH  16  17
HETATM   17  C8  UNL     1       2.280   1.478  -0.456  1.00  0.00     0.006 C 
BRANCH  17  18
HETATM   18  C9  UNL     1       3.548   1.798   0.301  1.00  0.00     0.057 C 
BRANCH  18  19
HETATM   19  C10 UNL     1       4.380   0.578   0.471  1.00  0.00     0.009 A 
HETATM   20  C11 UNL     1       5.365   0.097  -0.388  1.00  0.00     0.026 A 
HETATM   21  C12 UNL     1       5.870  -1.057   0.175  1.00  0.00     0.019 A 
HETATM   22  C13 UNL     1       5.194  -1.266   1.359  1.00  0.00     0.088 A 
HETATM   23  N3  UNL     1       4.307  -0.271   1.510  1.00  0.00    -0.369 N 
ATOM     24  H3  UNL     1       3.669  -0.173   2.300  1.00  0.00     0.165 HD
ENDBRANCH  18  19
ENDBRANCH  17  18
ENDBRANCH  16  17
ENDBRANCH  15  16
ENDBRANCH  14  15
ENDBRANCH   8  14
TORSDOF 6
