REMARK  7 active torsions:
REMARK  status: ('A' for Active; 'I' for Inactive)
REMARK    1  A    between atoms: C1_2  and  C2_4 
REMARK    2  A    between atoms: C2_4  and  N2_5 
REMARK    3  A    between atoms: N2_5  and  C3_7 
REMARK    4  A    between atoms: N4_13  and  C7_15 
REMARK    5  A    between atoms: C7_15  and  C8_16 
REMARK    6  A    between atoms: C8_16  and  C9_17 
REMARK    7  A    between atoms: C9_17  and  C10_18 
ROOT
HETATM    1  C3  UNL     1       2.929  -0.396  -0.471  1.00  0.00     0.679 A 
HETATM    2  N3  UNL     1       3.422   0.807  -0.157  1.00  0.00    -0.202 N 
ATOM      3  H3  UNL     1       4.409   1.018  -0.304  1.00  0.00     0.183 HD
HETATM    4  C4  UNL     1       2.595   1.730   0.354  1.00  0.00     0.110 A 
HETATM    5  C5  UNL     1       1.239   1.419   0.549  1.00  0.00     0.066 A 
HETATM    6  C6  UNL     1       0.741   0.186   0.225  1.00  0.00     0.118 A 
HETATM    7  N4  UNL     1      -0.477  -0.139   0.384  1.00  0.00    -0.376 N 
ATOM      8  H4  UNL     1      -0.782  -1.076   0.122  1.00  0.00     0.161 HD
HETATM    9  N5  UNL     1       1.632  -0.712  -0.292  1.00  0.00    -0.177 N 
ATOM     10  H5  UNL     1       1.307  -1.644  -0.549  1.00  0.00     0.185 HD
ENDROOT
BRANCH   7  11
HETATM   11  C7  UNL     1      -1.433   0.787   0.926  1.00  0.00     0.121 C 
BRANCH  11  12
HETATM   12  C8  UNL     1      -2.023   1.672  -0.123  1.00  0.00     0.024 C 
BRANCH  12  13
HETATM   13  C9  UNL     1      -2.762   0.903  -1.142  1.00  0.00     0.040 C 
BRANCH  13  14
HETATM   14  C10 UNL     1      -3.916   0.122  -0.700  1.00  0.00    -0.058 A 
HETATM   15  C11 UNL     1      -3.759  -1.208  -0.397  1.00  0.00     0.007 A 
HETATM   16  C12 UNL     1      -4.822  -2.010   0.044  1.00  0.00     0.001 A 
HETATM   17  C13 UNL     1      -6.045  -1.388   0.158  1.00  0.00     0.000 A 
HETATM   18  C14 UNL     1      -6.219  -0.057  -0.142  1.00  0.00     0.001 A 
HETATM   19  C15 UNL     1      -5.175   0.716  -0.571  1.00  0.00     0.007 A 
ENDBRANCH  13  14
ENDBRANCH  12  13
ENDBRANCH  11  12
ENDBRANCH   7  11
BRANCH   1  20
HETATM   20  N2  UNL     1       3.694  -1.290  -0.959  1.00  0.00    -0.218 N 
ATOM     21  H2  UNL     1       3.280  -2.194  -1.185  1.00  0.00     0.178 HD
BRANCH  20  22
HETATM   22  C2  UNL     1       5.099  -1.117  -1.214  1.00  0.00     0.237 C 
BRANCH  22  23
HETATM   23  C1  UNL     1       5.899  -1.203   0.029  1.00  0.00     0.249 C 
HETATM   24  N1  UNL     1       7.294  -1.062   0.010  1.00  0.00    -0.061 NA
HETATM   25  O1  UNL     1       5.303  -1.407   1.113  1.00  0.00    -0.275 OA
ENDBRANCH  22  23
ENDBRANCH  20  22
ENDBRANCH   1  20
TORSDOF 7
