REMARK  9 active torsions:
REMARK  status: ('A' for Active; 'I' for Inactive)
REMARK    1  A    between atoms: C1_4  and  N2_5 
REMARK    2  A    between atoms: C1_4  and  C20_33 
REMARK    3  A    between atoms: N2_5  and  N3_7 
REMARK    4  A    between atoms: N3_7  and  C2_8 
REMARK    5  A    between atoms: N3_7  and  C15_26 
REMARK    6  A    between atoms: C6_12  and  S1_13 
REMARK    7  A    between atoms: S1_13  and  N4_16 
REMARK    8  A    between atoms: N4_16  and  C7_18 
REMARK    9  A    between atoms: C7_18  and  C8_19 
ROOT
HETATM    1  N3  UNL     1      -1.889  -0.540  -0.114  1.00  0.00    -0.238 N 
ENDROOT
BRANCH   1   2
HETATM    2  N2  UNL     1      -1.846   0.758   0.310  1.00  0.00    -0.275 N 
ATOM      3  H2  UNL     1      -1.138   1.365  -0.103  1.00  0.00     0.189 HD
BRANCH   2   4
HETATM    4  C1  UNL     1      -2.709   1.325   1.280  1.00  0.00     0.142 C 
HETATM    5  N1  UNL     1      -2.535   1.037   2.508  1.00  0.00    -0.383 N 
ATOM      6  H12 UNL     1      -1.790   0.409   2.810  1.00  0.00     0.157 HD
ATOM      7  H11 UNL     1      -3.156   1.445   3.206  1.00  0.00     0.157 HD
BRANCH   4   8
HETATM    8  C20 UNL     1      -3.766   2.217   0.851  1.00  0.00     0.093 A 
HETATM    9  C21 UNL     1      -4.647   2.807   1.750  1.00  0.00     0.121 A 
HETATM   10  N6  UNL     1      -5.613   3.629   1.304  1.00  0.00    -0.372 N 
HETATM   11  C22 UNL     1      -5.782   3.922   0.002  1.00  0.00     0.104 A 
ATOM     12  H6  UNL     1      -6.247   4.050   1.984  1.00  0.00     0.164 HD
HETATM   13  C23 UNL     1      -4.910   3.339  -0.893  1.00  0.00     0.105 A 
HETATM   14  N7  UNL     1      -3.944   2.517  -0.449  1.00  0.00    -0.360 N 
ATOM     15  H7  UNL     1      -3.313   2.099  -1.133  1.00  0.00     0.165 HD
ENDBRANCH   4   8
ENDBRANCH   2   4
ENDBRANCH   1   2
BRANCH   1  16
HETATM   16  C2  UNL     1      -0.670  -1.269  -0.286  1.00  0.00     0.060 A 
HETATM   17  C3  UNL     1      -0.474  -2.045  -1.419  1.00  0.00     0.031 A 
HETATM   18  C4  UNL     1       0.696  -2.739  -1.574  1.00  0.00     0.004 A 
HETATM   19  C5  UNL     1       1.705  -2.686  -0.615  1.00  0.00     0.025 A 
HETATM   20  C6  UNL     1       1.501  -1.914   0.505  1.00  0.00     0.081 A 
HETATM   21  C14 UNL     1       0.331  -1.218   0.664  1.00  0.00     0.057 A 
BRANCH  20  22
HETATM   22  S1  UNL     1       2.752  -1.834   1.719  1.00  0.00     0.259 S 
HETATM   23  O1  UNL     1       2.138  -1.550   3.044  1.00  0.00    -0.201 OA
HETATM   24  O2  UNL     1       3.494  -3.143   1.698  1.00  0.00    -0.201 OA
BRANCH  22  25
HETATM   25  N4  UNL     1       3.790  -0.523   1.317  1.00  0.00    -0.311 N 
ATOM     26  H4  UNL     1       3.944   0.295   1.906  1.00  0.00     0.172 HD
BRANCH  25  27
HETATM   27  C7  UNL     1       4.426  -0.740   0.010  1.00  0.00     0.170 C 
BRANCH  27  28
HETATM   28  C8  UNL     1       5.288   0.437  -0.233  1.00  0.00    -0.040 A 
HETATM   29  C9  UNL     1       4.821   1.558  -0.877  1.00  0.00     0.009 A 
HETATM   30  C10 UNL     1       5.604   2.658  -1.111  1.00  0.00     0.001 A 
HETATM   31  C11 UNL     1       6.910   2.626  -0.680  1.00  0.00     0.000 A 
HETATM   32  C12 UNL     1       7.441   1.519  -0.022  1.00  0.00     0.001 A 
HETATM   33  C13 UNL     1       6.596   0.436   0.185  1.00  0.00     0.009 A 
ENDBRANCH  27  28
ENDBRANCH  25  27
ENDBRANCH  22  25
ENDBRANCH  20  22
ENDBRANCH   1  16
BRANCH   1  34
HETATM   34  C15 UNL     1      -3.101  -1.224  -0.399  1.00  0.00     0.127 A 
HETATM   35  C16 UNL     1      -3.744  -1.933   0.589  1.00  0.00     0.050 A 
HETATM   36  C17 UNL     1      -4.918  -2.599   0.329  1.00  0.00     0.005 A 
HETATM   37  C18 UNL     1      -5.463  -2.557  -0.939  1.00  0.00     0.017 A 
HETATM   38  C19 UNL     1      -4.778  -1.829  -1.898  1.00  0.00     0.090 A 
HETATM   39  N5  UNL     1      -3.639  -1.191  -1.622  1.00  0.00    -0.351 N 
ATOM     40  H5  UNL     1      -3.169  -0.667  -2.360  1.00  0.00     0.166 HD
ENDBRANCH   1  34
TORSDOF 9
