REMARK  3 active torsions:
REMARK  status: ('A' for Active; 'I' for Inactive)
REMARK       I    between atoms: C1_2  and  N1_3 
REMARK       I    between atoms: C1_2  and  N2_12 
REMARK    1  A    between atoms: N1_3  and  C2_5 
REMARK    2  A    between atoms: N2_12  and  C9_14 
REMARK    3  A    between atoms: N3_17  and  C12_18 
ROOT
HETATM    1  C9  UNL     1      -0.195   0.706   0.164  1.00  0.00     0.089 C 
HETATM    2  C10 UNL     1      -0.846   0.112   1.388  1.00  0.00     0.055 C 
HETATM    3  C11 UNL     1      -2.243  -0.404   1.027  1.00  0.00     0.275 C 
HETATM    4  N3  UNL     1      -3.012   0.694   0.566  1.00  0.00     0.093 N 
HETATM    5  C19 UNL     1      -2.424   1.185  -0.666  1.00  0.00     0.275 C 
HETATM    6  C20 UNL     1      -1.097   1.853  -0.285  1.00  0.00     0.055 C 
ENDROOT
BRANCH   1   7
HETATM    7  N2  UNL     1       1.137   1.111   0.451  1.00  0.00    -0.338 N 
HETATM    8  C1  UNL     1       2.219   0.522  -0.252  1.00  0.00     0.316 C 
HETATM    9  O1  UNL     1       2.054  -0.363  -1.139  1.00  0.00    -0.247 OA
HETATM   10  N1  UNL     1       3.559   0.913   0.021  1.00  0.00    -0.339 N 
ATOM     11  H1  UNL     1       3.721   1.624   0.734  1.00  0.00     0.164 HD
ATOM     12  H2  UNL     1       1.314   1.823   1.160  1.00  0.00     0.164 HD
BRANCH  10  13
HETATM   13  C2  UNL     1       4.697   0.353  -0.660  1.00  0.00     0.086 C 
HETATM   14  C3  UNL     1       5.479   1.384  -1.442  1.00  0.00     0.025 C 
HETATM   15  C4  UNL     1       5.977   0.755  -2.698  1.00  0.00     0.002 C 
HETATM   16  C5  UNL     1       7.132  -0.174  -2.523  1.00  0.00     0.000 C 
HETATM   17  C6  UNL     1       6.950  -1.190  -1.435  1.00  0.00     0.000 C 
HETATM   18  C7  UNL     1       6.990  -0.499  -0.090  1.00  0.00     0.002 C 
HETATM   19  C8  UNL     1       5.583  -0.298   0.378  1.00  0.00     0.025 C 
ENDBRANCH  10  13
ENDBRANCH   1   7
BRANCH   4  20
HETATM   20  C12 UNL     1      -4.425   0.459   0.444  1.00  0.00     0.223 C 
HETATM   21  C13 UNL     1      -5.016   0.145   1.779  1.00  0.00     0.036 C 
HETATM   22  C14 UNL     1      -6.517   0.032   1.759  1.00  0.00     0.002 C 
HETATM   23  C15 UNL     1      -6.856  -1.448   1.742  1.00  0.00     0.000 C 
HETATM   24  C16 UNL     1      -6.056  -2.135   0.683  1.00  0.00     0.000 C 
HETATM   25  C17 UNL     1      -6.006  -1.244  -0.528  1.00  0.00     0.002 C 
HETATM   26  C18 UNL     1      -4.727  -0.489  -0.645  1.00  0.00     0.036 C 
ENDBRANCH   4  20
TORSDOF 3
