REMARK  2 active torsions:
REMARK  status: ('A' for Active; 'I' for Inactive)
REMARK       I    between atoms: N1_2  and  C3_4 
REMARK       I    between atoms: C3_4  and  N4_9 
REMARK    1  A    between atoms: N4_9  and  N5_11 
REMARK    2  A    between atoms: C5_13  and  N6_14 
REMARK       I    between atoms: N6_14  and  C6_16 
ROOT
HETATM    1  C1  UNL     1      -3.043   1.162   1.081  1.00  0.00     0.168 C 
HETATM    2  N1  UNL     1      -2.661   0.489  -0.149  1.00  0.00    -0.225 N 
HETATM    3  C2  UNL     1      -2.915   1.072  -1.455  1.00  0.00     0.168 C 
HETATM    4  C3  UNL     1      -2.020  -0.774  -0.106  1.00  0.00     0.703 C 
HETATM    5  N2  UNL     1      -2.756  -1.826  -0.215  1.00  0.00    -0.125 N 
ATOM      6  H2  UNL     1      -3.763  -1.712  -0.327  1.00  0.00     0.197 HD
HETATM    7  C4  UNL     1      -2.222  -3.120  -0.185  1.00  0.00     0.196 C 
HETATM    8  N3  UNL     1      -1.786  -4.204  -0.147  1.00  0.00    -0.171 NA
HETATM    9  N4  UNL     1      -0.610  -0.833   0.054  1.00  0.00    -0.131 N 
ATOM     10  H4  UNL     1      -0.028  -1.349  -0.605  1.00  0.00     0.205 HD
ENDROOT
BRANCH   9  11
HETATM   11  N5  UNL     1      -0.046  -0.164   1.139  1.00  0.00    -0.282 N 
HETATM   12  C5  UNL     1       1.217  -0.111   1.297  1.00  0.00     0.200 C 
ATOM     13  H5  UNL     1      -0.655   0.291   1.819  1.00  0.00     0.188 HD
BRANCH  12  14
HETATM   14  N6  UNL     1       2.056  -0.743   0.349  1.00  0.00    -0.325 N 
HETATM   15  C6  UNL     1       3.211   0.000  -0.078  1.00  0.00     0.202 C 
HETATM   16  N7  UNL     1       4.325   0.116   0.801  1.00  0.00    -0.062 NA
HETATM   17  N8  UNL     1       3.180   0.525  -1.234  1.00  0.00    -0.267 N 
HETATM   18  C7  UNL     1       4.309   1.260  -1.667  1.00  0.00     0.184 C 
ATOM     19  H8  UNL     1       2.362   0.420  -1.835  1.00  0.00     0.180 HD
HETATM   20  N9  UNL     1       5.242   1.860  -2.005  1.00  0.00    -0.172 NA
ATOM     21  H6  UNL     1       1.853  -1.675  -0.012  1.00  0.00     0.169 HD
ENDBRANCH  12  14
ENDBRANCH   9  11
TORSDOF 2
