REMARK  2 active torsions:
REMARK  status: ('A' for Active; 'I' for Inactive)
REMARK    1  A    between atoms: C1_4  and  C2_5 
REMARK    2  A    between atoms: C3_6  and  C4_7 
ROOT
HETATM    1  C2  UNL     1      -0.796  -0.176   0.106  1.00  0.00    -0.059 C 
HETATM    2  C3  UNL     1       0.363   0.150   0.173  1.00  0.00    -0.070 C 
ENDROOT
BRANCH   1   3
HETATM    3  C1  UNL     1      -2.174  -0.548   0.044  1.00  0.00     0.146 C 
HETATM    4  N1  UNL     1      -3.093   0.293   0.378  1.00  0.00    -0.401 N 
ATOM      5  H12 UNL     1      -2.817   1.225   0.686  1.00  0.00     0.156 HD
ATOM      6  H11 UNL     1      -4.077   0.027   0.334  1.00  0.00     0.156 HD
ENDBRANCH   1   3
BRANCH   2   7
HETATM    7  C4  UNL     1       1.781   0.574   0.262  1.00  0.00     0.200 A 
HETATM    8  C5  UNL     1       2.663   0.076  -0.710  1.00  0.00     0.095 A 
HETATM    9  N2  UNL     1       2.686  -0.445   0.508  1.00  0.00    -0.380 N 
ATOM     10  H2  UNL     1       3.086  -1.118   1.162  1.00  0.00     0.160 HD
ENDBRANCH   2   7
TORSDOF 2
