REMARK  1 active torsions:
REMARK  status: ('A' for Active; 'I' for Inactive)
REMARK    1  A    between atoms: C1_2  and  C2_4 
ROOT
HETATM    1  C2  UNL     1       0.454  -0.176   0.203  1.00  0.00     0.067 A 
HETATM    2  C3  UNL     1      -0.378   0.882   0.509  1.00  0.00     0.032 A 
HETATM    3  C4  UNL     1      -1.756   0.792   0.325  1.00  0.00     0.004 A 
HETATM    4  C5  UNL     1      -2.326  -0.364  -0.171  1.00  0.00     0.017 A 
HETATM    5  C6  UNL     1      -1.455  -1.396  -0.462  1.00  0.00     0.088 A 
HETATM    6  N2  UNL     1      -0.117  -1.294  -0.278  1.00  0.00    -0.364 N 
ATOM      7  H2  UNL     1       0.476  -2.090  -0.512  1.00  0.00     0.165 HD
ENDROOT
BRANCH   1   8
HETATM    8  C1  UNL     1       1.897  -0.044   0.410  1.00  0.00     0.139 C 
HETATM    9  N1  UNL     1       2.734   0.352  -0.653  1.00  0.00    -0.087 NA
HETATM   10  S1  UNL     1       2.471  -0.374   1.911  1.00  0.00    -0.061 SA
ENDBRANCH   1   8
TORSDOF 1
