REMARK  1 active torsions:
REMARK  status: ('A' for Active; 'I' for Inactive)
REMARK    1  A    between atoms: C3_3  and  O1_4 
ROOT
HETATM    1  C1  UNL     1       2.370   1.039  -0.185  1.00  0.00     0.018 C 
HETATM    2  C2  UNL     1       1.508   0.227  -0.024  1.00  0.00    -0.044 C 
HETATM    3  C3  UNL     1       0.491  -0.764   0.177  1.00  0.00     0.288 C 
HETATM    4  O2  UNL     1      -0.181  -1.211  -0.946  1.00  0.00    -0.183 OA
HETATM    5  O3  UNL     1      -1.208  -1.494  -0.143  1.00  0.00    -0.225 OA
HETATM    6  C4  UNL     1      -0.871  -0.310   0.552  1.00  0.00     0.234 C 
HETATM    7  C5  UNL     1      -1.440   0.866  -0.168  1.00  0.00     0.049 C 
ENDROOT
BRANCH   3   8
HETATM    8  O1  UNL     1       0.894  -1.836   0.976  1.00  0.00    -0.352 OA
ATOM      9  H1  UNL     1       0.220  -2.492   1.109  1.00  0.00     0.214 HD
ENDBRANCH   3   8
TORSDOF 1
