REMARK  5 active torsions:
REMARK  status: ('A' for Active; 'I' for Inactive)
REMARK    1  A    between atoms: C2_2  and  C4_4 
REMARK    2  A    between atoms: C8_11  and  C9_12 
REMARK    3  A    between atoms: C10_13  and  S1_14 
REMARK    4  A    between atoms: C13_22  and  N3_23 
REMARK    5  A    between atoms: C22_35  and  C23_36 
ROOT
HETATM    1  C4  UNL     1      -2.211  -2.397  -0.219  1.00  0.00     0.180 C 
HETATM    2  N1  UNL     1      -0.919  -2.938   0.184  1.00  0.00    -0.347 N 
ATOM      3  H1  UNL     1      -0.906  -3.927   0.434  1.00  0.00     0.163 HD
HETATM    4  C5  UNL     1       0.305  -2.266   0.270  1.00  0.00     0.224 C 
HETATM    5  O1  UNL     1       0.849  -2.249   1.442  1.00  0.00    -0.273 OA
HETATM    6  C6  UNL     1       1.054  -1.578  -0.793  1.00  0.00     0.100 C 
HETATM    7  C7  UNL     1       0.295  -0.636  -1.641  1.00  0.00     0.022 C 
HETATM    8  C8  UNL     1       2.240  -0.797  -0.206  1.00  0.00     0.120 C 
HETATM    9  N2  UNL     1       2.830   0.065  -1.186  1.00  0.00    -0.351 N 
ATOM     10  H2  UNL     1       2.976  -0.355  -2.104  1.00  0.00     0.163 HD
HETATM   11  C12 UNL     1       3.234   1.394  -1.069  1.00  0.00     0.251 C 
HETATM   12  O4  UNL     1       3.789   1.999  -2.060  1.00  0.00    -0.271 OA
HETATM   13  C13 UNL     1       3.101   2.269   0.133  1.00  0.00     0.313 C 
HETATM   14  C16 UNL     1       2.336   3.518  -0.142  1.00  0.00     0.045 C 
HETATM   15  C17 UNL     1       1.131   3.690   0.770  1.00  0.00     0.003 C 
HETATM   16  C18 UNL     1      -0.036   4.281   0.001  1.00  0.00     0.002 C 
HETATM   17  C19 UNL     1      -0.592   3.351  -1.015  1.00  0.00     0.020 C 
HETATM   18  C20 UNL     1      -1.985   2.857  -0.745  1.00  0.00     0.122 C 
HETATM   19  N4  UNL     1      -2.260   2.578   0.653  1.00  0.00    -0.359 N 
ATOM     20  H4  UNL     1      -1.654   2.983   1.366  1.00  0.00     0.162 HD
HETATM   21  C21 UNL     1      -3.358   1.751   1.062  1.00  0.00     0.240 C 
HETATM   22  O5  UNL     1      -4.122   2.221   1.934  1.00  0.00    -0.271 OA
HETATM   23  C22 UNL     1      -3.641   0.407   0.532  1.00  0.00     0.182 C 
HETATM   24  N5  UNL     1      -3.227  -0.675   1.433  1.00  0.00    -0.341 N 
HETATM   25  C26 UNL     1      -3.040  -0.383   2.846  1.00  0.00     0.153 C 
HETATM   26  C27 UNL     1      -3.015  -2.002   0.974  1.00  0.00     0.243 C 
HETATM   27  O6  UNL     1      -3.578  -2.922   1.666  1.00  0.00    -0.271 OA
ENDROOT
BRANCH   8  28
HETATM   28  C9  UNL     1       3.225  -1.764   0.361  1.00  0.00     0.010 C 
HETATM   29  C10 UNL     1       3.872  -2.581  -0.455  1.00  0.00     0.106 C 
BRANCH  29  30
HETATM   30  S1  UNL     1       5.046  -3.755   0.090  1.00  0.00     0.161 S 
HETATM   31  C11 UNL     1       6.443  -2.902   0.804  1.00  0.00     0.166 C 
HETATM   32  O2  UNL     1       5.540  -4.550  -1.060  1.00  0.00    -0.224 OA
HETATM   33  O3  UNL     1       4.403  -4.653   1.132  1.00  0.00    -0.224 OA
ENDBRANCH  29  30
ENDBRANCH   8  28
BRANCH  13  34
HETATM   34  N3  UNL     1       4.387   2.616   0.683  1.00  0.00     0.093 N 
HETATM   35  C14 UNL     1       5.238   3.363  -0.187  1.00  0.00     0.310 C 
HETATM   36  C15 UNL     1       5.067   1.578   1.373  1.00  0.00     0.310 C 
ENDBRANCH  13  34
BRANCH   1  37
HETATM   37  C2  UNL     1      -2.976  -3.424  -1.015  1.00  0.00     0.009 C 
HETATM   38  C1  UNL     1      -3.282  -4.701  -0.314  1.00  0.00     0.012 C 
HETATM   39  C3  UNL     1      -2.274  -3.681  -2.362  1.00  0.00     0.012 C 
ENDBRANCH   1  37
BRANCH  23  40
HETATM   40  C23 UNL     1      -5.081   0.328   0.135  1.00  0.00     0.009 C 
HETATM   41  C24 UNL     1      -5.303   1.407  -0.935  1.00  0.00     0.012 C 
HETATM   42  C25 UNL     1      -6.052   0.599   1.243  1.00  0.00     0.012 C 
ENDBRANCH  23  40
TORSDOF 5
