REMARK  7 active torsions:
REMARK  status: ('A' for Active; 'I' for Inactive)
REMARK    1  A    between atoms: N1_1  and  C1_4 
REMARK    2  A    between atoms: N3_9  and  C4_10 
REMARK    3  A    between atoms: C4_10  and  C5_11 
REMARK    4  A    between atoms: N4_19  and  C12_20 
REMARK    5  A    between atoms: C12_20  and  C13_21 
REMARK    6  A    between atoms: C16_24  and  O2_25 
REMARK    7  A    between atoms: O2_25  and  C17_26 
ROOT
HETATM    1  C1  UNL     1       0.097  -1.352   2.004  1.00  0.00     0.131 A 
HETATM    2  C2  UNL     1      -1.114  -1.030   2.567  1.00  0.00     0.119 A 
HETATM    3 CL1  UNL     1      -1.169  -0.704   4.306  1.00  0.00    -0.077 Cl
HETATM    4  C3  UNL     1      -2.253  -0.965   1.791  1.00  0.00     0.152 A 
HETATM    5  N2  UNL     1      -3.470  -0.676   2.453  1.00  0.00    -0.080 NA
HETATM    6  N3  UNL     1      -2.236  -1.208   0.471  1.00  0.00    -0.260 N 
HETATM    7  C11 UNL     1      -1.012  -1.528  -0.053  1.00  0.00     0.336 A 
HETATM    8  O1  UNL     1      -1.045  -1.768  -1.294  1.00  0.00    -0.246 OA
HETATM    9  N4  UNL     1       0.125  -1.599   0.673  1.00  0.00    -0.279 N 
ENDROOT
BRANCH   9  10
HETATM   10  C12 UNL     1       1.345  -2.029   0.092  1.00  0.00     0.175 C 
BRANCH  10  11
HETATM   11  C13 UNL     1       2.467  -1.099  -0.052  1.00  0.00    -0.018 A 
HETATM   12  C14 UNL     1       3.614  -1.326   0.741  1.00  0.00     0.013 A 
HETATM   13  C15 UNL     1       4.731  -0.564   0.687  1.00  0.00     0.037 A 
HETATM   14  C16 UNL     1       4.825   0.518  -0.173  1.00  0.00     0.076 A 
HETATM   15  C18 UNL     1       3.724   0.759  -0.955  1.00  0.00     0.061 A 
HETATM   16  C19 UNL     1       2.560  -0.040  -0.895  1.00  0.00     0.044 A 
HETATM   17 CL2  UNL     1       1.275   0.435  -1.984  1.00  0.00    -0.084 Cl
BRANCH  14  18
HETATM   18  O2  UNL     1       5.976   1.254  -0.186  1.00  0.00    -0.290 OA
BRANCH  18  19
HETATM   19  C17 UNL     1       6.304   2.365  -0.945  1.00  0.00     0.505 C 
HETATM   20  F1  UNL     1       6.474   3.489  -0.124  1.00  0.00    -0.184 F 
HETATM   21  F2  UNL     1       7.466   2.203  -1.680  1.00  0.00    -0.184 F 
ENDBRANCH  18  19
ENDBRANCH  14  18
ENDBRANCH  10  11
ENDBRANCH   9  10
BRANCH   1  22
HETATM   22  N1  UNL     1       1.147  -1.405   2.769  1.00  0.00    -0.384 N 
ATOM     23  H12 UNL     1       1.126  -1.219   3.772  1.00  0.00     0.157 HD
ATOM     24  H11 UNL     1       2.046  -1.644   2.351  1.00  0.00     0.157 HD
ENDBRANCH   1  22
BRANCH   6  25
HETATM   25  C4  UNL     1      -3.419  -1.117  -0.362  1.00  0.00     0.114 C 
BRANCH  25  26
HETATM   26  C5  UNL     1      -3.667   0.135  -1.050  1.00  0.00    -0.020 A 
HETATM   27  C6  UNL     1      -3.284   0.324  -2.377  1.00  0.00     0.013 A 
HETATM   28  C7  UNL     1      -3.502   1.512  -3.066  1.00  0.00     0.001 A 
HETATM   29  C8  UNL     1      -4.120   2.546  -2.419  1.00  0.00     0.000 A 
HETATM   30  C9  UNL     1      -4.515   2.405  -1.112  1.00  0.00     0.001 A 
HETATM   31  C10 UNL     1      -4.281   1.196  -0.446  1.00  0.00     0.013 A 
ENDBRANCH  25  26
ENDBRANCH   6  25
TORSDOF 7
