REMARK  6 active torsions:
REMARK  status: ('A' for Active; 'I' for Inactive)
REMARK    1  A    between atoms: O1_2  and  C2_3 
REMARK       I    between atoms: N1_6  and  C5_7 
REMARK    2  A    between atoms: C5_7  and  C6_9 
REMARK    3  A    between atoms: C6_9  and  N2_10 
REMARK    4  A    between atoms: C6_9  and  C18_24 
REMARK       I    between atoms: N2_10  and  C7_12 
REMARK    5  A    between atoms: C7_12  and  C8_14 
REMARK    6  A    between atoms: C21_27  and  C22_28 
ROOT
HETATM    1  C6  UNL     1      -0.853  -0.050  -1.217  1.00  0.00     0.180 C 
ENDROOT
BRANCH   1   2
HETATM    2  C5  UNL     1      -1.887   0.877  -0.701  1.00  0.00     0.243 C 
HETATM    3  N1  UNL     1      -3.135   0.514  -0.165  1.00  0.00    -0.333 N 
HETATM    4  C4  UNL     1      -4.136   1.452   0.293  1.00  0.00     0.129 C 
HETATM    5  C21 UNL     1      -3.613  -0.825   0.050  1.00  0.00     0.217 C 
HETATM    6  C3  UNL     1      -5.170   0.707   1.065  1.00  0.00     0.054 C 
HETATM    7  C2  UNL     1      -5.052  -0.703   0.530  1.00  0.00     0.155 C 
HETATM    8  O2  UNL     1      -1.612   2.131  -0.749  1.00  0.00    -0.271 OA
BRANCH   7   9
HETATM    9  O1  UNL     1      -5.322  -1.563   1.590  1.00  0.00    -0.388 OA
HETATM   10  C1  UNL     1      -6.388  -2.380   1.302  1.00  0.00     0.202 C 
ENDBRANCH   7   9
BRANCH   5  11
HETATM   11  C22 UNL     1      -2.889  -1.501   1.164  1.00  0.00     0.199 C 
HETATM   12  O4  UNL     1      -3.168  -2.684   1.478  1.00  0.00    -0.646 OA
HETATM   13  O5  UNL     1      -1.916  -0.802   1.833  1.00  0.00    -0.646 OA
ENDBRANCH   5  11
ENDBRANCH   1   2
BRANCH   1  14
HETATM   14  N2  UNL     1       0.489   0.424  -0.831  1.00  0.00    -0.347 N 
HETATM   15  C7  UNL     1       1.418  -0.416  -0.170  1.00  0.00     0.227 C 
HETATM   16  O3  UNL     1       1.046  -1.599   0.078  1.00  0.00    -0.273 OA
ATOM     17  H2  UNL     1       0.756   1.385  -1.046  1.00  0.00     0.163 HD
BRANCH  15  18
HETATM   18  C8  UNL     1       2.758  -0.016   0.241  1.00  0.00     0.042 C 
HETATM   19  C9  UNL     1       2.605   1.155   1.210  1.00  0.00     0.024 C 
HETATM   20  C10 UNL     1       3.935   1.596   1.746  1.00  0.00    -0.013 C 
HETATM   21  C11 UNL     1       4.544   0.460   2.532  1.00  0.00     0.009 C 
HETATM   22  C15 UNL     1       4.808   1.991   0.597  1.00  0.00     0.009 C 
HETATM   23  C12 UNL     1       4.719  -0.712   1.594  1.00  0.00    -0.013 C 
HETATM   24  C13 UNL     1       5.649  -0.332   0.470  1.00  0.00     0.009 C 
HETATM   25  C17 UNL     1       3.399  -1.134   1.026  1.00  0.00     0.024 C 
HETATM   26  C14 UNL     1       4.993   0.780  -0.314  1.00  0.00    -0.013 C 
HETATM   27  C16 UNL     1       3.668   0.342  -0.904  1.00  0.00     0.024 C 
ENDBRANCH  15  18
ENDBRANCH   1  14
BRANCH   1  28
HETATM   28  C18 UNL     1      -0.878  -0.057  -2.730  1.00  0.00     0.009 C 
HETATM   29  C19 UNL     1      -2.156  -0.478  -3.350  1.00  0.00     0.012 C 
HETATM   30  C20 UNL     1      -0.403   1.246  -3.335  1.00  0.00     0.012 C 
ENDBRANCH   1  28
TORSDOF 6
