REMARK  2 active torsions:
REMARK  status: ('A' for Active; 'I' for Inactive)
REMARK    1  A    between atoms: C4_7  and  C5_8 
REMARK    2  A    between atoms: C5_8  and  C6_9 
ROOT
HETATM    1 BR1  UNL     1       2.438  -2.592   0.866  1.00  0.00    -0.049 Br
HETATM    2  C1  UNL     1       2.604  -0.744   0.402  1.00  0.00     0.034 A 
HETATM    3  C2  UNL     1       3.693   0.041   0.714  1.00  0.00     0.038 A 
HETATM    4  C3  UNL     1       3.468   1.320   0.223  1.00  0.00     0.089 A 
HETATM    5  N1  UNL     1       2.243   1.273  -0.374  1.00  0.00    -0.368 N 
ATOM      6  H1  UNL     1       1.792   2.065  -0.832  1.00  0.00     0.165 HD
HETATM    7  C4  UNL     1       1.718   0.063  -0.279  1.00  0.00     0.026 A 
ENDROOT
BRANCH   7   8
HETATM    8  C5  UNL     1       0.413  -0.392  -0.796  1.00  0.00     0.063 C 
BRANCH   8   9
HETATM    9  C6  UNL     1      -0.640  -0.539   0.278  1.00  0.00    -0.009 C 
HETATM   10  C7  UNL     1      -1.897  -1.006  -0.422  1.00  0.00     0.005 C 
HETATM   11  C8  UNL     1      -2.943  -0.738   0.659  1.00  0.00     0.000 C 
HETATM   12  C9  UNL     1      -2.559   0.673   1.064  1.00  0.00     0.000 C 
HETATM   13  C10 UNL     1      -1.062   0.768   0.861  1.00  0.00     0.005 C 
ENDBRANCH   8   9
ENDBRANCH   7   8
TORSDOF 2
