REMARK  2 active torsions:
REMARK  status: ('A' for Active; 'I' for Inactive)
REMARK       I    between atoms: N1_9  and  C7_10 
REMARK       I    between atoms: C7_10  and  N2_12 
REMARK    1  A    between atoms: N2_12  and  C8_14 
REMARK    2  A    between atoms: C8_14  and  C9_15 
ROOT
HETATM    1  C1  UNL     1      -2.277   2.242  -0.665  1.00  0.00     0.032 C 
HETATM    2  C2  UNL     1      -2.073   0.789  -1.112  1.00  0.00     0.090 C 
HETATM    3  C3  UNL     1      -3.386   0.087  -0.978  1.00  0.00     0.104 C 
HETATM    4  C4  UNL     1      -3.568  -0.671   0.288  1.00  0.00     0.247 C 
HETATM    5  F1  UNL     1      -4.857  -0.483   0.805  1.00  0.00    -0.206 F 
HETATM    6  F2  UNL     1      -3.495  -2.046   0.019  1.00  0.00    -0.206 F 
HETATM    7  C5  UNL     1      -2.583  -0.378   1.359  1.00  0.00     0.099 C 
HETATM    8  C6  UNL     1      -1.187  -0.557   0.812  1.00  0.00     0.134 C 
HETATM    9  N1  UNL     1      -0.991   0.167  -0.427  1.00  0.00    -0.330 N 
HETATM   10  C7  UNL     1       0.343   0.215  -0.907  1.00  0.00     0.318 C 
HETATM   11  O1  UNL     1       0.542   0.841  -1.988  1.00  0.00    -0.247 OA
HETATM   12  N2  UNL     1       1.437  -0.379  -0.270  1.00  0.00    -0.343 N 
ATOM     13  H2  UNL     1       1.285  -0.886   0.602  1.00  0.00     0.164 HD
ENDROOT
BRANCH  12  14
HETATM   14  C8  UNL     1       2.773  -0.298  -0.806  1.00  0.00     0.129 C 
BRANCH  14  15
HETATM   15  C9  UNL     1       3.786  -1.003   0.036  1.00  0.00     0.003 A 
HETATM   16  C10 UNL     1       4.025  -0.609   1.445  1.00  0.00     0.007 A 
HETATM   17  C11 UNL     1       5.009  -0.198   0.383  1.00  0.00     0.007 A 
ENDBRANCH  14  15
ENDBRANCH  12  14
TORSDOF 2
