REMARK  3 active torsions:
REMARK  status: ('A' for Active; 'I' for Inactive)
REMARK    1  A    between atoms: C3_4  and  N1_5 
REMARK    2  A    between atoms: N1_5  and  O1_7 
REMARK    3  A    between atoms: O1_7  and  N2_8 
ROOT
HETATM    1  N1  UNL     1       0.866  -0.763   0.504  1.00  0.00    -0.240 N 
ATOM      2  H1  UNL     1       0.564  -1.735   0.576  1.00  0.00     0.197 HD
ENDROOT
BRANCH   1   3
HETATM    3  C3  UNL     1       2.259  -0.481   0.464  1.00  0.00     0.096 A 
HETATM    4  S1  UNL     1       3.040   1.033   0.350  1.00  0.00    -0.083 SA
HETATM    5  C2  UNL     1       4.665   0.509   0.362  1.00  0.00     0.052 A 
HETATM    6  C1  UNL     1       4.542  -0.848   0.456  1.00  0.00     0.010 A 
HETATM    7  C8  UNL     1       3.309  -1.360   0.509  1.00  0.00     0.039 A 
ENDBRANCH   1   3
BRANCH   1   8
HETATM    8  O1  UNL     1      -0.067   0.202   0.451  1.00  0.00    -0.182 OA
BRANCH   8   9
HETATM    9  N2  UNL     1      -1.208  -0.215  -0.136  1.00  0.00    -0.170 NA
HETATM   10  C4  UNL     1      -2.266  -0.118   0.810  1.00  0.00     0.133 C 
HETATM   11  C5  UNL     1      -3.649  -0.197   0.198  1.00  0.00     0.090 C 
HETATM   12  S2  UNL     1      -3.843   1.372  -0.741  1.00  0.00    -0.167 SA
HETATM   13  C6  UNL     1      -2.138   1.731  -1.326  1.00  0.00     0.090 C 
HETATM   14  C7  UNL     1      -1.441   0.389  -1.399  1.00  0.00     0.133 C 
ENDBRANCH   8   9
ENDBRANCH   1   8
TORSDOF 3
