REMARK  1 active torsions:
REMARK  status: ('A' for Active; 'I' for Inactive)
REMARK    1  A    between atoms: C4_6  and  S1_7 
ROOT
HETATM    1  C1  UNL     1       2.188  -2.357   0.500  1.00  0.00     0.147 C 
HETATM    2  N1  UNL     1       1.727  -1.057   0.225  1.00  0.00    -0.380 N 
ATOM      3  H1  UNL     1       2.475  -0.378   0.085  1.00  0.00     0.160 HD
HETATM    4  C2  UNL     1       0.570  -0.566   0.117  1.00  0.00     0.105 C 
HETATM    5  C3  UNL     1       0.434   0.888  -0.187  1.00  0.00    -0.005 C 
HETATM    6  C4  UNL     1       1.440   1.558  -0.721  1.00  0.00     0.089 C 
HETATM    7  C6  UNL     1      -0.817   1.585   0.108  1.00  0.00     0.053 C 
HETATM    8  C7  UNL     1      -2.032   0.755   0.256  1.00  0.00    -0.027 C 
HETATM    9  C8  UNL     1      -2.771   0.616  -1.074  1.00  0.00     0.016 C 
HETATM   10  C9  UNL     1      -3.029   1.428   1.209  1.00  0.00     0.016 C 
HETATM   11  C10 UNL     1      -1.793  -0.626   0.791  1.00  0.00     0.133 C 
HETATM   12  N2  UNL     1      -0.643  -1.271   0.255  1.00  0.00    -0.371 N 
HETATM   13  C11 UNL     1      -0.736  -2.650  -0.144  1.00  0.00     0.151 C 
ENDROOT
BRANCH   6  14
HETATM   14  S1  UNL     1       2.923   0.708  -1.061  1.00  0.00     0.035 S 
HETATM   15  C5  UNL     1       4.317   1.452  -0.262  1.00  0.00     0.132 C 
HETATM   16  O1  UNL     1       3.174   0.446  -2.677  1.00  0.00    -0.254 OA
ENDBRANCH   6  14
TORSDOF 1
