REMARK  3 active torsions:
REMARK  status: ('A' for Active; 'I' for Inactive)
REMARK    1  A    between atoms: C4_5  and  C5_6 
REMARK    2  A    between atoms: C5_6  and  C6_12 
REMARK    3  A    between atoms: N1_7  and  N2_9 
ROOT
HETATM    1  C5  UNL     1       0.137   1.201  -0.310  1.00  0.00     0.046 C 
HETATM    2  N1  UNL     1      -0.047   2.465  -0.387  1.00  0.00    -0.310 N 
ATOM      3  H1  UNL     1      -1.010   2.800  -0.410  1.00  0.00     0.186 HD
ENDROOT
BRANCH   1   4
HETATM    4  C4  UNL     1       1.543   0.737  -0.278  1.00  0.00     0.029 A 
HETATM    5  S1  UNL     1       2.979   1.654  -0.288  1.00  0.00    -0.100 SA
HETATM    6  C3  UNL     1       4.119   0.391  -0.249  1.00  0.00     0.057 A 
HETATM    7  C2  UNL     1       3.341  -0.734  -0.229  1.00  0.00    -0.054 A 
HETATM    8  C1  UNL     1       4.008  -2.110  -0.191  1.00  0.00     0.048 C 
HETATM    9  C12 UNL     1       1.998  -0.553  -0.244  1.00  0.00     0.028 A 
ENDBRANCH   1   4
BRANCH   1  10
HETATM   10  C6  UNL     1      -1.016   0.320  -0.244  1.00  0.00     0.038 C 
HETATM   11  C7  UNL     1      -1.159  -0.485   1.014  1.00  0.00     0.011 C 
HETATM   12  C8  UNL     1      -2.055  -1.675   0.651  1.00  0.00     0.001 C 
HETATM   13  C9  UNL     1      -3.398  -1.117   0.297  1.00  0.00     0.000 C 
HETATM   14  C10 UNL     1      -3.472   0.372   0.254  1.00  0.00     0.001 C 
HETATM   15  C11 UNL     1      -2.330   1.023  -0.487  1.00  0.00     0.011 C 
ENDBRANCH   1  10
BRANCH   2  16
HETATM   16  N2  UNL     1       0.955   3.408  -0.441  1.00  0.00    -0.345 N 
ATOM     17  H22 UNL     1       1.912   3.055  -0.417  1.00  0.00     0.176 HD
ATOM     18  H21 UNL     1       0.808   4.416  -0.502  1.00  0.00     0.176 HD
ENDBRANCH   2  16
TORSDOF 3
