REMARK  2 active torsions:
REMARK  status: ('A' for Active; 'I' for Inactive)
REMARK    1  A    between atoms: C2_2  and  C3_3 
REMARK    2  A    between atoms: C3_3  and  C4_4 
ROOT
HETATM    1  C4  UNL     1       0.383  -0.099  -0.561  1.00  0.00     0.031 A 
HETATM    2  N1  UNL     1       0.650   1.087  -1.112  1.00  0.00    -0.366 N 
ATOM      3  H1  UNL     1       0.010   1.624  -1.698  1.00  0.00     0.165 HD
HETATM    4  C5  UNL     1       1.887   1.459  -0.775  1.00  0.00     0.108 A 
HETATM    5  C6  UNL     1       2.465   0.499   0.021  1.00  0.00     0.045 A 
HETATM    6 BR1  UNL     1       4.226   0.609   0.734  1.00  0.00    -0.048 Br
HETATM    7  C7  UNL     1       1.502  -0.476   0.146  1.00  0.00     0.052 A 
HETATM    8 BR2  UNL     1       1.750  -2.084   1.162  1.00  0.00    -0.048 Br
ENDROOT
BRANCH   1   9
HETATM    9  C3  UNL     1      -0.899  -0.887  -0.681  1.00  0.00     0.084 C 
BRANCH   9  10
HETATM   10  C2  UNL     1      -1.622  -0.701   0.619  1.00  0.00    -0.031 C 
HETATM   11  C1  UNL     1      -2.814  -0.142   0.590  1.00  0.00     0.007 C 
ENDBRANCH   9  10
ENDBRANCH   1   9
TORSDOF 2
