REMARK  4 active torsions:
REMARK  status: ('A' for Active; 'I' for Inactive)
REMARK    1  A    between atoms: C1_2  and  N1_3 
REMARK    2  A    between atoms: C1_2  and  N2_10 
REMARK    3  A    between atoms: N1_3  and  C2_5 
REMARK    4  A    between atoms: N2_10  and  C7_12 
ROOT
HETATM    1  S1  UNL     1      -0.585  -0.063  -1.317  1.00  0.00    -0.041 SA
HETATM    2  C1  UNL     1      -0.187  -0.470   0.206  1.00  0.00     0.168 C 
ENDROOT
BRANCH   2   3
HETATM    3  N1  UNL     1       1.170  -0.721   0.509  1.00  0.00    -0.363 N 
ATOM      4  H1  UNL     1       1.400  -0.991   1.465  1.00  0.00     0.162 HD
BRANCH   3   5
HETATM    5  C2  UNL     1       2.258  -0.622  -0.442  1.00  0.00     0.083 C 
HETATM    6  C3  UNL     1       2.492   0.746  -0.969  1.00  0.00     0.025 C 
HETATM    7  C4  UNL     1       3.522   1.292   0.032  1.00  0.00     0.002 C 
HETATM    8  C5  UNL     1       4.510   0.142   0.006  1.00  0.00     0.002 C 
HETATM    9  C6  UNL     1       3.558  -1.036   0.214  1.00  0.00     0.025 C 
ENDBRANCH   3   5
ENDBRANCH   2   3
BRANCH   2  10
HETATM   10  N2  UNL     1      -1.187  -0.580   1.180  1.00  0.00    -0.363 N 
ATOM     11  H2  UNL     1      -0.887  -0.853   2.116  1.00  0.00     0.162 HD
BRANCH  10  12
HETATM   12  C7  UNL     1      -2.585  -0.349   0.996  1.00  0.00     0.083 C 
HETATM   13  C8  UNL     1      -3.194  -1.218  -0.076  1.00  0.00     0.025 C 
HETATM   14  C9  UNL     1      -3.951  -0.333  -1.008  1.00  0.00     0.002 C 
HETATM   15  C10 UNL     1      -3.685   1.086  -0.626  1.00  0.00     0.002 C 
HETATM   16  C11 UNL     1      -2.808   1.091   0.600  1.00  0.00     0.025 C 
ENDBRANCH  10  12
ENDBRANCH   2  10
TORSDOF 4
