REMARK  3 active torsions:
REMARK  status: ('A' for Active; 'I' for Inactive)
REMARK    1  A    between atoms: O1_2  and  N1_3 
REMARK    2  A    between atoms: C7_14  and  N4_15 
REMARK    3  A    between atoms: C8_20  and  N6_21 
ROOT
HETATM    1  N1  UNL     1       2.146  -0.018  -0.581  1.00  0.00    -0.249 N 
ATOM      2  H1  UNL     1       2.795  -0.730  -0.916  1.00  0.00     0.196 HD
HETATM    3  C2  UNL     1       1.017  -0.536  -0.479  1.00  0.00     0.153 A 
HETATM    4  N2  UNL     1       0.809  -1.922  -0.815  1.00  0.00    -0.352 N 
ATOM      5  H2  UNL     1       1.610  -2.424  -1.198  1.00  0.00     0.166 HD
HETATM    6  C3  UNL     1      -0.386  -2.656  -0.670  1.00  0.00     0.067 A 
HETATM    7  C4  UNL     1      -1.580  -1.889  -0.276  1.00  0.00     0.089 A 
HETATM    8  C5  UNL     1      -1.357  -0.485   0.051  1.00  0.00     0.022 A 
HETATM    9  C6  UNL     1      -0.165   0.203  -0.020  1.00  0.00     0.105 A 
HETATM   10  N3  UNL     1      -0.104   1.510   0.321  1.00  0.00    -0.188 N 
ATOM     11  H3  UNL     1       0.786   2.006   0.264  1.00  0.00     0.184 HD
HETATM   12  C7  UNL     1      -1.201   2.160   0.733  1.00  0.00     0.678 A 
HETATM   13  N5  UNL     1      -2.364   1.508   0.806  1.00  0.00    -0.177 N 
ATOM     14  H5  UNL     1      -3.191   2.016   1.120  1.00  0.00     0.185 HD
HETATM   15  C8  UNL     1      -2.488   0.214   0.483  1.00  0.00     0.123 A 
ENDROOT
BRANCH   1  16
HETATM   16  O1  UNL     1       2.803   1.084  -0.421  1.00  0.00    -0.284 OA
HETATM   17  C1  UNL     1       4.094   1.167   0.156  1.00  0.00     0.237 C 
ENDBRANCH   1  16
BRANCH  15  18
HETATM   18  N6  UNL     1      -3.655  -0.343   0.580  1.00  0.00    -0.385 N 
ATOM     19  H62 UNL     1      -3.749  -1.328   0.334  1.00  0.00     0.157 HD
ATOM     20  H61 UNL     1      -4.480   0.167   0.895  1.00  0.00     0.157 HD
ENDBRANCH  15  18
BRANCH  12  21
HETATM   21  N4  UNL     1      -1.086   3.410   1.046  1.00  0.00    -0.234 N 
ATOM     22  H42 UNL     1      -0.198   3.908   0.990  1.00  0.00     0.174 HD
ATOM     23  H41 UNL     1      -1.921   3.905   1.360  1.00  0.00     0.174 HD
ENDBRANCH  12  21
TORSDOF 3
