REMARK  7 active torsions:
REMARK  status: ('A' for Active; 'I' for Inactive)
REMARK    1  A    between atoms: N1_2  and  N2_3 
REMARK    2  A    between atoms: N2_3  and  C3_5 
REMARK    3  A    between atoms: N2_3  and  C7_12 
REMARK    4  A    between atoms: C4_6  and  C5_7 
REMARK    5  A    between atoms: C5_7  and  N3_8 
REMARK    6  A    between atoms: C7_12  and  C8_13 
REMARK    7  A    between atoms: C8_13  and  N5_14 
ROOT
HETATM    1  N2  UNL     1      -0.782  -0.028  -0.303  1.00  0.00     0.029 N 
HETATM    2  C2  UNL     1      -1.015   0.647  -1.562  1.00  0.00     0.303 C 
ENDROOT
BRANCH   1   3
HETATM    3  N1  UNL     1      -0.185  -1.265  -0.567  1.00  0.00    -0.047 NA
HETATM    4  C1  UNL     1       0.074  -2.051   0.595  1.00  0.00     0.167 C 
ENDBRANCH   1   3
BRANCH   1   5
HETATM    5  C3  UNL     1       0.106   0.721   0.495  1.00  0.00     0.222 C 
HETATM    6  C4  UNL     1       1.366   0.975   0.299  1.00  0.00     0.021 C 
BRANCH   6   7
HETATM    7  C5  UNL     1       2.243   0.563  -0.804  1.00  0.00     0.178 C 
BRANCH   7   8
HETATM    8  N3  UNL     1       3.354  -0.233  -0.256  1.00  0.00    -0.282 N 
HETATM    9  C6  UNL     1       3.926  -0.762   0.838  1.00  0.00     0.217 A 
HETATM   10  N4  UNL     1       4.534  -0.972  -0.391  1.00  0.00    -0.291 N 
ATOM     11  H4  UNL     1       5.280  -1.368  -0.963  1.00  0.00     0.188 HD
ENDBRANCH   7   8
ENDBRANCH   6   7
ENDBRANCH   1   5
BRANCH   1  12
HETATM   12  C7  UNL     1      -2.033  -0.319   0.360  1.00  0.00     0.293 C 
BRANCH  12  13
HETATM   13  C8  UNL     1      -2.747   0.829   0.960  1.00  0.00     0.259 C 
BRANCH  13  14
HETATM   14  N5  UNL     1      -3.132   1.888   0.079  1.00  0.00    -0.078 N 
ATOM     15  H53 UNL     1      -2.313   2.224  -0.427  1.00  0.00     0.274 HD
ATOM     16  H52 UNL     1      -3.685   1.507  -0.689  1.00  0.00     0.274 HD
ATOM     17  H51 UNL     1      -3.624   2.680   0.493  1.00  0.00     0.274 HD
ENDBRANCH  13  14
ENDBRANCH  12  13
ENDBRANCH   1  12
TORSDOF 7
