REMARK  4 active torsions:
REMARK  status: ('A' for Active; 'I' for Inactive)
REMARK       I    between atoms: N1_4  and  C4_5 
REMARK    1  A    between atoms: C4_5  and  C5_7 
REMARK    2  A    between atoms: C9_14  and  C10_15 
REMARK       I    between atoms: C10_15  and  N2_17 
REMARK    3  A    between atoms: C12_21  and  C13_22 
REMARK       I    between atoms: C13_22  and  N3_24 
REMARK    4  A    between atoms: N3_24  and  C14_26 
ROOT
HETATM    1  C1  UNL     1      -0.105  -1.360  -1.635  1.00  0.00     0.018 C 
HETATM    2  C2  UNL     1      -1.165  -0.474  -1.104  1.00  0.00    -0.009 C 
HETATM    3  C3  UNL     1      -2.418  -0.714  -1.920  1.00  0.00     0.137 C 
HETATM    4  N1  UNL     1      -3.274  -1.566  -1.149  1.00  0.00    -0.339 N 
HETATM    5  C4  UNL     1      -4.307  -2.372  -1.690  1.00  0.00     0.328 C 
HETATM    6  O1  UNL     1      -4.496  -2.342  -2.931  1.00  0.00    -0.263 OA
HETATM    7  C6  UNL     1      -2.918  -1.468   0.251  1.00  0.00     0.093 C 
HETATM    8  C7  UNL     1      -3.441  -0.173   0.833  1.00  0.00     0.031 C 
HETATM    9  C8  UNL     1      -2.006   0.264   1.016  1.00  0.00     0.008 C 
HETATM   10  C9  UNL     1      -1.619   1.468   0.188  1.00  0.00     0.096 C 
HETATM   11  C12 UNL     1      -0.816   0.979  -0.969  1.00  0.00     0.101 C 
HETATM   12  C20 UNL     1      -1.522  -0.960   0.283  1.00  0.00     0.024 C 
ENDROOT
BRANCH  11  13
HETATM   13  C13 UNL     1       0.568   1.343  -1.064  1.00  0.00     0.223 C 
HETATM   14  O3  UNL     1       0.915   2.255  -1.912  1.00  0.00    -0.273 OA
HETATM   15  N3  UNL     1       1.685   0.858  -0.361  1.00  0.00    -0.356 N 
ATOM     16  H3  UNL     1       1.506   0.137   0.338  1.00  0.00     0.162 HD
BRANCH  15  17
HETATM   17  C14 UNL     1       3.055   1.272  -0.523  1.00  0.00     0.084 C 
HETATM   18  C15 UNL     1       3.865   0.115  -1.093  1.00  0.00     0.025 C 
HETATM   19  C16 UNL     1       4.108  -0.953  -0.054  1.00  0.00     0.002 C 
HETATM   20  C17 UNL     1       4.898  -0.335   1.078  1.00  0.00     0.000 C 
HETATM   21  C18 UNL     1       4.028   0.724   1.719  1.00  0.00     0.002 C 
HETATM   22  C19 UNL     1       3.649   1.803   0.737  1.00  0.00     0.025 C 
ENDBRANCH  15  17
ENDBRANCH  11  13
BRANCH  10  23
HETATM   23  C10 UNL     1      -1.034   2.461   1.063  1.00  0.00     0.227 C 
HETATM   24  O2  UNL     1      -1.458   3.645   1.068  1.00  0.00    -0.273 OA
HETATM   25  N2  UNL     1       0.033   2.195   1.958  1.00  0.00    -0.331 N 
HETATM   26  C11 UNL     1      -0.023   2.646   3.160  1.00  0.00     0.147 C 
ATOM     27  H2  UNL     1       0.838   1.650   1.650  1.00  0.00     0.168 HD
HETATM   28 BR1  UNL     1       1.397   2.314   4.415  1.00  0.00    -0.045 Br
ENDBRANCH  10  23
BRANCH   5  29
HETATM   29  C5  UNL     1      -5.148  -3.234  -0.814  1.00  0.00     0.472 C 
HETATM   30  F1  UNL     1      -4.378  -4.170  -0.186  1.00  0.00    -0.162 F 
HETATM   31  F2  UNL     1      -6.117  -3.843  -1.588  1.00  0.00    -0.162 F 
HETATM   32  F3  UNL     1      -5.746  -2.448   0.137  1.00  0.00    -0.162 F 
ENDBRANCH   5  29
TORSDOF 4
