REMARK  5 active torsions:
REMARK  status: ('A' for Active; 'I' for Inactive)
REMARK    1  A    between atoms: N1_2  and  C3_4 
REMARK    2  A    between atoms: C3_4  and  O1_5 
REMARK    3  A    between atoms: C3_4  and  C4_7 
REMARK    4  A    between atoms: C4_7  and  C5_8 
REMARK       I    between atoms: N2_11  and  C8_12 
REMARK    5  A    between atoms: C10_16  and  C12_18 
ROOT
HETATM    1  C4  UNL     1      -0.331  -0.354   0.656  1.00  0.00     0.107 C 
HETATM    2  C10 UNL     1      -1.088  -1.346  -0.225  1.00  0.00    -0.004 C 
HETATM    3  C11 UNL     1      -2.363  -1.885   0.366  1.00  0.00     0.021 C 
HETATM    4  C14 UNL     1      -0.274  -2.602  -0.494  1.00  0.00     0.016 C 
HETATM    5  C15 UNL     1       0.195  -3.321   0.716  1.00  0.00     0.023 C 
HETATM    6  C16 UNL     1       0.845  -2.382   1.714  1.00  0.00     0.131 C 
HETATM    7 BR2  UNL     1       0.713  -3.369   3.422  1.00  0.00    -0.085 Br
HETATM    8  C17 UNL     1       0.009  -1.190   1.923  1.00  0.00     0.273 C 
HETATM    9  F1  UNL     1       0.524  -0.433   2.931  1.00  0.00    -0.204 F 
HETATM   10  F2  UNL     1      -1.158  -1.693   2.529  1.00  0.00    -0.204 F 
ENDROOT
BRANCH   1  11
HETATM   11  C3  UNL     1      -1.145   0.717   1.207  1.00  0.00     0.129 C 
BRANCH  11  12
HETATM   12  N1  UNL     1      -1.470   2.034   0.917  1.00  0.00    -0.373 N 
HETATM   13  C1  UNL     1      -0.994   2.822  -0.160  1.00  0.00     0.150 C 
HETATM   14  C2  UNL     1      -2.422   2.823   1.766  1.00  0.00     0.150 C 
ENDBRANCH  11  12
BRANCH  11  15
HETATM   15  O1  UNL     1      -1.824   0.445   2.329  1.00  0.00    -0.349 OA
ATOM     16  H1  UNL     1      -1.601  -0.457   2.528  1.00  0.00     0.219 HD
ENDBRANCH  11  15
ENDBRANCH   1  11
BRANCH   1  17
HETATM   17  C5  UNL     1       0.988  -0.065   0.053  1.00  0.00     0.029 C 
HETATM   18  C6  UNL     1       1.994   0.703   0.775  1.00  0.00     0.027 C 
HETATM   19  C7  UNL     1       3.227   0.411  -0.135  1.00  0.00     0.127 C 
HETATM   20  N2  UNL     1       2.560   0.926  -1.334  1.00  0.00    -0.336 N 
HETATM   21  C8  UNL     1       3.155   1.808  -2.246  1.00  0.00     0.330 C 
HETATM   22  C9  UNL     1       1.202   0.324  -1.335  1.00  0.00     0.133 C 
HETATM   23  N3  UNL     1       2.389   2.241  -3.389  1.00  0.00    -0.040 NA
HETATM   24  O2  UNL     1       4.311   2.216  -2.091  1.00  0.00    -0.251 OA
ENDBRANCH   1  17
BRANCH   2  25
HETATM   25  C12 UNL     1      -1.504  -0.792  -1.542  1.00  0.00    -0.009 C 
HETATM   26  C13 UNL     1      -2.698  -0.253  -1.754  1.00  0.00     0.052 C 
HETATM   27 BR1  UNL     1      -3.267   0.463  -3.420  1.00  0.00    -0.064 Br
ENDBRANCH   2  25
TORSDOF 5
