REMARK  4 active torsions:
REMARK  status: ('A' for Active; 'I' for Inactive)
REMARK    1  A    between atoms: C2_2  and  O1_3 
REMARK    2  A    between atoms: O1_3  and  C3_4 
REMARK    3  A    between atoms: C3_4  and  C4_5 
REMARK       I    between atoms: C4_5  and  N1_7 
REMARK    4  A    between atoms: N1_7  and  C5_9 
ROOT
HETATM    1  C5  UNL     1       0.154  -0.768   0.137  1.00  0.00     0.237 A 
HETATM    2  C6  UNL     1       0.011   0.487   0.929  1.00  0.00     0.071 C 
HETATM    3  C7  UNL     1      -1.100   1.212   0.160  1.00  0.00     0.019 C 
HETATM    4  C8  UNL     1      -0.952   0.756  -1.240  1.00  0.00     0.281 C 
HETATM    5  N2  UNL     1      -0.529  -0.607  -1.101  1.00  0.00     0.122 N 
HETATM    6  C9  UNL     1      -1.567  -1.500  -0.704  1.00  0.00     0.231 A 
HETATM    7  C10 UNL     1      -2.952  -0.988  -0.720  1.00  0.00     0.044 C 
HETATM    8  C11 UNL     1      -3.369   0.093   0.144  1.00  0.00    -0.045 C 
HETATM    9  C12 UNL     1      -4.278  -0.469   1.260  1.00  0.00     0.015 C 
HETATM   10  C13 UNL     1      -4.326   1.016  -0.639  1.00  0.00     0.015 C 
HETATM   11  C14 UNL     1      -2.382   0.950   0.821  1.00  0.00     0.015 C 
HETATM   12  C15 UNL     1      -0.878  -1.790   0.561  1.00  0.00     0.100 A 
ENDROOT
BRANCH   1  13
HETATM   13  N1  UNL     1       1.505  -1.250   0.125  1.00  0.00    -0.324 N 
HETATM   14  C4  UNL     1       2.606  -0.538  -0.368  1.00  0.00     0.243 C 
HETATM   15  O2  UNL     1       2.428   0.604  -0.836  1.00  0.00    -0.271 OA
ATOM     16  H1  UNL     1       1.677  -2.181   0.504  1.00  0.00     0.165 HD
BRANCH  14  17
HETATM   17  C3  UNL     1       3.954  -1.126  -0.334  1.00  0.00     0.270 C 
BRANCH  17  18
HETATM   18  O1  UNL     1       4.990  -0.345  -0.744  1.00  0.00    -0.382 OA
BRANCH  18  19
HETATM   19  C2  UNL     1       5.217   0.742   0.037  1.00  0.00     0.163 C 
HETATM   20  C1  UNL     1       6.404   1.533  -0.512  1.00  0.00     0.033 C 
ENDBRANCH  18  19
ENDBRANCH  17  18
ENDBRANCH  14  17
ENDBRANCH   1  13
TORSDOF 4
