REMARK  4 active torsions:
REMARK  status: ('A' for Active; 'I' for Inactive)
REMARK    1  A    between atoms: C6_6  and  C7_7 
REMARK    2  A    between atoms: C7_7  and  O1_8 
REMARK    3  A    between atoms: N1_11  and  C9_12 
REMARK    4  A    between atoms: C9_12  and  C10_13 
ROOT
HETATM    1  C1  UNL     1      -4.436   1.991  -0.044  1.00  0.00     0.010 C 
HETATM    2  C2  UNL     1      -4.080   0.841   0.894  1.00  0.00    -0.018 C 
HETATM    3  C3  UNL     1      -4.262  -0.444   0.150  1.00  0.00     0.005 C 
HETATM    4  C4  UNL     1      -3.164  -1.440   0.325  1.00  0.00     0.006 C 
HETATM    5  C5  UNL     1      -1.792  -0.915   0.331  1.00  0.00    -0.001 C 
HETATM    6  C6  UNL     1      -0.909  -1.384  -0.767  1.00  0.00     0.032 C 
HETATM    7  C8  UNL     1       0.536  -1.029  -0.358  1.00  0.00     0.129 C 
HETATM    8  N1  UNL     1       0.613   0.369  -0.249  1.00  0.00    -0.392 N 
HETATM    9  C15 UNL     1      -0.313   0.978   0.669  1.00  0.00     0.126 C 
HETATM   10  C16 UNL     1      -1.738   0.621   0.291  1.00  0.00     0.008 C 
HETATM   11  C17 UNL     1      -2.672   1.085   1.359  1.00  0.00     0.011 C 
ENDROOT
BRANCH   8  12
HETATM   12  C9  UNL     1       1.808   1.053  -0.463  1.00  0.00     0.063 C 
BRANCH  12  13
HETATM   13  C10 UNL     1       2.925   0.914   0.501  1.00  0.00     0.028 C 
HETATM   14  C11 UNL     1       4.099   1.758   0.055  1.00  0.00     0.036 C 
HETATM   15  C12 UNL     1       5.193   0.999  -0.582  1.00  0.00     0.168 C 
HETATM   16  O2  UNL     1       5.484  -0.244  -0.114  1.00  0.00    -0.391 OA
HETATM   17  C13 UNL     1       4.833  -0.602   1.034  1.00  0.00     0.168 C 
HETATM   18  C14 UNL     1       3.343  -0.518   0.741  1.00  0.00     0.036 C 
ENDBRANCH  12  13
ENDBRANCH   8  12
BRANCH   6  19
HETATM   19  C7  UNL     1      -1.024  -2.813  -1.158  1.00  0.00     0.170 C 
BRANCH  19  20
HETATM   20  O1  UNL     1      -0.740  -3.680  -0.102  1.00  0.00    -0.400 OA
ATOM     21  H1  UNL     1      -0.814  -4.594  -0.352  1.00  0.00     0.209 HD
ENDBRANCH  19  20
ENDBRANCH   6  19
TORSDOF 4
