REMARK  4 active torsions:
REMARK  status: ('A' for Active; 'I' for Inactive)
REMARK    1  A    between atoms: O1_1  and  C1_3 
REMARK    2  A    between atoms: C3_5  and  O2_6 
REMARK    3  A    between atoms: O2_6  and  C4_7 
REMARK    4  A    between atoms: C17_22  and  O5_23 
ROOT
HETATM    1  C4  UNL     1       1.047  -0.921  -0.243  1.00  0.00     0.264 C 
HETATM    2  C5  UNL     1       0.550  -2.216  -0.838  1.00  0.00     0.064 C 
HETATM    3  C6  UNL     1      -0.900  -2.211  -0.325  1.00  0.00     0.044 C 
HETATM    4  C7  UNL     1      -1.184  -0.743  -0.274  1.00  0.00     0.071 C 
HETATM    5  O3  UNL     1      -0.020  -0.056  -0.488  1.00  0.00    -0.349 OA
HETATM    6  C8  UNL     1      -1.740  -0.303   1.067  1.00  0.00     0.021 C 
HETATM    7  C9  UNL     1      -3.121  -0.843   1.323  1.00  0.00     0.012 C 
HETATM    8  C10 UNL     1      -4.037  -0.289   0.258  1.00  0.00    -0.013 C 
HETATM    9  C11 UNL     1      -4.056   1.205   0.226  1.00  0.00     0.009 C 
HETATM   10  C12 UNL     1      -2.646   1.693  -0.074  1.00  0.00    -0.013 C 
HETATM   11  C13 UNL     1      -1.762   1.215   1.043  1.00  0.00     0.012 C 
HETATM   12  C14 UNL     1      -2.155   1.182  -1.401  1.00  0.00     0.012 C 
HETATM   13  C15 UNL     1      -2.160  -0.327  -1.376  1.00  0.00     0.021 C 
HETATM   14  C16 UNL     1      -3.560  -0.804  -1.070  1.00  0.00     0.012 C 
ENDROOT
BRANCH   1  15
HETATM   15  O2  UNL     1       2.125  -0.387  -0.916  1.00  0.00    -0.331 OA
BRANCH  15  16
HETATM   16  C3  UNL     1       3.228  -0.125  -0.189  1.00  0.00     0.268 C 
HETATM   17  C2  UNL     1       3.448   1.394  -0.173  1.00  0.00     0.097 C 
HETATM   18  C1  UNL     1       4.866   1.409   0.380  1.00  0.00     0.177 C 
HETATM   19  C17 UNL     1       5.442   0.184  -0.267  1.00  0.00     0.288 C 
HETATM   20  O4  UNL     1       4.408  -0.651  -0.609  1.00  0.00    -0.329 OA
BRANCH  18  21
HETATM   21  O1  UNL     1       4.734   1.248   1.776  1.00  0.00    -0.390 OA
ATOM     22  H1  UNL     1       5.619   1.257   2.121  1.00  0.00     0.210 HD
ENDBRANCH  18  21
BRANCH  19  23
HETATM   23  O5  UNL     1       6.364  -0.394   0.604  1.00  0.00    -0.369 OA
ATOM     24  H5  UNL     1       6.729  -1.170   0.194  1.00  0.00     0.212 HD
ENDBRANCH  19  23
ENDBRANCH  15  16
ENDBRANCH   1  15
TORSDOF 4
