REMARK  2 active torsions:
REMARK  status: ('A' for Active; 'I' for Inactive)
REMARK    1  A    between atoms: O1_3  and  C2_4 
REMARK    2  A    between atoms: C16_22  and  O4_23 
ROOT
HETATM    1  N1  UNL     1       6.063   0.161   1.379  1.00  0.00    -0.164 NA
HETATM    2  C1  UNL     1       4.934  -0.058   1.243  1.00  0.00     0.229 C 
HETATM    3  O1  UNL     1       3.611  -0.331   1.084  1.00  0.00    -0.268 OA
ENDROOT
BRANCH   3   4
HETATM    4  C2  UNL     1       2.851   0.306   0.075  1.00  0.00     0.239 C 
HETATM    5  C3  UNL     1       1.808   1.199   0.648  1.00  0.00     0.159 C 
HETATM    6  O2  UNL     1       1.003   0.719   1.417  1.00  0.00    -0.295 OA
HETATM    7  C4  UNL     1       1.674   2.643   0.350  1.00  0.00     0.083 C 
HETATM    8  C5  UNL     1       0.493   3.029  -0.443  1.00  0.00     0.027 C 
HETATM    9  C6  UNL     1      -0.807   3.087   0.312  1.00  0.00     0.123 C 
HETATM   10  N2  UNL     1      -1.929   2.920  -0.593  1.00  0.00    -0.361 N 
HETATM   11  C7  UNL     1      -3.193   2.416  -0.294  1.00  0.00     0.217 C 
ATOM     12  H2  UNL     1      -1.774   3.205  -1.560  1.00  0.00     0.162 HD
HETATM   13  O3  UNL     1      -4.218   3.099  -0.656  1.00  0.00    -0.274 OA
HETATM   14  C8  UNL     1      -3.536   1.160   0.406  1.00  0.00     0.103 C 
HETATM   15  C9  UNL     1      -2.454   0.134   0.407  1.00  0.00     0.009 C 
HETATM   16  C10 UNL     1      -3.083  -1.210   0.207  1.00  0.00     0.000 C 
HETATM   17  C11 UNL     1      -2.173  -2.239  -0.380  1.00  0.00     0.000 C 
HETATM   18  C12 UNL     1      -0.969  -2.542   0.454  1.00  0.00     0.000 C 
HETATM   19  C13 UNL     1       0.180  -3.109  -0.347  1.00  0.00     0.000 C 
HETATM   20  C14 UNL     1       1.457  -2.747   0.335  1.00  0.00     0.002 C 
HETATM   21  C15 UNL     1       2.489  -2.115  -0.523  1.00  0.00     0.035 C 
HETATM   22  C16 UNL     1       2.269  -0.694  -0.899  1.00  0.00     0.156 C 
BRANCH  22  23
HETATM   23  O4  UNL     1       0.934  -0.487  -1.145  1.00  0.00    -0.393 OA
ATOM     24  H4  UNL     1       0.568  -1.115  -1.757  1.00  0.00     0.210 HD
ENDBRANCH  22  23
ENDBRANCH   3   4
TORSDOF 2
