REMARK  10 active torsions:
REMARK  status: ('A' for Active; 'I' for Inactive)
REMARK    1  A    between atoms: C2_2  and  C5_5 
REMARK    2  A    between atoms: C8_8  and  C9_9 
REMARK    3  A    between atoms: C10_10  and  C11_11 
REMARK    4  A    between atoms: C13_13  and  C14_14 
REMARK    5  A    between atoms: C15_15  and  C16_16 
REMARK    6  A    between atoms: N3_24  and  C20_25 
REMARK    7  A    between atoms: C20_25  and  C21_26 
REMARK    8  A    between atoms: C21_26  and  O2_27 
REMARK    9  A    between atoms: C23_30  and  C24_31 
REMARK       I    between atoms: C24_31  and  N4_33 
REMARK   10  A    between atoms: N5_36  and  C27_37 
REMARK       I    between atoms: N6_41  and  C31_42 
ROOT
HETATM    1  C5  UNL     1      -1.142   4.335   0.192  1.00  0.00    -0.050 A 
HETATM    2  C6  UNL     1      -2.317   4.186  -0.535  1.00  0.00     0.009 A 
HETATM    3  C7  UNL     1      -2.886   2.943  -0.562  1.00  0.00     0.022 A 
HETATM    4  C8  UNL     1      -2.353   1.825   0.094  1.00  0.00     0.033 A 
HETATM    5  C23 UNL     1      -1.194   2.007   0.799  1.00  0.00     0.051 A 
HETATM    6  C36 UNL     1      -0.581   3.265   0.852  1.00  0.00     0.026 A 
ENDROOT
BRANCH   4   7
HETATM    7  C9  UNL     1      -3.054   0.569   0.039  1.00  0.00    -0.060 C 
HETATM    8  C10 UNL     1      -3.704  -0.474   0.004  1.00  0.00    -0.059 C 
BRANCH   8   9
HETATM    9  C11 UNL     1      -4.557  -1.647  -0.025  1.00  0.00     0.048 A 
HETATM   10  C12 UNL     1      -5.878  -1.478   0.440  1.00  0.00     0.043 A 
HETATM   11  C13 UNL     1      -6.758  -2.524   0.476  1.00  0.00     0.021 A 
HETATM   12  C17 UNL     1      -6.292  -3.735   0.041  1.00  0.00     0.052 A 
HETATM   13  C18 UNL     1      -5.002  -3.911  -0.415  1.00  0.00     0.063 A 
HETATM   14  N2  UNL     1      -4.317  -4.972  -0.874  1.00  0.00    -0.350 N 
HETATM   15  C22 UNL     1      -4.093  -2.844  -0.458  1.00  0.00     0.081 A 
HETATM   16  C19 UNL     1      -3.090  -4.601  -1.179  1.00  0.00     0.184 A 
ATOM     17  H2  UNL     1      -4.689  -5.917  -0.971  1.00  0.00     0.166 HD
HETATM   18  N3  UNL     1      -2.918  -3.258  -0.927  1.00  0.00    -0.338 N 
BRANCH  11  19
HETATM   19  C14 UNL     1      -8.123  -2.334   0.952  1.00  0.00    -0.057 C 
HETATM   20  C15 UNL     1      -9.244  -2.154   1.347  1.00  0.00    -0.003 C 
BRANCH  20  21
HETATM   21  C16 UNL     1     -10.567  -1.913   1.819  1.00  0.00     0.309 C 
HETATM   22  N1  UNL     1     -11.758  -2.417   1.260  1.00  0.00    -0.049 NA
HETATM   23  O1  UNL     1     -10.726  -1.169   2.852  1.00  0.00    -0.262 OA
ENDBRANCH  20  21
ENDBRANCH  11  19
BRANCH  18  24
HETATM   24  C20 UNL     1      -1.685  -2.570  -1.223  1.00  0.00     0.156 C 
BRANCH  24  25
HETATM   25  C21 UNL     1      -1.532  -2.205  -2.670  1.00  0.00     0.184 C 
BRANCH  25  26
HETATM   26  O2  UNL     1      -2.542  -1.395  -3.114  1.00  0.00    -0.399 OA
ATOM     27  H2  UNL     1      -2.445  -1.164  -4.030  1.00  0.00     0.209 HD
ENDBRANCH  25  26
ENDBRANCH  24  25
ENDBRANCH  18  24
ENDBRANCH   8   9
ENDBRANCH   4   7
BRANCH   5  28
HETATM   28  C24 UNL     1      -0.573   0.888   1.492  1.00  0.00     0.255 C 
HETATM   29  O3  UNL     1      -0.932   0.609   2.662  1.00  0.00    -0.267 OA
HETATM   30  N4  UNL     1       0.444   0.090   0.873  1.00  0.00    -0.345 N 
HETATM   31  C25 UNL     1       0.902   0.386  -0.469  1.00  0.00     0.156 C 
HETATM   32  C35 UNL     1       1.011  -1.038   1.568  1.00  0.00     0.156 C 
HETATM   33  C26 UNL     1       2.383   0.200  -0.546  1.00  0.00     0.293 C 
HETATM   34  N5  UNL     1       2.864  -1.045   0.025  1.00  0.00     0.101 N 
HETATM   35  C34 UNL     1       2.508  -1.133   1.433  1.00  0.00     0.293 C 
BRANCH  34  36
HETATM   36  C27 UNL     1       4.305  -1.162  -0.167  1.00  0.00     0.159 C 
HETATM   37  C28 UNL     1       4.582  -1.167  -1.651  1.00  0.00     0.049 C 
HETATM   38  C29 UNL     1       4.735  -2.514   0.362  1.00  0.00     0.061 C 
HETATM   39  C30 UNL     1       6.197  -2.789   0.064  1.00  0.00     0.128 C 
HETATM   40  N6  UNL     1       7.024  -1.629   0.198  1.00  0.00    -0.356 N 
HETATM   41  C31 UNL     1       8.435  -1.820   0.318  1.00  0.00     0.183 C 
HETATM   42  C32 UNL     1       6.538  -0.273   0.225  1.00  0.00     0.128 C 
HETATM   43  N7  UNL     1       9.002  -2.884   0.728  1.00  0.00    -0.374 N 
HETATM   44  N8  UNL     1       9.284  -0.726  -0.053  1.00  0.00    -0.064 NA
ATOM     45  H72 UNL     1       8.398  -3.662   0.992  1.00  0.00     0.158 HD
ATOM     46  H71 UNL     1      10.009  -3.020   0.814  1.00  0.00     0.158 HD
HETATM   47  C33 UNL     1       5.093  -0.140   0.602  1.00  0.00     0.061 C 
ENDBRANCH  34  36
ENDBRANCH   5  28
BRANCH   1  48
HETATM   48  C2  UNL     1      -0.575   5.709   0.207  1.00  0.00    -0.024 C 
HETATM   49  C1  UNL     1      -0.792   6.407  -1.117  1.00  0.00     0.019 C 
HETATM   50  C3  UNL     1       0.904   5.638   0.461  1.00  0.00     0.019 C 
HETATM   51  C4  UNL     1      -1.196   6.539   1.322  1.00  0.00     0.019 C 
ENDBRANCH   1  48
TORSDOF 10
