REMARK  5 active torsions:
REMARK  status: ('A' for Active; 'I' for Inactive)
REMARK    1  A    between atoms: N1_1  and  N2_4 
REMARK    2  A    between atoms: N2_4  and  O1_5 
REMARK       I    between atoms: N3_7  and  C1_9 
REMARK       I    between atoms: C1_9  and  N4_11 
REMARK    3  A    between atoms: C3_14  and  C4_15 
REMARK    4  A    between atoms: C3_14  and  C10_21 
REMARK       I    between atoms: N5_29  and  C17_31 
REMARK    5  A    between atoms: C17_31  and  C18_33 
ROOT
HETATM    1  N2  UNL     1       1.655   3.176  -1.873  1.00  0.00    -0.098 N 
HETATM    2  N3  UNL     1       1.128   2.060  -1.631  1.00  0.00    -0.209 N 
ATOM      3  H3  UNL     1       1.743   1.318  -1.297  1.00  0.00     0.196 HD
HETATM    4  C1  UNL     1      -0.219   1.747  -1.778  1.00  0.00     0.353 C 
HETATM    5  O2  UNL     1      -0.867   2.453  -2.632  1.00  0.00    -0.244 OA
HETATM    6  N4  UNL     1      -0.958   0.731  -1.083  1.00  0.00    -0.209 N 
HETATM    7  C2  UNL     1      -2.354   0.485  -1.227  1.00  0.00     0.263 C 
HETATM    8  O3  UNL     1      -2.948   0.719  -2.344  1.00  0.00    -0.270 OA
HETATM    9  C3  UNL     1      -3.037  -0.028  -0.063  1.00  0.00     0.151 C 
HETATM   10  S1  UNL     1      -1.670  -0.142   1.179  1.00  0.00    -0.063 SA
HETATM   11  C16 UNL     1      -0.358  -0.156  -0.130  1.00  0.00     0.162 C 
HETATM   12  N5  UNL     1       0.680  -0.829  -0.071  1.00  0.00    -0.305 N 
ATOM     13  H5  UNL     1       0.723  -1.332   0.815  1.00  0.00     0.171 HD
HETATM   14  C17 UNL     1       1.791  -1.109  -0.827  1.00  0.00     0.247 C 
HETATM   15  O4  UNL     1       1.735  -1.287  -2.101  1.00  0.00    -0.271 OA
ENDROOT
BRANCH   9  16
HETATM   16  C4  UNL     1      -3.535  -1.426  -0.149  1.00  0.00    -0.025 A 
HETATM   17  C5  UNL     1      -3.915  -2.030   1.041  1.00  0.00     0.009 A 
HETATM   18  C6  UNL     1      -4.392  -3.319   1.091  1.00  0.00     0.001 A 
HETATM   19  C7  UNL     1      -4.501  -4.046  -0.064  1.00  0.00     0.000 A 
HETATM   20  C8  UNL     1      -4.127  -3.459  -1.252  1.00  0.00     0.001 A 
HETATM   21  C9  UNL     1      -3.647  -2.156  -1.291  1.00  0.00     0.009 A 
ENDBRANCH   9  16
BRANCH   9  22
HETATM   22  C10 UNL     1      -4.123   0.816   0.454  1.00  0.00    -0.025 A 
HETATM   23  C11 UNL     1      -4.106   1.159   1.792  1.00  0.00     0.009 A 
HETATM   24  C12 UNL     1      -5.092   1.947   2.354  1.00  0.00     0.001 A 
HETATM   25  C13 UNL     1      -6.139   2.425   1.595  1.00  0.00     0.000 A 
HETATM   26  C14 UNL     1      -6.164   2.089   0.259  1.00  0.00     0.001 A 
HETATM   27  C15 UNL     1      -5.167   1.294  -0.300  1.00  0.00     0.009 A 
ENDBRANCH   9  22
BRANCH  14  28
HETATM   28  C18 UNL     1       3.177  -1.241  -0.257  1.00  0.00     0.189 C 
HETATM   29  C19 UNL     1       3.477   0.018   0.495  1.00  0.00     0.075 C 
HETATM   30  C20 UNL     1       4.709  -0.084   1.309  1.00  0.00    -0.032 A 
HETATM   31  C21 UNL     1       4.752   0.358   2.611  1.00  0.00     0.009 A 
HETATM   32  C25 UNL     1       5.830  -0.631   0.745  1.00  0.00     0.085 A 
HETATM   33  C22 UNL     1       5.937   0.245   3.347  1.00  0.00     0.001 A 
HETATM   34  C23 UNL     1       7.058  -0.314   2.750  1.00  0.00     0.002 A 
HETATM   35  C24 UNL     1       7.026  -0.755   1.459  1.00  0.00     0.026 A 
HETATM   36  S2  UNL     1       5.727  -1.179  -0.909  1.00  0.00     0.260 S 
HETATM   37  O5  UNL     1       6.498  -2.472  -1.035  1.00  0.00    -0.200 OA
HETATM   38  O6  UNL     1       6.316  -0.161  -1.842  1.00  0.00    -0.200 OA
HETATM   39  N6  UNL     1       4.086  -1.515  -1.316  1.00  0.00    -0.301 N 
ATOM     40  H6  UNL     1       3.796  -1.874  -2.225  1.00  0.00     0.173 HD
ENDBRANCH  14  28
BRANCH   1  41
HETATM   41  N1  UNL     1       0.866   4.214  -2.328  1.00  0.00    -0.303 N 
ATOM     42  H12 UNL     1       1.293   5.119  -2.524  1.00  0.00     0.181 HD
ATOM     43  H11 UNL     1      -0.134   4.066  -2.462  1.00  0.00     0.181 HD
ENDBRANCH   1  41
BRANCH   1  44
HETATM   44  O1  UNL     1       2.993   3.374  -1.694  1.00  0.00    -0.254 OA
ATOM     45  H1  UNL     1       3.536   2.660  -1.381  1.00  0.00     0.248 HD
ENDBRANCH   1  44
TORSDOF 5
