REMARK  13 active torsions:
REMARK  status: ('A' for Active; 'I' for Inactive)
REMARK    1  A    between atoms: C2_4  and  C3_5 
REMARK    2  A    between atoms: C3_5  and  C4_6 
REMARK    3  A    between atoms: C4_6  and  N2_7 
REMARK    4  A    between atoms: C4_6  and  C17_32 
REMARK    5  A    between atoms: N2_7  and  C5_9 
REMARK    6  A    between atoms: C5_9  and  O1_10 
REMARK    7  A    between atoms: C5_9  and  N3_12 
REMARK    8  A    between atoms: N3_12  and  C6_14 
REMARK    9  A    between atoms: C10_20  and  N5_21 
REMARK   10  A    between atoms: N5_21  and  C11_23 
REMARK   11  A    between atoms: C11_23  and  O2_24 
REMARK   12  A    between atoms: C11_23  and  C12_26 
REMARK   13  A    between atoms: C12_26  and  C13_28 
ROOT
HETATM    1  C6  UNL     1      -0.492  -1.063   1.268  1.00  0.00     0.061 A 
HETATM    2  C7  UNL     1      -0.039  -2.356   1.277  1.00  0.00     0.048 A 
HETATM    3  C8  UNL     1      -0.967  -3.369   1.104  1.00  0.00     0.090 A 
HETATM    4  N4  UNL     1      -2.271  -3.114   0.931  1.00  0.00    -0.373 N 
ATOM      5  H4  UNL     1      -2.929  -3.883   0.806  1.00  0.00     0.164 HD
HETATM    6  C9  UNL     1      -2.720  -1.823   0.922  1.00  0.00     0.119 A 
HETATM    7  C10 UNL     1      -1.855  -0.768   1.088  1.00  0.00     0.076 A 
ENDROOT
BRANCH   1   8
HETATM    8  N3  UNL     1       0.276  -0.058   1.420  1.00  0.00    -0.346 N 
ATOM      9  H3  UNL     1      -0.129   0.878   1.402  1.00  0.00     0.164 HD
BRANCH   8  10
HETATM   10  C5  UNL     1       1.692  -0.196   1.616  1.00  0.00     0.322 C 
BRANCH  10  11
HETATM   11  N2  UNL     1       2.359  -0.669   0.441  1.00  0.00    -0.376 N 
ATOM     12  H2  UNL     1       1.848  -1.022  -0.368  1.00  0.00     0.157 HD
BRANCH  11  13
HETATM   13  C4  UNL     1       3.789  -0.615   0.473  1.00  0.00     0.088 C 
BRANCH  13  14
HETATM   14  C3  UNL     1       4.338   0.776   0.594  1.00  0.00     0.069 C 
BRANCH  14  15
HETATM   15  C2  UNL     1       3.972   1.701  -0.476  1.00  0.00     0.057 C 
HETATM   16  N1  UNL     1       4.631   2.777  -0.639  1.00  0.00    -0.406 N 
HETATM   17  C1  UNL     1       5.718   3.082   0.211  1.00  0.00     0.145 C 
ATOM     18  H1  UNL     1       4.374   3.422  -1.386  1.00  0.00     0.158 HD
ENDBRANCH  14  15
ENDBRANCH  13  14
BRANCH  13  19
HETATM   19  C17 UNL     1       4.390  -1.445  -0.611  1.00  0.00     0.000 C 
HETATM   20  C18 UNL     1       4.226  -0.892  -1.999  1.00  0.00     0.011 C 
HETATM   21  C19 UNL     1       5.859  -1.765  -0.340  1.00  0.00     0.011 C 
ENDBRANCH  13  19
ENDBRANCH  11  13
ENDBRANCH  10  11
BRANCH  10  22
HETATM   22  O1  UNL     1       2.033  -0.889   2.783  1.00  0.00    -0.360 OA
ATOM     23  H1  UNL     1       1.590  -0.575   3.563  1.00  0.00     0.214 HD
ENDBRANCH  10  22
ENDBRANCH   8  10
ENDBRANCH   1   8
BRANCH   7  24
HETATM   24  N5  UNL     1      -2.284   0.580   1.095  1.00  0.00    -0.331 N 
ATOM     25  H5  UNL     1      -1.575   1.291   1.273  1.00  0.00     0.168 HD
BRANCH  24  26
HETATM   26  C11 UNL     1      -3.615   1.036   0.876  1.00  0.00     0.188 C 
BRANCH  26  27
HETATM   27  O2  UNL     1      -4.592   0.490   1.665  1.00  0.00    -0.343 OA
ATOM     28  H2  UNL     1      -5.480   0.794   1.519  1.00  0.00     0.219 HD
ENDBRANCH  26  27
BRANCH  26  29
HETATM   29  C12 UNL     1      -4.027   1.177  -0.535  1.00  0.00     0.207 C 
HETATM   30  O3  UNL     1      -3.101   1.546  -1.280  1.00  0.00    -0.288 OA
BRANCH  29  31
HETATM   31  C13 UNL     1      -5.336   0.948  -1.130  1.00  0.00     0.018 C 
HETATM   32  C14 UNL     1      -6.416   1.842  -0.496  1.00  0.00     0.023 C 
HETATM   33  C15 UNL     1      -5.811  -0.466  -1.188  1.00  0.00     0.023 C 
HETATM   34  C16 UNL     1      -5.295   1.417  -2.600  1.00  0.00     0.023 C 
ENDBRANCH  29  31
ENDBRANCH  26  29
ENDBRANCH  24  26
ENDBRANCH   7  24
TORSDOF 13
