REMARK  3 active torsions:
REMARK  status: ('A' for Active; 'I' for Inactive)
REMARK    1  A    between atoms: C2_2  and  N2_6 
REMARK    2  A    between atoms: N2_6  and  O1_7 
REMARK    3  A    between atoms: N3_9  and  O2_11 
ROOT
HETATM    1  C1  UNL     1      -1.148  -0.926   0.771  1.00  0.00     0.059 C 
HETATM    2  C2  UNL     1      -0.321   0.190   0.136  1.00  0.00     0.159 C 
HETATM    3  C3  UNL     1      -1.204   0.870  -0.907  1.00  0.00     0.059 C 
HETATM    4  C4  UNL     1      -0.004   1.126   1.217  1.00  0.00     0.094 C 
HETATM    5  N1  UNL     1       0.249   1.878   2.063  1.00  0.00    -0.194 NA
ENDROOT
BRANCH   2   6
HETATM    6  N2  UNL     1       0.879  -0.322  -0.466  1.00  0.00    -0.158 N 
HETATM    7  N3  UNL     1       2.017   0.063  -0.087  1.00  0.00    -0.187 N 
ATOM      8  H3  UNL     1       2.049   0.752   0.664  1.00  0.00     0.218 HD
BRANCH   6   9
HETATM    9  O1  UNL     1       0.800  -1.247  -1.472  1.00  0.00    -0.269 OA
ATOM     10  H1  UNL     1       1.593  -1.586  -1.870  1.00  0.00     0.246 HD
ENDBRANCH   6   9
BRANCH   7  11
HETATM   11  O2  UNL     1       3.197  -0.357  -0.589  1.00  0.00    -0.273 OA
ATOM     12  H2  UNL     1       4.055  -0.067  -0.303  1.00  0.00     0.246 HD
ENDBRANCH   7  11
ENDBRANCH   2   6
TORSDOF 3
