REMARK  1 active torsions:
REMARK  status: ('A' for Active; 'I' for Inactive)
REMARK    1  A    between atoms: C5_6  and  N1_7 
ROOT
HETATM    1  C1  UNL     1       1.174   2.243   0.173  1.00  0.00     0.040 C 
HETATM    2  C2  UNL     1       0.479   0.956   0.538  1.00  0.00     0.123 C 
HETATM    3  O1  UNL     1       1.361  -0.088   0.689  1.00  0.00    -0.379 OA
HETATM    4  C3  UNL     1       0.709  -1.270   0.477  1.00  0.00     0.148 C 
HETATM    5  C4  UNL     1       1.387  -2.073  -0.642  1.00  0.00     0.042 C 
HETATM    6  C5  UNL     1      -0.678  -0.957  -0.038  1.00  0.00     0.218 C 
HETATM    7  C6  UNL     1      -0.420   0.462  -0.566  1.00  0.00     0.043 C 
HETATM    8  C7  UNL     1      -1.693   1.202  -0.705  1.00  0.00     0.015 C 
ENDROOT
BRANCH   6   9
HETATM    9  N1  UNL     1      -1.588  -0.916   1.084  1.00  0.00    -0.072 N 
ATOM     10  H13 UNL     1      -1.561  -1.770   1.640  1.00  0.00     0.274 HD
ATOM     11  H12 UNL     1      -1.285  -0.267   1.810  1.00  0.00     0.274 HD
ATOM     12  H11 UNL     1      -2.524  -0.705   0.737  1.00  0.00     0.274 HD
ENDBRANCH   6   9
TORSDOF 1
