REMARK  6 active torsions:
REMARK  status: ('A' for Active; 'I' for Inactive)
REMARK    1  A    between atoms: C1_2  and  C2_3 
REMARK       I    between atoms: C1_2  and  N3_10 
REMARK    2  A    between atoms: C2_3  and  N1_4 
REMARK    3  A    between atoms: N3_10  and  C6_12 
REMARK    4  A    between atoms: C8_16  and  S1_17 
REMARK    5  A    between atoms: S1_17  and  N5_20 
REMARK       I    between atoms: N5_20  and  C9_22 
REMARK    6  A    between atoms: C9_22  and  C10_24 
ROOT
HETATM    1  C6  UNL     1      -2.200   0.671  -0.715  1.00  0.00     0.152 A 
HETATM    2  N4  UNL     1      -1.257   1.013   0.160  1.00  0.00    -0.344 N 
ATOM      3  H4  UNL     1      -1.479   1.592   0.970  1.00  0.00     0.167 HD
HETATM    4  C7  UNL     1      -0.037   0.586  -0.048  1.00  0.00     0.123 A 
HETATM    5  C8  UNL     1       0.192  -0.183  -1.152  1.00  0.00     0.139 A 
HETATM    6  S2  UNL     1      -1.360  -0.269  -1.859  1.00  0.00    -0.039 SA
ENDROOT
BRANCH   5   7
HETATM    7  S1  UNL     1       1.724  -0.888  -1.698  1.00  0.00     0.273 S 
HETATM    8  O2  UNL     1       1.618  -2.360  -1.883  1.00  0.00    -0.200 OA
HETATM    9  O3  UNL     1       2.055  -0.190  -3.002  1.00  0.00    -0.200 OA
BRANCH   7  10
HETATM   10  N5  UNL     1       2.915  -0.573  -0.503  1.00  0.00    -0.245 N 
HETATM   11  C9  UNL     1       4.278  -0.364  -0.785  1.00  0.00     0.265 C 
HETATM   12  O4  UNL     1       4.680  -0.393  -1.960  1.00  0.00    -0.267 OA
ATOM     13  H5  UNL     1       2.617  -0.535   0.472  1.00  0.00     0.182 HD
BRANCH  11  14
HETATM   14  C10 UNL     1       5.226  -0.117   0.294  1.00  0.00     0.033 A 
HETATM   15  C11 UNL     1       4.821   0.261   1.542  1.00  0.00     0.017 A 
HETATM   16  C12 UNL     1       5.750   0.456   2.538  1.00  0.00     0.001 A 
HETATM   17  C13 UNL     1       7.104   0.289   2.352  1.00  0.00     0.000 A 
HETATM   18  C14 UNL     1       7.496  -0.095   1.076  1.00  0.00     0.001 A 
HETATM   19  C15 UNL     1       6.596  -0.296   0.069  1.00  0.00     0.017 A 
ENDBRANCH  11  14
ENDBRANCH   7  10
ENDBRANCH   5   7
BRANCH   1  20
HETATM   20  N3  UNL     1      -3.476   0.982  -0.659  1.00  0.00    -0.306 N 
HETATM   21  C1  UNL     1      -4.383   0.560  -1.649  1.00  0.00     0.241 C 
HETATM   22  O1  UNL     1      -4.489   1.121  -2.747  1.00  0.00    -0.271 OA
ATOM     23  H3  UNL     1      -3.817   1.543   0.121  1.00  0.00     0.171 HD
BRANCH  21  24
HETATM   24  C2  UNL     1      -5.241  -0.608  -1.339  1.00  0.00     0.232 C 
BRANCH  24  25
HETATM   25  N1  UNL     1      -6.288  -0.233  -0.380  1.00  0.00    -0.343 N 
HETATM   26  C3  UNL     1      -6.108  -0.339   0.972  1.00  0.00     0.109 A 
HETATM   27  C4  UNL     1      -7.262   0.097   1.591  1.00  0.00     0.106 A 
HETATM   28  N2  UNL     1      -8.093   0.447   0.596  1.00  0.00    -0.361 N 
HETATM   29  C5  UNL     1      -7.516   0.252  -0.605  1.00  0.00     0.182 A 
ATOM     30  H2  UNL     1      -9.036   0.812   0.732  1.00  0.00     0.166 HD
ENDBRANCH  24  25
ENDBRANCH  21  24
ENDBRANCH   1  20
TORSDOF 6
