REMARK  10 active torsions:
REMARK  status: ('A' for Active; 'I' for Inactive)
REMARK    1  A    between atoms: C2_2  and  N1_3 
REMARK    2  A    between atoms: N1_3  and  C3_4 
REMARK    3  A    between atoms: N1_3  and  C17_32 
REMARK    4  A    between atoms: C3_4  and  C4_5 
REMARK    5  A    between atoms: C4_5  and  O1_6 
REMARK    6  A    between atoms: O1_6  and  C5_7 
REMARK    7  A    between atoms: C5_7  and  C6_8 
REMARK    8  A    between atoms: N2_12  and  C9_13 
REMARK    9  A    between atoms: C10_16  and  N4_17 
REMARK   10  A    between atoms: C14_25  and  C15_26 
ROOT
HETATM    1  C9  UNL     1       1.859  -0.495   0.915  1.00  0.00     0.697 A 
HETATM    2  N3  UNL     1       1.747   0.375   1.911  1.00  0.00    -0.022 N 
ATOM      3  H3  UNL     1       1.072   0.221   2.660  1.00  0.00     0.203 HD
HETATM    4  C10 UNL     1       2.537   1.462   1.917  1.00  0.00     0.698 A 
HETATM    5  N5  UNL     1       3.434   1.674   0.929  1.00  0.00    -0.142 N 
HETATM    6  C11 UNL     1       4.208   2.774   0.968  1.00  0.00     0.118 A 
HETATM    7  C12 UNL     1       5.130   3.007  -0.034  1.00  0.00     0.043 A 
HETATM    8  C13 UNL     1       5.237   2.100  -1.060  1.00  0.00     0.048 A 
HETATM    9 CL1  UNL     1       6.395   2.346  -2.362  1.00  0.00    -0.084 Cl
HETATM   10  C14 UNL     1       4.440   0.984  -1.084  1.00  0.00     0.042 A 
HETATM   11  C16 UNL     1       3.540   0.783  -0.080  1.00  0.00     0.154 A 
HETATM   12  N6  UNL     1       2.752  -0.286  -0.072  1.00  0.00    -0.174 N 
ATOM     13  H6  UNL     1       2.824  -0.964  -0.830  1.00  0.00     0.186 HD
ENDROOT
BRANCH   1  14
HETATM   14  N2  UNL     1       1.061  -1.693   0.803  1.00  0.00    -0.201 N 
HETATM   15  C6  UNL     1       0.057  -2.003   1.796  1.00  0.00     0.188 C 
HETATM   16  S1  UNL     1       0.044  -3.813   1.772  1.00  0.00    -0.139 SA
HETATM   17  C7  UNL     1       1.295  -4.049   0.443  1.00  0.00     0.096 C 
HETATM   18  C8  UNL     1       1.142  -2.684  -0.237  1.00  0.00     0.153 C 
BRANCH  15  19
HETATM   19  C5  UNL     1      -1.313  -1.442   1.458  1.00  0.00     0.204 C 
BRANCH  19  20
HETATM   20  O1  UNL     1      -1.680  -1.978   0.261  1.00  0.00    -0.387 OA
BRANCH  20  21
HETATM   21  C4  UNL     1      -2.940  -1.609  -0.189  1.00  0.00     0.198 C 
BRANCH  21  22
HETATM   22  C3  UNL     1      -3.084  -0.128  -0.371  1.00  0.00     0.310 C 
BRANCH  22  23
HETATM   23  N1  UNL     1      -4.371   0.250  -0.857  1.00  0.00     0.198 N 
BRANCH  23  24
HETATM   24  C2  UNL     1      -4.505   1.696  -0.966  1.00  0.00     0.280 C 
HETATM   25  C1  UNL     1      -4.526   2.418   0.337  1.00  0.00     0.037 C 
ENDBRANCH  23  24
BRANCH  23  26
HETATM   26  C17 UNL     1      -5.501  -0.311  -0.205  1.00  0.00     0.603 C 
HETATM   27  F1  UNL     1      -5.535   0.030   1.147  1.00  0.00    -0.144 F 
HETATM   28  F2  UNL     1      -5.743  -1.625  -0.452  1.00  0.00    -0.144 F 
HETATM   29  F3  UNL     1      -6.619   0.362  -0.785  1.00  0.00    -0.144 F 
ENDBRANCH  23  26
ENDBRANCH  22  23
ENDBRANCH  21  22
ENDBRANCH  20  21
ENDBRANCH  19  20
ENDBRANCH  15  19
ENDBRANCH   1  14
BRANCH   4  30
HETATM   30  N4  UNL     1       2.474   2.348   2.864  1.00  0.00    -0.234 N 
ATOM     31  H42 UNL     1       1.797   2.188   3.610  1.00  0.00     0.174 HD
ATOM     32  H41 UNL     1       3.074   3.173   2.869  1.00  0.00     0.174 HD
ENDBRANCH   4  30
BRANCH  10  33
HETATM   33  C15 UNL     1       4.536  -0.029  -2.197  1.00  0.00     0.216 C 
HETATM   34 CL2  UNL     1       6.205  -0.663  -2.266  1.00  0.00    -0.103 Cl
HETATM   35 CL3  UNL     1       4.180   0.823  -3.714  1.00  0.00    -0.103 Cl
ENDBRANCH  10  33
TORSDOF 10
