REMARK  5 active torsions:
REMARK  status: ('A' for Active; 'I' for Inactive)
REMARK    1  A    between atoms: O1_1  and  C1_3 
REMARK    2  A    between atoms: C1_3  and  C2_4 
REMARK    3  A    between atoms: C2_4  and  C3_5 
REMARK    4  A    between atoms: C3_5  and  C4_6 
REMARK    5  A    between atoms: C4_6  and  C5_7 
ROOT
HETATM    1  C5  UNL     1      -1.435   0.717   0.373  1.00  0.00     0.028 A 
HETATM    2  C6  UNL     1      -1.401   1.522   1.486  1.00  0.00     0.114 A 
HETATM    3  N1  UNL     1      -2.688   1.708   1.872  1.00  0.00    -0.354 N 
ATOM      4  H1  UNL     1      -2.991   2.263   2.672  1.00  0.00     0.166 HD
HETATM    5  C7  UNL     1      -3.509   1.038   1.024  1.00  0.00     0.085 A 
HETATM    6  N2  UNL     1      -2.697   0.434   0.106  1.00  0.00    -0.337 N 
HETATM    7  C8  UNL     1      -3.175  -0.390  -0.990  1.00  0.00     0.156 C 
HETATM    8  C9  UNL     1      -3.807  -1.631  -0.361  1.00  0.00     0.187 C 
HETATM    9  O2  UNL     1      -4.543  -1.317   0.757  1.00  0.00    -0.389 OA
HETATM   10  C10 UNL     1      -5.471  -0.316   0.571  1.00  0.00     0.175 C 
HETATM   11  C11 UNL     1      -4.980   1.015   1.138  1.00  0.00     0.103 C 
ENDROOT
BRANCH   1  12
HETATM   12  C4  UNL     1      -0.255   0.243  -0.401  1.00  0.00     0.059 C 
BRANCH  12  13
HETATM   13  C3  UNL     1       1.021   0.744   0.169  1.00  0.00     0.017 C 
BRANCH  13  14
HETATM   14  C2  UNL     1       2.282   0.316  -0.510  1.00  0.00    -0.019 C 
HETATM   15  C12 UNL     1       2.415  -1.178  -0.306  1.00  0.00     0.011 C 
HETATM   16  C13 UNL     1       3.829  -1.610  -0.008  1.00  0.00     0.001 C 
HETATM   17  C14 UNL     1       4.360  -0.999   1.267  1.00  0.00     0.000 C 
HETATM   18  C15 UNL     1       3.763   0.365   1.530  1.00  0.00     0.001 C 
HETATM   19  C16 UNL     1       3.414   1.055   0.228  1.00  0.00     0.011 C 
BRANCH  14  20
HETATM   20  C1  UNL     1       2.431   0.707  -1.940  1.00  0.00     0.173 C 
BRANCH  20  21
HETATM   21  O1  UNL     1       1.493   0.234  -2.815  1.00  0.00    -0.400 OA
ATOM     22  H1  UNL     1       1.588   0.483  -3.727  1.00  0.00     0.209 HD
ENDBRANCH  20  21
ENDBRANCH  14  20
ENDBRANCH  13  14
ENDBRANCH  12  13
ENDBRANCH   1  12
TORSDOF 5
