REMARK  7 active torsions:
REMARK  status: ('A' for Active; 'I' for Inactive)
REMARK    1  A    between atoms: O1_1  and  C1_3 
REMARK    2  A    between atoms: C1_3  and  C2_4 
REMARK    3  A    between atoms: C8_11  and  O3_12 
REMARK    4  A    between atoms: C9_14  and  O4_15 
REMARK    5  A    between atoms: C10_17  and  O5_18 
REMARK    6  A    between atoms: O5_18  and  C11_19 
REMARK    7  A    between atoms: N1_20  and  O6_22 
ROOT
HETATM    1  C2  UNL     1       0.960  -1.268   0.242  1.00  0.00     0.178 C 
HETATM    2  O2  UNL     1      -0.264  -1.356   0.739  1.00  0.00    -0.363 OA
HETATM    3  C3  UNL     1      -1.160  -0.373   0.684  1.00  0.00     0.107 C 
HETATM    4  C4  UNL     1      -1.963  -0.208   1.956  1.00  0.00     0.009 C 
HETATM    5  C5  UNL     1      -3.257  -0.121   1.675  1.00  0.00    -0.027 C 
HETATM    6  C6  UNL     1      -3.520  -0.211   0.213  1.00  0.00     0.030 C 
HETATM    7  C7  UNL     1      -2.256  -0.803  -0.311  1.00  0.00     0.049 C 
HETATM    8  C8  UNL     1      -0.724   0.975   0.265  1.00  0.00     0.188 C 
HETATM    9  C9  UNL     1       0.800   1.129   0.484  1.00  0.00     0.182 C 
HETATM   10  C10 UNL     1       1.393   0.079  -0.339  1.00  0.00     0.192 C 
ENDROOT
BRANCH  10  11
HETATM   11  O5  UNL     1       2.719   0.016  -0.626  1.00  0.00    -0.334 OA
BRANCH  11  12
HETATM   12  C11 UNL     1       3.453   1.035  -1.158  1.00  0.00     0.248 C 
HETATM   13  N1  UNL     1       3.390   2.110  -0.509  1.00  0.00    -0.259 N 
ATOM     14  H1  UNL     1       2.808   2.105   0.329  1.00  0.00     0.195 HD
BRANCH  13  15
HETATM   15  O6  UNL     1       4.019   3.282  -0.809  1.00  0.00    -0.289 OA
ATOM     16  H6  UNL     1       3.971   4.094  -0.319  1.00  0.00     0.244 HD
ENDBRANCH  13  15
ENDBRANCH  11  12
ENDBRANCH  10  11
BRANCH   1  17
HETATM   17  C1  UNL     1       1.152  -2.378  -0.796  1.00  0.00     0.198 C 
BRANCH  17  18
HETATM   18  O1  UNL     1       0.257  -2.286  -1.833  1.00  0.00    -0.398 OA
ATOM     19  H1  UNL     1       0.376  -2.974  -2.477  1.00  0.00     0.209 HD
ENDBRANCH  17  18
ENDBRANCH   1  17
BRANCH   9  20
HETATM   20  O4  UNL     1       0.939   0.991   1.857  1.00  0.00    -0.390 OA
ATOM     21  H4  UNL     1       1.875   1.086   1.991  1.00  0.00     0.210 HD
ENDBRANCH   9  20
BRANCH   8  22
HETATM   22  O3  UNL     1      -0.903   1.196  -1.115  1.00  0.00    -0.390 OA
ATOM     23  H3  UNL     1      -0.623   2.063  -1.384  1.00  0.00     0.210 HD
ENDBRANCH   8  22
TORSDOF 7
