REMARK  5 active torsions:
REMARK  status: ('A' for Active; 'I' for Inactive)
REMARK       I    between atoms: C2_2  and  N1_4 
REMARK    1  A    between atoms: N1_4  and  C3_6 
REMARK    2  A    between atoms: C3_6  and  C4_7 
REMARK    3  A    between atoms: C3_6  and  C5_9 
REMARK    4  A    between atoms: C6_10  and  O2_11 
REMARK    5  A    between atoms: C8_15  and  O3_16 
ROOT
HETATM    1  C5  UNL     1       0.854  -0.738   0.402  1.00  0.00     0.074 A 
HETATM    2  C6  UNL     1       0.214  -0.389  -0.769  1.00  0.00     0.104 A 
HETATM    3  C7  UNL     1      -1.149  -0.285  -0.511  1.00  0.00     0.048 A 
HETATM    4  N2  UNL     1      -1.313  -0.556   0.782  1.00  0.00    -0.328 N 
HETATM    5  C8  UNL     1      -0.099  -0.841   1.366  1.00  0.00     0.158 A 
HETATM    6  C9  UNL     1      -2.476  -0.522   1.623  1.00  0.00     0.131 C 
HETATM    7  C10 UNL     1      -3.744  -0.069   0.983  1.00  0.00     0.020 C 
HETATM    8  C11 UNL     1      -3.492   1.169   0.150  1.00  0.00     0.002 C 
HETATM    9  C12 UNL     1      -3.293   0.793  -1.307  1.00  0.00     0.006 C 
HETATM   10  C13 UNL     1      -2.103  -0.018  -1.599  1.00  0.00     0.060 C 
ENDROOT
BRANCH   1  11
HETATM   11  C3  UNL     1       2.340  -0.771   0.538  1.00  0.00     0.043 C 
BRANCH  11  12
HETATM   12  N1  UNL     1       3.041  -0.182  -0.554  1.00  0.00    -0.329 N 
HETATM   13  C2  UNL     1       3.322   1.245  -0.513  1.00  0.00     0.217 C 
HETATM   14  C1  UNL     1       3.992   1.970  -1.552  1.00  0.00     0.117 C 
HETATM   15  O1  UNL     1       2.914   1.835   0.552  1.00  0.00    -0.274 OA
ATOM     16  H1  UNL     1       3.339  -0.749  -1.348  1.00  0.00     0.168 HD
ENDBRANCH  11  12
BRANCH  11  17
HETATM   17  C4  UNL     1       2.935  -1.951   1.178  1.00  0.00     0.173 C 
HETATM   18 CL1  UNL     1       4.553  -1.503   1.834  1.00  0.00    -0.124 Cl
ENDBRANCH  11  17
ENDBRANCH   1  11
BRANCH   2  19
HETATM   19  O2  UNL     1       0.834  -0.176  -2.008  1.00  0.00    -0.358 OA
ATOM     20  H2  UNL     1       0.393   0.064  -2.814  1.00  0.00     0.217 HD
ENDBRANCH   2  19
BRANCH   5  21
HETATM   21  O3  UNL     1       0.029  -1.165   2.732  1.00  0.00    -0.345 OA
ATOM     22  H3  UNL     1      -0.637  -1.237   3.406  1.00  0.00     0.219 HD
ENDBRANCH   5  21
TORSDOF 5
