REMARK  7 active torsions:
REMARK  status: ('A' for Active; 'I' for Inactive)
REMARK       I    between atoms: C2_2  and  N1_4 
REMARK    1  A    between atoms: N1_4  and  C3_6 
REMARK    2  A    between atoms: C4_7  and  N2_8 
REMARK    3  A    between atoms: N2_8  and  N3_10 
REMARK    4  A    between atoms: C5_15  and  O2_16 
REMARK    5  A    between atoms: C6_18  and  N5_19 
REMARK       I    between atoms: N5_19  and  C7_21 
REMARK    6  A    between atoms: C7_21  and  C8_23 
REMARK    7  A    between atoms: C11_26  and  C12_27 
REMARK       I    between atoms: N6_30  and  C13_31 
ROOT
HETATM    1  C3  UNL     1       2.562  -0.513   0.505  1.00  0.00     0.136 C 
HETATM    2  C4  UNL     1       2.990  -1.914   0.901  1.00  0.00     0.156 C 
HETATM    3  C5  UNL     1       1.630  -2.397   0.445  1.00  0.00     0.169 C 
HETATM    4  C6  UNL     1       1.524  -1.156  -0.400  1.00  0.00     0.140 C 
ENDROOT
BRANCH   4   5
HETATM    5  N5  UNL     1       0.215  -0.547  -0.300  1.00  0.00    -0.350 N 
HETATM    6  C7  UNL     1      -0.547  -0.208  -1.418  1.00  0.00     0.241 C 
HETATM    7  O3  UNL     1      -0.056  -0.444  -2.565  1.00  0.00    -0.271 OA
ATOM      8  H5  UNL     1      -0.166  -0.358   0.627  1.00  0.00     0.163 HD
BRANCH   6   9
HETATM    9  C8  UNL     1      -1.895   0.417  -1.392  1.00  0.00     0.180 C 
HETATM   10  C9  UNL     1      -1.739   1.933  -1.441  1.00  0.00     0.038 C 
HETATM   11  C10 UNL     1      -2.998   2.424  -0.847  1.00  0.00     0.039 C 
HETATM   12  C11 UNL     1      -3.252   1.435   0.292  1.00  0.00     0.189 C 
HETATM   13  N6  UNL     1      -2.619   0.218  -0.170  1.00  0.00    -0.324 N 
HETATM   14  C13 UNL     1      -2.723  -1.064   0.461  1.00  0.00     0.217 C 
HETATM   15  C14 UNL     1      -3.366  -1.222   1.779  1.00  0.00     0.117 C 
HETATM   16  O6  UNL     1      -2.257  -2.091  -0.103  1.00  0.00    -0.274 OA
BRANCH  12  17
HETATM   17  C12 UNL     1      -4.730   1.295   0.467  1.00  0.00     0.197 C 
HETATM   18  O4  UNL     1      -5.413   0.326   0.110  1.00  0.00    -0.646 OA
HETATM   19  O5  UNL     1      -5.391   2.350   1.088  1.00  0.00    -0.646 OA
ENDBRANCH  12  17
ENDBRANCH   6   9
ENDBRANCH   4   5
BRANCH   1  20
HETATM   20  N1  UNL     1       3.615   0.172  -0.171  1.00  0.00    -0.353 N 
HETATM   21  C2  UNL     1       4.006   1.457   0.241  1.00  0.00     0.214 C 
HETATM   22  C1  UNL     1       5.095   2.191  -0.441  1.00  0.00     0.117 C 
HETATM   23  O1  UNL     1       3.428   2.004   1.206  1.00  0.00    -0.274 OA
ATOM     24  H1  UNL     1       4.087  -0.274  -0.958  1.00  0.00     0.163 HD
ENDBRANCH   1  20
BRANCH   3  25
HETATM   25  O2  UNL     1       0.735  -2.293   1.531  1.00  0.00    -0.391 OA
ATOM     26  H2  UNL     1      -0.119  -2.596   1.245  1.00  0.00     0.210 HD
ENDBRANCH   3  25
BRANCH   2  27
HETATM   27  N2  UNL     1       4.099  -2.447   0.164  1.00  0.00    -0.313 N 
ATOM     28  H2  UNL     1       4.968  -1.913   0.141  1.00  0.00     0.182 HD
BRANCH  27  29
HETATM   29  N3  UNL     1       4.054  -3.525  -0.447  1.00  0.00    -0.253 N 
HETATM   30  N4  UNL     1       4.304  -4.677  -0.755  1.00  0.00    -0.331 N 
ATOM     31  H42 UNL     1       5.004  -4.847  -0.033  1.00  0.00     0.178 HD
ATOM     32  H41 UNL     1       4.267  -5.564  -1.258  1.00  0.00     0.178 HD
ATOM     33  H3  UNL     1       3.348  -3.302  -1.149  1.00  0.00     0.207 HD
ENDBRANCH  27  29
ENDBRANCH   2  27
TORSDOF 7
