REMARK  5 active torsions:
REMARK  status: ('A' for Active; 'I' for Inactive)
REMARK    1  A    between atoms: O1_2  and  C2_3 
REMARK    2  A    between atoms: C2_3  and  C3_5 
REMARK    3  A    between atoms: C8_13  and  C9_14 
REMARK       I    between atoms: N3_19  and  C13_20 
REMARK    4  A    between atoms: C13_20  and  O5_22 
REMARK    5  A    between atoms: O5_22  and  C14_23 
ROOT
HETATM    1  C3  UNL     1      -0.951   1.970   0.499  1.00  0.00     0.204 C 
HETATM    2  N1  UNL     1      -1.642   1.619  -0.668  1.00  0.00    -0.380 N 
ATOM      3  H1  UNL     1      -1.841   2.434  -1.248  1.00  0.00     0.160 HD
HETATM    4  C4  UNL     1      -2.085   0.552  -1.192  1.00  0.00    -0.001 C 
HETATM    5  C5  UNL     1      -2.770   0.804  -2.509  1.00  0.00     0.064 C 
HETATM    6  C6  UNL     1      -2.025  -0.832  -0.715  1.00  0.00     0.167 C 
HETATM    7  C7  UNL     1      -2.969  -1.145   0.354  1.00  0.00     0.072 C 
HETATM    8  N2  UNL     1      -3.717  -1.374   1.205  1.00  0.00    -0.196 NA
HETATM    9  C8  UNL     1      -0.603  -1.271  -0.387  1.00  0.00     0.170 C 
HETATM   10  N3  UNL     1       0.144  -0.107   0.119  1.00  0.00    -0.309 N 
HETATM   11  C13 UNL     1       1.389   0.172  -0.461  1.00  0.00     0.364 C 
HETATM   12  O4  UNL     1       2.072   1.150  -0.076  1.00  0.00    -0.238 OA
HETATM   13  C18 UNL     1      -0.364   0.737   1.172  1.00  0.00     0.118 C 
HETATM   14  C19 UNL     1       0.702   1.120   2.170  1.00  0.00     0.035 C 
ENDROOT
BRANCH   9  15
HETATM   15  C9  UNL     1      -0.586  -2.397   0.549  1.00  0.00     0.077 A 
HETATM   16  C10 UNL     1      -0.355  -3.714   0.213  1.00  0.00     0.037 A 
HETATM   17  C11 UNL     1      -0.424  -4.467   1.381  1.00  0.00     0.027 A 
HETATM   18  C12 UNL     1      -0.698  -3.542   2.371  1.00  0.00     0.142 A 
HETATM   19  O3  UNL     1      -0.783  -2.348   1.835  1.00  0.00    -0.325 OA
ENDBRANCH   9  15
BRANCH   1  20
HETATM   20  C2  UNL     1      -1.868   2.689   1.430  1.00  0.00     0.283 C 
HETATM   21  O2  UNL     1      -1.485   3.116   2.549  1.00  0.00    -0.263 OA
BRANCH  20  22
HETATM   22  O1  UNL     1      -3.172   2.894   1.062  1.00  0.00    -0.325 OA
HETATM   23  C1  UNL     1      -4.143   3.562   1.855  1.00  0.00     0.213 C 
ENDBRANCH  20  22
ENDBRANCH   1  20
BRANCH  11  24
HETATM   24  O5  UNL     1       1.951  -0.596  -1.482  1.00  0.00    -0.294 OA
BRANCH  24  25
HETATM   25  C14 UNL     1       3.206  -0.286  -2.042  1.00  0.00     0.061 C 
HETATM   26  C15 UNL     1       3.234   1.091  -2.665  1.00  0.00     0.046 C 
HETATM   27  C16 UNL     1       4.359  -0.414  -1.106  1.00  0.00     0.046 C 
HETATM   28  C17 UNL     1       3.429  -1.273  -3.191  1.00  0.00     0.046 C 
ENDBRANCH  24  25
ENDBRANCH  11  24
TORSDOF 5
