REMARK  3 active torsions:
REMARK  status: ('A' for Active; 'I' for Inactive)
REMARK    1  A    between atoms: C3_7  and  C4_8 
REMARK    2  A    between atoms: C4_8  and  N3_9 
REMARK    3  A    between atoms: N3_9  and  C5_11 
ROOT
HETATM    1  C5  UNL     1       0.578   0.232   0.221  1.00  0.00    -0.018 C 
HETATM    2  C6  UNL     1      -0.009   1.643   0.510  1.00  0.00     0.052 C 
HETATM    3  C7  UNL     1      -1.455   1.381   0.444  1.00  0.00     0.006 C 
HETATM    4  C8  UNL     1      -2.557   2.184   0.931  1.00  0.00     0.000 C 
HETATM    5  C9  UNL     1      -3.775   1.225   0.833  1.00  0.00     0.000 C 
HETATM    6  C10 UNL     1      -3.794   0.329  -0.350  1.00  0.00     0.000 C 
HETATM    7  C11 UNL     1      -3.357  -1.087  -0.189  1.00  0.00     0.000 C 
HETATM    8  C12 UNL     1      -2.304  -1.569  -1.198  1.00  0.00     0.000 C 
HETATM    9  C13 UNL     1      -0.919  -1.633  -0.601  1.00  0.00     0.006 C 
HETATM   10  C14 UNL     1      -0.007  -0.469  -0.939  1.00  0.00     0.052 C 
ENDROOT
BRANCH   1  11
HETATM   11  N3  UNL     1       1.971   0.264   0.393  1.00  0.00    -0.392 N 
ATOM     12  H3  UNL     1       2.409   0.991   0.959  1.00  0.00     0.159 HD
BRANCH  11  13
HETATM   13  C4  UNL     1       2.757  -0.735  -0.236  1.00  0.00     0.160 C 
BRANCH  13  14
HETATM   14  C3  UNL     1       4.183  -0.551   0.194  1.00  0.00    -0.007 A 
HETATM   15  C1  UNL     1       4.763  -1.299   1.210  1.00  0.00     0.117 A 
HETATM   16  N1  UNL     1       6.024  -0.903   1.352  1.00  0.00    -0.312 N 
HETATM   17  N2  UNL     1       6.267   0.063   0.469  1.00  0.00    -0.312 N 
ATOM     18  H1  UNL     1       6.693  -1.277   2.025  1.00  0.00     0.186 HD
HETATM   19  C2  UNL     1       5.138   0.299  -0.262  1.00  0.00     0.117 A 
ATOM     20  H2  UNL     1       7.156   0.550   0.356  1.00  0.00     0.186 HD
ENDBRANCH  13  14
ENDBRANCH  11  13
ENDBRANCH   1  11
TORSDOF 3
