REMARK  13 active torsions:
REMARK  status: ('A' for Active; 'I' for Inactive)
REMARK    1  A    between atoms: C2_2  and  O1_3 
REMARK    2  A    between atoms: C2_2  and  N1_5 
REMARK    3  A    between atoms: N1_5  and  C3_7 
REMARK    4  A    between atoms: C3_7  and  O2_8 
REMARK    5  A    between atoms: C3_7  and  N2_10 
REMARK    6  A    between atoms: N2_10  and  C4_12 
REMARK       I    between atoms: N3_15  and  C7_16 
REMARK    7  A    between atoms: C7_16  and  C8_18 
REMARK    8  A    between atoms: C8_18  and  C9_19 
REMARK    9  A    between atoms: C9_19  and  C10_20 
REMARK   10  A    between atoms: C10_20  and  C11_22 
REMARK   11  A    between atoms: C16_27  and  O5_28 
REMARK   12  A    between atoms: O5_28  and  C17_29 
REMARK   13  A    between atoms: C22_35  and  O7_36 
ROOT
HETATM    1  C11 UNL     1      -0.463   0.353  -0.518  1.00  0.00     0.064 C 
HETATM    2  C12 UNL     1      -0.509   0.131  -2.011  1.00  0.00     0.013 C 
HETATM    3  C13 UNL     1      -1.954  -0.154  -2.267  1.00  0.00     0.007 C 
HETATM    4  C14 UNL     1      -2.446  -0.838  -1.029  1.00  0.00     0.001 C 
HETATM    5  C15 UNL     1      -3.875  -0.674  -0.716  1.00  0.00     0.025 C 
HETATM    6  C16 UNL     1      -4.535   0.619  -1.009  1.00  0.00     0.137 C 
HETATM    7  C19 UNL     1      -6.053   0.389  -0.860  1.00  0.00     0.038 C 
HETATM    8  C20 UNL     1      -6.374  -0.053   0.539  1.00  0.00    -0.001 C 
HETATM    9  C21 UNL     1      -7.833  -0.208   0.734  1.00  0.00     0.037 C 
HETATM   10  C22 UNL     1      -8.433  -1.465   0.234  1.00  0.00     0.118 C 
HETATM   11  C23 UNL     1      -7.468  -2.505  -0.210  1.00  0.00     0.032 C 
HETATM   12  C24 UNL     1      -6.190  -2.569   0.529  1.00  0.00     0.012 C 
HETATM   13  C25 UNL     1      -5.622  -1.260   0.992  1.00  0.00    -0.036 C 
HETATM   14  C26 UNL     1      -5.724  -1.275   2.527  1.00  0.00     0.016 C 
HETATM   15  C27 UNL     1      -4.141  -1.180   0.689  1.00  0.00     0.001 C 
HETATM   16  C28 UNL     1      -3.412  -0.366   1.696  1.00  0.00     0.007 C 
HETATM   17  C29 UNL     1      -2.031   0.037   1.305  1.00  0.00     0.011 C 
HETATM   18  C30 UNL     1      -1.465  -0.594   0.088  1.00  0.00    -0.030 C 
HETATM   19  C31 UNL     1      -0.783  -1.900   0.527  1.00  0.00     0.016 C 
ENDROOT
BRANCH   1  20
HETATM   20  C10 UNL     1       0.917   0.219  -0.067  1.00  0.00     0.132 C 
HETATM   21  O4  UNL     1       1.788  -0.058  -0.914  1.00  0.00    -0.298 OA
BRANCH  20  22
HETATM   22  C9  UNL     1       1.377   0.390   1.350  1.00  0.00     0.088 C 
BRANCH  22  23
HETATM   23  C8  UNL     1       2.873   0.325   1.439  1.00  0.00     0.110 C 
BRANCH  23  24
HETATM   24  C7  UNL     1       3.590   1.366   0.699  1.00  0.00     0.220 C 
HETATM   25  N3  UNL     1       5.014   1.304   0.639  1.00  0.00    -0.352 N 
HETATM   26  C6  UNL     1       5.766   0.256   1.282  1.00  0.00     0.127 C 
HETATM   27  C32 UNL     1       5.716   2.332  -0.092  1.00  0.00     0.127 C 
HETATM   28  C5  UNL     1       6.652  -0.425   0.255  1.00  0.00     0.045 C 
HETATM   29  C4  UNL     1       7.309   0.523  -0.693  1.00  0.00     0.088 C 
HETATM   30  C33 UNL     1       7.152   1.970  -0.368  1.00  0.00     0.045 C 
HETATM   31  O3  UNL     1       2.969   2.285   0.136  1.00  0.00    -0.273 OA
BRANCH  29  32
HETATM   32  N2  UNL     1       8.729   0.157  -0.872  1.00  0.00    -0.352 N 
ATOM     33  H2  UNL     1       9.066  -0.120  -1.794  1.00  0.00     0.163 HD
BRANCH  32  34
HETATM   34  C3  UNL     1       9.612   0.185   0.202  1.00  0.00     0.218 C 
BRANCH  34  35
HETATM   35  N1  UNL     1      10.961  -0.127   0.215  1.00  0.00    -0.307 N 
ATOM     36  H1  UNL     1      11.394  -0.028   1.133  1.00  0.00     0.171 HD
BRANCH  35  37
HETATM   37  C2  UNL     1      11.848  -0.550  -0.779  1.00  0.00     0.114 C 
HETATM   38  C1  UNL     1      11.487  -0.772  -2.183  1.00  0.00     0.097 C 
BRANCH  37  39
HETATM   39  O1  UNL     1      13.093  -0.768  -0.447  1.00  0.00    -0.350 OA
ATOM     40  H1  UNL     1      13.327  -0.624   0.462  1.00  0.00     0.219 HD
ENDBRANCH  37  39
ENDBRANCH  35  37
ENDBRANCH  34  35
BRANCH  34  41
HETATM   41  O2  UNL     1       9.116   0.550   1.349  1.00  0.00    -0.332 OA
ATOM     42  H2  UNL     1       8.190   0.764   1.340  1.00  0.00     0.220 HD
ENDBRANCH  34  41
ENDBRANCH  32  34
ENDBRANCH  29  32
ENDBRANCH  23  24
ENDBRANCH  22  23
ENDBRANCH  20  22
ENDBRANCH   1  20
BRANCH   6  43
HETATM   43  O5  UNL     1      -4.255   1.693  -0.191  1.00  0.00    -0.316 OA
BRANCH  43  44
HETATM   44  C17 UNL     1      -3.909   2.927  -0.632  1.00  0.00     0.255 C 
HETATM   45  C18 UNL     1      -3.626   4.004   0.341  1.00  0.00     0.126 C 
HETATM   46  O6  UNL     1      -3.821   3.181  -1.846  1.00  0.00    -0.266 OA
ENDBRANCH  43  44
ENDBRANCH   6  43
BRANCH  10  47
HETATM   47  O7  UNL     1      -9.289  -1.196  -0.859  1.00  0.00    -0.396 OA
ATOM     48  H7  UNL     1      -9.674  -2.003  -1.180  1.00  0.00     0.210 HD
ENDBRANCH  10  47
TORSDOF 13
