REMARK  11 active torsions:
REMARK  status: ('A' for Active; 'I' for Inactive)
REMARK    1  A    between atoms: C2_2  and  C3_3 
REMARK    2  A    between atoms: C4_4  and  C5_5 
REMARK    3  A    between atoms: C5_5  and  C6_7 
REMARK    4  A    between atoms: C6_7  and  O2_8 
REMARK    5  A    between atoms: C6_7  and  O3_10 
REMARK    6  A    between atoms: C6_7  and  C7_12 
REMARK    7  A    between atoms: C8_13  and  C9_14 
REMARK    8  A    between atoms: C9_14  and  C10_15 
REMARK    9  A    between atoms: C10_15  and  C11_16 
REMARK   10  A    between atoms: C11_16  and  O4_17 
REMARK   11  A    between atoms: C11_16  and  C12_19 
ROOT
HETATM    1  C5  UNL     1       0.340   0.200   2.335  1.00  0.00     0.210 C 
HETATM    2  O1  UNL     1       0.041   0.426   3.513  1.00  0.00    -0.290 OA
ENDROOT
BRANCH   1   3
HETATM    3  C4  UNL     1      -0.600   0.681   1.284  1.00  0.00     0.100 C 
HETATM    4  C3  UNL     1      -1.698   1.459   1.956  1.00  0.00    -0.059 C 
HETATM    5  C26 UNL     1      -2.863   1.360   1.062  1.00  0.00     0.078 C 
HETATM    6  C21 UNL     1      -2.693  -0.005   0.383  1.00  0.00     0.182 C 
HETATM    7  C25 UNL     1      -3.031   2.310  -0.056  1.00  0.00     0.015 C 
HETATM    8  C19 UNL     1      -1.364  -0.536   0.692  1.00  0.00     0.060 C 
HETATM    9  O6  UNL     1      -3.850  -0.678   0.606  1.00  0.00    -0.317 OA
HETATM   10  O7  UNL     1      -3.043   0.039  -0.972  1.00  0.00    -0.317 OA
HETATM   11  C20 UNL     1      -0.673  -0.954  -0.582  1.00  0.00     0.016 C 
HETATM   12  C22 UNL     1      -4.353  -0.176  -0.566  1.00  0.00     0.180 C 
HETATM   13  C23 UNL     1      -5.176   1.046  -0.529  1.00  0.00     0.052 C 
HETATM   14  C31 UNL     1      -5.122  -1.230  -1.334  1.00  0.00     0.062 A 
HETATM   15  C24 UNL     1      -4.505   2.366  -0.416  1.00  0.00     0.011 C 
HETATM   16  C27 UNL     1      -6.310   0.833   0.443  1.00  0.00    -0.009 C 
HETATM   17  C28 UNL     1      -7.551   1.555  -0.107  1.00  0.00     0.010 C 
HETATM   18  C29 UNL     1      -6.641  -0.639   0.598  1.00  0.00     0.011 C 
HETATM   19  C30 UNL     1      -6.438  -1.423  -0.653  1.00  0.00     0.004 A 
HETATM   20  C32 UNL     1      -5.492  -2.527  -0.793  1.00  0.00    -0.034 A 
HETATM   21  C33 UNL     1      -5.867  -3.576  -1.855  1.00  0.00     0.016 C 
HETATM   22  C34 UNL     1      -4.758  -3.139   0.367  1.00  0.00     0.016 C 
BRANCH   4  23
HETATM   23  C2  UNL     1      -1.386   2.688   2.628  1.00  0.00    -0.006 C 
HETATM   24  C1  UNL     1      -2.120   3.775   2.624  1.00  0.00     0.011 C 
ENDBRANCH   4  23
ENDBRANCH   1   3
BRANCH   1  25
HETATM   25  C6  UNL     1       1.597  -0.524   2.106  1.00  0.00     0.292 C 
BRANCH  25  26
HETATM   26  O2  UNL     1       2.228  -0.751   3.355  1.00  0.00    -0.350 OA
ATOM     27  H2  UNL     1       3.041  -1.219   3.207  1.00  0.00     0.214 HD
ENDBRANCH  25  26
BRANCH  25  28
HETATM   28  O3  UNL     1       1.456  -1.759   1.500  1.00  0.00    -0.350 OA
ATOM     29  H3  UNL     1       2.269  -2.227   1.352  1.00  0.00     0.214 HD
ENDBRANCH  25  28
BRANCH  25  30
HETATM   30  C7  UNL     1       2.517   0.355   1.341  1.00  0.00    -0.030 C 
HETATM   31  C8  UNL     1       3.250   1.083   0.729  1.00  0.00    -0.101 C 
BRANCH  31  32
HETATM   32  C9  UNL     1       4.129   1.984   0.002  1.00  0.00     0.097 C 
BRANCH  32  33
HETATM   33  C10 UNL     1       5.520   1.427  -0.190  1.00  0.00     0.045 C 
BRANCH  33  34
HETATM   34  C11 UNL     1       5.432   0.148  -0.962  1.00  0.00     0.138 C 
BRANCH  34  35
HETATM   35  O4  UNL     1       4.834   0.489  -2.202  1.00  0.00    -0.394 OA
ATOM     36  H4  UNL     1       4.778  -0.323  -2.692  1.00  0.00     0.210 HD
ENDBRANCH  34  35
BRANCH  34  37
HETATM   37  C12 UNL     1       6.780  -0.438  -1.283  1.00  0.00     0.046 C 
HETATM   38  C13 UNL     1       6.624  -1.720  -2.059  1.00  0.00     0.031 C 
HETATM   39  S1  UNL     1       7.689   0.723  -2.384  1.00  0.00    -0.079 SA
HETATM   40  C14 UNL     1       9.079   0.979  -1.289  1.00  0.00     0.191 C 
HETATM   41  O5  UNL     1       9.915   1.837  -1.432  1.00  0.00    -0.285 OA
HETATM   42  C15 UNL     1       8.982  -0.019  -0.249  1.00  0.00     0.077 A 
HETATM   43  C16 UNL     1       8.947  -1.476  -0.519  1.00  0.00     0.025 A 
HETATM   44  C17 UNL     1       7.686  -0.645  -0.152  1.00  0.00    -0.013 A 
HETATM   45  C18 UNL     1       7.090  -1.059   1.176  1.00  0.00     0.018 C 
ENDBRANCH  34  37
ENDBRANCH  33  34
ENDBRANCH  32  33
ENDBRANCH  31  32
ENDBRANCH  25  30
ENDBRANCH   1  25
TORSDOF 11
