REMARK  2 active torsions:
REMARK  status: ('A' for Active; 'I' for Inactive)
REMARK    1  A    between atoms: C2_2  and  S1_4 
REMARK    2  A    between atoms: S1_4  and  C4_5 
ROOT
HETATM    1  C4  UNL     1       2.334  -0.406  -0.625  1.00  0.00     0.145 A 
HETATM    2  N1  UNL     1       1.519  -1.448  -0.887  1.00  0.00    -0.339 N 
ATOM      3  H1  UNL     1       1.921  -2.260  -1.356  1.00  0.00     0.168 HD
HETATM    4  C5  UNL     1       0.211  -1.489  -0.572  1.00  0.00     0.025 A 
HETATM    5  C6  UNL     1      -0.332  -0.371   0.070  1.00  0.00     0.030 A 
HETATM    6  C7  UNL     1      -1.603  -0.257   0.429  1.00  0.00    -0.005 A 
HETATM    7  C8  UNL     1      -2.046   0.884   1.036  1.00  0.00     0.011 A 
HETATM    8  S2  UNL     1      -0.598   1.805   1.091  1.00  0.00    -0.074 SA
HETATM    9  C9  UNL     1       0.484   0.706   0.346  1.00  0.00     0.089 A 
HETATM   10  N2  UNL     1       1.784   0.659  -0.006  1.00  0.00    -0.330 N 
ATOM     11  H2  UNL     1       2.377   1.462   0.204  1.00  0.00     0.168 HD
HETATM   12  C10 UNL     1      -3.381   1.338   1.527  1.00  0.00     0.161 C 
HETATM   13  N3  UNL     1      -4.453   1.356   0.571  1.00  0.00    -0.417 N 
ATOM     14  H3  UNL     1      -4.847   2.225   0.210  1.00  0.00     0.153 HD
HETATM   15  C11 UNL     1      -4.941   0.043   0.151  1.00  0.00     0.116 C 
HETATM   16  C12 UNL     1      -3.898  -0.955   0.010  1.00  0.00     0.050 C 
HETATM   17  C13 UNL     1      -2.568  -1.430   0.147  1.00  0.00     0.068 C 
HETATM   18 CL1  UNL     1      -2.200  -2.586   1.468  1.00  0.00    -0.114 Cl
HETATM   19  C14 UNL     1      -2.059  -2.150  -1.089  1.00  0.00     0.037 C 
HETATM   20  C15 UNL     1      -0.653  -2.637  -0.878  1.00  0.00     0.060 C 
ENDROOT
BRANCH   1  21
HETATM   21  S1  UNL     1       4.058  -0.363  -1.054  1.00  0.00    -0.090 SA
BRANCH  21  22
HETATM   22  C2  UNL     1       4.768   1.193  -0.527  1.00  0.00     0.047 C 
HETATM   23  C1  UNL     1       4.773   1.251   0.978  1.00  0.00     0.021 C 
HETATM   24  C3  UNL     1       6.152   1.428  -1.095  1.00  0.00     0.021 C 
ENDBRANCH  21  22
ENDBRANCH   1  21
TORSDOF 2
