REMARK  7 active torsions:
REMARK  status: ('A' for Active; 'I' for Inactive)
REMARK    1  A    between atoms: C2_2  and  O1_5 
REMARK    2  A    between atoms: O1_5  and  C5_6 
REMARK    3  A    between atoms: C5_6  and  O3_8 
REMARK    4  A    between atoms: O3_8  and  C6_9 
REMARK    5  A    between atoms: C6_9  and  C7_10 
REMARK    6  A    between atoms: C8_12  and  N2_13 
REMARK    7  A    between atoms: N2_13  and  C9_15 
ROOT
HETATM    1  C7  UNL     1       0.307  -0.381  -1.740  1.00  0.00     0.080 C 
HETATM    2  N1  UNL     1       0.250   0.601  -2.768  1.00  0.00    -0.102 NA
HETATM    3  C8  UNL     1       1.483  -0.790  -1.351  1.00  0.00     0.131 C 
ENDROOT
BRANCH   1   4
HETATM    4  C6  UNL     1      -0.992  -0.854  -1.200  1.00  0.00     0.152 C 
HETATM    5  C16 UNL     1      -1.741  -1.392  -2.361  1.00  0.00     0.130 C 
HETATM    6  S1  UNL     1      -1.354  -3.174  -2.340  1.00  0.00    -0.125 SA
HETATM    7  C17 UNL     1      -0.959  -3.166  -0.543  1.00  0.00     0.017 A 
HETATM    8  C18 UNL     1      -0.804  -4.170   0.369  1.00  0.00     0.068 A 
HETATM    9  C20 UNL     1      -0.814  -1.898  -0.151  1.00  0.00     0.007 A 
HETATM   10  S2  UNL     1      -0.450  -3.340   1.807  1.00  0.00    -0.112 SA
HETATM   11  C19 UNL     1      -0.506  -1.751   1.220  1.00  0.00     0.061 A 
BRANCH   4  12
HETATM   12  O3  UNL     1      -1.595   0.344  -0.680  1.00  0.00    -0.275 OA
BRANCH  12  13
HETATM   13  C5  UNL     1      -2.826   0.283  -0.092  1.00  0.00     0.408 C 
HETATM   14  O2  UNL     1      -3.395  -0.812  -0.021  1.00  0.00    -0.229 OA
BRANCH  13  15
HETATM   15  O1  UNL     1      -3.431   1.400   0.412  1.00  0.00    -0.288 OA
BRANCH  15  16
HETATM   16  C2  UNL     1      -4.698   1.309   1.012  1.00  0.00     0.062 C 
HETATM   17  C1  UNL     1      -5.062   2.733   1.458  1.00  0.00     0.046 C 
HETATM   18  C3  UNL     1      -5.771   0.868   0.058  1.00  0.00     0.046 C 
HETATM   19  C4  UNL     1      -4.624   0.463   2.245  1.00  0.00     0.046 C 
ENDBRANCH  15  16
ENDBRANCH  13  15
ENDBRANCH  12  13
ENDBRANCH   4  12
ENDBRANCH   1   4
BRANCH   3  20
HETATM   20  N2  UNL     1       2.709  -0.320  -1.885  1.00  0.00    -0.200 N 
ATOM     21  H2  UNL     1       2.810  -0.235  -2.896  1.00  0.00     0.183 HD
BRANCH  20  22
HETATM   22  C9  UNL     1       3.689  -0.000  -1.133  1.00  0.00     0.683 A 
HETATM   23  N3  UNL     1       4.899   0.456  -1.514  1.00  0.00    -0.189 N 
HETATM   24  C10 UNL     1       5.627   0.669  -0.423  1.00  0.00     0.079 A 
ATOM     25  H3  UNL     1       5.204   0.611  -2.475  1.00  0.00     0.184 HD
HETATM   26  C11 UNL     1       6.916   1.126  -0.209  1.00  0.00     0.056 A 
HETATM   27  C15 UNL     1       4.862   0.339   0.673  1.00  0.00     0.098 A 
HETATM   28  C12 UNL     1       7.415   1.245   1.092  1.00  0.00     0.037 A 
HETATM   29 CL1  UNL     1       9.044   1.825   1.309  1.00  0.00    -0.084 Cl
HETATM   30  C13 UNL     1       6.650   0.916   2.169  1.00  0.00     0.050 A 
HETATM   31  C14 UNL     1       5.356   0.457   1.957  1.00  0.00     0.065 A 
HETATM   32 CL2  UNL     1       4.376   0.037   3.333  1.00  0.00    -0.082 Cl
HETATM   33  N4  UNL     1       3.670  -0.071   0.209  1.00  0.00    -0.188 N 
ATOM     34  H4  UNL     1       2.884  -0.383   0.779  1.00  0.00     0.184 HD
ENDBRANCH  20  22
ENDBRANCH   3  20
TORSDOF 7
