REMARK  7 active torsions:
REMARK  status: ('A' for Active; 'I' for Inactive)
REMARK    1  A    between atoms: C3_3  and  C4_4 
REMARK    2  A    between atoms: C4_4  and  C5_5 
REMARK    3  A    between atoms: C18_22  and  O5_23 
REMARK    4  A    between atoms: O5_23  and  C19_24 
REMARK    5  A    between atoms: C19_24  and  C20_26 
REMARK    6  A    between atoms: C20_26  and  C21_27 
REMARK    7  A    between atoms: C24_30  and  O7_31 
ROOT
HETATM    1  C1  UNL     1      -1.642   3.351  -1.698  1.00  0.00     0.015 C 
HETATM    2  C2  UNL     1      -1.778   2.153  -1.178  1.00  0.00    -0.076 C 
HETATM    3  C3  UNL     1      -2.599   1.391  -0.205  1.00  0.00     0.034 C 
HETATM    4  C7  UNL     1      -2.171   0.134  -0.901  1.00  0.00    -0.003 C 
HETATM    5  C8  UNL     1      -3.100  -0.262  -2.035  1.00  0.00     0.021 C 
HETATM    6  C9  UNL     1      -1.754  -1.023  -0.119  1.00  0.00    -0.062 C 
HETATM    7  C10 UNL     1      -2.184  -1.084   1.141  1.00  0.00     0.057 C 
HETATM    8  C11 UNL     1      -1.834  -2.191   2.022  1.00  0.00     0.179 C 
HETATM    9  O2  UNL     1      -2.408  -2.314   3.118  1.00  0.00    -0.290 OA
HETATM   10  C12 UNL     1      -0.817  -3.131   1.596  1.00  0.00     0.210 C 
HETATM   11  O3  UNL     1      -1.002  -4.478   2.018  1.00  0.00    -0.307 OA
HETATM   12  C13 UNL     1      -0.404  -5.269   1.045  1.00  0.00     0.260 C 
HETATM   13  O4  UNL     1      -0.193  -6.490   1.160  1.00  0.00    -0.265 OA
HETATM   14  C14 UNL     1      -0.060  -4.437  -0.146  1.00  0.00     0.119 C 
HETATM   15  C15 UNL     1      -0.999  -3.296   0.100  1.00  0.00     0.040 C 
HETATM   16  C16 UNL     1      -0.881  -2.103  -0.718  1.00  0.00     0.025 C 
HETATM   17  C17 UNL     1       0.448  -1.538  -0.982  1.00  0.00     0.044 C 
HETATM   18  C18 UNL     1       0.857  -0.349  -0.160  1.00  0.00     0.162 C 
HETATM   19  C24 UNL     1       0.203   0.921  -0.494  1.00  0.00     0.157 C 
HETATM   20  C25 UNL     1      -0.979   0.864  -1.388  1.00  0.00     0.058 C 
ENDROOT
BRANCH  18  21
HETATM   21  O5  UNL     1       2.267  -0.230  -0.323  1.00  0.00    -0.313 OA
BRANCH  21  22
HETATM   22  C19 UNL     1       3.168  -0.371   0.686  1.00  0.00     0.259 C 
HETATM   23  O6  UNL     1       2.771  -0.614   1.850  1.00  0.00    -0.265 OA
BRANCH  22  24
HETATM   24  C20 UNL     1       4.615  -0.245   0.444  1.00  0.00     0.115 C 
BRANCH  24  25
HETATM   25  C21 UNL     1       5.224   1.053   0.857  1.00  0.00    -0.013 C 
HETATM   26  C22 UNL     1       6.722   0.944   0.525  1.00  0.00     0.010 C 
HETATM   27  C23 UNL     1       4.704   2.215   0.014  1.00  0.00     0.010 C 
ENDBRANCH  24  25
ENDBRANCH  22  24
ENDBRANCH  21  22
ENDBRANCH  18  21
BRANCH  19  28
HETATM   28  O7  UNL     1       1.089   1.850  -1.093  1.00  0.00    -0.392 OA
ATOM     29  H7  UNL     1       0.665   2.672  -1.309  1.00  0.00     0.210 HD
ENDBRANCH  19  28
BRANCH   3  30
HETATM   30  C4  UNL     1      -4.088   1.582  -0.254  1.00  0.00     0.087 C 
BRANCH  30  31
HETATM   31  C5  UNL     1      -4.499   2.981  -0.014  1.00  0.00     0.123 C 
HETATM   32  C6  UNL     1      -4.306   3.545   1.341  1.00  0.00     0.091 C 
HETATM   33  O1  UNL     1      -4.985   3.621  -0.947  1.00  0.00    -0.298 OA
ENDBRANCH  30  31
ENDBRANCH   3  30
TORSDOF 7
