REMARK  5 active torsions:
REMARK  status: ('A' for Active; 'I' for Inactive)
REMARK    1  A    between atoms: O1_2  and  C2_3 
REMARK    2  A    between atoms: C2_3  and  C3_4 
REMARK    3  A    between atoms: C3_4  and  N1_5 
REMARK    4  A    between atoms: N3_19  and  C15_20 
REMARK    5  A    between atoms: C15_20  and  C16_21 
ROOT
HETATM    1  N1  UNL     1       3.610   1.502  -0.372  1.00  0.00     0.093 N 
HETATM    2  C4  UNL     1       2.963   1.792   0.863  1.00  0.00     0.275 C 
HETATM    3  C5  UNL     1       2.711   0.471   1.482  1.00  0.00     0.062 C 
HETATM    4  C6  UNL     1       2.351  -0.410   0.321  1.00  0.00     0.054 C 
HETATM    5  C7  UNL     1       3.373   0.137  -0.708  1.00  0.00     0.302 C 
HETATM    6  C8  UNL     1       1.052  -0.239  -0.300  1.00  0.00     0.042 C 
HETATM    7  C9  UNL     1      -0.119  -1.090   0.114  1.00  0.00    -0.029 C 
HETATM    8  C10 UNL     1       0.377  -2.517   0.245  1.00  0.00     0.011 C 
HETATM    9  C11 UNL     1       1.357  -2.956  -0.766  1.00  0.00     0.020 C 
HETATM   10  C12 UNL     1       2.794  -2.668  -0.415  1.00  0.00     0.114 C 
HETATM   11  N2  UNL     1       2.809  -1.717   0.628  1.00  0.00    -0.411 N 
ATOM     12  H2  UNL     1       3.136  -1.959   1.563  1.00  0.00     0.154 HD
HETATM   13  C13 UNL     1      -0.605  -0.603   1.431  1.00  0.00     0.054 C 
HETATM   14  C14 UNL     1      -2.112  -0.449   1.582  1.00  0.00     0.067 C 
HETATM   15  N3  UNL     1      -2.743  -0.071   0.381  1.00  0.00    -0.341 N 
HETATM   16  C20 UNL     1      -2.545  -0.990  -0.695  1.00  0.00     0.141 C 
HETATM   17  C21 UNL     1      -3.092  -2.355  -0.337  1.00  0.00     0.072 C 
HETATM   18  C22 UNL     1      -4.602  -2.425  -0.365  1.00  0.00     0.081 C 
HETATM   19  S1  UNL     1      -5.047  -2.218  -2.139  1.00  0.00    -0.143 SA
HETATM   20  C23 UNL     1      -3.539  -1.369  -2.781  1.00  0.00     0.244 C 
HETATM   21  O2  UNL     1      -3.205  -0.477  -1.802  1.00  0.00    -0.351 OA
HETATM   22  C24 UNL     1      -1.087  -1.037  -1.022  1.00  0.00     0.071 C 
ENDROOT
BRANCH  15  23
HETATM   23  C15 UNL     1      -3.087   1.243   0.105  1.00  0.00     0.074 C 
BRANCH  23  24
HETATM   24  C16 UNL     1      -4.236   1.915   0.736  1.00  0.00    -0.019 C 
HETATM   25  C17 UNL     1      -4.210   2.000   2.222  1.00  0.00     0.020 C 
HETATM   26  C18 UNL     1      -4.149   3.395   0.201  1.00  0.00     0.020 C 
HETATM   27  C19 UNL     1      -5.595   1.466   0.226  1.00  0.00     0.020 C 
ENDBRANCH  23  24
ENDBRANCH  15  23
BRANCH   1  28
HETATM   28  C3  UNL     1       4.980   1.934  -0.481  1.00  0.00     0.298 C 
BRANCH  28  29
HETATM   29  C2  UNL     1       5.959   1.219   0.370  1.00  0.00     0.197 C 
BRANCH  29  30
HETATM   30  O1  UNL     1       7.225   1.751   0.178  1.00  0.00    -0.394 OA
HETATM   31  C1  UNL     1       7.697   1.675  -1.114  1.00  0.00     0.201 C 
ENDBRANCH  29  30
ENDBRANCH  28  29
ENDBRANCH   1  28
TORSDOF 5
