REMARK  7 active torsions:
REMARK  status: ('A' for Active; 'I' for Inactive)
REMARK    1  A    between atoms: C2_2  and  O1_3 
REMARK    2  A    between atoms: O1_3  and  N1_4 
REMARK    3  A    between atoms: C3_6  and  C5_8 
REMARK       I    between atoms: N2_11  and  C8_12 
REMARK    4  A    between atoms: C8_12  and  O3_14 
REMARK    5  A    between atoms: O3_14  and  C9_15 
REMARK    6  A    between atoms: C15_21  and  N3_22 
REMARK       I    between atoms: N3_22  and  C16_24 
REMARK    7  A    between atoms: C16_24  and  O5_26 
ROOT
HETATM    1  C9  UNL     1      -2.095   0.435   0.318  1.00  0.00     0.135 C 
HETATM    2  C10 UNL     1      -2.472   1.918   0.147  1.00  0.00     0.051 C 
HETATM    3  C11 UNL     1      -3.931   2.139   0.371  1.00  0.00    -0.008 C 
HETATM    4  C12 UNL     1      -4.281   1.750   1.770  1.00  0.00     0.017 C 
HETATM    5  C13 UNL     1      -3.993   0.280   1.968  1.00  0.00     0.061 C 
HETATM    6  C14 UNL     1      -4.765  -0.538   0.947  1.00  0.00     0.043 C 
HETATM    7  C15 UNL     1      -4.377  -0.116  -0.429  1.00  0.00     0.039 C 
HETATM    8  C18 UNL     1      -4.677   1.325  -0.665  1.00  0.00     0.036 C 
HETATM    9  C19 UNL     1      -2.877  -0.340  -0.679  1.00  0.00     0.078 C 
HETATM   10  C20 UNL     1      -2.549   0.074   1.669  1.00  0.00     0.166 C 
HETATM   11  O6  UNL     1      -1.868  -0.375   2.570  1.00  0.00    -0.294 OA
ENDROOT
BRANCH   1  12
HETATM   12  O3  UNL     1      -0.715   0.400   0.141  1.00  0.00    -0.285 OA
BRANCH  12  13
HETATM   13  C8  UNL     1       0.066  -0.737   0.206  1.00  0.00     0.363 C 
HETATM   14  N2  UNL     1       1.459  -0.659   0.011  1.00  0.00    -0.328 N 
HETATM   15  C7  UNL     1       2.068   0.608  -0.256  1.00  0.00     0.129 C 
HETATM   16  C21 UNL     1       2.240  -1.858   0.084  1.00  0.00     0.129 C 
HETATM   17  C6  UNL     1       3.339   0.844   0.521  1.00  0.00     0.030 C 
HETATM   18  C5  UNL     1       4.036  -0.420   0.944  1.00  0.00     0.036 C 
HETATM   19  C22 UNL     1       3.728  -1.593   0.074  1.00  0.00     0.030 C 
HETATM   20  O2  UNL     1      -0.550  -1.807   0.444  1.00  0.00    -0.238 OA
BRANCH  18  21
HETATM   21  C3  UNL     1       5.493  -0.169   0.926  1.00  0.00     0.010 C 
HETATM   22  N1  UNL     1       6.245  -0.868   0.167  1.00  0.00    -0.275 N 
ATOM     23  H1  UNL     1       5.808  -1.587  -0.410  1.00  0.00     0.193 HD
HETATM   24  C4  UNL     1       6.135   0.879   1.765  1.00  0.00     0.066 C 
BRANCH  22  25
HETATM   25  O1  UNL     1       7.603  -0.710   0.081  1.00  0.00    -0.281 OA
BRANCH  25  26
HETATM   26  C2  UNL     1       8.310  -0.668  -1.147  1.00  0.00     0.196 C 
HETATM   27  C1  UNL     1       9.774  -0.483  -0.830  1.00  0.00     0.036 C 
ENDBRANCH  25  26
ENDBRANCH  22  25
ENDBRANCH  18  21
ENDBRANCH  12  13
ENDBRANCH   1  12
BRANCH   7  28
HETATM   28  N3  UNL     1      -5.136  -0.903  -1.391  1.00  0.00    -0.328 N 
HETATM   29  C16 UNL     1      -6.546  -0.906  -1.487  1.00  0.00     0.360 C 
HETATM   30  O4  UNL     1      -7.330  -0.236  -0.767  1.00  0.00    -0.239 OA
ATOM     31  H3  UNL     1      -4.614  -1.492  -2.040  1.00  0.00     0.165 HD
BRANCH  29  32
HETATM   32  O5  UNL     1      -7.203  -1.703  -2.450  1.00  0.00    -0.309 OA
HETATM   33  C17 UNL     1      -8.609  -1.724  -2.567  1.00  0.00     0.215 C 
ENDBRANCH  29  32
ENDBRANCH   7  28
TORSDOF 7
