REMARK  11 active torsions:
REMARK  status: ('A' for Active; 'I' for Inactive)
REMARK    1  A    between atoms: N1_2  and  C2_5 
REMARK    2  A    between atoms: C11_14  and  O1_15 
REMARK    3  A    between atoms: O1_15  and  C12_16 
REMARK    4  A    between atoms: C12_16  and  C13_18 
REMARK    5  A    between atoms: C13_18  and  C14_20 
REMARK    6  A    between atoms: C14_20  and  C15_21 
REMARK    7  A    between atoms: C15_21  and  C16_22 
REMARK    8  A    between atoms: C16_22  and  C17_23 
REMARK    9  A    between atoms: C17_23  and  C19_25 
REMARK   10  A    between atoms: C19_25  and  O3_26 
REMARK   11  A    between atoms: C21_30  and  O5_31 
ROOT
HETATM    1  C2  UNL     1      -6.204  -1.040   0.367  1.00  0.00     0.194 C 
HETATM    2  C3  UNL     1      -5.716  -0.675   1.738  1.00  0.00     0.034 C 
HETATM    3  C4  UNL     1      -5.114   0.680   1.555  1.00  0.00     0.008 C 
HETATM    4  C5  UNL     1      -4.770   0.811   0.107  1.00  0.00     0.000 C 
HETATM    5  C6  UNL     1      -3.328   1.162  -0.114  1.00  0.00    -0.005 C 
HETATM    6  C7  UNL     1      -3.057   1.728  -1.469  1.00  0.00     0.009 C 
HETATM    7  C8  UNL     1      -1.713   1.418  -2.027  1.00  0.00     0.035 C 
HETATM    8  C9  UNL     1      -0.686   1.159  -0.994  1.00  0.00    -0.073 C 
HETATM    9  C10 UNL     1       0.494   1.735  -1.067  1.00  0.00     0.016 C 
HETATM   10  C11 UNL     1       1.584   1.510  -0.040  1.00  0.00     0.227 C 
HETATM   11  C20 UNL     1       0.975   1.190   1.278  1.00  0.00     0.189 C 
HETATM   12  O4  UNL     1       1.650   1.160   2.280  1.00  0.00    -0.292 OA
HETATM   13  C21 UNL     1      -0.477   0.899   1.398  1.00  0.00     0.199 C 
HETATM   14  C22 UNL     1      -0.998   0.254   0.110  1.00  0.00     0.055 C 
HETATM   15  C23 UNL     1      -2.478   0.008   0.286  1.00  0.00     0.001 C 
HETATM   16  C24 UNL     1      -2.880  -1.305  -0.323  1.00  0.00     0.006 C 
HETATM   17  C25 UNL     1      -4.152  -1.329  -1.058  1.00  0.00     0.012 C 
HETATM   18  C26 UNL     1      -5.229  -0.404  -0.610  1.00  0.00    -0.012 C 
HETATM   19  C27 UNL     1      -6.068  -0.061  -1.851  1.00  0.00     0.018 C 
ENDROOT
BRANCH  10  20
HETATM   20  O1  UNL     1       2.431   0.466  -0.429  1.00  0.00    -0.302 OA
BRANCH  20  21
HETATM   21  C12 UNL     1       3.778   0.782  -0.714  1.00  0.00     0.294 C 
HETATM   22  O2  UNL     1       4.120   1.963  -0.598  1.00  0.00    -0.262 OA
BRANCH  21  23
HETATM   23  C13 UNL     1       4.717  -0.282  -1.134  1.00  0.00     0.269 C 
HETATM   24  F1  UNL     1       4.614  -1.272  -0.159  1.00  0.00    -0.239 F 
BRANCH  23  25
HETATM   25  C14 UNL     1       6.110   0.146  -1.376  1.00  0.00     0.048 C 
BRANCH  25  26
HETATM   26  C15 UNL     1       6.872   0.727  -0.245  1.00  0.00     0.004 C 
BRANCH  26  27
HETATM   27  C16 UNL     1       7.089  -0.160   0.931  1.00  0.00     0.006 C 
BRANCH  27  28
HETATM   28  C17 UNL     1       7.830  -1.422   0.713  1.00  0.00     0.005 C 
HETATM   29  C18 UNL     1       7.896  -2.140   2.072  1.00  0.00     0.012 C 
BRANCH  28  30
HETATM   30  C19 UNL     1       9.258  -1.273   0.254  1.00  0.00     0.168 C 
BRANCH  30  31
HETATM   31  O3  UNL     1       9.407  -0.624  -0.953  1.00  0.00    -0.400 OA
ATOM     32  H3  UNL     1      10.307  -0.530  -1.242  1.00  0.00     0.209 HD
ENDBRANCH  30  31
ENDBRANCH  28  30
ENDBRANCH  27  28
ENDBRANCH  26  27
ENDBRANCH  25  26
ENDBRANCH  23  25
ENDBRANCH  21  23
ENDBRANCH  20  21
ENDBRANCH  10  20
BRANCH  13  33
HETATM   33  O5  UNL     1      -0.770   0.114   2.498  1.00  0.00    -0.387 OA
ATOM     34  H5  UNL     1      -1.698  -0.072   2.575  1.00  0.00     0.210 HD
ENDBRANCH  13  33
BRANCH   1  35
HETATM   35  N1  UNL     1      -7.488  -0.391   0.174  1.00  0.00    -0.074 N 
HETATM   36  C1  UNL     1      -8.498  -0.826   1.089  1.00  0.00     0.267 C 
ATOM     37  H12 UNL     1      -7.805  -0.500  -0.789  1.00  0.00     0.277 HD
ATOM     38  H11 UNL     1      -7.386   0.623   0.207  1.00  0.00     0.277 HD
ENDBRANCH   1  35
TORSDOF 11
