REMARK  18 active torsions:
REMARK  status: ('A' for Active; 'I' for Inactive)
REMARK    1  A    between atoms: C2_2  and  C3_3 
REMARK    2  A    between atoms: C3_3  and  C4_4 
REMARK    3  A    between atoms: C7_11  and  C8_12 
REMARK    4  A    between atoms: C8_12  and  O1_13 
REMARK    5  A    between atoms: C8_12  and  N3_15 
REMARK    6  A    between atoms: C11_18  and  C12_19 
REMARK    7  A    between atoms: C12_19  and  N4_20 
REMARK    8  A    between atoms: C13_23  and  C14_24 
REMARK    9  A    between atoms: C14_24  and  C15_25 
REMARK   10  A    between atoms: C15_25  and  O2_26 
REMARK   11  A    between atoms: C15_25  and  N6_28 
REMARK   12  A    between atoms: N6_28  and  C16_29 
REMARK   13  A    between atoms: C16_29  and  C17_30 
REMARK   14  A    between atoms: C16_29  and  C20_35 
REMARK   15  A    between atoms: C17_30  and  C18_31 
REMARK   16  A    between atoms: C18_31  and  C19_32 
REMARK   17  A    between atoms: C20_35  and  O5_37 
REMARK   18  A    between atoms: O5_37  and  C21_38 
ROOT
HETATM    1  N4  UNL     1      -0.379   2.071   0.145  1.00  0.00    -0.291 N 
HETATM    2  N5  UNL     1      -1.035   1.062  -0.361  1.00  0.00    -0.301 N 
ATOM      3  H5  UNL     1      -0.738   0.533  -1.181  1.00  0.00     0.187 HD
HETATM    4  C13 UNL     1      -2.160   0.812   0.345  1.00  0.00     0.047 A 
HETATM    5  C23 UNL     1      -2.164   1.756   1.352  1.00  0.00     0.017 A 
HETATM    6  C24 UNL     1      -3.072   1.963   2.363  1.00  0.00     0.022 A 
HETATM    7  C25 UNL     1      -2.845   2.971   3.243  1.00  0.00    -0.061 A 
HETATM    8  C26 UNL     1      -3.830   3.204   4.347  1.00  0.00     0.048 C 
HETATM    9  C27 UNL     1      -1.728   3.776   3.135  1.00  0.00     0.009 A 
HETATM   10  C28 UNL     1      -0.795   3.580   2.115  1.00  0.00     0.033 A 
HETATM   11  C29 UNL     1      -1.049   2.550   1.234  1.00  0.00     0.063 A 
ENDROOT
BRANCH   1  12
HETATM   12  C12 UNL     1       0.849   2.663  -0.319  1.00  0.00     0.154 C 
BRANCH  12  13
HETATM   13  C11 UNL     1       2.099   2.113   0.297  1.00  0.00     0.009 C 
HETATM   14  C10 UNL     1       3.329   2.783  -0.251  1.00  0.00     0.026 C 
HETATM   15  C9  UNL     1       4.587   1.920  -0.150  1.00  0.00     0.125 C 
HETATM   16  N3  UNL     1       4.396   0.649  -0.796  1.00  0.00    -0.360 N 
HETATM   17  C31 UNL     1       2.983   0.413  -1.204  1.00  0.00     0.125 C 
HETATM   18  C30 UNL     1       2.196   0.627   0.095  1.00  0.00     0.026 C 
BRANCH  16  19
HETATM   19  C8  UNL     1       5.341  -0.334  -1.058  1.00  0.00     0.167 C 
BRANCH  19  20
HETATM   20  C7  UNL     1       6.764  -0.358  -0.754  1.00  0.00     0.107 A 
HETATM   21  C4  UNL     1       7.664  -1.356  -1.038  1.00  0.00     0.042 A 
HETATM   22  N1  UNL     1       8.870  -0.944  -0.598  1.00  0.00    -0.348 N 
HETATM   23  C5  UNL     1       8.795   0.254  -0.050  1.00  0.00     0.077 A 
ATOM     24  H1  UNL     1       9.729  -1.488  -0.678  1.00  0.00     0.167 HD
HETATM   25  C6  UNL     1       9.903   1.046   0.544  1.00  0.00     0.089 C 
HETATM   26  N2  UNL     1       7.482   0.619  -0.147  1.00  0.00    -0.341 N 
ATOM     27  H2  UNL     1       7.097   1.501   0.189  1.00  0.00     0.167 HD
BRANCH  21  28
HETATM   28  C3  UNL     1       7.423  -2.663  -1.659  1.00  0.00     0.059 C 
BRANCH  28  29
HETATM   29  C2  UNL     1       6.901  -3.720  -0.722  1.00  0.00     0.002 C 
HETATM   30  C1  UNL     1       7.887  -3.972   0.416  1.00  0.00     0.005 C 
ENDBRANCH  28  29
ENDBRANCH  21  28
ENDBRANCH  19  20
BRANCH  19  31
HETATM   31  O1  UNL     1       4.864  -1.382  -1.666  1.00  0.00    -0.344 OA
ATOM     32  H1  UNL     1       3.935  -1.366  -1.864  1.00  0.00     0.219 HD
ENDBRANCH  19  31
ENDBRANCH  16  19
ENDBRANCH  12  13
ENDBRANCH   1  12
BRANCH   4  33
HETATM   33  C14 UNL     1      -3.083  -0.242   0.005  1.00  0.00     0.159 C 
BRANCH  33  34
HETATM   34  C15 UNL     1      -4.325   0.126  -0.690  1.00  0.00     0.195 C 
BRANCH  34  35
HETATM   35  O2  UNL     1      -4.428   1.403  -0.928  1.00  0.00    -0.339 OA
ATOM     36  H2  UNL     1      -5.231   1.641  -1.377  1.00  0.00     0.220 HD
ENDBRANCH  34  35
BRANCH  34  37
HETATM   37  N6  UNL     1      -5.270  -0.688  -1.061  1.00  0.00    -0.383 NA
BRANCH  37  38
HETATM   38  C16 UNL     1      -6.120  -1.426  -1.397  1.00  0.00     0.162 C 
BRANCH  38  39
HETATM   39  C17 UNL     1      -5.865  -2.822  -1.878  1.00  0.00     0.088 C 
BRANCH  39  40
HETATM   40  C18 UNL     1      -5.409  -3.700  -0.796  1.00  0.00     0.107 C 
BRANCH  40  41
HETATM   41  C19 UNL     1      -6.231  -3.885   0.387  1.00  0.00     0.231 C 
HETATM   42  N7  UNL     1      -6.329  -5.165   1.049  1.00  0.00    -0.062 NA
HETATM   43  O3  UNL     1      -6.887  -2.951   0.889  1.00  0.00    -0.277 OA
ENDBRANCH  40  41
ENDBRANCH  39  40
ENDBRANCH  38  39
BRANCH  38  44
HETATM   44  C20 UNL     1      -7.551  -0.983  -1.335  1.00  0.00     0.320 C 
HETATM   45  O4  UNL     1      -8.493  -1.711  -1.686  1.00  0.00    -0.257 OA
BRANCH  44  46
HETATM   46  O5  UNL     1      -7.844   0.259  -0.878  1.00  0.00    -0.316 OA
BRANCH  46  47
HETATM   47  C21 UNL     1      -9.106   0.834  -0.745  1.00  0.00     0.175 C 
HETATM   48  C22 UNL     1      -9.937   0.946  -1.963  1.00  0.00     0.034 C 
ENDBRANCH  46  47
ENDBRANCH  44  46
ENDBRANCH  38  44
ENDBRANCH  37  38
ENDBRANCH  34  37
ENDBRANCH  33  34
ENDBRANCH   4  33
TORSDOF 18
