REMARK  9 active torsions:
REMARK  status: ('A' for Active; 'I' for Inactive)
REMARK    1  A    between atoms: C1_2  and  C2_4 
REMARK    2  A    between atoms: C3_6  and  C4_7 
REMARK    3  A    between atoms: C4_7  and  O4_8 
REMARK    4  A    between atoms: O4_8  and  C5_9 
REMARK    5  A    between atoms: C7_11  and  N1_12 
REMARK    6  A    between atoms: C13_18  and  O5_19 
REMARK    7  A    between atoms: C14_22  and  O7_23 
REMARK    8  A    between atoms: C15_25  and  O8_26 
REMARK    9  A    between atoms: C16_28  and  O9_29 
ROOT
HETATM    1  C2  UNL     1      -4.891  -0.014   0.708  1.00  0.00     0.254 C 
HETATM    2  O3  UNL     1      -3.758  -0.513   1.193  1.00  0.00    -0.362 OA
HETATM    3  C3  UNL     1      -2.530  -0.229   0.690  1.00  0.00     0.178 C 
HETATM    4  C14 UNL     1      -2.504   0.150  -0.767  1.00  0.00     0.180 C 
HETATM    5  C15 UNL     1      -3.843  -0.128  -1.463  1.00  0.00     0.181 C 
HETATM    6  C16 UNL     1      -4.919   0.561  -0.657  1.00  0.00     0.189 C 
ENDROOT
BRANCH   3   7
HETATM    7  C4  UNL     1      -1.835   0.796   1.560  1.00  0.00     0.205 C 
BRANCH   7   8
HETATM    8  O4  UNL     1      -0.578   1.123   1.156  1.00  0.00    -0.358 OA
BRANCH   8   9
HETATM    9  C5  UNL     1       0.377   0.156   1.139  1.00  0.00     0.265 C 
HETATM   10  C6  UNL     1       1.085   0.029  -0.198  1.00  0.00     0.090 C 
HETATM   11  C7  UNL     1       2.513  -0.157   0.203  1.00  0.00     0.138 C 
HETATM   12  C13 UNL     1       2.442  -0.479   1.652  1.00  0.00     0.282 C 
HETATM   13  O6  UNL     1       1.403   0.387   2.072  1.00  0.00    -0.330 OA
BRANCH  11  14
HETATM   14  N1  UNL     1       3.265  -1.044  -0.596  1.00  0.00    -0.403 N 
HETATM   15  C8  UNL     1       3.395  -0.621  -1.950  1.00  0.00     0.117 C 
HETATM   16  C9  UNL     1       4.385   0.519  -2.053  1.00  0.00     0.019 C 
HETATM   17  C10 UNL     1       5.585   0.170  -1.231  1.00  0.00     0.003 C 
HETATM   18  C11 UNL     1       5.613  -1.320  -0.879  1.00  0.00     0.019 C 
HETATM   19  C12 UNL     1       4.393  -1.655  -0.009  1.00  0.00     0.117 C 
ENDBRANCH  11  14
BRANCH  12  20
HETATM   20  O5  UNL     1       2.096  -1.791   1.927  1.00  0.00    -0.369 OA
ATOM     21  H5  UNL     1       2.051  -1.997   2.853  1.00  0.00     0.212 HD
ENDBRANCH  12  20
ENDBRANCH   8   9
ENDBRANCH   7   8
ENDBRANCH   3   7
BRANCH   4  22
HETATM   22  O7  UNL     1      -2.152   1.498  -0.941  1.00  0.00    -0.390 OA
ATOM     23  H7  UNL     1      -2.136   1.737  -1.860  1.00  0.00     0.210 HD
ENDBRANCH   4  22
BRANCH   1  24
HETATM   24  C1  UNL     1      -5.582   0.963   1.630  1.00  0.00     0.205 C 
HETATM   25  O1  UNL     1      -5.102   1.249   2.762  1.00  0.00    -0.646 OA
HETATM   26  O2  UNL     1      -6.762   1.579   1.272  1.00  0.00    -0.646 OA
ENDBRANCH   1  24
BRANCH   5  27
HETATM   27  O8  UNL     1      -3.785   0.294  -2.765  1.00  0.00    -0.390 OA
ATOM     28  H8  UNL     1      -4.614   0.122  -3.196  1.00  0.00     0.210 HD
ENDBRANCH   5  27
BRANCH   6  29
HETATM   29  O9  UNL     1      -4.779   1.949  -0.687  1.00  0.00    -0.390 OA
ATOM     30  H9  UNL     1      -4.797   2.318  -1.562  1.00  0.00     0.210 HD
ENDBRANCH   6  29
TORSDOF 9
