REMARK  10 active torsions:
REMARK  status: ('A' for Active; 'I' for Inactive)
REMARK    1  A    between atoms: N1_2  and  N2_3 
REMARK       I    between atoms: N1_2  and  C2_6 
REMARK    2  A    between atoms: C2_6  and  C3_8 
REMARK    3  A    between atoms: C4_10  and  C5_11 
REMARK    4  A    between atoms: C5_11  and  N3_12 
REMARK    5  A    between atoms: N3_12  and  N4_14 
REMARK    6  A    between atoms: C6_19  and  O3_20 
REMARK    7  A    between atoms: C7_22  and  O4_23 
REMARK    8  A    between atoms: C8_25  and  S1_26 
REMARK    9  A    between atoms: S1_26  and  C9_27 
REMARK   10  A    between atoms: C11_32  and  N7_33 
ROOT
HETATM    1  C3  UNL     1      -1.087   0.670   0.458  1.00  0.00     0.232 C 
HETATM    2  O2  UNL     1      -2.231  -0.061   0.582  1.00  0.00    -0.365 OA
HETATM    3  C4  UNL     1      -2.580  -0.881  -0.445  1.00  0.00     0.173 C 
HETATM    4  C6  UNL     1      -1.573  -1.903  -0.863  1.00  0.00     0.178 C 
HETATM    5  C7  UNL     1      -0.181  -1.377  -0.495  1.00  0.00     0.166 C 
HETATM    6  C8  UNL     1      -0.209   0.097  -0.664  1.00  0.00     0.119 C 
ENDROOT
BRANCH   6   7
HETATM    7  S1  UNL     1       1.348   0.929  -0.797  1.00  0.00    -0.125 SA
BRANCH   7   8
HETATM    8  C9  UNL     1       2.464   0.759   0.581  1.00  0.00     0.209 C 
HETATM    9  C10 UNL     1       3.023  -0.618   0.786  1.00  0.00     0.277 C 
HETATM   10  N6  UNL     1       3.944  -1.044  -0.241  1.00  0.00    -0.041 N 
HETATM   11  C11 UNL     1       5.016  -0.092  -0.433  1.00  0.00     0.403 C 
ATOM     12  H62 UNL     1       4.307  -1.978  -0.049  1.00  0.00     0.279 HD
ATOM     13  H61 UNL     1       3.459  -1.238  -1.117  1.00  0.00     0.279 HD
HETATM   14  C12 UNL     1       4.405   1.256  -0.592  1.00  0.00     0.231 C 
HETATM   15  O5  UNL     1       3.541   1.629   0.407  1.00  0.00    -0.370 OA
BRANCH  11  16
HETATM   16  N7  UNL     1       5.988  -0.158   0.638  1.00  0.00    -0.048 N 
ATOM     17  H73 UNL     1       5.546  -0.041   1.550  1.00  0.00     0.276 HD
ATOM     18  H72 UNL     1       6.348  -1.105   0.756  1.00  0.00     0.276 HD
ATOM     19  H71 UNL     1       6.744   0.513   0.503  1.00  0.00     0.276 HD
ENDBRANCH  11  16
ENDBRANCH   7   8
ENDBRANCH   6   7
BRANCH   1  20
HETATM   20  C2  UNL     1      -1.237   2.125   0.359  1.00  0.00     0.267 C 
HETATM   21  N1  UNL     1      -2.417   2.856   0.419  1.00  0.00    -0.270 N 
HETATM   22  C1  UNL     1      -3.717   2.274   0.605  1.00  0.00     0.180 C 
HETATM   23  O1  UNL     1      -0.140   2.770   0.199  1.00  0.00    -0.269 OA
BRANCH  21  24
HETATM   24  N2  UNL     1      -2.360   4.263   0.288  1.00  0.00    -0.341 N 
ATOM     25  H22 UNL     1      -3.226   4.800   0.332  1.00  0.00     0.177 HD
ATOM     26  H21 UNL     1      -1.437   4.676   0.156  1.00  0.00     0.177 HD
ENDBRANCH  21  24
ENDBRANCH   1  20
BRANCH   5  27
HETATM   27  O4  UNL     1       0.686  -2.037  -1.358  1.00  0.00    -0.392 OA
ATOM     28  H4  UNL     1       1.549  -1.711  -1.130  1.00  0.00     0.210 HD
ENDBRANCH   5  27
BRANCH   4  29
HETATM   29  O3  UNL     1      -1.591  -1.965  -2.272  1.00  0.00    -0.390 OA
ATOM     30  H3  UNL     1      -0.951  -2.615  -2.538  1.00  0.00     0.210 HD
ENDBRANCH   4  29
BRANCH   3  31
HETATM   31  C5  UNL     1      -3.816  -1.663   0.019  1.00  0.00     0.175 C 
BRANCH  31  32
HETATM   32  N3  UNL     1      -3.482  -2.439   1.215  1.00  0.00    -0.320 N 
ATOM     33  H3  UNL     1      -2.586  -2.298   1.681  1.00  0.00     0.181 HD
BRANCH  32  34
HETATM   34  N4  UNL     1      -4.280  -3.259   1.656  1.00  0.00    -0.254 N 
HETATM   35  N5  UNL     1      -4.674  -4.369   2.046  1.00  0.00    -0.331 N 
ATOM     36  H52 UNL     1      -3.812  -4.898   1.915  1.00  0.00     0.178 HD
ATOM     37  H51 UNL     1      -5.338  -5.051   2.413  1.00  0.00     0.178 HD
ATOM     38  H4  UNL     1      -5.119  -2.690   1.770  1.00  0.00     0.207 HD
ENDBRANCH  32  34
ENDBRANCH  31  32
ENDBRANCH   3  31
TORSDOF 10
