REMARK  4 active torsions:
REMARK  status: ('A' for Active; 'I' for Inactive)
REMARK    1  A    between atoms: C4_5  and  N1_6 
REMARK    2  A    between atoms: N1_6  and  N2_8 
REMARK    3  A    between atoms: C5_10  and  C6_11 
REMARK    4  A    between atoms: N5_21  and  O3_22 
ROOT
HETATM    1  O1  UNL     1      -5.305   0.520  -0.106  1.00  0.00    -0.266 OA
HETATM    2  C1  UNL     1      -4.124   0.162   0.145  1.00  0.00     0.275 C 
HETATM    3  C2  UNL     1      -3.814  -0.211   1.439  1.00  0.00     0.080 C 
HETATM    4  C3  UNL     1      -2.553  -0.509   1.951  1.00  0.00     0.055 C 
HETATM    5  C4  UNL     1      -1.337  -0.571   1.298  1.00  0.00     0.123 C 
HETATM    6  N4  UNL     1      -1.196  -0.604  -0.050  1.00  0.00    -0.291 N 
ATOM      7  H4  UNL     1      -0.304  -0.974  -0.379  1.00  0.00     0.172 HD
HETATM    8  C10 UNL     1      -2.045  -0.227  -1.024  1.00  0.00     0.355 C 
HETATM    9  O2  UNL     1      -1.626  -0.265  -2.210  1.00  0.00    -0.244 OA
HETATM   10  N5  UNL     1      -3.317   0.201  -0.935  1.00  0.00    -0.134 N 
ENDROOT
BRANCH   5  11
HETATM   11  N1  UNL     1      -0.262  -0.601   2.021  1.00  0.00    -0.286 N 
ATOM     12  H1  UNL     1      -0.308  -0.579   3.040  1.00  0.00     0.188 HD
BRANCH  11  13
HETATM   13  N2  UNL     1       0.959  -0.664   1.354  1.00  0.00    -0.308 N 
HETATM   14  C5  UNL     1       1.604   0.388   0.983  1.00  0.00     0.136 C 
ATOM     15  H2  UNL     1       1.359  -1.580   1.151  1.00  0.00     0.186 HD
BRANCH  14  16
HETATM   16  C6  UNL     1       2.876   0.223   0.290  1.00  0.00     0.049 A 
HETATM   17  C7  UNL     1       3.719   1.216  -0.189  1.00  0.00     0.032 A 
HETATM   18  C8  UNL     1       4.822   0.641  -0.782  1.00  0.00     0.019 A 
HETATM   19  C9  UNL     1       4.649  -0.711  -0.664  1.00  0.00     0.088 A 
HETATM   20  N3  UNL     1       3.488  -0.937  -0.025  1.00  0.00    -0.365 N 
ATOM     21  H3  UNL     1       3.119  -1.863   0.193  1.00  0.00     0.165 HD
ENDBRANCH  14  16
ENDBRANCH  11  13
ENDBRANCH   5  11
BRANCH  10  22
HETATM   22  O3  UNL     1      -3.863   0.749  -2.096  1.00  0.00    -0.276 OA
ATOM     23  H3  UNL     1      -3.295   0.776  -2.857  1.00  0.00     0.245 HD
ENDBRANCH  10  22
TORSDOF 4
