REMARK  8 active torsions:
REMARK  status: ('A' for Active; 'I' for Inactive)
REMARK    1  A    between atoms: C3_3  and  C4_4 
REMARK    2  A    between atoms: C3_3  and  C14_14 
REMARK    3  A    between atoms: C4_4  and  C5_5 
REMARK    4  A    between atoms: C6_6  and  C8_8 
REMARK    5  A    between atoms: C8_8  and  C9_9 
REMARK    6  A    between atoms: C9_9  and  C10_10 
REMARK    7  A    between atoms: C16_16  and  C17_17 
REMARK    8  A    between atoms: C21_23  and  O1_24 
ROOT
HETATM    1  C14 UNL     1      -1.058  -2.428   1.922  1.00  0.00    -0.054 C 
HETATM    2  C15 UNL     1      -1.838  -3.603   2.672  1.00  0.00     0.049 C 
HETATM    3  C16 UNL     1      -0.378  -2.896   0.968  1.00  0.00     0.037 C 
ENDROOT
BRANCH   1   4
HETATM    4  C3  UNL     1      -1.369  -1.166   2.519  1.00  0.00    -0.053 C 
HETATM    5  C2  UNL     1      -2.129  -1.162   3.650  1.00  0.00    -0.023 C 
HETATM    6  C1  UNL     1      -2.487   0.143   4.317  1.00  0.00     0.036 C 
BRANCH   4   7
HETATM    7  C4  UNL     1      -0.978   0.192   2.073  1.00  0.00     0.066 C 
BRANCH   7   8
HETATM    8  C5  UNL     1      -1.653   0.593   0.838  1.00  0.00    -0.020 C 
HETATM    9  C6  UNL     1      -1.310   1.456  -0.077  1.00  0.00    -0.087 C 
HETATM   10  C7  UNL     1      -2.232   1.663  -1.268  1.00  0.00     0.043 C 
BRANCH   9  11
HETATM   11  C8  UNL     1      -0.063   2.253  -0.087  1.00  0.00     0.037 C 
BRANCH  11  12
HETATM   12  C9  UNL     1      -0.254   3.731  -0.017  1.00  0.00     0.031 C 
BRANCH  12  13
HETATM   13  C10 UNL     1      -0.818   4.268   1.215  1.00  0.00    -0.024 C 
HETATM   14  C11 UNL     1      -1.961   4.870   1.399  1.00  0.00    -0.091 C 
HETATM   15  C12 UNL     1      -2.310   5.347   2.795  1.00  0.00     0.042 C 
HETATM   16  C13 UNL     1      -2.955   5.099   0.361  1.00  0.00     0.042 C 
ENDBRANCH  12  13
ENDBRANCH  11  12
ENDBRANCH   9  11
ENDBRANCH   7   8
ENDBRANCH   4   7
ENDBRANCH   1   4
BRANCH   3  17
HETATM   17  C17 UNL     1       0.506  -2.596  -0.116  1.00  0.00     0.041 A 
HETATM   18  N1  UNL     1       0.444  -1.756  -1.121  1.00  0.00    -0.341 N 
HETATM   19  C18 UNL     1       1.555  -1.854  -1.916  1.00  0.00     0.118 A 
ATOM     20  H1  UNL     1      -0.330  -1.114  -1.289  1.00  0.00     0.167 HD
HETATM   21  C19 UNL     1       2.349  -2.819  -1.351  1.00  0.00     0.019 A 
HETATM   22  N2  UNL     1       1.941  -1.227  -3.052  1.00  0.00    -0.344 N 
HETATM   23  C20 UNL     1       3.564  -3.156  -1.959  1.00  0.00     0.054 A 
HETATM   24  C25 UNL     1       1.739  -3.309  -0.235  1.00  0.00    -0.021 A 
HETATM   25  C21 UNL     1       3.953  -2.510  -3.117  1.00  0.00     0.084 A 
HETATM   26  C23 UNL     1       3.123  -1.545  -3.649  1.00  0.00     0.128 A 
HETATM   27  C26 UNL     1       2.211  -4.354   0.675  1.00  0.00     0.052 C 
HETATM   28  C24 UNL     1       1.074  -0.228  -3.622  1.00  0.00     0.157 C 
BRANCH  25  29
HETATM   29  O1  UNL     1       5.160  -2.868  -3.695  1.00  0.00    -0.355 OA
HETATM   30  C22 UNL     1       5.644  -2.282  -4.880  1.00  0.00     0.210 C 
ENDBRANCH  25  29
ENDBRANCH   3  17
TORSDOF 8
