REMARK  4 active torsions:
REMARK  status: ('A' for Active; 'I' for Inactive)
REMARK    1  A    between atoms: C2_2  and  N1_3 
REMARK       I    between atoms: N2_5  and  C3_7 
REMARK       I    between atoms: C3_7  and  N4_18 
REMARK    2  A    between atoms: N3_8  and  C4_10 
REMARK    3  A    between atoms: N6_22  and  C13_24 
REMARK    4  A    between atoms: C13_24  and  C14_25 
ROOT
HETATM    1  N1  UNL     1      -1.210   1.423   0.716  1.00  0.00    -0.275 N 
ATOM      2  H1  UNL     1      -1.871   1.988   1.250  1.00  0.00     0.189 HD
HETATM    3  N2  UNL     1      -0.199   1.185   1.311  1.00  0.00    -0.130 N 
ATOM      4  H2  UNL     1      -0.205   1.601   2.242  1.00  0.00     0.205 HD
HETATM    5  C3  UNL     1       0.985   0.489   1.067  1.00  0.00     0.706 C 
HETATM    6  N3  UNL     1       1.851   0.838   0.199  1.00  0.00    -0.189 N 
ATOM      7  H3  UNL     1       1.637   1.680  -0.336  1.00  0.00     0.184 HD
HETATM    8  N4  UNL     1       1.231  -0.684   1.869  1.00  0.00    -0.124 N 
ATOM      9  H4  UNL     1       1.624  -1.523   1.443  1.00  0.00     0.197 HD
HETATM   10  C12 UNL     1       0.923  -0.664   3.252  1.00  0.00     0.196 C 
HETATM   11  N5  UNL     1       0.668  -0.666   4.385  1.00  0.00    -0.171 NA
ENDROOT
BRANCH   6  12
HETATM   12  C4  UNL     1       3.066   0.202  -0.110  1.00  0.00     0.055 A 
HETATM   13  C5  UNL     1       3.187  -1.070  -0.619  1.00  0.00     0.031 A 
HETATM   14  C6  UNL     1       4.410  -1.642  -0.913  1.00  0.00     0.009 A 
HETATM   15  C7  UNL     1       5.571  -0.936  -0.700  1.00  0.00    -0.061 A 
HETATM   16  C8  UNL     1       6.898  -1.535  -1.012  1.00  0.00     0.048 C 
HETATM   17  C9  UNL     1       5.471   0.343  -0.190  1.00  0.00     0.015 A 
HETATM   18  C10 UNL     1       4.250   0.915   0.106  1.00  0.00    -0.034 A 
HETATM   19  C11 UNL     1       4.146   2.297   0.657  1.00  0.00     0.050 C 
ENDBRANCH   6  12
BRANCH   1  20
HETATM   20  C2  UNL     1      -1.666   1.090  -0.546  1.00  0.00     0.088 C 
HETATM   21  C1  UNL     1      -0.808   1.226  -1.738  1.00  0.00     0.090 C 
HETATM   22  N6  UNL     1      -2.875   0.659  -0.714  1.00  0.00    -0.378 N 
ATOM     23  H6  UNL     1      -3.182   0.429  -1.659  1.00  0.00     0.160 HD
BRANCH  22  24
HETATM   24  C13 UNL     1      -3.805   0.489   0.367  1.00  0.00     0.129 C 
BRANCH  24  25
HETATM   25  C14 UNL     1      -5.029  -0.299  -0.052  1.00  0.00    -0.035 C 
HETATM   26  C15 UNL     1      -4.686  -1.671  -0.541  1.00  0.00     0.016 C 
HETATM   27  C16 UNL     1      -5.705   0.449  -1.197  1.00  0.00     0.016 C 
HETATM   28  C17 UNL     1      -6.037  -0.377   1.070  1.00  0.00     0.016 C 
ENDBRANCH  24  25
ENDBRANCH  22  24
ENDBRANCH   1  20
TORSDOF 4
