REMARK  17 active torsions:
REMARK  status: ('A' for Active; 'I' for Inactive)
REMARK    1  A    between atoms: C2_2  and  O1_3 
REMARK    2  A    between atoms: O1_3  and  C3_4 
REMARK    3  A    between atoms: C3_4  and  O2_5 
REMARK    4  A    between atoms: C3_4  and  C4_7 
REMARK    5  A    between atoms: C4_7  and  C5_8 
REMARK    6  A    between atoms: C5_8  and  C6_9 
REMARK    7  A    between atoms: C6_9  and  N1_10 
REMARK       I    between atoms: N1_10  and  C7_12 
REMARK    8  A    between atoms: C7_12  and  C8_14 
REMARK    9  A    between atoms: C8_14  and  N2_15 
REMARK   10  A    between atoms: C8_14  and  C15_24 
REMARK       I    between atoms: N2_15  and  C9_17 
REMARK   11  A    between atoms: C9_17  and  C10_19 
REMARK   12  A    between atoms: C15_24  and  C17_26 
REMARK   13  A    between atoms: C17_26  and  C18_27 
REMARK       I    between atoms: N3_29  and  C19_31 
REMARK   14  A    between atoms: C19_31  and  C20_33 
REMARK       I    between atoms: N4_37  and  C24_38 
REMARK   15  A    between atoms: C24_38  and  C25_40 
REMARK   16  A    between atoms: C25_40  and  C26_42 
REMARK   17  A    between atoms: C26_42  and  C27_43 
ROOT
HETATM    1  C6  UNL     1      -1.750   1.401  -0.277  1.00  0.00     0.086 C 
HETATM    2  N3  UNL     1      -0.585   2.049  -0.459  1.00  0.00    -0.315 N 
ATOM      3  H3  UNL     1      -0.652   3.025  -0.749  1.00  0.00     0.170 HD
HETATM    4  C19 UNL     1       0.782   1.511  -0.287  1.00  0.00     0.246 C 
HETATM    5  O6  UNL     1       0.944   0.387   0.078  1.00  0.00    -0.271 OA
ENDROOT
BRANCH   1   6
HETATM    6  C5  UNL     1      -2.717   2.951  -0.378  1.00  0.00     0.081 C 
BRANCH   6   7
HETATM    7  C4  UNL     1      -3.518   2.847   0.846  1.00  0.00     0.068 C 
BRANCH   7   8
HETATM    8  C3  UNL     1      -4.379   4.051   1.106  1.00  0.00     0.257 C 
BRANCH   8   9
HETATM    9  O1  UNL     1      -5.308   4.352   0.123  1.00  0.00    -0.362 OA
BRANCH   9  10
HETATM   10  C2  UNL     1      -5.223   5.711  -0.213  1.00  0.00     0.166 C 
HETATM   11  C1  UNL     1      -6.225   6.138  -1.256  1.00  0.00     0.033 C 
ENDBRANCH   9  10
ENDBRANCH   8   9
BRANCH   8  12
HETATM   12  O2  UNL     1      -5.123   3.800   2.280  1.00  0.00    -0.371 OA
ATOM     13  H2  UNL     1      -4.486   3.594   2.954  1.00  0.00     0.212 HD
ENDBRANCH   8  12
ENDBRANCH   7   8
ENDBRANCH   6   7
ENDBRANCH   1   6
BRANCH   1  14
HETATM   14  N1  UNL     1      -2.794   0.821  -0.113  1.00  0.00    -0.315 N 
HETATM   15  C7  UNL     1      -3.204  -0.496   0.077  1.00  0.00     0.246 C 
HETATM   16  O3  UNL     1      -2.521  -1.374  -0.558  1.00  0.00    -0.271 OA
ATOM     17  H1  UNL     1      -3.585   1.464  -0.114  1.00  0.00     0.170 HD
BRANCH  15  18
HETATM   18  C8  UNL     1      -4.309  -1.035   0.892  1.00  0.00     0.181 C 
BRANCH  18  19
HETATM   19  N2  UNL     1      -4.972  -2.097   0.169  1.00  0.00    -0.347 N 
HETATM   20  C9  UNL     1      -6.201  -1.864  -0.510  1.00  0.00     0.222 C 
HETATM   21  O4  UNL     1      -6.725  -0.693  -0.489  1.00  0.00    -0.273 OA
ATOM     22  H2  UNL     1      -4.553  -3.027   0.145  1.00  0.00     0.163 HD
BRANCH  20  23
HETATM   23  C10 UNL     1      -6.927  -2.884  -1.246  1.00  0.00     0.078 C 
HETATM   24  C11 UNL     1      -6.185  -3.578  -2.332  1.00  0.00     0.014 C 
HETATM   25  C12 UNL     1      -7.049  -4.820  -2.555  1.00  0.00     0.001 C 
HETATM   26  C13 UNL     1      -7.472  -5.224  -1.152  1.00  0.00     0.001 C 
HETATM   27  C14 UNL     1      -7.259  -4.020  -0.288  1.00  0.00     0.014 C 
ENDBRANCH  20  23
ENDBRANCH  18  19
BRANCH  18  28
HETATM   28  C15 UNL     1      -3.798  -1.445   2.219  1.00  0.00     0.020 C 
HETATM   29  C16 UNL     1      -2.693  -2.455   2.175  1.00  0.00     0.013 C 
BRANCH  28  30
HETATM   30  C17 UNL     1      -3.520  -0.379   3.213  1.00  0.00     0.076 C 
BRANCH  30  31
HETATM   31  C18 UNL     1      -4.720   0.404   3.592  1.00  0.00     0.231 C 
HETATM   32  O5  UNL     1      -4.638   1.258   4.440  1.00  0.00    -0.307 OA
ENDBRANCH  30  31
ENDBRANCH  28  30
ENDBRANCH  18  28
ENDBRANCH  15  18
ENDBRANCH   1  14
BRANCH   4  33
HETATM   33  C20 UNL     1       1.793   2.528  -0.630  1.00  0.00     0.180 C 
HETATM   34  C21 UNL     1       1.426   3.005  -2.082  1.00  0.00     0.037 C 
HETATM   35  C22 UNL     1       2.784   3.104  -2.783  1.00  0.00     0.022 C 
HETATM   36  C23 UNL     1       3.664   3.369  -1.570  1.00  0.00     0.127 C 
HETATM   37  N4  UNL     1       3.159   2.253  -0.703  1.00  0.00    -0.332 N 
HETATM   38  C24 UNL     1       4.099   1.358  -0.078  1.00  0.00     0.294 C 
HETATM   39  O7  UNL     1       3.665   0.698   0.909  1.00  0.00    -0.264 OA
BRANCH  38  40
HETATM   40  C25 UNL     1       5.464   1.234  -0.541  1.00  0.00     0.236 C 
HETATM   41  O8  UNL     1       5.717   1.571  -1.760  1.00  0.00    -0.283 OA
BRANCH  40  42
HETATM   42  C26 UNL     1       6.553   0.767   0.272  1.00  0.00     0.043 C 
BRANCH  42  43
HETATM   43  C27 UNL     1       7.015  -0.626   0.306  1.00  0.00    -0.018 C 
HETATM   44  C28 UNL     1       6.103  -1.684   0.800  1.00  0.00     0.018 C 
HETATM   45  C29 UNL     1       6.877  -2.988   0.854  1.00  0.00    -0.013 C 
HETATM   46  C30 UNL     1       7.351  -3.426  -0.527  1.00  0.00     0.009 C 
HETATM   47  C34 UNL     1       8.088  -2.940   1.724  1.00  0.00     0.009 C 
HETATM   48  C31 UNL     1       8.186  -2.322  -1.129  1.00  0.00    -0.013 C 
HETATM   49  C32 UNL     1       9.451  -2.240  -0.281  1.00  0.00     0.009 C 
HETATM   50  C36 UNL     1       7.430  -1.047  -1.117  1.00  0.00     0.018 C 
HETATM   51  C33 UNL     1       9.030  -1.901   1.136  1.00  0.00    -0.013 C 
HETATM   52  C35 UNL     1       8.317  -0.602   1.135  1.00  0.00     0.018 C 
ENDBRANCH  42  43
ENDBRANCH  40  42
ENDBRANCH  38  40
ENDBRANCH   4  33
TORSDOF 17
