REMARK  6 active torsions:
REMARK  status: ('A' for Active; 'I' for Inactive)
REMARK    1  A    between atoms: C2_2  and  C3_3 
REMARK    2  A    between atoms: C3_3  and  S1_4 
REMARK    3  A    between atoms: S1_4  and  C4_5 
REMARK    4  A    between atoms: C4_5  and  C5_6 
REMARK    5  A    between atoms: C8_9  and  C9_10 
REMARK    6  A    between atoms: C13_15  and  O2_16 
ROOT
HETATM    1  C5  UNL     1       0.981  -1.010   0.327  1.00  0.00    -0.023 A 
HETATM    2  C6  UNL     1       1.853  -1.462  -0.794  1.00  0.00     0.017 C 
HETATM    3  C7  UNL     1      -0.197  -1.814   0.595  1.00  0.00     0.036 A 
HETATM    4  C8  UNL     1      -1.181  -1.781   1.642  1.00  0.00    -0.018 C 
HETATM    5  C10 UNL     1      -2.378  -1.233   1.558  1.00  0.00    -0.011 C 
HETATM    6  C11 UNL     1      -3.097  -0.512   0.455  1.00  0.00     0.015 C 
HETATM    7  C12 UNL     1      -3.226   0.889   0.784  1.00  0.00     0.040 C 
HETATM    8  C13 UNL     1      -3.021   1.941  -0.227  1.00  0.00     0.119 C 
HETATM    9  C14 UNL     1      -1.894   1.803  -1.169  1.00  0.00     0.037 C 
HETATM   10  C15 UNL     1      -1.752   0.571  -1.936  1.00  0.00    -0.007 C 
HETATM   11  C16 UNL     1      -2.994  -0.275  -2.062  1.00  0.00     0.011 C 
HETATM   12  C17 UNL     1      -2.558  -0.978  -0.832  1.00  0.00    -0.002 C 
HETATM   13  C18 UNL     1      -1.151  -0.590  -1.199  1.00  0.00    -0.000 C 
HETATM   14  C19 UNL     1      -0.292  -0.386  -0.055  1.00  0.00     0.009 A 
ENDROOT
BRANCH   1  15
HETATM   15  C4  UNL     1       1.705  -0.450   1.522  1.00  0.00     0.084 C 
BRANCH  15  16
HETATM   16  S1  UNL     1       2.681   0.950   1.341  1.00  0.00    -0.168 SA
BRANCH  16  17
HETATM   17  C3  UNL     1       4.189   1.134   0.560  1.00  0.00     0.073 C 
BRANCH  17  18
HETATM   18  C2  UNL     1       4.364   1.082  -0.914  1.00  0.00     0.006 C 
HETATM   19  C1  UNL     1       5.856   1.347  -1.205  1.00  0.00     0.006 C 
ENDBRANCH  17  18
ENDBRANCH  16  17
ENDBRANCH  15  16
ENDBRANCH   1  15
BRANCH   4  20
HETATM   20  C9  UNL     1      -0.851  -2.420   2.900  1.00  0.00     0.265 C 
HETATM   21  O1  UNL     1       0.236  -2.992   3.141  1.00  0.00    -0.302 OA
ENDBRANCH   4  20
BRANCH   8  22
HETATM   22  O2  UNL     1      -4.230   2.310  -0.878  1.00  0.00    -0.396 OA
ATOM     23  H2  UNL     1      -4.098   2.988  -1.530  1.00  0.00     0.210 HD
ENDBRANCH   8  22
TORSDOF 6
