REMARK  7 active torsions:
REMARK  status: ('A' for Active; 'I' for Inactive)
REMARK    1  A    between atoms: N1_1  and  C1_5 
REMARK    2  A    between atoms: C1_5  and  C2_6 
REMARK    3  A    between atoms: N2_9  and  C5_10 
REMARK    4  A    between atoms: C7_16  and  N5_17 
REMARK    5  A    between atoms: N5_17  and  N6_19 
REMARK    6  A    between atoms: C8_24  and  N8_25 
REMARK    7  A    between atoms: N8_25  and  C9_27 
ROOT
HETATM    1  C5  UNL     1       0.870  -0.241   0.292  1.00  0.00     0.684 A 
HETATM    2  N3  UNL     1       0.419   0.653  -0.608  1.00  0.00    -0.175 N 
ATOM      3  H3  UNL     1       1.078   1.329  -0.995  1.00  0.00     0.186 HD
HETATM    4  C6  UNL     1      -0.865   0.696  -1.022  1.00  0.00     0.156 A 
HETATM    5  N4  UNL     1      -1.276   1.613  -1.925  1.00  0.00    -0.173 N 
ATOM      6  H4  UNL     1      -0.605   2.282  -2.302  1.00  0.00     0.186 HD
HETATM    7  C7  UNL     1      -2.552   1.656  -2.332  1.00  0.00     0.699 A 
HETATM    8  N7  UNL     1      -3.397   0.766  -1.816  1.00  0.00    -0.174 N 
ATOM      9  H7  UNL     1      -4.369   0.795  -2.123  1.00  0.00     0.186 HD
HETATM   10  C8  UNL     1      -3.039  -0.190  -0.894  1.00  0.00     0.137 A 
HETATM   11  C12 UNL     1      -1.732  -0.243  -0.469  1.00  0.00     0.122 A 
HETATM   12  C13 UNL     1      -1.270  -1.156   0.451  1.00  0.00     0.277 A 
HETATM   13  O1  UNL     1      -2.002  -2.019   0.980  1.00  0.00    -0.266 OA
HETATM   14  N9  UNL     1       0.037  -1.151   0.830  1.00  0.00    -0.155 N 
ATOM     15  H9  UNL     1       0.380  -1.827   1.512  1.00  0.00     0.187 HD
ENDROOT
BRANCH   1  16
HETATM   16  N2  UNL     1       2.242  -0.237   0.691  1.00  0.00    -0.217 N 
HETATM   17  C4  UNL     1       2.750  -1.171   1.646  1.00  0.00     0.141 C 
HETATM   18  C3  UNL     1       4.260  -1.086   1.639  1.00  0.00     0.027 C 
HETATM   19  C2  UNL     1       4.664   0.313   1.973  1.00  0.00     0.014 C 
HETATM   20  C15 UNL     1       3.919   1.374   1.232  1.00  0.00     0.027 C 
HETATM   21  C14 UNL     1       3.146   0.732   0.118  1.00  0.00     0.141 C 
BRANCH  19  22
HETATM   22  C1  UNL     1       6.171   0.471   1.744  1.00  0.00     0.234 C 
BRANCH  22  23
HETATM   23  N1  UNL     1       6.483   1.854   2.090  1.00  0.00    -0.079 N 
ATOM     24  H13 UNL     1       5.920   2.538   1.585  1.00  0.00     0.274 HD
ATOM     25  H12 UNL     1       6.183   2.117   3.029  1.00  0.00     0.274 HD
ATOM     26  H11 UNL     1       7.486   1.959   1.938  1.00  0.00     0.274 HD
ENDBRANCH  22  23
ENDBRANCH  19  22
ENDBRANCH   1  16
BRANCH   7  27
HETATM   27  N5  UNL     1      -2.944   2.548  -3.209  1.00  0.00    -0.138 N 
ATOM     28  H5  UNL     1      -2.256   3.207  -3.574  1.00  0.00     0.205 HD
BRANCH  27  29
HETATM   29  N6  UNL     1      -4.249   2.637  -3.663  1.00  0.00    -0.331 N 
ATOM     30  H62 UNL     1      -4.924   1.970  -3.288  1.00  0.00     0.177 HD
ATOM     31  H61 UNL     1      -4.554   3.331  -4.345  1.00  0.00     0.177 HD
ENDBRANCH  27  29
ENDBRANCH   7  27
BRANCH  10  32
HETATM   32  N8  UNL     1      -3.999  -1.094  -0.420  1.00  0.00    -0.370 N 
ATOM     33  H8  UNL     1      -3.750  -1.826   0.245  1.00  0.00     0.161 HD
BRANCH  32  34
HETATM   34  C9  UNL     1      -5.378  -0.953  -0.913  1.00  0.00     0.083 A 
HETATM   35  C10 UNL     1      -6.392  -2.009  -0.426  1.00  0.00     0.027 A 
HETATM   36  C11 UNL     1      -5.934  -2.010  -1.841  1.00  0.00     0.027 A 
ENDBRANCH  32  34
ENDBRANCH  10  32
TORSDOF 7
