REMARK  7 active torsions:
REMARK  status: ('A' for Active; 'I' for Inactive)
REMARK    1  A    between atoms: O1_2  and  C2_3 
REMARK    2  A    between atoms: C3_4  and  O2_5 
REMARK    3  A    between atoms: C4_7  and  O3_8 
REMARK    4  A    between atoms: C5_10  and  O4_11 
REMARK    5  A    between atoms: C6_13  and  C7_14 
REMARK    6  A    between atoms: C7_14  and  O5_17 
REMARK    7  A    between atoms: C10_19  and  O6_20 
ROOT
HETATM    1  C2  UNL     1       1.415  -0.304  -0.254  1.00  0.00     0.181 C 
HETATM    2  C3  UNL     1       1.530   1.034  -0.872  1.00  0.00     0.180 C 
HETATM    3  C4  UNL     1       0.870   2.143  -0.115  1.00  0.00     0.178 C 
HETATM    4  C5  UNL     1      -0.536   1.874   0.287  1.00  0.00     0.159 C 
HETATM    5  C6  UNL     1      -0.852   0.445   0.615  1.00  0.00     0.082 C 
HETATM    6  C10 UNL     1       0.307  -0.462   0.742  1.00  0.00     0.162 C 
ENDROOT
BRANCH   5   7
HETATM    7  C7  UNL     1      -2.024  -0.093  -0.168  1.00  0.00     0.059 C 
HETATM    8  C8  UNL     1      -1.887  -0.088  -1.650  1.00  0.00     0.046 C 
HETATM    9  C9  UNL     1      -2.254  -1.533   0.248  1.00  0.00     0.046 C 
BRANCH   7  10
HETATM   10  O5  UNL     1      -3.174   0.605   0.211  1.00  0.00    -0.390 OA
ATOM     11  H5  UNL     1      -3.912   0.266  -0.282  1.00  0.00     0.210 HD
ENDBRANCH   7  10
ENDBRANCH   5   7
BRANCH   4  12
HETATM   12  O4  UNL     1      -0.924   2.777   1.275  1.00  0.00    -0.392 OA
ATOM     13  H4  UNL     1      -1.822   2.605   1.532  1.00  0.00     0.210 HD
ENDBRANCH   4  12
BRANCH   6  14
HETATM   14  O6  UNL     1       0.914  -0.403   2.014  1.00  0.00    -0.387 OA
HETATM   15  C11 UNL     1       0.860  -1.572   2.705  1.00  0.00     0.202 C 
ENDBRANCH   6  14
BRANCH   3  16
HETATM   16  O3  UNL     1       0.959   3.311  -0.874  1.00  0.00    -0.390 OA
ATOM     17  H3  UNL     1       0.540   4.015  -0.393  1.00  0.00     0.210 HD
ENDBRANCH   3  16
BRANCH   1  18
HETATM   18  O1  UNL     1       1.233  -1.237  -1.272  1.00  0.00    -0.385 OA
HETATM   19  C1  UNL     1       2.264  -2.129  -1.407  1.00  0.00     0.202 C 
ENDBRANCH   1  18
BRANCH   2  20
HETATM   20  O2  UNL     1       2.872   1.325  -1.108  1.00  0.00    -0.390 OA
ATOM     21  H2  UNL     1       2.946   2.185  -1.505  1.00  0.00     0.210 HD
ENDBRANCH   2  20
TORSDOF 7
