REMARK  8 active torsions:
REMARK  status: ('A' for Active; 'I' for Inactive)
REMARK    1  A    between atoms: C2_2  and  C3_3 
REMARK    2  A    between atoms: C2_2  and  C6_6 
REMARK    3  A    between atoms: C16_16  and  N1_17 
REMARK       I    between atoms: N1_17  and  C17_19 
REMARK    4  A    between atoms: C17_19  and  C18_21 
REMARK    5  A    between atoms: C18_21  and  C20_24 
REMARK    6  A    between atoms: C20_24  and  C21_25 
REMARK    7  A    between atoms: C21_25  and  C22_26 
REMARK    8  A    between atoms: C22_26  and  N3_27 
ROOT
HETATM    1  C3  UNL     1      -8.327  -0.565  -0.234  1.00  0.00    -0.072 C 
HETATM    2  C4  UNL     1      -9.193  -0.002  -0.848  1.00  0.00    -0.106 C 
HETATM    3  C5  UNL     1     -10.258   0.684  -1.570  1.00  0.00     0.112 C 
ENDROOT
BRANCH   1   4
HETATM    4  C2  UNL     1      -7.227  -1.252   0.518  1.00  0.00    -0.009 C 
HETATM    5  C1  UNL     1      -7.692  -2.162   1.323  1.00  0.00     0.029 C 
BRANCH   4   6
HETATM    6  C6  UNL     1      -5.866  -0.803   0.246  1.00  0.00     0.034 C 
HETATM    7  C7  UNL     1      -5.901   0.726   0.197  1.00  0.00     0.011 C 
HETATM    8  C8  UNL     1      -4.647   1.097  -0.561  1.00  0.00     0.011 C 
HETATM    9  C9  UNL     1      -3.494   0.818   0.372  1.00  0.00    -0.035 C 
HETATM   10  C10 UNL     1      -3.766   1.676   1.618  1.00  0.00     0.016 C 
HETATM   11  C11 UNL     1      -3.402  -0.625   0.659  1.00  0.00     0.002 C 
HETATM   12  C30 UNL     1      -2.276   1.416  -0.258  1.00  0.00     0.004 C 
HETATM   13  C12 UNL     1      -2.502  -1.342  -0.321  1.00  0.00     0.007 C 
HETATM   14  C31 UNL     1      -4.701  -1.351   0.924  1.00  0.00    -0.035 C 
HETATM   15  C13 UNL     1      -1.098  -0.782  -0.308  1.00  0.00     0.012 C 
HETATM   16  C14 UNL     1      -1.000   0.667  -0.020  1.00  0.00    -0.019 C 
HETATM   17  C15 UNL     1      -0.380   0.974   1.345  1.00  0.00     0.018 C 
HETATM   18  C16 UNL     1      -0.085   1.396  -1.018  1.00  0.00     0.093 C 
HETATM   19  C28 UNL     1      -0.902   1.554  -2.252  1.00  0.00     0.026 C 
HETATM   20  C29 UNL     1      -2.336   1.571  -1.747  1.00  0.00     0.008 C 
HETATM   21  C32 UNL     1      -4.481  -2.770   0.416  1.00  0.00     0.016 C 
HETATM   22  C33 UNL     1      -4.917  -1.462   2.415  1.00  0.00     0.016 C 
BRANCH  18  23
HETATM   23  N1  UNL     1       1.169   0.712  -1.200  1.00  0.00    -0.355 N 
HETATM   24  C17 UNL     1       2.363   1.384  -0.860  1.00  0.00     0.235 C 
HETATM   25  O1  UNL     1       2.445   2.543  -0.405  1.00  0.00    -0.272 OA
ATOM     26  H1  UNL     1       1.194  -0.239  -1.567  1.00  0.00     0.162 HD
BRANCH  24  27
HETATM   27  C18 UNL     1       3.683   0.644  -1.059  1.00  0.00     0.184 C 
HETATM   28  C19 UNL     1       3.554  -0.527  -0.169  1.00  0.00     0.073 C 
HETATM   29  N2  UNL     1       3.419  -1.444   0.537  1.00  0.00    -0.196 NA
BRANCH  27  30
HETATM   30  C20 UNL     1       4.813   1.525  -0.709  1.00  0.00     0.030 C 
BRANCH  30  31
HETATM   31  C21 UNL     1       6.202   1.063  -0.873  1.00  0.00     0.032 C 
BRANCH  31  32
HETATM   32  C22 UNL     1       6.627  -0.159  -0.125  1.00  0.00     0.272 C 
BRANCH  32  33
HETATM   33  N3  UNL     1       8.055  -0.423  -0.361  1.00  0.00     0.088 N 
HETATM   34  C23 UNL     1       8.396  -1.717   0.260  1.00  0.00     0.272 C 
HETATM   35  C24 UNL     1       9.801  -2.058  -0.112  1.00  0.00     0.030 C 
HETATM   36  C25 UNL     1      10.783  -0.968   0.266  1.00  0.00     0.003 C 
HETATM   37  C26 UNL     1      10.268   0.397  -0.066  1.00  0.00     0.030 C 
HETATM   38  C27 UNL     1       8.817   0.544   0.386  1.00  0.00     0.272 C 
ENDBRANCH  32  33
ENDBRANCH  31  32
ENDBRANCH  30  31
ENDBRANCH  27  30
ENDBRANCH  24  27
ENDBRANCH  18  23
ENDBRANCH   4   6
ENDBRANCH   1   4
TORSDOF 8
