REMARK  10 active torsions:
REMARK  status: ('A' for Active; 'I' for Inactive)
REMARK    1  A    between atoms: C2_2  and  C3_3 
REMARK    2  A    between atoms: C3_3  and  C4_4 
REMARK    3  A    between atoms: C4_4  and  C5_5 
REMARK    4  A    between atoms: C5_5  and  N1_6 
REMARK    5  A    between atoms: N1_6  and  C6_8 
REMARK    6  A    between atoms: C6_8  and  O1_9 
REMARK    7  A    between atoms: C6_8  and  C7_11 
REMARK    8  A    between atoms: C21_25  and  N2_26 
REMARK    9  A    between atoms: C30_35  and  O2_36 
REMARK   10  A    between atoms: O2_36  and  C31_37 
ROOT
HETATM    1  C7  UNL     1       2.595  -0.115  -1.507  1.00  0.00     0.095 C 
HETATM    2  C8  UNL     1       2.086   1.244  -0.921  1.00  0.00     0.024 C 
HETATM    3  C9  UNL     1       0.748   0.741  -1.137  1.00  0.00     0.027 C 
HETATM    4  C10 UNL     1      -0.457   0.920  -0.363  1.00  0.00     0.005 C 
HETATM    5  C11 UNL     1      -0.979   2.296  -0.567  1.00  0.00     0.007 C 
HETATM    6  C12 UNL     1      -2.334   2.487  -0.019  1.00  0.00     0.014 C 
HETATM    7  C13 UNL     1      -2.863   1.535   0.973  1.00  0.00    -0.015 C 
HETATM    8  C14 UNL     1      -3.243   2.326   2.212  1.00  0.00     0.020 C 
HETATM    9  C15 UNL     1      -1.976   0.361   1.345  1.00  0.00    -0.060 C 
HETATM   10  C16 UNL     1      -2.566  -0.616   1.968  1.00  0.00    -0.079 C 
HETATM   11  C17 UNL     1      -1.871  -1.808   2.386  1.00  0.00     0.043 C 
HETATM   12  C18 UNL     1      -4.034  -0.515   2.346  1.00  0.00     0.039 C 
HETATM   13  C19 UNL     1      -4.812  -0.054   1.179  1.00  0.00    -0.003 C 
HETATM   14  C20 UNL     1      -5.052  -1.163   0.173  1.00  0.00     0.041 C 
HETATM   15  C21 UNL     1      -5.037  -0.512  -1.177  1.00  0.00     0.223 C 
HETATM   16  C24 UNL     1      -4.260   0.789  -1.038  1.00  0.00     0.041 C 
HETATM   17  C25 UNL     1      -4.193   1.037   0.405  1.00  0.00     0.004 C 
HETATM   18  C26 UNL     1      -0.556   0.428   1.065  1.00  0.00    -0.015 C 
HETATM   19  C27 UNL     1      -0.163   1.605   2.036  1.00  0.00     0.020 C 
HETATM   20  C28 UNL     1       0.480  -0.525   1.251  1.00  0.00     0.017 C 
HETATM   21  C29 UNL     1       1.054  -1.335   0.134  1.00  0.00     0.040 C 
HETATM   22  C30 UNL     1       1.301  -0.710  -1.182  1.00  0.00     0.076 C 
ENDROOT
BRANCH   1  23
HETATM   23  C6  UNL     1       3.874  -0.467  -0.948  1.00  0.00     0.118 C 
BRANCH  23  24
HETATM   24  N1  UNL     1       4.317  -0.547   0.368  1.00  0.00    -0.374 N 
ATOM     25  H1  UNL     1       3.656  -0.324   1.112  1.00  0.00     0.161 HD
BRANCH  24  26
HETATM   26  C5  UNL     1       5.652  -0.925   0.739  1.00  0.00     0.121 C 
BRANCH  26  27
HETATM   27  C4  UNL     1       6.743  -0.041   0.252  1.00  0.00     0.020 C 
BRANCH  27  28
HETATM   28  C3  UNL     1       8.068  -0.621   0.770  1.00  0.00     0.001 C 
BRANCH  28  29
HETATM   29  C2  UNL     1       9.193   0.273   0.278  1.00  0.00    -0.004 C 
HETATM   30  C1  UNL     1       8.970   1.665   0.822  1.00  0.00     0.005 C 
ENDBRANCH  28  29
ENDBRANCH  27  28
ENDBRANCH  26  27
ENDBRANCH  24  26
ENDBRANCH  23  24
BRANCH  23  31
HETATM   31  O1  UNL     1       4.791  -0.769  -1.820  1.00  0.00    -0.349 OA
ATOM     32  H1  UNL     1       4.488  -0.714  -2.719  1.00  0.00     0.219 HD
ENDBRANCH  23  31
ENDBRANCH   1  23
BRANCH  22  33
HETATM   33  O2  UNL     1       0.544  -1.361  -2.134  1.00  0.00    -0.379 OA
BRANCH  33  34
HETATM   34  C31 UNL     1       0.871  -2.442  -2.784  1.00  0.00     0.164 C 
HETATM   35  C32 UNL     1       2.064  -2.324  -3.695  1.00  0.00     0.033 C 
ENDBRANCH  33  34
ENDBRANCH  22  33
BRANCH  15  36
HETATM   36  N2  UNL     1      -6.304  -0.373  -1.809  1.00  0.00     0.084 N 
HETATM   37  C22 UNL     1      -7.265   0.442  -1.144  1.00  0.00     0.309 C 
HETATM   38  C23 UNL     1      -6.916  -1.653  -2.093  1.00  0.00     0.309 C 
ENDBRANCH  15  36
TORSDOF 10
