REMARK  7 active torsions:
REMARK  status: ('A' for Active; 'I' for Inactive)
REMARK    1  A    between atoms: S1_2  and  C2_4 
REMARK    2  A    between atoms: S1_2  and  O2_7 
REMARK    3  A    between atoms: C2_4  and  C3_5 
REMARK    4  A    between atoms: O2_7  and  C5_8 
REMARK    5  A    between atoms: C12_15  and  C13_16 
REMARK    6  A    between atoms: C13_16  and  O3_17 
REMARK    7  A    between atoms: C15_19  and  C16_20 
ROOT
HETATM    1  C5  UNL     1       2.898  -0.896  -0.146  1.00  0.00     0.148 C 
HETATM    2  C6  UNL     1       1.889  -1.664   0.700  1.00  0.00     0.040 C 
HETATM    3  C7  UNL     1       0.646  -1.804  -0.154  1.00  0.00     0.005 C 
HETATM    4  C8  UNL     1      -0.562  -1.274   0.529  1.00  0.00    -0.035 C 
HETATM    5  C9  UNL     1      -0.393  -1.650   2.014  1.00  0.00     0.016 C 
HETATM    6  C10 UNL     1      -1.860  -1.850   0.084  1.00  0.00     0.011 C 
HETATM    7  C11 UNL     1      -2.906  -0.868  -0.285  1.00  0.00     0.017 C 
HETATM    8  C12 UNL     1      -3.084   0.304   0.627  1.00  0.00     0.009 C 
HETATM    9  C15 UNL     1      -3.580   1.454  -0.157  1.00  0.00    -0.069 C 
HETATM   10  C19 UNL     1      -2.903   2.567   0.186  1.00  0.00    -0.022 C 
HETATM   11  C20 UNL     1      -1.878   2.255   1.238  1.00  0.00     0.033 C 
HETATM   12  C21 UNL     1      -1.753   0.781   1.204  1.00  0.00     0.009 C 
HETATM   13  C22 UNL     1      -0.545   0.236   0.495  1.00  0.00    -0.001 C 
HETATM   14  C23 UNL     1      -0.240   0.859  -0.802  1.00  0.00     0.006 C 
HETATM   15  C24 UNL     1       0.452   0.061  -1.838  1.00  0.00     0.011 C 
HETATM   16  C25 UNL     1       0.954  -1.278  -1.501  1.00  0.00    -0.030 C 
HETATM   17  C26 UNL     1       0.530  -2.290  -2.581  1.00  0.00     0.016 C 
HETATM   18  C27 UNL     1       2.491  -1.359  -1.525  1.00  0.00    -0.013 C 
HETATM   19  C28 UNL     1       3.100  -0.573  -2.629  1.00  0.00     0.018 C 
HETATM   20  C29 UNL     1       2.901  -2.807  -1.663  1.00  0.00     0.018 C 
ENDROOT
BRANCH   1  21
HETATM   21  O2  UNL     1       4.155  -1.337   0.172  1.00  0.00    -0.300 OA
BRANCH  21  22
HETATM   22  S1  UNL     1       5.221  -0.149   0.594  1.00  0.00     0.053 S 
HETATM   23  C1  UNL     1       6.487  -0.795   1.314  1.00  0.00     0.144 C 
HETATM   24  O1  UNL     1       5.891   0.506  -0.612  1.00  0.00    -0.244 OA
BRANCH  22  25
HETATM   25  C2  UNL     1       4.503   1.095   1.623  1.00  0.00     0.123 C 
BRANCH  25  26
HETATM   26  C3  UNL     1       5.502   2.165   1.991  1.00  0.00     0.009 C 
HETATM   27  C4  UNL     1       6.060   2.875   0.782  1.00  0.00     0.006 C 
ENDBRANCH  25  26
ENDBRANCH  22  25
ENDBRANCH  21  22
ENDBRANCH   1  21
BRANCH   8  28
HETATM   28  C13 UNL     1      -3.969  -0.127   1.761  1.00  0.00     0.181 C 
BRANCH  28  29
HETATM   29  O3  UNL     1      -5.203  -0.595   1.444  1.00  0.00    -0.395 OA
HETATM   30  C14 UNL     1      -5.964  -0.974   2.533  1.00  0.00     0.201 C 
ENDBRANCH  28  29
ENDBRANCH   8  28
BRANCH   9  31
HETATM   31  C16 UNL     1      -4.578   1.523  -1.256  1.00  0.00     0.007 C 
HETATM   32  C17 UNL     1      -4.554   2.844  -2.004  1.00  0.00     0.014 C 
HETATM   33  C18 UNL     1      -5.992   1.249  -0.871  1.00  0.00     0.014 C 
ENDBRANCH   9  31
TORSDOF 7
