REMARK  12 active torsions:
REMARK  status: ('A' for Active; 'I' for Inactive)
REMARK    1  A    between atoms: N1_2  and  C2_3 
REMARK    2  A    between atoms: N1_2  and  C3_5 
REMARK    3  A    between atoms: C3_5  and  C4_6 
REMARK    4  A    between atoms: C3_5  and  C21_33 
REMARK       I    between atoms: C4_6  and  N2_8 
REMARK    5  A    between atoms: N2_8  and  C5_10 
REMARK    6  A    between atoms: C5_10  and  C6_11 
REMARK    7  A    between atoms: C5_10  and  C13_18 
REMARK    8  A    between atoms: C6_11  and  C7_12 
REMARK    9  A    between atoms: C13_18  and  O3_19 
REMARK   10  A    between atoms: C13_18  and  C14_21 
REMARK       I    between atoms: C14_21  and  N3_23 
REMARK   11  A    between atoms: C19_29  and  C20_30 
REMARK   12  A    between atoms: C21_33  and  C24_36 
ROOT
HETATM    1  C5  UNL     1      -0.224   1.393   0.316  1.00  0.00     0.126 C 
ENDROOT
BRANCH   1   2
HETATM    2  N2  UNL     1      -0.924   0.207   0.858  1.00  0.00    -0.351 N 
HETATM    3  C4  UNL     1      -1.913  -0.415   0.082  1.00  0.00     0.242 C 
HETATM    4  O2  UNL     1      -2.100   0.139  -1.068  1.00  0.00    -0.271 OA
ATOM      5  H2  UNL     1      -0.690  -0.153   1.783  1.00  0.00     0.163 HD
BRANCH   3   6
HETATM    6  C3  UNL     1      -2.717  -1.604   0.460  1.00  0.00     0.194 C 
BRANCH   6   7
HETATM    7  N1  UNL     1      -3.150  -2.327  -0.683  1.00  0.00    -0.349 N 
HETATM    8  C1  UNL     1      -2.647  -3.728  -0.866  1.00  0.00     0.153 C 
BRANCH   7   9
HETATM    9  C2  UNL     1      -4.022  -1.902  -1.668  1.00  0.00     0.351 C 
HETATM   10  O1  UNL     1      -4.602  -0.817  -1.854  1.00  0.00    -0.284 OA
ENDBRANCH   7   9
ENDBRANCH   6   7
BRANCH   6  11
HETATM   11  C21 UNL     1      -3.690  -1.304   1.513  1.00  0.00     0.079 C 
HETATM   12  C22 UNL     1      -3.020  -0.557   2.677  1.00  0.00     0.027 C 
HETATM   13  C23 UNL     1      -4.843  -0.419   1.122  1.00  0.00     0.027 C 
BRANCH  11  14
HETATM   14  C24 UNL     1      -4.326  -2.514   2.166  1.00  0.00     0.397 C 
HETATM   15  F1  UNL     1      -5.010  -3.286   1.237  1.00  0.00    -0.170 F 
HETATM   16  F2  UNL     1      -5.281  -2.098   3.080  1.00  0.00    -0.170 F 
HETATM   17  F3  UNL     1      -3.454  -3.312   2.821  1.00  0.00    -0.170 F 
ENDBRANCH  11  14
ENDBRANCH   6  11
ENDBRANCH   3   6
ENDBRANCH   1   2
BRANCH   1  18
HETATM   18  C6  UNL     1      -0.701   2.517   1.205  1.00  0.00     0.066 C 
BRANCH  18  19
HETATM   19  C7  UNL     1      -0.195   3.847   0.933  1.00  0.00    -0.056 A 
HETATM   20  C8  UNL     1       0.872   4.389   1.601  1.00  0.00     0.007 A 
HETATM   21  C9  UNL     1       1.345   5.664   1.332  1.00  0.00     0.001 A 
HETATM   22  C10 UNL     1       0.716   6.423   0.350  1.00  0.00     0.000 A 
HETATM   23  C11 UNL     1      -0.358   5.878  -0.324  1.00  0.00     0.001 A 
HETATM   24  C12 UNL     1      -0.800   4.625  -0.039  1.00  0.00     0.007 A 
ENDBRANCH  18  19
ENDBRANCH   1  18
BRANCH   1  25
HETATM   25  C13 UNL     1       1.267   1.178   0.415  1.00  0.00     0.233 C 
BRANCH  25  26
HETATM   26  O3  UNL     1       1.910   2.266  -0.145  1.00  0.00    -0.384 OA
ATOM     27  H3  UNL     1       2.848   2.131  -0.083  1.00  0.00     0.210 HD
ENDBRANCH  25  26
BRANCH  25  28
HETATM   28  C14 UNL     1       1.702  -0.132  -0.026  1.00  0.00     0.252 C 
HETATM   29  O4  UNL     1       1.064  -1.152   0.354  1.00  0.00    -0.270 OA
HETATM   30  N3  UNL     1       2.844  -0.307  -0.887  1.00  0.00    -0.325 N 
HETATM   31  C15 UNL     1       3.665   0.776  -1.319  1.00  0.00     0.202 C 
HETATM   32  C19 UNL     1       3.210  -1.612  -1.400  1.00  0.00     0.207 C 
HETATM   33  S1  UNL     1       5.121  -0.074  -2.055  1.00  0.00    -0.137 SA
HETATM   34  C16 UNL     1       4.692  -1.751  -1.426  1.00  0.00     0.033 C 
HETATM   35  C17 UNL     1       5.232  -1.968  -0.047  1.00  0.00     0.029 C 
HETATM   36  C18 UNL     1       5.230  -2.729  -2.422  1.00  0.00     0.029 C 
BRANCH  32  37
HETATM   37  C20 UNL     1       2.544  -1.890  -2.699  1.00  0.00     0.198 C 
HETATM   38  O5  UNL     1       1.779  -1.032  -3.255  1.00  0.00    -0.646 OA
HETATM   39  O6  UNL     1       2.702  -3.080  -3.389  1.00  0.00    -0.646 OA
ENDBRANCH  32  37
ENDBRANCH  25  28
ENDBRANCH   1  25
TORSDOF 12
