REMARK  4 active torsions:
REMARK  status: ('A' for Active; 'I' for Inactive)
REMARK    1  A    between atoms: C2_2  and  S1_3 
REMARK    2  A    between atoms: S1_3  and  C3_4 
REMARK    3  A    between atoms: C3_4  and  C4_5 
REMARK    4  A    between atoms: C12_14  and  C13_15 
ROOT
HETATM    1  C4  UNL     1      -3.299  -0.046  -1.410  1.00  0.00     0.051 C 
HETATM    2  C5  UNL     1      -4.222  -1.223  -1.486  1.00  0.00     0.013 C 
HETATM    3  C6  UNL     1      -4.007  -2.282  -0.460  1.00  0.00     0.032 C 
HETATM    4  C7  UNL     1      -3.505  -1.781   0.848  1.00  0.00     0.120 C 
HETATM    5  C8  UNL     1      -2.885  -2.945   1.628  1.00  0.00     0.039 C 
HETATM    6  O1  UNL     1      -2.610  -0.766   0.798  1.00  0.00    -0.355 OA
HETATM    7  C9  UNL     1      -2.184  -0.348  -0.452  1.00  0.00     0.141 C 
HETATM    8  C10 UNL     1      -1.366  -1.449  -1.101  1.00  0.00     0.063 C 
HETATM    9  C11 UNL     1       0.061  -1.022  -1.414  1.00  0.00     0.025 C 
HETATM   10  C12 UNL     1       0.658  -0.727  -0.012  1.00  0.00     0.134 C 
HETATM   11  C20 UNL     1      -0.003   0.555   0.333  1.00  0.00     0.230 C 
HETATM   12  O6  UNL     1       0.557   1.382   1.072  1.00  0.00    -0.273 OA
HETATM   13  N3  UNL     1      -1.308   0.786  -0.227  1.00  0.00    -0.328 N 
ATOM     14  H3  UNL     1      -1.612   1.731  -0.462  1.00  0.00     0.165 HD
ENDROOT
BRANCH  10  15
HETATM   15  C13 UNL     1       2.139  -0.614  -0.128  1.00  0.00     0.100 C 
HETATM   16  N1  UNL     1       2.732  -0.634  -1.268  1.00  0.00    -0.280 N 
HETATM   17  S2  UNL     1       4.410  -0.515  -1.541  1.00  0.00     0.258 S 
ATOM     18  H1  UNL     1       2.139  -0.731  -2.092  1.00  0.00     0.178 HD
HETATM   19  O2  UNL     1       4.635   0.488  -2.658  1.00  0.00    -0.203 OA
HETATM   20  O3  UNL     1       4.998  -1.838  -1.938  1.00  0.00    -0.203 OA
HETATM   21  C14 UNL     1       5.156   0.074  -0.034  1.00  0.00     0.160 C 
HETATM   22  C15 UNL     1       6.519  -0.567   0.084  1.00  0.00     0.076 C 
HETATM   23  C18 UNL     1       5.255   1.578  -0.142  1.00  0.00     0.076 C 
HETATM   24  N2  UNL     1       4.357  -0.329   1.093  1.00  0.00    -0.332 N 
HETATM   25  C16 UNL     1       7.462   0.214   0.953  1.00  0.00     0.171 C 
HETATM   26  O4  UNL     1       7.413   1.575   0.752  1.00  0.00    -0.391 OA
HETATM   27  C17 UNL     1       6.137   2.068   1.004  1.00  0.00     0.171 C 
HETATM   28  C19 UNL     1       2.936  -0.463   1.073  1.00  0.00     0.267 C 
ATOM     29  H2  UNL     1       4.840  -0.533   1.968  1.00  0.00     0.164 HD
HETATM   30  O5  UNL     1       2.365  -0.444   2.218  1.00  0.00    -0.266 OA
ENDBRANCH  10  15
BRANCH   1  31
HETATM   31  C3  UNL     1      -4.000   1.249  -1.225  1.00  0.00     0.083 C 
BRANCH  31  32
HETATM   32  S1  UNL     1      -4.986   1.391   0.258  1.00  0.00    -0.169 SA
BRANCH  32  33
HETATM   33  C2  UNL     1      -5.764   3.017   0.328  1.00  0.00     0.069 C 
HETATM   34  C1  UNL     1      -6.612   3.186   1.571  1.00  0.00     0.016 C 
ENDBRANCH  32  33
ENDBRANCH  31  32
ENDBRANCH   1  31
TORSDOF 4
