REMARK  5 active torsions:
REMARK  status: ('A' for Active; 'I' for Inactive)
REMARK    1  A    between atoms: C1_2  and  C2_4 
REMARK    2  A    between atoms: C2_4  and  C3_5 
REMARK    3  A    between atoms: C3_5  and  C4_6 
REMARK    4  A    between atoms: C3_5  and  C5_9 
REMARK    5  A    between atoms: C11_15  and  C12_16 
ROOT
HETATM    1  C5  UNL     1       0.591   0.022  -0.479  1.00  0.00     0.241 C 
HETATM    2  C6  UNL     1      -0.019  -1.317  -0.876  1.00  0.00     0.072 C 
HETATM    3  C7  UNL     1      -1.037  -0.337  -1.458  1.00  0.00     0.227 C 
HETATM    4  C8  UNL     1      -2.402  -0.790  -1.700  1.00  0.00     0.036 C 
HETATM    5  C9  UNL     1      -3.303  -0.108  -0.659  1.00  0.00     0.005 C 
HETATM    6  C10 UNL     1      -2.799  -0.668   0.656  1.00  0.00     0.047 C 
HETATM    7  C11 UNL     1      -1.446  -0.021   0.911  1.00  0.00     0.323 C 
HETATM    8  N1  UNL     1      -0.789   0.436  -0.256  1.00  0.00     0.113 N 
ENDROOT
BRANCH   1   9
HETATM    9  C3  UNL     1       1.551   0.072   0.617  1.00  0.00     0.130 C 
BRANCH   9  10
HETATM   10  C2  UNL     1       2.794  -0.766   0.421  1.00  0.00     0.130 C 
BRANCH  10  11
HETATM   11  C1  UNL     1       3.639  -0.336  -0.709  1.00  0.00     0.173 C 
HETATM   12  O1  UNL     1       3.349   0.653  -1.417  1.00  0.00    -0.648 OA
HETATM   13  O2  UNL     1       4.796  -1.036  -1.010  1.00  0.00    -0.648 OA
ENDBRANCH  10  11
ENDBRANCH   9  10
BRANCH   9  14
HETATM   14  C4  UNL     1       1.968   1.470   0.863  1.00  0.00     0.179 C 
HETATM   15  O3  UNL     1       1.579   2.360   0.082  1.00  0.00    -0.648 OA
HETATM   16  O4  UNL     1       2.771   1.818   1.927  1.00  0.00    -0.648 OA
ENDBRANCH   9  14
ENDBRANCH   1   9
BRANCH   7  17
HETATM   17  C12 UNL     1      -1.762   1.083   1.850  1.00  0.00     0.207 C 
HETATM   18  O5  UNL     1      -2.310   0.794   2.934  1.00  0.00    -0.646 OA
HETATM   19  O6  UNL     1      -1.474   2.396   1.566  1.00  0.00    -0.646 OA
ENDBRANCH   7  17
TORSDOF 5
