REMARK  3 active torsions:
REMARK  status: ('A' for Active; 'I' for Inactive)
REMARK    1  A    between atoms: C5_7  and  N2_8 
REMARK    2  A    between atoms: N2_8  and  C6_10 
REMARK    3  A    between atoms: C14_18  and  C15_19 
ROOT
HETATM    1  C1  UNL     1       5.097  -1.614   1.017  1.00  0.00     0.050 C 
HETATM    2  C2  UNL     1       3.665  -1.651   0.584  1.00  0.00    -0.034 A 
HETATM    3  C3  UNL     1       2.831  -2.706   0.360  1.00  0.00     0.096 A 
HETATM    4  N1  UNL     1       1.626  -2.241  -0.025  1.00  0.00    -0.363 N 
ATOM      5  H1  UNL     1       0.821  -2.824  -0.255  1.00  0.00     0.165 HD
HETATM    6  C4  UNL     1       1.639  -0.896  -0.062  1.00  0.00     0.069 A 
HETATM    7  C5  UNL     1       0.643   0.013  -0.391  1.00  0.00     0.057 A 
HETATM    8  C13 UNL     1       0.971   1.333  -0.324  1.00  0.00     0.047 A 
HETATM    9  C14 UNL     1       2.223   1.777   0.047  1.00  0.00     0.051 A 
HETATM   10  C16 UNL     1       3.198   0.836   0.370  1.00  0.00     0.030 A 
HETATM   11  C17 UNL     1       2.909  -0.517   0.317  1.00  0.00     0.001 A 
ENDROOT
BRANCH   7  12
HETATM   12  N2  UNL     1      -0.635  -0.467  -0.792  1.00  0.00    -0.383 N 
ATOM     13  H2  UNL     1      -0.748  -1.479  -0.857  1.00  0.00     0.160 HD
BRANCH  12  14
HETATM   14  C6  UNL     1      -1.769   0.329  -1.111  1.00  0.00     0.086 C 
HETATM   15  C7  UNL     1      -2.301   1.168   0.037  1.00  0.00     0.030 C 
HETATM   16  C8  UNL     1      -3.788   0.886   0.126  1.00  0.00    -0.012 C 
HETATM   17  C9  UNL     1      -3.973  -0.442   0.791  1.00  0.00     0.005 C 
HETATM   18  C12 UNL     1      -4.076   0.494  -1.336  1.00  0.00     0.011 C 
HETATM   19  C10 UNL     1      -3.282  -1.381  -0.214  1.00  0.00     0.007 C 
HETATM   20  C11 UNL     1      -2.949  -0.557  -1.412  1.00  0.00     0.009 C 
ENDBRANCH  12  14
ENDBRANCH   7  12
BRANCH   9  21
HETATM   21  C15 UNL     1       2.582   3.206   0.120  1.00  0.00     0.417 C 
HETATM   22  F1  UNL     1       1.451   3.953  -0.193  1.00  0.00    -0.166 F 
HETATM   23  F2  UNL     1       3.526   3.512  -0.847  1.00  0.00    -0.166 F 
HETATM   24  F3  UNL     1       2.964   3.593   1.390  1.00  0.00    -0.166 F 
ENDBRANCH   9  21
TORSDOF 3
