REMARK  12 active torsions:
REMARK  status: ('A' for Active; 'I' for Inactive)
REMARK    1  A    between atoms: N1_2  and  C2_3 
REMARK    2  A    between atoms: N1_2  and  C12_27 
REMARK    3  A    between atoms: C2_3  and  C3_4 
REMARK    4  A    between atoms: C3_4  and  C4_6 
REMARK    5  A    between atoms: C7_10  and  N2_11 
REMARK    6  A    between atoms: C8_16  and  N4_17 
REMARK    7  A    between atoms: C11_24  and  O4_25 
REMARK    8  A    between atoms: C12_27  and  C13_28 
REMARK    9  A    between atoms: C14_30  and  N6_31 
REMARK   10  A    between atoms: N6_31  and  O6_32 
REMARK   11  A    between atoms: N6_31  and  O7_34 
REMARK   12  A    between atoms: C15_38  and  C16_39 
ROOT
HETATM    1  C4  UNL     1      -1.303  -0.156  -0.576  1.00  0.00     0.162 A 
HETATM    2  O2  UNL     1      -2.327  -0.621   0.120  1.00  0.00    -0.285 OA
HETATM    3  C5  UNL     1      -3.415   0.079   0.353  1.00  0.00     0.183 A 
HETATM    4  C6  UNL     1      -3.565   1.385  -0.125  1.00  0.00     0.113 A 
HETATM    5  C7  UNL     1      -4.700   2.140   0.109  1.00  0.00     0.133 A 
HETATM    6  N3  UNL     1      -5.678   1.518   0.848  1.00  0.00    -0.176 N 
ATOM      7  H3  UNL     1      -6.538   2.026   1.053  1.00  0.00     0.186 HD
HETATM    8  C8  UNL     1      -5.541   0.277   1.305  1.00  0.00     0.681 A 
HETATM    9  N5  UNL     1      -4.428  -0.443   1.067  1.00  0.00    -0.165 N 
HETATM   10  C9  UNL     1      -4.364  -1.784   1.603  1.00  0.00     0.177 C 
HETATM   11  C10 UNL     1      -2.530   1.923  -0.856  1.00  0.00     0.226 A 
HETATM   12  O3  UNL     1      -2.538   3.079  -1.341  1.00  0.00    -0.284 OA
HETATM   13  C11 UNL     1      -1.401   1.125  -1.069  1.00  0.00     0.155 A 
ENDROOT
BRANCH   1  14
HETATM   14  C3  UNL     1      -0.126  -0.978  -0.800  1.00  0.00     0.214 C 
HETATM   15  O1  UNL     1      -0.171  -2.148  -0.291  1.00  0.00    -0.288 OA
BRANCH  14  16
HETATM   16  C2  UNL     1       1.057  -0.556  -1.546  1.00  0.00     0.358 C 
BRANCH  16  17
HETATM   17  N1  UNL     1       2.104  -1.514  -1.666  1.00  0.00     0.097 N 
HETATM   18  C1  UNL     1       3.168  -0.961  -2.524  1.00  0.00     0.310 C 
BRANCH  17  19
HETATM   19  C12 UNL     1       2.752  -1.935  -0.468  1.00  0.00     0.339 C 
BRANCH  19  20
HETATM   20  C13 UNL     1       3.492  -0.875   0.256  1.00  0.00     0.118 A 
HETATM   21  O5  UNL     1       3.645   0.387  -0.043  1.00  0.00    -0.281 OA
HETATM   22  C14 UNL     1       4.361   1.035   0.819  1.00  0.00     0.255 A 
HETATM   23  N7  UNL     1       4.703   0.111   1.760  1.00  0.00    -0.315 N 
HETATM   24  C15 UNL     1       4.173  -1.078   1.427  1.00  0.00     0.144 A 
ATOM     25  H7  UNL     1       5.272   0.293   2.587  1.00  0.00     0.169 HD
BRANCH  22  26
HETATM   26  N6  UNL     1       4.696   2.399   0.766  1.00  0.00     0.007 NA
BRANCH  26  27
HETATM   27  O6  UNL     1       3.833   3.184   1.460  1.00  0.00    -0.281 OA
ATOM     28  H6  UNL     1       4.059   4.106   1.424  1.00  0.00     0.240 HD
ENDBRANCH  26  27
BRANCH  26  29
HETATM   29  O7  UNL     1       5.935   2.651   1.249  1.00  0.00    -0.281 OA
ATOM     30  H7  UNL     1       6.161   3.573   1.213  1.00  0.00     0.240 HD
ENDBRANCH  26  29
ENDBRANCH  22  26
BRANCH  24  31
HETATM   31  C16 UNL     1       4.323  -2.316   2.197  1.00  0.00     0.229 C 
HETATM   32  O8  UNL     1       3.811  -3.393   1.846  1.00  0.00    -0.643 OA
HETATM   33  O9  UNL     1       5.063  -2.323   3.377  1.00  0.00    -0.643 OA
ENDBRANCH  24  31
ENDBRANCH  19  20
ENDBRANCH  17  19
ENDBRANCH  16  17
ENDBRANCH  14  16
ENDBRANCH   1  14
BRANCH  13  34
HETATM   34  O4  UNL     1      -0.382   1.707  -1.813  1.00  0.00    -0.355 OA
ATOM     35  H4  UNL     1      -0.450   2.591  -2.153  1.00  0.00     0.218 HD
ENDBRANCH  13  34
BRANCH   5  36
HETATM   36  N2  UNL     1      -4.849   3.296  -0.307  1.00  0.00    -0.384 N 
ATOM     37  H22 UNL     1      -4.123   3.758  -0.855  1.00  0.00     0.157 HD
ATOM     38  H21 UNL     1      -5.686   3.853  -0.134  1.00  0.00     0.157 HD
ENDBRANCH   5  36
BRANCH   8  39
HETATM   39  N4  UNL     1      -6.507  -0.272   2.007  1.00  0.00    -0.234 N 
ATOM     40  H42 UNL     1      -7.350   0.273   2.187  1.00  0.00     0.174 HD
ATOM     41  H41 UNL     1      -6.402  -1.224   2.358  1.00  0.00     0.174 HD
ENDBRANCH   8  39
TORSDOF 12
