REMARK  4 active torsions:
REMARK  status: ('A' for Active; 'I' for Inactive)
REMARK    1  A    between atoms: C2_2  and  C5_6 
REMARK    2  A    between atoms: C5_6  and  O1_7 
REMARK    3  A    between atoms: C5_6  and  C6_9 
REMARK    4  A    between atoms: C6_9  and  N2_10 
ROOT
HETATM    1  C1  UNL     1      -3.294  -1.157   0.867  1.00  0.00     0.033 C 
HETATM    2  C2  UNL     1      -2.449  -0.294  -0.049  1.00  0.00     0.069 C 
HETATM    3  C3  UNL     1      -3.061   1.074  -0.068  1.00  0.00     0.033 C 
HETATM    4  C4  UNL     1      -2.493  -0.926  -1.376  1.00  0.00     0.071 C 
HETATM    5  N1  UNL     1      -2.522  -1.402  -2.413  1.00  0.00    -0.196 NA
ENDROOT
BRANCH   2   6
HETATM    6  C5  UNL     1      -1.043  -0.340   0.438  1.00  0.00     0.158 C 
BRANCH   6   7
HETATM    7  O1  UNL     1      -0.620  -1.667   0.400  1.00  0.00    -0.392 OA
ATOM      8  H1  UNL     1       0.277  -1.696   0.711  1.00  0.00     0.210 HD
ENDBRANCH   6   7
BRANCH   6   9
HETATM    9  C6  UNL     1      -0.080   0.452  -0.418  1.00  0.00     0.160 C 
BRANCH   9  10
HETATM   10  N2  UNL     1       1.283   0.375   0.061  1.00  0.00    -0.367 N 
HETATM   11  C7  UNL     1       1.918  -0.872  -0.047  1.00  0.00     0.089 C 
HETATM   12  C8  UNL     1       3.408  -0.818  -0.266  1.00  0.00     0.212 C 
HETATM   13  O2  UNL     1       3.720   0.250  -1.129  1.00  0.00    -0.381 OA
HETATM   14  C9  UNL     1       3.492   1.403  -0.384  1.00  0.00     0.212 C 
HETATM   15  C10 UNL     1       2.040   1.540  -0.126  1.00  0.00     0.089 C 
ENDBRANCH   9  10
ENDBRANCH   6   9
ENDBRANCH   2   6
TORSDOF 4
