REMARK  4 active torsions:
REMARK  status: ('A' for Active; 'I' for Inactive)
REMARK    1  A    between atoms: N1_1  and  C1_4 
REMARK    2  A    between atoms: C2_7  and  C3_8 
REMARK    3  A    between atoms: C4_9  and  C5_11 
REMARK       I    between atoms: C5_11  and  N3_13 
REMARK    4  A    between atoms: N3_13  and  C6_15 
ROOT
HETATM    1  C3  UNL     1       2.720   0.911  -0.401  1.00  0.00     0.054 C 
HETATM    2  C4  UNL     1       1.812   0.032  -0.069  1.00  0.00     0.080 C 
HETATM    3 BR1  UNL     1       2.195  -1.694   0.664  1.00  0.00    -0.045 Br
ENDROOT
BRANCH   2   4
HETATM    4  C5  UNL     1       0.403   0.385  -0.246  1.00  0.00     0.259 C 
HETATM    5  O1  UNL     1       0.071   1.524  -0.703  1.00  0.00    -0.267 OA
HETATM    6  N3  UNL     1      -0.625  -0.507   0.079  1.00  0.00    -0.352 N 
ATOM      7  H3  UNL     1      -0.379  -1.428   0.442  1.00  0.00     0.163 HD
BRANCH   6   8
HETATM    8  C6  UNL     1      -2.045  -0.168  -0.082  1.00  0.00     0.084 C 
HETATM    9  C7  UNL     1      -2.608  -0.988  -1.187  1.00  0.00     0.025 C 
HETATM   10  C8  UNL     1      -4.094  -1.180  -1.057  1.00  0.00     0.002 C 
HETATM   11  C9  UNL     1      -4.667  -0.091  -0.210  1.00  0.00     0.000 C 
HETATM   12  C10 UNL     1      -4.180  -0.341   1.207  1.00  0.00     0.002 C 
HETATM   13  C11 UNL     1      -2.669  -0.335   1.259  1.00  0.00     0.025 C 
ENDBRANCH   6   8
ENDBRANCH   2   4
BRANCH   1  14
HETATM   14  C2  UNL     1       4.184   0.669  -0.248  1.00  0.00     0.042 A 
HETATM   15  N2  UNL     1       4.975   1.573   0.262  1.00  0.00    -0.337 N 
HETATM   16  C1  UNL     1       6.275   1.293   0.356  1.00  0.00     0.142 A 
ATOM     17  H2  UNL     1       4.608   2.470   0.580  1.00  0.00     0.168 HD
HETATM   18  S1  UNL     1       6.392  -0.277  -0.287  1.00  0.00    -0.064 SA
HETATM   19  C12 UNL     1       4.728  -0.511  -0.657  1.00  0.00     0.082 A 
BRANCH  16  20
HETATM   20  N1  UNL     1       7.244   2.045   0.832  1.00  0.00    -0.380 N 
ATOM     21  H12 UNL     1       7.174   2.987   1.218  1.00  0.00     0.158 HD
ATOM     22  H11 UNL     1       8.239   1.831   0.904  1.00  0.00     0.158 HD
ENDBRANCH  16  20
ENDBRANCH   1  14
TORSDOF 4
