REMARK  1 active torsions:
REMARK  status: ('A' for Active; 'I' for Inactive)
REMARK    1  A    between atoms: O1_1  and  C1_3 
ROOT
HETATM    1  C1  UNL     1       1.990   0.202   0.121  1.00  0.00     0.143 C 
HETATM    2  C2  UNL     1       1.266   0.261   1.458  1.00  0.00     0.203 C 
HETATM    3  O2  UNL     1       0.108   1.036   1.219  1.00  0.00    -0.350 OA
HETATM    4  C3  UNL     1      -0.712   0.336   0.440  1.00  0.00     0.203 C 
HETATM    5  C4  UNL     1      -2.114   0.808   0.183  1.00  0.00     0.088 C 
HETATM    6  C5  UNL     1      -2.542  -0.417  -0.649  1.00  0.00     0.127 C 
HETATM    7  N1  UNL     1      -1.254  -1.128  -0.655  1.00  0.00    -0.183 NA
HETATM    8  O3  UNL     1      -0.911  -1.019   0.672  1.00  0.00    -0.261 OA
HETATM    9  C6  UNL     1      -0.243  -0.091  -0.896  1.00  0.00     0.152 C 
HETATM   10  C7  UNL     1       1.124  -0.701  -0.768  1.00  0.00     0.061 C 
ENDROOT
BRANCH   1  11
HETATM   11  O1  UNL     1       3.269  -0.282   0.235  1.00  0.00    -0.393 OA
ATOM     12  H1  UNL     1       3.721  -0.319  -0.600  1.00  0.00     0.210 HD
ENDBRANCH   1  11
TORSDOF 1
