REMARK  5 active torsions:
REMARK  status: ('A' for Active; 'I' for Inactive)
REMARK    1  A    between atoms: C3_6  and  N2_7 
REMARK    2  A    between atoms: C5_13  and  C6_14 
REMARK    3  A    between atoms: C11_23  and  S1_24 
REMARK    4  A    between atoms: S1_24  and  C12_25 
REMARK    5  A    between atoms: C12_25  and  C13_26 
ROOT
HETATM    1  N1  UNL     1       0.254  -2.551  -1.972  1.00  0.00    -0.385 N 
ATOM      2  H11 UNL     1       0.985  -2.484  -2.681  1.00  0.00     0.157 HD
ATOM      3  H12 UNL     1      -0.313  -3.397  -1.912  1.00  0.00     0.157 HD
HETATM    4  C1  UNL     1       0.070  -1.546  -1.161  1.00  0.00     0.104 A 
HETATM    5  C2  UNL     1      -0.933  -1.638  -0.188  1.00  0.00     0.097 A 
HETATM    6  C3  UNL     1      -1.123  -0.575   0.664  1.00  0.00     0.119 A 
HETATM    7  N6  UNL     1      -0.337   0.501   0.521  1.00  0.00    -0.322 N 
ATOM      8  H6  UNL     1      -0.479   1.289   1.153  1.00  0.00     0.169 HD
HETATM    9  C11 UNL     1       0.626   0.597  -0.408  1.00  0.00     0.147 A 
HETATM   10  N7  UNL     1       0.816  -0.434  -1.240  1.00  0.00    -0.323 N 
ATOM     11  H7  UNL     1       1.545  -0.373  -1.951  1.00  0.00     0.169 HD
ENDROOT
BRANCH   6  12
HETATM   12  N2  UNL     1      -2.135  -0.663   1.647  1.00  0.00    -0.275 N 
HETATM   13  C4  UNL     1      -1.949  -1.076   2.932  1.00  0.00     0.208 A 
HETATM   14  N3  UNL     1      -3.097  -1.045   3.598  1.00  0.00    -0.294 N 
HETATM   15  N4  UNL     1      -4.008  -0.613   2.735  1.00  0.00    -0.282 N 
ATOM     16  H3  UNL     1      -3.248  -1.301   4.574  1.00  0.00     0.187 HD
HETATM   17  C5  UNL     1      -3.438  -0.376   1.542  1.00  0.00     0.156 A 
ATOM     18  H4  UNL     1      -4.997  -0.480   2.947  1.00  0.00     0.188 HD
BRANCH  17  19
HETATM   19  C6  UNL     1      -4.124   0.109   0.346  1.00  0.00     0.078 A 
HETATM   20  C7  UNL     1      -5.477   0.368   0.371  1.00  0.00     0.033 A 
HETATM   21  C8  UNL     1      -6.111   0.824  -0.763  1.00  0.00     0.004 A 
HETATM   22  C9  UNL     1      -5.383   1.019  -1.920  1.00  0.00     0.017 A 
HETATM   23  C10 UNL     1      -4.031   0.753  -1.921  1.00  0.00     0.088 A 
HETATM   24  N5  UNL     1      -3.459   0.313  -0.799  1.00  0.00    -0.363 N 
ATOM     25  H5  UNL     1      -2.457   0.121  -0.814  1.00  0.00     0.165 HD
ENDBRANCH  17  19
ENDBRANCH   6  12
BRANCH   9  26
HETATM   26  S1  UNL     1       1.613   2.047  -0.527  1.00  0.00    -0.089 SA
BRANCH  26  27
HETATM   27  C12 UNL     1       3.099   2.006   0.470  1.00  0.00     0.121 C 
BRANCH  27  28
HETATM   28  C13 UNL     1       4.081   0.994   0.034  1.00  0.00    -0.048 A 
HETATM   29  C14 UNL     1       5.044   1.327  -0.894  1.00  0.00     0.011 A 
HETATM   30  C15 UNL     1       5.989   0.397  -1.331  1.00  0.00     0.043 A 
HETATM   31  C16 UNL     1       5.987  -0.885  -0.847  1.00  0.00     0.116 A 
HETATM   32  F1  UNL     1       6.906  -1.810  -1.265  1.00  0.00    -0.206 F 
HETATM   33  C17 UNL     1       5.030  -1.232   0.081  1.00  0.00     0.043 A 
HETATM   34  C18 UNL     1       4.090  -0.300   0.514  1.00  0.00     0.011 A 
ENDBRANCH  27  28
ENDBRANCH  26  27
ENDBRANCH   9  26
TORSDOF 5
