REMARK  11 active torsions:
REMARK  status: ('A' for Active; 'I' for Inactive)
REMARK    1  A    between atoms: C3_3  and  C4_4 
REMARK    2  A    between atoms: C4_4  and  S1_5 
REMARK    3  A    between atoms: S1_5  and  N1_6 
REMARK    4  A    between atoms: S1_5  and  C5_10 
REMARK    5  A    between atoms: C5_10  and  C6_11 
REMARK    6  A    between atoms: C6_11  and  C7_12 
REMARK    7  A    between atoms: C7_12  and  C8_13 
REMARK    8  A    between atoms: C8_13  and  C9_14 
REMARK    9  A    between atoms: N4_20  and  N5_22 
REMARK   10  A    between atoms: N7_28  and  N8_30 
REMARK   11  A    between atoms: C12_33  and  N9_34 
ROOT
HETATM    1  C1  UNL     1      -2.048  -2.261   1.355  1.00  0.00     0.053 C 
HETATM    2  C2  UNL     1      -3.081  -1.298   0.868  1.00  0.00    -0.003 C 
HETATM    3  C3  UNL     1      -2.904   0.006   0.609  1.00  0.00    -0.008 C 
HETATM    4  C11 UNL     1      -4.150   0.590   0.157  1.00  0.00     0.091 C 
HETATM    5  N7  UNL     1      -4.484   1.832   0.090  1.00  0.00    -0.307 N 
ATOM      6  H7  UNL     1      -3.798   2.525   0.388  1.00  0.00     0.186 HD
HETATM    7  C12 UNL     1      -5.017  -0.551  -0.232  1.00  0.00     0.317 C 
HETATM    8  C13 UNL     1      -6.423  -0.320   0.094  1.00  0.00     0.114 C 
HETATM    9  N10 UNL     1      -7.541  -0.156   0.360  1.00  0.00    -0.194 NA
HETATM   10  C14 UNL     1      -4.447  -1.648   0.601  1.00  0.00     0.212 C 
HETATM   11  O2  UNL     1      -5.124  -2.655   0.954  1.00  0.00    -0.288 OA
ENDROOT
BRANCH   7  12
HETATM   12  N9  UNL     1      -4.833  -0.923  -1.616  1.00  0.00    -0.044 N 
ATOM     13  H93 UNL     1      -4.972  -0.125  -2.236  1.00  0.00     0.277 HD
ATOM     14  H92 UNL     1      -3.853  -1.117  -1.820  1.00  0.00     0.277 HD
ATOM     15  H91 UNL     1      -5.429  -1.707  -1.883  1.00  0.00     0.277 HD
ENDBRANCH   7  12
BRANCH   3  16
HETATM   16  C4  UNL     1      -1.616   0.703   0.774  1.00  0.00     0.158 C 
BRANCH  16  17
HETATM   17  S1  UNL     1      -0.997   1.417  -0.720  1.00  0.00     0.023 S 
HETATM   18  O1  UNL     1      -1.888   2.443  -1.309  1.00  0.00    -0.250 OA
BRANCH  17  19
HETATM   19  N1  UNL     1      -0.769   0.318  -1.817  1.00  0.00    -0.360 N 
ATOM     20  H12 UNL     1      -0.958  -0.674  -1.672  1.00  0.00     0.165 HD
ATOM     21  H11 UNL     1      -0.412   0.730  -2.679  1.00  0.00     0.165 HD
ENDBRANCH  17  19
BRANCH  17  22
HETATM   22  C5  UNL     1       0.552   2.209  -0.332  1.00  0.00     0.117 C 
BRANCH  22  23
HETATM   23  C6  UNL     1       1.502   1.154   0.202  1.00  0.00     0.013 C 
BRANCH  23  24
HETATM   24  C7  UNL     1       2.843   1.755   0.554  1.00  0.00     0.005 C 
BRANCH  24  25
HETATM   25  C8  UNL     1       3.763   0.705   1.086  1.00  0.00     0.048 C 
BRANCH  25  26
HETATM   26  C9  UNL     1       4.028  -0.413   0.096  1.00  0.00     0.200 A 
HETATM   27  N2  UNL     1       4.624   0.062  -1.113  1.00  0.00    -0.310 N 
HETATM   28  N3  UNL     1       5.737  -0.489  -1.303  1.00  0.00    -0.273 N 
ATOM     29  H2  UNL     1       4.204   0.753  -1.735  1.00  0.00     0.182 HD
HETATM   30  C10 UNL     1       6.072  -1.404  -0.284  1.00  0.00     0.210 A 
ATOM     31  H3  UNL     1       6.334  -0.295  -2.107  1.00  0.00     0.189 HD
HETATM   32  N4  UNL     1       7.134  -2.146  -0.155  1.00  0.00    -0.277 N 
HETATM   33  N6  UNL     1       4.981  -1.365   0.622  1.00  0.00    -0.338 N 
ATOM     34  H4  UNL     1       7.230  -2.765   0.650  1.00  0.00     0.189 HD
ATOM     35  H6  UNL     1       4.887  -1.906   1.482  1.00  0.00     0.164 HD
BRANCH  32  36
HETATM   36  N5  UNL     1       8.140  -2.092  -1.120  1.00  0.00    -0.342 N 
ATOM     37  H52 UNL     1       8.028  -1.467  -1.919  1.00  0.00     0.176 HD
ATOM     38  H51 UNL     1       8.972  -2.673  -1.019  1.00  0.00     0.176 HD
ENDBRANCH  32  36
ENDBRANCH  25  26
ENDBRANCH  24  25
ENDBRANCH  23  24
ENDBRANCH  22  23
ENDBRANCH  17  22
ENDBRANCH  16  17
ENDBRANCH   3  16
BRANCH   5  39
HETATM   39  N8  UNL     1      -5.696   2.285  -0.354  1.00  0.00    -0.345 N 
ATOM     40  H82 UNL     1      -6.370   1.578  -0.648  1.00  0.00     0.176 HD
ATOM     41  H81 UNL     1      -5.961   3.269  -0.407  1.00  0.00     0.176 HD
ENDBRANCH   5  39
TORSDOF 11
