REMARK  8 active torsions:
REMARK  status: ('A' for Active; 'I' for Inactive)
REMARK    1  A    between atoms: C2_2  and  C3_3 
REMARK    2  A    between atoms: C3_3  and  C4_4 
REMARK    3  A    between atoms: C4_4  and  C5_5 
REMARK    4  A    between atoms: C5_5  and  C6_6 
REMARK    5  A    between atoms: C6_6  and  C7_7 
REMARK    6  A    between atoms: C7_7  and  N1_8 
REMARK    7  A    between atoms: C8_11  and  C9_12 
REMARK       I    between atoms: C9_12  and  N3_14 
REMARK    8  A    between atoms: C14_21  and  C15_22 
ROOT
HETATM    1  N1  UNL     1       1.006  -0.133   1.580  1.00  0.00    -0.278 N 
HETATM    2  N2  UNL     1       1.048   1.148   1.981  1.00  0.00    -0.277 N 
ATOM      3  H2  UNL     1       1.829   1.567   2.486  1.00  0.00     0.189 HD
HETATM    4  C8  UNL     1      -0.053   1.797   1.637  1.00  0.00     0.191 A 
HETATM    5  N4  UNL     1      -0.819   0.917   1.003  1.00  0.00    -0.325 N 
ATOM      6  H4  UNL     1      -1.741   1.108   0.610  1.00  0.00     0.169 HD
HETATM    7  C14 UNL     1      -0.170  -0.291   0.962  1.00  0.00     0.106 A 
ENDROOT
BRANCH   7   8
HETATM    8  C15 UNL     1      -0.745  -1.508   0.353  1.00  0.00     0.079 C 
HETATM    9  C16 UNL     1      -1.131  -1.337  -1.093  1.00  0.00     0.020 C 
HETATM   10  C17 UNL     1      -1.594  -2.663  -1.610  1.00  0.00     0.000 C 
HETATM   11  C18 UNL     1      -0.545  -3.237  -2.530  1.00  0.00     0.011 C 
HETATM   12  C19 UNL     1      -1.829  -3.660  -0.507  1.00  0.00     0.127 C 
HETATM   13  N5  UNL     1      -2.546  -3.108   0.616  1.00  0.00    -0.374 N 
HETATM   14  C20 UNL     1      -3.935  -3.134   0.483  1.00  0.00     0.196 C 
HETATM   15  C22 UNL     1      -1.972  -1.978   1.164  1.00  0.00     0.109 C 
HETATM   16  S1  UNL     1      -4.471  -1.792   1.516  1.00  0.00     0.181 S 
HETATM   17  O2  UNL     1      -5.602  -1.034   0.900  1.00  0.00    -0.222 OA
HETATM   18  O3  UNL     1      -4.727  -2.249   2.897  1.00  0.00    -0.222 OA
HETATM   19  C21 UNL     1      -2.933  -0.869   1.382  1.00  0.00     0.172 C 
ENDBRANCH   7   8
BRANCH   1  20
HETATM   20  C7  UNL     1       2.058  -1.109   1.773  1.00  0.00     0.150 C 
BRANCH  20  21
HETATM   21  C6  UNL     1       3.147  -1.067   0.743  1.00  0.00     0.022 C 
BRANCH  21  22
HETATM   22  C5  UNL     1       2.707  -1.301  -0.655  1.00  0.00     0.002 C 
BRANCH  22  23
HETATM   23  C4  UNL     1       3.816  -1.253  -1.657  1.00  0.00     0.000 C 
BRANCH  23  24
HETATM   24  C3  UNL     1       4.525   0.091  -1.669  1.00  0.00    -0.000 C 
BRANCH  24  25
HETATM   25  C2  UNL     1       5.631   0.065  -2.702  1.00  0.00    -0.005 C 
HETATM   26  C1  UNL     1       6.315   1.434  -2.678  1.00  0.00     0.005 C 
ENDBRANCH  24  25
ENDBRANCH  23  24
ENDBRANCH  22  23
ENDBRANCH  21  22
ENDBRANCH  20  21
ENDBRANCH   1  20
BRANCH   4  27
HETATM   27  C9  UNL     1      -0.324   3.200   1.912  1.00  0.00     0.289 C 
HETATM   28  O1  UNL     1       0.550   3.903   2.536  1.00  0.00    -0.264 OA
HETATM   29  N3  UNL     1      -1.521   3.866   1.528  1.00  0.00    -0.345 N 
HETATM   30  C10 UNL     1      -2.626   3.272   0.835  1.00  0.00     0.126 C 
HETATM   31  C13 UNL     1      -1.781   5.264   1.777  1.00  0.00     0.126 C 
HETATM   32  C11 UNL     1      -3.758   4.251   1.020  1.00  0.00     0.021 C 
HETATM   33  C12 UNL     1      -3.083   5.580   1.068  1.00  0.00     0.021 C 
ENDBRANCH   4  27
TORSDOF 8
