REMARK  6 active torsions:
REMARK  status: ('A' for Active; 'I' for Inactive)
REMARK    1  A    between atoms: C2_2  and  C4_4 
REMARK    2  A    between atoms: C9_9  and  C10_10 
REMARK    3  A    between atoms: N1_11  and  N2_13 
REMARK    4  A    between atoms: N2_13  and  C11_14 
REMARK    5  A    between atoms: N2_13  and  C13_16 
REMARK    6  A    between atoms: N6_29  and  O2_30 
ROOT
HETATM    1  C13 UNL     1       1.800  -0.814   0.192  1.00  0.00     0.730 A 
HETATM    2  N3  UNL     1       2.710  -0.094   0.916  1.00  0.00    -0.170 N 
ATOM      3  H3  UNL     1       2.699  -0.157   1.934  1.00  0.00     0.186 HD
HETATM    4  C14 UNL     1       3.617   0.693   0.318  1.00  0.00     0.155 A 
HETATM    5  C15 UNL     1       3.578   0.732  -1.064  1.00  0.00     0.104 A 
HETATM    6  C16 UNL     1       4.598   1.600  -1.422  1.00  0.00     0.042 A 
HETATM    7  C17 UNL     1       4.907   1.932  -2.837  1.00  0.00     0.071 C 
HETATM    8  N4  UNL     1       5.185   2.029  -0.285  1.00  0.00    -0.301 N 
ATOM      9  H4  UNL     1       5.970   2.679  -0.248  1.00  0.00     0.187 HD
HETATM   10  N5  UNL     1       4.604   1.491   0.774  1.00  0.00    -0.280 N 
HETATM   11  C18 UNL     1       4.962   1.712   2.183  1.00  0.00     0.179 C 
HETATM   12  C19 UNL     1       2.653  -0.002  -1.783  1.00  0.00     0.304 A 
HETATM   13  O1  UNL     1       2.631   0.047  -3.054  1.00  0.00    -0.264 OA
HETATM   14  N6  UNL     1       1.758  -0.780  -1.154  1.00  0.00    -0.011 N 
ENDROOT
BRANCH   1  15
HETATM   15  N2  UNL     1       0.862  -1.640   0.862  1.00  0.00    -0.122 N 
BRANCH  15  16
HETATM   16  N1  UNL     1      -0.014  -1.119   1.765  1.00  0.00    -0.299 N 
HETATM   17  C10 UNL     1      -1.107  -0.518   1.666  1.00  0.00     0.086 C 
ATOM     18  H1  UNL     1       0.286  -1.246   2.732  1.00  0.00     0.186 HD
BRANCH  17  19
HETATM   19  C9  UNL     1      -1.818  -0.176   0.388  1.00  0.00     0.034 C 
HETATM   20  C4  UNL     1      -2.724   0.982   0.670  1.00  0.00     0.022 C 
HETATM   21  C5  UNL     1      -4.014   0.408   1.230  1.00  0.00     0.010 C 
HETATM   22  C6  UNL     1      -4.771  -0.380   0.207  1.00  0.00     0.001 C 
HETATM   23  C7  UNL     1      -3.882  -1.250  -0.615  1.00  0.00     0.001 C 
HETATM   24  C8  UNL     1      -2.527  -1.418  -0.030  1.00  0.00     0.010 C 
BRANCH  20  25
HETATM   25  C2  UNL     1      -2.940   1.919  -0.428  1.00  0.00    -0.088 C 
HETATM   26  C1  UNL     1      -2.395   1.796  -1.619  1.00  0.00     0.014 C 
HETATM   27  C3  UNL     1      -3.829   3.087  -0.184  1.00  0.00     0.043 C 
ENDBRANCH  20  25
ENDBRANCH  17  19
ENDBRANCH  15  16
BRANCH  15  28
HETATM   28  C11 UNL     1       0.866  -3.051   0.571  1.00  0.00     0.163 C 
HETATM   29  C12 UNL     1       1.164  -3.821   1.867  1.00  0.00     0.029 C 
ENDBRANCH  15  28
ENDBRANCH   1  15
BRANCH  14  30
HETATM   30  O2  UNL     1       0.821  -1.529  -1.866  1.00  0.00    -0.266 OA
ATOM     31  H2  UNL     1       0.791  -1.505  -2.815  1.00  0.00     0.246 HD
ENDBRANCH  14  30
TORSDOF 6
