REMARK  7 active torsions:
REMARK  status: ('A' for Active; 'I' for Inactive)
REMARK    1  A    between atoms: C2_2  and  N2_5 
REMARK    2  A    between atoms: C9_12  and  C10_13 
REMARK    3  A    between atoms: C10_13  and  C11_14 
REMARK    4  A    between atoms: C12_16  and  S2_17 
REMARK    5  A    between atoms: C14_21  and  C15_22 
REMARK    6  A    between atoms: C16_23  and  C17_24 
REMARK    7  A    between atoms: C17_24  and  C18_25 
ROOT
HETATM    1  C1  UNL     1      -4.065  -2.361   0.969  1.00  0.00     0.055 C 
HETATM    2  C2  UNL     1      -3.390  -1.228   1.081  1.00  0.00     0.111 C 
HETATM    3  C3  UNL     1      -2.780  -0.938   2.320  1.00  0.00     0.117 C 
HETATM    4  N1  UNL     1      -2.290  -0.707   3.369  1.00  0.00    -0.190 NA
ENDROOT
BRANCH   2   5
HETATM    5  N2  UNL     1      -3.381  -0.361  -0.038  1.00  0.00    -0.311 N 
HETATM    6  C4  UNL     1      -4.429  -0.272  -0.939  1.00  0.00     0.121 A 
HETATM    7  C5  UNL     1      -4.131   0.648  -1.912  1.00  0.00     0.069 A 
HETATM    8  C6  UNL     1      -4.985   0.999  -3.008  1.00  0.00     0.101 C 
HETATM    9  C7  UNL     1      -2.884   1.111  -1.581  1.00  0.00    -0.008 A 
HETATM   10  N3  UNL     1      -5.669   1.286  -3.922  1.00  0.00    -0.191 NA
HETATM   11  C8  UNL     1      -2.420   0.479  -0.417  1.00  0.00     0.054 A 
HETATM   12  C20 UNL     1      -1.884   2.099  -2.064  1.00  0.00     0.047 C 
HETATM   13  C9  UNL     1      -1.074   0.994  -0.138  1.00  0.00    -0.029 C 
HETATM   14  C19 UNL     1      -1.030   2.314  -0.807  1.00  0.00     0.045 C 
BRANCH  13  15
HETATM   15  C10 UNL     1      -0.131   0.381   0.503  1.00  0.00     0.031 C 
BRANCH  15  16
HETATM   16  C11 UNL     1       1.182   1.052   0.705  1.00  0.00     0.043 A 
HETATM   17  S1  UNL     1       1.536   2.682   1.082  1.00  0.00    -0.062 SA
HETATM   18  C12 UNL     1       3.236   2.567   1.128  1.00  0.00     0.113 A 
HETATM   19  N4  UNL     1       3.444   1.289   0.853  1.00  0.00    -0.337 N 
HETATM   20  C14 UNL     1       2.437   0.501   0.635  1.00  0.00     0.105 A 
ATOM     21  H4  UNL     1       4.396   0.924   0.813  1.00  0.00     0.168 HD
BRANCH  18  22
HETATM   22  S2  UNL     1       4.468   3.853   1.468  1.00  0.00    -0.109 SA
HETATM   23  C13 UNL     1       6.132   3.143   1.383  1.00  0.00     0.097 C 
ENDBRANCH  18  22
BRANCH  20  24
HETATM   24  C15 UNL     1       2.582  -0.930   0.324  1.00  0.00    -0.047 C 
HETATM   25  C16 UNL     1       2.724  -2.101   0.078  1.00  0.00    -0.099 C 
BRANCH  25  26
HETATM   26  C17 UNL     1       2.912  -3.530  -0.199  1.00  0.00     0.109 C 
BRANCH  26  27
HETATM   27  C18 UNL     1       1.926  -4.271   0.660  1.00  0.00     0.126 C 
HETATM   28 CL1  UNL     1       2.262  -3.899   2.371  1.00  0.00    -0.130 Cl
ENDBRANCH  26  27
ENDBRANCH  25  26
ENDBRANCH  20  24
ENDBRANCH  15  16
ENDBRANCH  13  15
ENDBRANCH   2   5
TORSDOF 7
