REMARK  5 active torsions:
REMARK  status: ('A' for Active; 'I' for Inactive)
REMARK    1  A    between atoms: C2_2  and  C3_3 
REMARK    2  A    between atoms: C2_2  and  C9_9 
REMARK    3  A    between atoms: C3_3  and  C4_4 
REMARK    4  A    between atoms: C9_9  and  C10_11 
REMARK    5  A    between atoms: C10_11  and  C12_13 
ROOT
HETATM    1  C9  UNL     1       1.358   0.396  -1.078  1.00  0.00     0.140 C 
HETATM    2  O1  UNL     1       1.106   0.427  -2.299  1.00  0.00    -0.297 OA
ENDROOT
BRANCH   1   3
HETATM    3  C2  UNL     1       0.225  -0.064  -0.258  1.00  0.00     0.052 C 
HETATM    4  C1  UNL     1       0.331  -1.386   0.387  1.00  0.00     0.018 C 
BRANCH   3   5
HETATM    5  C3  UNL     1      -1.033   0.019  -1.062  1.00  0.00     0.016 C 
BRANCH   5   6
HETATM    6  C4  UNL     1      -2.334  -0.096  -0.425  1.00  0.00    -0.014 C 
HETATM    7  C5  UNL     1      -2.777  -1.270   0.327  1.00  0.00     0.005 C 
HETATM    8  C6  UNL     1      -4.155  -0.795   0.845  1.00  0.00     0.000 C 
HETATM    9  C7  UNL     1      -3.960   0.673   1.145  1.00  0.00     0.000 C 
HETATM   10  C8  UNL     1      -2.688   1.123   0.458  1.00  0.00     0.005 C 
ENDBRANCH   5   6
ENDBRANCH   3   5
ENDBRANCH   1   3
BRANCH   1  11
HETATM   11  C10 UNL     1       2.699   0.811  -0.715  1.00  0.00     0.104 C 
HETATM   12  C11 UNL     1       2.556   2.208  -0.073  1.00  0.00     0.025 C 
BRANCH  11  13
HETATM   13  C12 UNL     1       3.535  -0.063   0.085  1.00  0.00     0.055 A 
HETATM   14  C13 UNL     1       3.513  -0.228   1.445  1.00  0.00     0.136 A 
HETATM   15  N1  UNL     1       4.459  -1.134   1.746  1.00  0.00    -0.296 N 
HETATM   16  N2  UNL     1       5.044  -1.515   0.625  1.00  0.00    -0.243 N 
ATOM     17  H1  UNL     1       4.687  -1.470   2.682  1.00  0.00     0.187 HD
HETATM   18  N3  UNL     1       4.492  -0.875  -0.368  1.00  0.00    -0.288 N 
ATOM     19  H2  UNL     1       5.800  -2.195   0.549  1.00  0.00     0.208 HD
ATOM     20  H3  UNL     1       4.754  -0.980  -1.348  1.00  0.00     0.188 HD
ENDBRANCH  11  13
ENDBRANCH   1  11
TORSDOF 5
