REMARK  3 active torsions:
REMARK  status: ('A' for Active; 'I' for Inactive)
REMARK    1  A    between atoms: N1_1  and  N2_4 
REMARK    2  A    between atoms: N3_12  and  C5_13 
REMARK    3  A    between atoms: N4_20  and  C11_21 
ROOT
HETATM    1  N2  UNL     1      -1.541   3.475  -1.118  1.00  0.00    -0.174 N 
HETATM    2  C1  UNL     1      -0.281   3.884  -1.256  1.00  0.00     0.287 A 
HETATM    3  O1  UNL     1      -0.007   5.034  -1.675  1.00  0.00    -0.265 OA
HETATM    4  C2  UNL     1       0.764   3.029  -0.934  1.00  0.00     0.122 A 
HETATM    5  C3  UNL     1       2.124   3.180  -1.003  1.00  0.00     0.192 A 
HETATM    6  F1  UNL     1       2.777   4.293  -1.411  1.00  0.00    -0.200 F 
HETATM    7  C4  UNL     1       2.659   2.011  -0.587  1.00  0.00     0.234 A 
HETATM    8  F2  UNL     1       3.990   1.731  -0.501  1.00  0.00    -0.182 F 
HETATM    9  N3  UNL     1       1.683   1.110  -0.251  1.00  0.00    -0.278 N 
HETATM   10  C10 UNL     1       0.532   1.738  -0.462  1.00  0.00     0.137 A 
HETATM   11  N4  UNL     1      -0.804   1.380  -0.339  1.00  0.00    -0.278 N 
HETATM   12  C18 UNL     1      -1.795   2.222  -0.660  1.00  0.00     0.352 A 
HETATM   13  O3  UNL     1      -2.994   1.890  -0.557  1.00  0.00    -0.244 OA
ENDROOT
BRANCH  11  14
HETATM   14  C11 UNL     1      -1.060   0.082   0.200  1.00  0.00     0.096 C 
HETATM   15  C12 UNL     1      -1.290  -1.036  -0.726  1.00  0.00     0.026 C 
HETATM   16  C13 UNL     1      -2.558  -1.831  -0.677  1.00  0.00     0.002 C 
HETATM   17  C14 UNL     1      -2.719  -2.656   0.561  1.00  0.00     0.000 C 
HETATM   18  C15 UNL     1      -3.297  -1.969   1.742  1.00  0.00     0.000 C 
HETATM   19  C16 UNL     1      -2.306  -0.899   2.144  1.00  0.00     0.002 C 
HETATM   20  C17 UNL     1      -2.374   0.158   1.001  1.00  0.00     0.026 C 
ENDBRANCH  11  14
BRANCH   9  21
HETATM   21  C5  UNL     1       1.984  -0.201   0.162  1.00  0.00     0.231 C 
HETATM   22  C6  UNL     1       2.566  -0.940  -1.087  1.00  0.00     0.054 C 
HETATM   23  C7  UNL     1       3.719  -1.808  -0.765  1.00  0.00     0.006 C 
HETATM   24  C8  UNL     1       3.724  -2.393   0.610  1.00  0.00     0.026 C 
HETATM   25  C9  UNL     1       3.413  -1.287   1.579  1.00  0.00     0.170 C 
HETATM   26  O2  UNL     1       3.211  -0.076   0.927  1.00  0.00    -0.366 OA
ENDBRANCH   9  21
BRANCH   1  27
HETATM   27  N1  UNL     1      -2.626   4.284  -1.426  1.00  0.00    -0.332 N 
ATOM     28  H12 UNL     1      -2.435   5.225  -1.770  1.00  0.00     0.177 HD
ATOM     29  H11 UNL     1      -3.591   3.971  -1.320  1.00  0.00     0.177 HD
ENDBRANCH   1  27
TORSDOF 3
