REMARK  6 active torsions:
REMARK  status: ('A' for Active; 'I' for Inactive)
REMARK    1  A    between atoms: C2_2  and  N1_3 
REMARK    2  A    between atoms: N1_3  and  C3_4 
REMARK    3  A    between atoms: N1_3  and  C5_7 
REMARK    4  A    between atoms: C3_4  and  C4_5 
REMARK    5  A    between atoms: C8_11  and  N2_12 
REMARK       I    between atoms: N2_12  and  C9_14 
REMARK       I    between atoms: C9_14  and  N3_16 
REMARK    6  A    between atoms: N3_16  and  C11_18 
ROOT
HETATM    1  C5  UNL     1       3.400  -0.563   0.624  1.00  0.00     0.073 A 
HETATM    2  C6  UNL     1       2.632  -1.698   0.934  1.00  0.00     0.173 A 
HETATM    3  O1  UNL     1       1.378  -1.349   0.912  1.00  0.00    -0.317 OA
HETATM    4  C7  UNL     1       1.218  -0.079   0.616  1.00  0.00     0.122 A 
HETATM    5  C8  UNL     1       0.029   0.688   0.491  1.00  0.00     0.094 A 
HETATM    6  C16 UNL     1      -0.025   1.994   0.182  1.00  0.00     0.070 A 
HETATM    7 CL1  UNL     1      -1.610   2.811   0.073  1.00  0.00    -0.081 Cl
HETATM    8  C17 UNL     1       1.038   2.857  -0.076  1.00  0.00     0.076 A 
HETATM    9  S2  UNL     1       2.552   2.084   0.033  1.00  0.00    -0.095 SA
HETATM   10  C18 UNL     1       2.471   0.434   0.431  1.00  0.00     0.069 A 
ENDROOT
BRANCH   5  11
HETATM   11  N2  UNL     1      -1.018   0.012   0.692  1.00  0.00    -0.305 N 
HETATM   12  C9  UNL     1      -2.364   0.175   0.712  1.00  0.00     0.323 C 
HETATM   13  O2  UNL     1      -2.959   0.609   1.743  1.00  0.00    -0.247 OA
HETATM   14  N3  UNL     1      -3.150  -0.152  -0.448  1.00  0.00    -0.334 N 
HETATM   15  C10 UNL     1      -2.393  -0.610  -1.625  1.00  0.00     0.155 C 
ATOM     16  H2  UNL     1      -0.777  -0.956   0.905  1.00  0.00     0.171 HD
BRANCH  14  17
HETATM   17  C11 UNL     1      -4.586  -0.078  -0.483  1.00  0.00     0.091 C 
HETATM   18  C12 UNL     1      -5.143   1.257  -0.143  1.00  0.00     0.053 C 
HETATM   19  C13 UNL     1      -6.594   1.286  -0.630  1.00  0.00     0.234 C 
HETATM   20  N4  UNL     1      -7.162  -0.028  -0.612  1.00  0.00    -0.075 N 
HETATM   21  C14 UNL     1      -6.700  -0.792   0.534  1.00  0.00     0.234 C 
ATOM     22  H42 UNL     1      -8.181   0.005  -0.652  1.00  0.00     0.277 HD
ATOM     23  H41 UNL     1      -6.985  -0.523  -1.486  1.00  0.00     0.277 HD
HETATM   24  C15 UNL     1      -5.215  -1.118   0.442  1.00  0.00     0.053 C 
ENDBRANCH  14  17
ENDBRANCH   5  11
BRANCH   1  25
HETATM   25  N1  UNL     1       4.819  -0.516   0.519  1.00  0.00    -0.378 N 
BRANCH  25  26
HETATM   26  C2  UNL     1       5.545  -1.753   0.830  1.00  0.00     0.118 C 
HETATM   27  C1  UNL     1       6.108  -2.436  -0.371  1.00  0.00     0.026 C 
ENDBRANCH  25  26
BRANCH  25  28
HETATM   28  C3  UNL     1       5.521   0.641   0.092  1.00  0.00     0.134 C 
BRANCH  28  29
HETATM   29  C4  UNL     1       6.132   0.569  -1.285  1.00  0.00     0.106 C 
HETATM   30  S1  UNL     1       6.938   2.207  -1.532  1.00  0.00    -0.096 SA
ENDBRANCH  28  29
ENDBRANCH  25  28
ENDBRANCH   1  25
TORSDOF 6
