REMARK  5 active torsions:
REMARK  status: ('A' for Active; 'I' for Inactive)
REMARK    1  A    between atoms: C2_2  and  O1_3 
REMARK    2  A    between atoms: C2_2  and  C3_6 
REMARK    3  A    between atoms: C3_6  and  N1_7 
REMARK    4  A    between atoms: N1_7  and  N2_8 
REMARK    5  A    between atoms: N2_8  and  C4_9 
ROOT
HETATM    1  N1  UNL     1       1.029   0.093   0.961  1.00  0.00    -0.144 NA
ENDROOT
BRANCH   1   2
HETATM    2  C3  UNL     1       1.622   0.765  -0.174  1.00  0.00     0.184 C 
BRANCH   2   3
HETATM    3  C2  UNL     1       3.125   0.593  -0.224  1.00  0.00     0.145 C 
HETATM    4  C1  UNL     1       3.539  -0.856  -0.230  1.00  0.00     0.065 C 
HETATM    5 CL1  UNL     1       3.943   1.424   1.103  1.00  0.00    -0.087 Cl
BRANCH   3   6
HETATM    6  O1  UNL     1       3.560   1.180  -1.422  1.00  0.00    -0.374 OA
ATOM      7  H1  UNL     1       3.299   2.093  -1.418  1.00  0.00     0.212 HD
ENDBRANCH   3   6
ENDBRANCH   2   3
ENDBRANCH   1   2
BRANCH   1   8
HETATM    8  N2  UNL     1      -0.176  -0.511   0.577  1.00  0.00    -0.143 NA
BRANCH   8   9
HETATM    9  C4  UNL     1      -1.237   0.465   0.366  1.00  0.00     0.095 C 
HETATM   10  C5  UNL     1      -2.421   0.209   1.286  1.00  0.00     0.023 C 
HETATM   11  C6  UNL     1      -3.500  -0.428   0.446  1.00  0.00     0.002 C 
HETATM   12  C7  UNL     1      -2.685  -1.001  -0.708  1.00  0.00     0.002 C 
HETATM   13  C8  UNL     1      -1.835   0.228  -1.016  1.00  0.00     0.023 C 
ENDBRANCH   8   9
ENDBRANCH   1   8
TORSDOF 5
