REMARK  3 active torsions:
REMARK  status: ('A' for Active; 'I' for Inactive)
REMARK    1  A    between atoms: C2_2  and  C4_5 
REMARK    2  A    between atoms: C4_5  and  N1_6 
REMARK    3  A    between atoms: N1_6  and  C5_9 
ROOT
HETATM    1  N1  UNL     1      -0.083  -0.381  -0.292  1.00  0.00    -0.059 N 
ATOM      2  H11 UNL     1      -0.535  -1.020  -0.947  1.00  0.00     0.278 HD
ATOM      3  H12 UNL     1      -0.086  -0.994   0.523  1.00  0.00     0.278 HD
ENDROOT
BRANCH   1   4
HETATM    4  C4  UNL     1      -0.845   0.833  -0.080  1.00  0.00     0.258 C 
BRANCH   4   5
HETATM    5  C2  UNL     1      -2.204   0.420   0.444  1.00  0.00     0.053 C 
HETATM    6  C1  UNL     1      -2.050  -0.342   1.759  1.00  0.00     0.034 C 
HETATM    7  C3  UNL     1      -2.872  -0.477  -0.583  1.00  0.00     0.034 C 
HETATM    8 CL1  UNL     1      -3.147   1.875   0.749  1.00  0.00    -0.118 Cl
ENDBRANCH   4   5
ENDBRANCH   1   4
BRANCH   1   9
HETATM    9  C5  UNL     1       1.271  -0.005  -0.712  1.00  0.00     0.274 C 
HETATM   10  C6  UNL     1       1.865   0.739   0.459  1.00  0.00     0.277 C 
HETATM   11  N2  UNL     1       3.215   0.390   0.617  1.00  0.00    -0.064 N 
HETATM   12  C7  UNL     1       3.453  -1.002   0.574  1.00  0.00     0.308 C 
ATOM     13  H22 UNL     1       3.794   0.875  -0.069  1.00  0.00     0.278 HD
ATOM     14  H21 UNL     1       3.592   0.793   1.475  1.00  0.00     0.278 HD
HETATM   15  S1  UNL     1       2.263  -1.523  -0.699  1.00  0.00    -0.107 SA
ENDBRANCH   1   9
TORSDOF 3
