REMARK  10 active torsions:
REMARK  status: ('A' for Active; 'I' for Inactive)
REMARK    1  A    between atoms: C2_2  and  C3_3 
REMARK    2  A    between atoms: C3_3  and  N1_4 
REMARK    3  A    between atoms: C3_3  and  C4_9 
REMARK    4  A    between atoms: N1_4  and  N2_6 
REMARK    5  A    between atoms: C4_9  and  O1_10 
REMARK    6  A    between atoms: C4_9  and  C5_12 
REMARK    7  A    between atoms: C6_15  and  N4_16 
REMARK    8  A    between atoms: N4_16  and  N5_18 
REMARK    9  A    between atoms: C7_21  and  N7_22 
REMARK   10  A    between atoms: C8_27  and  N9_28 
ROOT
HETATM    1  C5  UNL     1      -0.462  -0.359   0.787  1.00  0.00     0.143 A 
HETATM    2  N3  UNL     1       0.654  -0.898   1.315  1.00  0.00    -0.174 N 
ATOM      3  H3  UNL     1       0.678  -1.567   2.085  1.00  0.00     0.185 HD
HETATM    4  C6  UNL     1       1.732  -0.417   0.670  1.00  0.00     0.714 A 
HETATM    5  N10 UNL     1       1.293   0.433  -0.273  1.00  0.00    -0.129 N 
ATOM      6  H10 UNL     1       1.870   0.960  -0.929  1.00  0.00     0.205 HD
HETATM    7  N11 UNL     1      -0.022   0.459  -0.193  1.00  0.00    -0.272 N 
ATOM      8  H11 UNL     1      -0.627   1.022  -0.791  1.00  0.00     0.189 HD
ENDROOT
BRANCH   4   9
HETATM    9  N4  UNL     1       2.952  -0.750   0.951  1.00  0.00    -0.106 N 
ATOM     10  H4  UNL     1       3.129  -1.416   1.703  1.00  0.00     0.208 HD
BRANCH   9  11
HETATM   11  N5  UNL     1       4.030  -0.213   0.242  1.00  0.00    -0.127 N 
HETATM   12  N6  UNL     1       4.568  -0.669  -0.886  1.00  0.00    -0.107 N 
HETATM   13  C7  UNL     1       5.587   0.130  -1.245  1.00  0.00     0.695 A 
ATOM     14  H6  UNL     1       4.256  -1.495  -1.397  1.00  0.00     0.208 HD
HETATM   15  N8  UNL     1       5.660   1.088  -0.307  1.00  0.00    -0.152 N 
HETATM   16  C8  UNL     1       4.699   0.892   0.626  1.00  0.00     0.302 A 
ATOM     17  H8  UNL     1       6.338   1.850  -0.299  1.00  0.00     0.187 HD
BRANCH  13  18
HETATM   18  N7  UNL     1       6.331  -0.026  -2.296  1.00  0.00    -0.233 N 
ATOM     19  H72 UNL     1       6.276  -0.754  -3.009  1.00  0.00     0.174 HD
ATOM     20  H71 UNL     1       7.104   0.581  -2.569  1.00  0.00     0.174 HD
ENDBRANCH  13  18
BRANCH  16  21
HETATM   21  N9  UNL     1       4.427   1.671   1.783  1.00  0.00    -0.075 N 
HETATM   22  O2  UNL     1       3.499   1.336   2.528  1.00  0.00    -0.529 OA
HETATM   23  O3  UNL     1       5.220   2.771   2.015  1.00  0.00    -0.529 OA
ENDBRANCH  16  21
ENDBRANCH   9  11
ENDBRANCH   4   9
BRANCH   1  24
HETATM   24  C4  UNL     1      -1.885  -0.589   1.172  1.00  0.00     0.211 C 
BRANCH  24  25
HETATM   25  C3  UNL     1      -2.781   0.092   0.179  1.00  0.00     0.134 C 
BRANCH  25  26
HETATM   26  C2  UNL     1      -4.180   0.172   0.763  1.00  0.00     0.025 C 
HETATM   27  C1  UNL     1      -5.066   1.058  -0.121  1.00  0.00     0.007 C 
ENDBRANCH  25  26
BRANCH  25  28
HETATM   28  N1  UNL     1      -2.742  -0.451  -1.126  1.00  0.00    -0.335 N 
ATOM     29  H1  UNL     1      -2.374   0.091  -1.908  1.00  0.00     0.180 HD
BRANCH  28  30
HETATM   30  N2  UNL     1      -3.202  -1.700  -1.309  1.00  0.00    -0.349 N 
ATOM     31  H22 UNL     1      -3.567  -2.229  -0.517  1.00  0.00     0.176 HD
ATOM     32  H21 UNL     1      -3.174  -2.092  -2.250  1.00  0.00     0.176 HD
ENDBRANCH  28  30
ENDBRANCH  25  28
ENDBRANCH  24  25
BRANCH  24  33
HETATM   33  O1  UNL     1      -2.163  -1.917   1.356  1.00  0.00    -0.386 OA
ATOM     34  H1  UNL     1      -1.596  -2.348   1.985  1.00  0.00     0.210 HD
ENDBRANCH  24  33
ENDBRANCH   1  24
TORSDOF 10
