REMARK  12 active torsions:
REMARK  status: ('A' for Active; 'I' for Inactive)
REMARK    1  A    between atoms: C3_3  and  N1_4 
REMARK    2  A    between atoms: N1_4  and  C4_5 
REMARK    3  A    between atoms: C4_5  and  C5_6 
REMARK    4  A    between atoms: C5_6  and  C6_7 
REMARK       I    between atoms: C6_7  and  N2_9 
REMARK    5  A    between atoms: N2_9  and  C7_11 
REMARK    6  A    between atoms: C7_11  and  C8_12 
REMARK    7  A    between atoms: C8_12  and  N3_13 
REMARK    8  A    between atoms: N3_13  and  C9_16 
REMARK    9  A    between atoms: C9_16  and  C10_17 
REMARK   10  A    between atoms: C10_17  and  C11_18 
REMARK   11  A    between atoms: C11_18  and  N4_19 
REMARK       I    between atoms: N4_19  and  C12_21 
REMARK   12  A    between atoms: C14_27  and  O2_28 
ROOT
HETATM    1  C1  UNL     1      -7.486   0.130  -2.463  1.00  0.00     0.013 C 
HETATM    2  C2  UNL     1      -6.378   0.066  -1.990  1.00  0.00    -0.089 C 
HETATM    3  C3  UNL     1      -5.040  -0.016  -1.388  1.00  0.00     0.330 C 
ENDROOT
BRANCH   3   4
HETATM    4  N1  UNL     1      -5.126   0.118   0.032  1.00  0.00    -0.052 N 
HETATM    5  C13 UNL     1      -5.768   1.370   0.415  1.00  0.00     0.272 C 
HETATM    6  C14 UNL     1      -6.617   0.676   1.432  1.00  0.00     0.170 C 
HETATM    7  C15 UNL     1      -6.241  -0.559   0.663  1.00  0.00     0.272 C 
BRANCH   4   8
HETATM    8  C4  UNL     1      -3.852  -0.086   0.675  1.00  0.00     0.248 C 
BRANCH   8   9
HETATM    9  C5  UNL     1      -2.759   0.233  -0.282  1.00  0.00     0.130 C 
BRANCH   9  10
HETATM   10  C6  UNL     1      -1.403   0.052   0.308  1.00  0.00     0.219 C 
HETATM   11  O1  UNL     1      -1.285  -0.339   1.499  1.00  0.00    -0.274 OA
HETATM   12  N2  UNL     1      -0.274   0.323  -0.481  1.00  0.00    -0.359 N 
ATOM     13  H2  UNL     1      -0.387   0.640  -1.444  1.00  0.00     0.162 HD
BRANCH  12  14
HETATM   14  C7  UNL     1       1.064   0.150   0.080  1.00  0.00     0.150 C 
BRANCH  14  15
HETATM   15  C8  UNL     1       2.115   0.491  -0.917  1.00  0.00     0.251 C 
BRANCH  15  16
HETATM   16  N3  UNL     1       3.421   0.320  -0.332  1.00  0.00    -0.074 N 
ATOM     17  H32 UNL     1       4.152   0.754  -0.895  1.00  0.00     0.277 HD
ATOM     18  H31 UNL     1       3.537   0.876   0.515  1.00  0.00     0.277 HD
BRANCH  16  19
HETATM   19  C9  UNL     1       3.676  -1.082  -0.099  1.00  0.00     0.234 C 
BRANCH  19  20
HETATM   20  C10 UNL     1       5.094  -1.140   0.493  1.00  0.00     0.047 C 
BRANCH  20  21
HETATM   21  C11 UNL     1       6.052  -0.547  -0.502  1.00  0.00     0.124 C 
BRANCH  21  22
HETATM   22  N4  UNL     1       7.394  -0.597   0.048  1.00  0.00    -0.365 N 
HETATM   23  C12 UNL     1       8.441  -0.068  -0.745  1.00  0.00     0.181 C 
HETATM   24  N5  UNL     1       8.618   1.206  -0.791  1.00  0.00    -0.374 N 
HETATM   25  N6  UNL     1       9.259  -0.970  -1.461  1.00  0.00    -0.064 NA
ATOM     26  H52 UNL     1       8.027   1.857  -0.274  1.00  0.00     0.158 HD
ATOM     27  H51 UNL     1       9.372   1.587  -1.362  1.00  0.00     0.158 HD
ATOM     28  H4  UNL     1       7.576  -0.997   0.969  1.00  0.00     0.162 HD
ENDBRANCH  21  22
ENDBRANCH  20  21
ENDBRANCH  19  20
ENDBRANCH  16  19
ENDBRANCH  15  16
ENDBRANCH  14  15
ENDBRANCH  12  14
ENDBRANCH   9  10
ENDBRANCH   8   9
ENDBRANCH   4   8
BRANCH   6  29
HETATM   29  O2  UNL     1      -7.940   1.052   1.361  1.00  0.00    -0.392 OA
ATOM     30  H2  UNL     1      -8.479   0.611   2.007  1.00  0.00     0.210 HD
ENDBRANCH   6  29
ENDBRANCH   3   4
TORSDOF 12
