REMARK  3 active torsions:
REMARK  status: ('A' for Active; 'I' for Inactive)
REMARK    1  A    between atoms: C2_2  and  N1_4 
REMARK    2  A    between atoms: N1_4  and  C4_6 
REMARK    3  A    between atoms: C4_6  and  N2_8 
ROOT
HETATM    1  N2  UNL     1       0.551  -0.759   0.164  1.00  0.00    -0.334 N 
HETATM    2  C5  UNL     1      -0.014  -1.664   1.161  1.00  0.00     0.298 C 
HETATM    3  O1  UNL     1      -1.228  -1.262   1.657  1.00  0.00    -0.340 OA
HETATM    4  C6  UNL     1      -2.122  -1.066   0.599  1.00  0.00     0.292 C 
HETATM    5  O2  UNL     1      -3.434  -0.948   1.026  1.00  0.00    -0.356 OA
HETATM    6  C7  UNL     1      -3.986   0.289   0.761  1.00  0.00     0.202 C 
HETATM    7  C8  UNL     1      -3.803   0.745  -0.657  1.00  0.00     0.142 C 
HETATM    8  C9  UNL     1      -4.765   0.125  -1.620  1.00  0.00     0.042 C 
HETATM    9  O3  UNL     1      -2.508   0.576  -1.123  1.00  0.00    -0.372 OA
HETATM   10  C10 UNL     1      -1.638   0.157  -0.134  1.00  0.00     0.195 C 
HETATM   11  C11 UNL     1      -0.335  -0.250  -0.844  1.00  0.00     0.164 C 
ENDROOT
BRANCH   1  12
HETATM   12  C4  UNL     1       1.908  -0.386   0.172  1.00  0.00     0.171 C 
HETATM   13  S1  UNL     1       2.821  -1.037   1.386  1.00  0.00    -0.041 SA
BRANCH  12  14
HETATM   14  N1  UNL     1       2.501   0.484  -0.771  1.00  0.00    -0.363 N 
ATOM     15  H1  UNL     1       1.924   0.878  -1.515  1.00  0.00     0.162 HD
BRANCH  14  16
HETATM   16  C2  UNL     1       3.916   0.834  -0.709  1.00  0.00     0.075 C 
HETATM   17  C1  UNL     1       4.804  -0.361  -0.817  1.00  0.00     0.032 C 
HETATM   18  C3  UNL     1       4.250   1.576   0.559  1.00  0.00     0.032 C 
ENDBRANCH  14  16
ENDBRANCH  12  14
ENDBRANCH   1  12
TORSDOF 3
