REMARK  10 active torsions:
REMARK  status: ('A' for Active; 'I' for Inactive)
REMARK    1  A    between atoms: C2_2  and  O1_3 
REMARK    2  A    between atoms: O1_3  and  N1_4 
REMARK       I    between atoms: N1_4  and  C3_6 
REMARK       I    between atoms: C3_6  and  N8_25 
REMARK    3  A    between atoms: N2_7  and  C4_9 
REMARK    4  A    between atoms: C4_9  and  C5_10 
REMARK    5  A    between atoms: C5_10  and  C6_11 
REMARK    6  A    between atoms: C6_11  and  C7_12 
REMARK    7  A    between atoms: C8_19  and  C9_20 
REMARK    8  A    between atoms: N8_25  and  N9_27 
REMARK    9  A    between atoms: N9_27  and  O2_28 
REMARK   10  A    between atoms: N9_27  and  O3_30 
ROOT
HETATM    1  C4  UNL     1      -0.182   0.494   0.836  1.00  0.00     0.138 C 
ENDROOT
BRANCH   1   2
HETATM    2  N2  UNL     1       0.745   0.618  -0.268  1.00  0.00    -0.223 N 
HETATM    3  C3  UNL     1       1.720  -0.194  -0.473  1.00  0.00     0.712 C 
HETATM    4  N1  UNL     1       2.598  -0.027  -1.568  1.00  0.00    -0.091 N 
HETATM    5  N8  UNL     1       1.887  -1.282   0.449  1.00  0.00    -0.102 N 
ATOM      6  H1  UNL     1       2.382  -0.452  -2.470  1.00  0.00     0.213 HD
ATOM      7  H8  UNL     1       1.141  -1.955   0.627  1.00  0.00     0.204 HD
ATOM      8  H2  UNL     1       0.618   1.392  -0.919  1.00  0.00     0.177 HD
BRANCH   4   9
HETATM    9  O1  UNL     1       3.740   0.709  -1.408  1.00  0.00    -0.237 OA
BRANCH   9  10
HETATM   10  C2  UNL     1       3.632   2.036  -1.026  1.00  0.00     0.158 C 
HETATM   11  C1  UNL     1       4.738   2.726  -0.784  1.00  0.00     0.039 C 
ENDBRANCH   9  10
ENDBRANCH   4   9
BRANCH   5  12
HETATM   12  N9  UNL     1       3.132  -1.370   1.093  1.00  0.00     0.049 NA
BRANCH  12  13
HETATM   13  O2  UNL     1       3.072  -0.588   2.196  1.00  0.00    -0.270 OA
ATOM     14  H2  UNL     1       3.914  -0.648   2.632  1.00  0.00     0.241 HD
ENDBRANCH  12  13
BRANCH  12  15
HETATM   15  O3  UNL     1       3.372  -2.653   1.400  1.00  0.00    -0.265 OA
HETATM   16  C10 UNL     1       4.528  -3.127   0.755  1.00  0.00     0.234 C 
ENDBRANCH  12  15
ENDBRANCH   5  12
ENDBRANCH   1   2
BRANCH   1  17
HETATM   17  C5  UNL     1      -1.478  -0.209   0.426  1.00  0.00     0.026 C 
BRANCH  17  18
HETATM   18  C6  UNL     1      -2.109   0.599  -0.655  1.00  0.00     0.063 C 
BRANCH  18  19
HETATM   19  C7  UNL     1      -3.378   0.090  -1.172  1.00  0.00     0.058 A 
HETATM   20  N3  UNL     1      -3.511  -0.651  -2.282  1.00  0.00    -0.288 N 
HETATM   21  N4  UNL     1      -4.759  -0.976  -2.456  1.00  0.00    -0.242 N 
ATOM     22  H3  UNL     1      -2.745  -0.921  -2.900  1.00  0.00     0.188 HD
HETATM   23  N5  UNL     1      -5.444  -0.460  -1.476  1.00  0.00    -0.281 N 
ATOM     24  H4  UNL     1      -5.134  -1.535  -3.223  1.00  0.00     0.208 HD
HETATM   25  C8  UNL     1      -4.625   0.229  -0.629  1.00  0.00     0.114 A 
ATOM     26  H5  UNL     1      -6.452  -0.557  -1.358  1.00  0.00     0.188 HD
BRANCH  25  27
HETATM   27  C9  UNL     1      -5.076   0.929   0.546  1.00  0.00     0.140 C 
HETATM   28  N6  UNL     1      -6.335   0.918   0.849  1.00  0.00    -0.386 N 
ATOM     29  H62 UNL     1      -6.931   0.385   0.215  1.00  0.00     0.157 HD
ATOM     30  H61 UNL     1      -6.654   1.414   1.681  1.00  0.00     0.157 HD
HETATM   31  N7  UNL     1      -4.247   1.671   1.428  1.00  0.00    -0.081 NA
ENDBRANCH  25  27
ENDBRANCH  18  19
ENDBRANCH  17  18
ENDBRANCH   1  17
TORSDOF 10
